data_image0
_chemical_formula_structural       H48C96S12N12SnCSn2CSnTe4Mg2SnCSn2CSnTe4Mg2SnCSn2CSnTe4Mg2SnCSn2CSnTe4Mg2SnCSn2CSnTe4Mg2SnCSn2CSnTe4Mg2SnCSn2CSnTe4Mg2SnCSn2CSnTe4Mg2SnCSn2CSnTe4Mg2SnCSn2CSnTe4Mg2SnCSn2CSnTe4Mg2SnCSn2CSnTe4Mg2
_chemical_formula_sum              "H48 C120 S12 N12 Sn48 Te48 Mg24"
_cell_length_a       44.4443
_cell_length_b       44.5238
_cell_length_c       8.01484
_cell_angle_alpha    71.3502
_cell_angle_beta     86.4369
_cell_angle_gamma    120.122

_symmetry_space_group_name_H-M    'P1'
_space_group_IT_number       1

loop_
  _space_group_symop_operation_xyz
  'x, y, z'

loop_
  _atom_site_type_symbol
  _atom_site_label
  _atom_site_symmetry_multiplicity
  _atom_site_fract_x
  _atom_site_fract_y
  _atom_site_fract_z
  _atom_site_occupancy
  H   H1        1.0  0.69743  0.39768  0.23596  1.0000
  H   H2        1.0  0.60322  0.29866  0.23232  1.0000
  H   H3        1.0  0.70245  0.30454  0.22903  1.0000
  H   H4        1.0  0.30676  0.60231  0.25121  1.0000
  H   H5        1.0  0.39913  0.70201  0.25292  1.0000
  H   H6        1.0  0.29900  0.69458  0.25615  1.0000
  H   H7        1.0  0.86377  0.40003  0.22405  1.0000
  H   H8        1.0  0.59817  0.46057  0.30739  1.0000
  H   H9        1.0  0.53162  0.13542  0.27125  1.0000
  H   H10       1.0  0.13166  0.59132  0.32758  1.0000
  H   H11       1.0  0.40145  0.54033  0.19883  1.0000
  H   H12       1.0  0.46639  0.86602  0.23605  1.0000
  H   H13       1.0  0.92919  0.41505  0.20682  1.0000
  H   H14       1.0  0.58364  0.51008  0.31248  1.0000
  H   H15       1.0  0.47975  0.06961  0.27289  1.0000
  H   H16       1.0  0.06808  0.57716  0.33342  1.0000
  H   H17       1.0  0.41680  0.49076  0.17875  1.0000
  H   H18       1.0  0.51434  0.92850  0.25829  1.0000
  H   H19       1.0  0.99581  0.54697  0.33100  1.0000
  H   H20       1.0  0.44809  0.44931  0.18245  1.0000
  H   H21       1.0  0.55377  0.99958  0.27315  1.0000
  H   H22       1.0  0.00222  0.44630  0.20026  1.0000
  H   H23       1.0  0.55303  0.55209  0.30099  1.0000
  H   H24       1.0  0.43941  0.99760  0.26111  1.0000
  H   H25       1.0  0.69701  0.39888  0.72968  1.0000
  H   H26       1.0  0.60334  0.29825  0.73514  1.0000
  H   H27       1.0  0.70373  0.30634  0.73000  1.0000
  H   H28       1.0  0.30560  0.60140  0.75453  1.0000
  H   H29       1.0  0.39846  0.70141  0.75239  1.0000
  H   H30       1.0  0.29871  0.69463  0.74979  1.0000
  H   H31       1.0  0.86301  0.40334  0.73147  1.0000
  H   H32       1.0  0.59901  0.46176  0.79781  1.0000
  H   H33       1.0  0.53562  0.13585  0.76056  1.0000
  H   H34       1.0  0.13395  0.59718  0.79695  1.0000
  H   H35       1.0  0.39909  0.53807  0.70317  1.0000
  H   H36       1.0  0.46617  0.86500  0.73672  1.0000
  H   H37       1.0  0.92765  0.41694  0.72325  1.0000
  H   H38       1.0  0.58406  0.51162  0.79902  1.0000
  H   H39       1.0  0.48449  0.07115  0.76335  1.0000
  H   H40       1.0  0.06940  0.58198  0.81877  1.0000
  H   H41       1.0  0.41470  0.48771  0.68570  1.0000
  H   H42       1.0  0.51479  0.92662  0.76200  1.0000
  H   H43       1.0  0.99649  0.55138  0.82427  1.0000
  H   H44       1.0  0.44660  0.44686  0.69191  1.0000
  H   H45       1.0  0.55566  0.99789  0.77867  1.0000
  H   H46       1.0  0.00017  0.44687  0.72257  1.0000
  H   H47       1.0  0.55257  0.55305  0.78614  1.0000
  H   H48       1.0  0.44326  0.99951  0.75428  1.0000
  C   C1        1.0  0.70423  0.35368  0.23034  1.0000
  C   C2        1.0  0.64755  0.35079  0.23136  1.0000
  C   C3        1.0  0.65070  0.29732  0.23039  1.0000
  C   C4        1.0  0.29773  0.64574  0.25279  1.0000
  C   C5        1.0  0.35492  0.65018  0.25420  1.0000
  C   C6        1.0  0.35086  0.70287  0.25493  1.0000
  C   C7        1.0  0.68413  0.36991  0.23108  1.0000
  C   C8        1.0  0.63142  0.31435  0.23190  1.0000
  C   C9        1.0  0.68720  0.31745  0.22905  1.0000
  C   C10       1.0  0.31852  0.63012  0.25458  1.0000
  C   C11       1.0  0.37082  0.68647  0.25406  1.0000
  C   C12       1.0  0.31447  0.68198  0.25493  1.0000
  C   C13       1.0  0.87171  0.42548  0.25007  1.0000
  C   C14       1.0  0.57339  0.44532  0.26751  1.0000
  C   C15       1.0  0.55011  0.12583  0.27085  1.0000
  C   C16       1.0  0.12577  0.56791  0.28749  1.0000
  C   C17       1.0  0.42845  0.55697  0.21736  1.0000
  C   C18       1.0  0.44639  0.87362  0.24009  1.0000
  C   C19       1.0  0.90832  0.44698  0.25951  1.0000
  C   C20       1.0  0.55071  0.45965  0.26125  1.0000
  C   C21       1.0  0.53513  0.08842  0.27596  1.0000
  C   C22       1.0  0.08935  0.54577  0.27823  1.0000
  C   C23       1.0  0.45056  0.54189  0.22298  1.0000
  C   C24       1.0  0.45917  0.90954  0.24946  1.0000
  C   C25       1.0  0.96719  0.49569  0.28239  1.0000
  C   C26       1.0  0.50103  0.47035  0.23094  1.0000
  C   C27       1.0  0.52754  0.02939  0.27342  1.0000
  C   C28       1.0  0.03086  0.49753  0.24938  1.0000
  C   C29       1.0  0.50025  0.53131  0.25050  1.0000
  C   C30       1.0  0.46574  0.96786  0.25927  1.0000
  C   C31       1.0  0.96847  0.46652  0.24809  1.0000
  C   C32       1.0  0.53107  0.49948  0.26453  1.0000
  C   C33       1.0  0.49514  0.02926  0.27031  1.0000
  C   C34       1.0  0.02939  0.52644  0.28563  1.0000
  C   C35       1.0  0.46997  0.50191  0.21951  1.0000
  C   C36       1.0  0.49814  0.96803  0.26334  1.0000
  C   C37       1.0  0.93434  0.43919  0.23589  1.0000
  C   C38       1.0  0.55871  0.49218  0.28342  1.0000
  C   C39       1.0  0.50045  0.06338  0.27340  1.0000
  C   C40       1.0  0.06314  0.55331  0.30225  1.0000
  C   C41       1.0  0.44209  0.50898  0.20418  1.0000
  C   C42       1.0  0.49337  0.93436  0.25760  1.0000
  C   C43       1.0  0.99711  0.52537  0.30155  1.0000
  C   C44       1.0  0.47065  0.47127  0.20908  1.0000
  C   C45       1.0  0.52918  0.99924  0.27059  1.0000
  C   C46       1.0  0.00089  0.46781  0.23048  1.0000
  C   C47       1.0  0.53049  0.53022  0.27389  1.0000
  C   C48       1.0  0.46399  0.99791  0.26369  1.0000
  C   C49       1.0  0.70450  0.35513  0.72874  1.0000
  C   C50       1.0  0.64728  0.35097  0.73117  1.0000
  C   C51       1.0  0.65151  0.29803  0.73111  1.0000
  C   C52       1.0  0.29717  0.64538  0.75187  1.0000
  C   C53       1.0  0.35424  0.64964  0.75318  1.0000
  C   C54       1.0  0.35043  0.70267  0.75182  1.0000
  C   C55       1.0  0.68394  0.37085  0.72820  1.0000
  C   C56       1.0  0.63160  0.31443  0.73328  1.0000
  C   C57       1.0  0.68801  0.31877  0.72948  1.0000
  C   C58       1.0  0.31773  0.62951  0.75481  1.0000
  C   C59       1.0  0.37021  0.68602  0.75225  1.0000
  C   C60       1.0  0.31409  0.68187  0.75115  1.0000
  C   C61       1.0  0.87137  0.42939  0.75230  1.0000
  C   C62       1.0  0.57361  0.44583  0.76404  1.0000
  C   C63       1.0  0.55437  0.12650  0.76518  1.0000
  C   C64       1.0  0.12628  0.57118  0.77715  1.0000
  C   C65       1.0  0.42644  0.55502  0.71726  1.0000
  C   C66       1.0  0.44659  0.87318  0.73938  1.0000
  C   C67       1.0  0.90779  0.45043  0.76502  1.0000
  C   C68       1.0  0.55077  0.45996  0.75848  1.0000
  C   C69       1.0  0.53952  0.08895  0.77192  1.0000
  C   C70       1.0  0.08934  0.54872  0.77572  1.0000
  C   C71       1.0  0.44861  0.54001  0.72126  1.0000
  C   C72       1.0  0.46010  0.90924  0.74902  1.0000
  C   C73       1.0  0.96690  0.49889  0.78705  1.0000
  C   C74       1.0  0.50029  0.46944  0.73218  1.0000
  C   C75       1.0  0.53057  0.02889  0.77483  1.0000
  C   C76       1.0  0.02985  0.49935  0.76060  1.0000
  C   C77       1.0  0.49904  0.53053  0.74470  1.0000
  C   C78       1.0  0.46823  0.96826  0.75829  1.0000
  C   C79       1.0  0.96745  0.46876  0.76010  1.0000
  C   C80       1.0  0.53068  0.49958  0.75858  1.0000
  C   C81       1.0  0.49870  0.02971  0.76867  1.0000
  C   C82       1.0  0.02927  0.52950  0.78751  1.0000
  C   C83       1.0  0.46849  0.50028  0.72009  1.0000
  C   C84       1.0  0.50008  0.96739  0.76509  1.0000
  C   C85       1.0  0.93324  0.44163  0.74806  1.0000
  C   C86       1.0  0.55878  0.49295  0.77527  1.0000
  C   C87       1.0  0.50478  0.06430  0.76842  1.0000
  C   C88       1.0  0.06362  0.55705  0.79602  1.0000
  C   C89       1.0  0.44019  0.50674  0.70663  1.0000
  C   C90       1.0  0.49442  0.93335  0.75934  1.0000
  C   C91       1.0  0.99726  0.52897  0.80127  1.0000
  C   C92       1.0  0.46943  0.46954  0.71329  1.0000
  C   C93       1.0  0.53142  0.99817  0.77391  1.0000
  C   C94       1.0  0.99945  0.46924  0.74667  1.0000
  C   C95       1.0  0.52983  0.53039  0.76436  1.0000
  C   C96       1.0  0.46730  0.99887  0.76059  1.0000
  S   S1        1.0  0.92455  0.48858  0.29525  1.0000
  S   S2        1.0  0.50846  0.43598  0.21962  1.0000
  S   S3        1.0  0.56285  0.07119  0.27623  1.0000
  S   S4        1.0  0.07372  0.50500  0.23549  1.0000
  S   S5        1.0  0.49336  0.56620  0.25786  1.0000
  S   S6        1.0  0.43100  0.92629  0.25063  1.0000
  S   S7        1.0  0.92464  0.49262  0.79549  1.0000
  S   S8        1.0  0.50790  0.43496  0.72542  1.0000
  S   S9        1.0  0.56640  0.07059  0.77677  1.0000
  S   S10       1.0  0.07239  0.50614  0.74865  1.0000
  S   S11       1.0  0.49181  0.56526  0.75011  1.0000
  S   S12       1.0  0.43294  0.92719  0.74828  1.0000
  N   N1        1.0  0.85016  0.43664  0.26366  1.0000
  N   N2        1.0  0.56449  0.41639  0.22744  1.0000
  N   N3        1.0  0.58405  0.14713  0.26036  1.0000
  N   N4        1.0  0.14933  0.56021  0.25145  1.0000
  N   N5        1.0  0.44056  0.58908  0.23027  1.0000
  N   N6        1.0  0.41361  0.85233  0.23352  1.0000
  N   N7        1.0  0.85021  0.44125  0.75840  1.0000
  N   N8        1.0  0.56410  0.41623  0.72906  1.0000
  N   N9        1.0  0.58803  0.14815  0.75837  1.0000
  N   N10       1.0  0.14846  0.56102  0.75512  1.0000
  N   N11       1.0  0.43893  0.58741  0.72781  1.0000
  N   N12       1.0  0.41380  0.85231  0.73137  1.0000
  C  Sn1       1.0  0.78928  0.43325  0.19083  1.0000
  C   C97       1.0  0.80762  0.41857  0.28463  1.0000
  C  Sn2       1.0  0.79427  0.37997  0.34356  1.0000
  C  Sn3       1.0  0.76193  0.35554  0.30789  1.0000
  C   C98       1.0  0.74362  0.37022  0.21411  1.0000
  C  Sn4       1.0  0.75694  0.40882  0.15516  1.0000
  O  Te1       1.0  0.80312  0.47193  0.13318  1.0000
  O  Te2       1.0  0.81307  0.36595  0.43714  1.0000
  O  Te3       1.0  0.74810  0.31683  0.36564  1.0000
  O  Te4       1.0  0.73816  0.42284  0.06160  1.0000
  Mg  Mg1       1.0  0.78342  0.31120  0.48794  1.0000
  Mg  Mg2       1.0  0.76779  0.47759  0.01066  1.0000
  C  Sn5       1.0  0.57027  0.35714  0.25079  1.0000
  C   C99       1.0  0.58024  0.39003  0.27794  1.0000
  C  Sn6       1.0  0.61619  0.41560  0.26725  1.0000
  C  Sn7       1.0  0.64274  0.40815  0.22848  1.0000
  C   C100      1.0  0.63276  0.37528  0.20132  1.0000
  C  Sn8       1.0  0.59681  0.34969  0.21202  1.0000
  O  Te5       1.0  0.53417  0.33198  0.26211  1.0000
  O  Te6       1.0  0.62551  0.44829  0.29497  1.0000
  O  Te7       1.0  0.67886  0.43335  0.21718  1.0000
  O  Te8       1.0  0.58749  0.31702  0.18429  1.0000
  Mg  Mg3       1.0  0.67821  0.47396  0.26537  1.0000
  Mg  Mg4       1.0  0.53480  0.29134  0.21376  1.0000
  C  Sn9       1.0  0.64781  0.24325  0.10267  1.0000
  C   C101      1.0  0.63303  0.25855  0.18030  1.0000
  C  Sn10      1.0  0.60045  0.23469  0.31806  1.0000
  C  Sn11      1.0  0.58228  0.19470  0.37959  1.0000
  C   C102      1.0  0.59706  0.17942  0.30200  1.0000
  C  Sn12      1.0  0.62964  0.20325  0.16420  1.0000
  O  Te9       1.0  0.62675  0.18319  0.96513  1.0000
  O  Te10      1.0  0.58619  0.25066  0.39355  1.0000
  O  Te11      1.0  0.54965  0.17031  0.51724  1.0000
  O  Te12      1.0  0.64390  0.18731  0.08875  1.0000
  Mg  Mg5       1.0  0.54108  0.20565  0.57750  1.0000
  Mg  Mg6       1.0  0.63535  0.14785  0.90486  1.0000
  C  Sn13      1.0  0.21018  0.62839  0.24038  1.0000
  C   C103      1.0  0.19104  0.59570  0.20657  1.0000
  C  Sn14      1.0  0.20522  0.57386  0.20818  1.0000
  C  Sn15      1.0  0.23923  0.58490  0.24444  1.0000
  C   C104      1.0  0.25835  0.61756  0.27825  1.0000
  C  Sn16      1.0  0.24419  0.63943  0.27664  1.0000
  O  Te13      1.0  0.19548  0.64979  0.23810  1.0000
  O  Te14      1.0  0.18559  0.54131  0.17393  1.0000
  O  Te15      1.0  0.25392  0.56346  0.24669  1.0000
  O  Te16      1.0  0.26380  0.67196  0.31089  1.0000
  Mg  Mg7       1.0  0.21693  0.52147  0.19209  1.0000
  Mg  Mg8       1.0  0.23248  0.69180  0.29286  1.0000
  C  Sn17      1.0  0.36911  0.59285  0.40808  1.0000
  C   C105      1.0  0.37853  0.62970  0.30427  1.0000
  C  Sn18      1.0  0.40772  0.65334  0.14743  1.0000
  C  Sn19      1.0  0.42789  0.63986  0.09314  1.0000
  C   C106      1.0  0.41846  0.60304  0.19690  1.0000
  C  Sn20      1.0  0.38928  0.57938  0.35379  1.0000
  O  Te17      1.0  0.33983  0.56971  0.56436  1.0000
  O  Te18      1.0  0.41663  0.69007  0.04590  1.0000
  O  Te19      1.0  0.40353  0.57859  0.93672  1.0000
  O  Te20      1.0  0.38036  0.54266  0.45527  1.0000
  Mg  Mg9       1.0  0.40513  0.62640  0.84355  1.0000
  Mg  Mg10      1.0  0.33820  0.52186  0.65758  1.0000
  C  Sn21      1.0  0.35827  0.78857  0.21558  1.0000
  C   C107      1.0  0.38824  0.80821  0.27583  1.0000
  C  Sn22      1.0  0.41140  0.79580  0.31076  1.0000
  C  Sn23      1.0  0.40448  0.76309  0.28482  1.0000
  C   C108      1.0  0.37454  0.74347  0.22458  1.0000
  C  Sn24      1.0  0.35135  0.75585  0.18964  1.0000
  O  Te21      1.0  0.33547  0.80148  0.18150  1.0000
  O  Te22      1.0  0.44118  0.81591  0.37095  1.0000
  O  Te23      1.0  0.42731  0.75018  0.31896  1.0000
  O  Te24      1.0  0.32159  0.73577  0.12946  1.0000
  Mg  Mg11      1.0  0.46437  0.78716  0.39887  1.0000
  Mg  Mg12      1.0  0.29840  0.76450  0.10140  1.0000
  C  Sn25      1.0  0.76100  0.36179  0.89270  1.0000
  C   C109      1.0  0.74285  0.37529  0.78891  1.0000
  C  Sn26      1.0  0.76207  0.41165  0.64778  1.0000
  C  Sn27      1.0  0.80021  0.43502  0.60951  1.0000
  C   C110      1.0  0.81833  0.42152  0.71324  1.0000
  C  Sn28      1.0  0.79914  0.38516  0.85442  1.0000
  O  Te25      1.0  0.79491  0.40979  0.03312  1.0000
  O  Te26      1.0  0.74333  0.42452  0.54594  1.0000
  O  Te27      1.0  0.81996  0.47150  0.46895  1.0000
  O  Te28      1.0  0.81786  0.37229  0.95621  1.0000
  Mg  Mg13      1.0  0.78224  0.47626  0.36859  1.0000
  Mg  Mg14      1.0  0.83264  0.40499  0.13351  1.0000
  C  Sn29      1.0  0.59014  0.36021  0.64560  1.0000
  C   C111      1.0  0.62403  0.37166  0.67728  1.0000
  C  Sn30      1.0  0.63919  0.39773  0.75698  1.0000
  C  Sn31      1.0  0.62006  0.41264  0.80616  1.0000
  C   C112      1.0  0.58618  0.40119  0.77451  1.0000
  C  Sn32      1.0  0.57101  0.37513  0.69478  1.0000
  O  Te29      1.0  0.57551  0.33413  0.56576  1.0000
  O  Te30      1.0  0.67311  0.40875  0.78725  1.0000
  O  Te31      1.0  0.63472  0.43875  0.88605  1.0000
  O  Te32      1.0  0.53710  0.36410  0.66454  1.0000
  Mg  Mg15      1.0  0.68172  0.44500  0.89981  1.0000
  Mg  Mg16      1.0  0.52846  0.32783  0.55208  1.0000
  C  Sn33      1.0  0.64720  0.21784  0.69964  1.0000
  C   C113      1.0  0.61136  0.18715  0.78447  1.0000
  C  Sn34      1.0  0.58481  0.19306  0.83566  1.0000
  C  Sn35      1.0  0.59426  0.23043  0.80123  1.0000
  C   C114      1.0  0.63007  0.26109  0.71642  1.0000
  C  Sn36      1.0  0.65665  0.25521  0.66521  1.0000
  O  Te33      1.0  0.67330  0.21126  0.64962  1.0000
  O  Te34      1.0  0.54917  0.16192  0.92034  1.0000
  O  Te35      1.0  0.56812  0.23698  0.85133  1.0000
  O  Te36      1.0  0.69227  0.28632  0.58055  1.0000
  Mg  Mg17      1.0  0.52327  0.18540  0.96292  1.0000
  Mg  Mg18      1.0  0.71818  0.26288  0.53783  1.0000
  C  Sn37      1.0  0.20920  0.62772  0.75454  1.0000
  C   C115      1.0  0.19020  0.59615  0.71225  1.0000
  C  Sn38      1.0  0.20483  0.57526  0.70073  1.0000
  C  Sn39      1.0  0.23917  0.58614  0.73224  1.0000
  C   C116      1.0  0.25815  0.61769  0.77453  1.0000
  C  Sn40      1.0  0.24354  0.63860  0.78606  1.0000
  O  Te37      1.0  0.19405  0.64819  0.76535  1.0000
  O  Te38      1.0  0.18533  0.54381  0.65818  1.0000
  O  Te39      1.0  0.25431  0.56564  0.72139  1.0000
  O  Te40      1.0  0.26302  0.67003  0.82860  1.0000
  Mg  Mg19      1.0  0.21733  0.52498  0.65931  1.0000
  Mg  Mg20      1.0  0.23104  0.68887  0.82760  1.0000
  C  Sn41      1.0  0.36702  0.59097  0.90326  1.0000
  C   C117      1.0  0.37729  0.62837  0.80560  1.0000
  C  Sn42      1.0  0.40747  0.65283  0.65362  1.0000
  C  Sn43      1.0  0.42780  0.63962  0.59801  1.0000
  C   C118      1.0  0.41753  0.60224  0.69562  1.0000
  C  Sn44      1.0  0.38735  0.57777  0.84765  1.0000
  O  Te41      1.0  0.39041  0.65146  0.05477  1.0000
  O  Te42      1.0  0.41721  0.69010  0.55819  1.0000
  O  Te43      1.0  0.45809  0.66362  0.44637  1.0000
  O  Te44      1.0  0.37761  0.54051  0.94303  1.0000
  Mg  Mg21      1.0  0.46057  0.71192  0.36076  1.0000
  Mg  Mg22      1.0  0.38791  0.60311  0.14041  1.0000
  C  Sn45      1.0  0.41944  0.79015  0.76283  1.0000
  C   C119      1.0  0.40936  0.81593  0.69743  1.0000
  C  Sn46      1.0  0.37543  0.80375  0.66531  1.0000
  C  Sn47      1.0  0.35105  0.76499  0.69936  1.0000
  C   C120      1.0  0.36113  0.73924  0.76474  1.0000
  C  Sn48      1.0  0.39506  0.75139  0.79688  1.0000
  O  Te45      1.0  0.45349  0.80295  0.79398  1.0000
  O  Te46      1.0  0.36597  0.83005  0.59986  1.0000
  O  Te47      1.0  0.31697  0.75221  0.66814  1.0000
  O  Te48      1.0  0.40452  0.72511  0.86232  1.0000
  Mg  Mg23      1.0  0.31653  0.79885  0.57875  1.0000
  Mg  Mg24      1.0  0.45394  0.75628  0.88356  1.0000
