data_image0
_chemical_formula_structural       H96C168N12C2Sn2C2HTe2HMgC2Sn2C2HTe2HMgC2Sn2C2HTe2HMgC2Sn2C2HTe2HMgC2Sn2C2HTe2HMgC2Sn2C2HTe2HMg
_chemical_formula_sum              "H108 C192 N12 Sn12 Te12 Mg6"
_cell_length_a       44.7533
_cell_length_b       44.6338
_cell_length_c       8.01391
_cell_angle_alpha    72.6849
_cell_angle_beta     114.201
_cell_angle_gamma    120.346

_symmetry_space_group_name_H-M    'P1'
_space_group_IT_number       1

loop_
  _space_group_symop_operation_xyz
  'x, y, z'

loop_
  _atom_site_type_symbol
  _atom_site_label
  _atom_site_symmetry_multiplicity
  _atom_site_fract_x
  _atom_site_fract_y
  _atom_site_fract_z
  _atom_site_occupancy
  H   H1        1.0  0.75507  0.32801  0.41833  1.0000
  H   H2        1.0  0.68160  0.41515  0.35841  1.0000
  H   H3        1.0  0.57819  0.25580  0.23202  1.0000
  H   H4        1.0  0.81867  0.35311  0.41536  1.0000
  H   H5        1.0  0.65219  0.45098  0.34123  1.0000
  H   H6        1.0  0.54476  0.19185  0.23084  1.0000
  H   H7        1.0  0.80397  0.43774  0.01952  1.0000
  H   H8        1.0  0.55065  0.38007  0.00564  1.0000
  H   H9        1.0  0.63390  0.19095  0.15564  1.0000
  H   H10       1.0  0.74079  0.41308  0.02328  1.0000
  H   H11       1.0  0.58018  0.34527  0.01437  1.0000
  H   H12       1.0  0.66681  0.25395  0.15171  1.0000
  H   H13       1.0  0.13663  0.53461  0.17864  1.0000
  H   H14       1.0  0.46345  0.60101  0.20342  1.0000
  H   H15       1.0  0.39930  0.86119  0.20209  1.0000
  H   H16       1.0  0.86316  0.46180  0.21924  1.0000
  H   H17       1.0  0.53459  0.39768  0.18526  1.0000
  H   H18       1.0  0.59493  0.14142  0.08715  1.0000
  H   H19       1.0  0.09372  0.58513  0.21969  1.0000
  H   H20       1.0  0.41268  0.50222  0.23160  1.0000
  H   H21       1.0  0.49323  0.90932  0.14830  1.0000
  H   H22       1.0  0.90389  0.41179  0.15030  1.0000
  H   H23       1.0  0.58179  0.49614  0.14095  1.0000
  H   H24       1.0  0.50598  0.09296  0.19340  1.0000
  H   H25       1.0  0.07832  0.48665  0.14054  1.0000
  H   H26       1.0  0.50902  0.59485  0.17069  1.0000
  H   H27       1.0  0.40768  0.91724  0.22183  1.0000
  H   H28       1.0  0.92041  0.51022  0.23627  1.0000
  H   H29       1.0  0.48534  0.40335  0.19813  1.0000
  H   H30       1.0  0.58992  0.08546  0.10108  1.0000
  H   H31       1.0  0.04329  0.58974  0.25100  1.0000
  H   H32       1.0  0.40770  0.44370  0.23754  1.0000
  H   H33       1.0  0.54927  0.96320  0.11383  1.0000
  H   H34       1.0  0.95425  0.40729  0.11251  1.0000
  H   H35       1.0  0.58597  0.55468  0.12494  1.0000
  H   H36       1.0  0.44967  0.03919  0.22399  1.0000
  H   H37       1.0  0.01783  0.43439  0.11033  1.0000
  H   H38       1.0  0.55949  0.59073  0.13610  1.0000
  H   H39       1.0  0.41388  0.97502  0.23487  1.0000
  H   H40       1.0  0.97944  0.56258  0.25171  1.0000
  H   H41       1.0  0.43398  0.40749  0.22442  1.0000
  H   H42       1.0  0.58459  0.02748  0.09665  1.0000
  H   H43       1.0  0.30528  0.70350  0.18521  1.0000
  H   H44       1.0  0.29736  0.60316  0.18799  1.0000
  H   H45       1.0  0.39813  0.69556  0.20482  1.0000
  H   H46       1.0  0.69714  0.30124  0.21036  1.0000
  H   H47       1.0  0.70312  0.40016  0.20599  1.0000
  H   H48       1.0  0.60244  0.30751  0.18550  1.0000
  H   H49       1.0  0.26242  0.67289  0.77984  1.0000
  H   H50       1.0  0.33428  0.57705  0.81519  1.0000
  H   H51       1.0  0.58039  0.25379  0.74155  1.0000
  H   H52       1.0  0.19754  0.64446  0.76328  1.0000
  H   H53       1.0  0.36538  0.54346  0.82469  1.0000
  H   H54       1.0  0.54698  0.18999  0.74194  1.0000
  H   H55       1.0  0.18123  0.55457  0.58022  1.0000
  H   H56       1.0  0.44060  0.63515  0.58680  1.0000
  H   H57       1.0  0.63464  0.18923  0.64951  1.0000
  H   H58       1.0  0.24467  0.58296  0.58833  1.0000
  H   H59       1.0  0.40955  0.66832  0.57298  1.0000
  H   H60       1.0  0.66704  0.25241  0.63965  1.0000
  H   H61       1.0  0.13561  0.53177  0.66246  1.0000
  H   H62       1.0  0.47056  0.60623  0.69641  1.0000
  H   H63       1.0  0.39660  0.85882  0.70592  1.0000
  H   H64       1.0  0.86439  0.46417  0.71829  1.0000
  H   H65       1.0  0.53541  0.39782  0.67560  1.0000
  H   H66       1.0  0.59515  0.13898  0.58513  1.0000
  H   H67       1.0  0.09566  0.58366  0.71816  1.0000
  H   H68       1.0  0.41946  0.50812  0.72498  1.0000
  H   H69       1.0  0.49069  0.90627  0.65668  1.0000
  H   H70       1.0  0.90366  0.41301  0.64841  1.0000
  H   H71       1.0  0.58562  0.49608  0.63924  1.0000
  H   H72       1.0  0.50660  0.09196  0.69231  1.0000
  H   H73       1.0  0.07675  0.48437  0.62819  1.0000
  H   H74       1.0  0.51691  0.59909  0.66268  1.0000
  H   H75       1.0  0.40520  0.91612  0.72038  1.0000
  H   H76       1.0  0.92274  0.51228  0.73890  1.0000
  H   H77       1.0  0.48745  0.40516  0.69243  1.0000
  H   H78       1.0  0.58964  0.08204  0.60331  1.0000
  H   H79       1.0  0.04618  0.58965  0.75294  1.0000
  H   H80       1.0  0.41284  0.44885  0.73440  1.0000
  H   H81       1.0  0.54675  0.95914  0.62122  1.0000
  H   H82       1.0  0.95272  0.40721  0.60744  1.0000
  H   H83       1.0  0.59149  0.55536  0.62145  1.0000
  H   H84       1.0  0.44969  0.03889  0.72111  1.0000
  H   H85       1.0  0.01598  0.43320  0.60064  1.0000
  H   H86       1.0  0.56657  0.59310  0.63084  1.0000
  H   H87       1.0  0.41274  0.97474  0.73301  1.0000
  H   H88       1.0  0.98283  0.56391  0.75618  1.0000
  H   H89       1.0  0.43750  0.41120  0.72194  1.0000
  H   H90       1.0  0.58318  0.02350  0.60287  1.0000
  H   H91       1.0  0.30468  0.70020  0.68080  1.0000
  H   H92       1.0  0.29993  0.60108  0.68825  1.0000
  H   H93       1.0  0.39885  0.69559  0.69515  1.0000
  H   H94       1.0  0.69805  0.30017  0.70414  1.0000
  H   H95       1.0  0.70266  0.39840  0.70149  1.0000
  H   H96       1.0  0.60267  0.30507  0.68121  1.0000
  C   C1        1.0  0.74302  0.36855  0.21988  1.0000
  C   C2        1.0  0.63306  0.37697  0.19075  1.0000
  C   C3        1.0  0.62560  0.26075  0.19142  1.0000
  C   C4        1.0  0.76564  0.35196  0.32962  1.0000
  C   C5        1.0  0.65294  0.40746  0.27926  1.0000
  C   C6        1.0  0.59053  0.24214  0.21118  1.0000
  C   C7        1.0  0.80132  0.36596  0.32955  1.0000
  C   C8        1.0  0.63668  0.42769  0.27053  1.0000
  C   C9        1.0  0.57145  0.20604  0.21152  1.0000
  C   C10       1.0  0.81604  0.39762  0.22179  1.0000
  C   C11       1.0  0.59927  0.41774  0.17603  1.0000
  C   C12       1.0  0.58615  0.18653  0.19046  1.0000
  C   C13       1.0  0.79365  0.41442  0.11211  1.0000
  C   C14       1.0  0.57916  0.38729  0.08674  1.0000
  C   C15       1.0  0.62128  0.20487  0.17152  1.0000
  C   C16       1.0  0.75792  0.40017  0.11276  1.0000
  C   C17       1.0  0.59584  0.36759  0.09278  1.0000
  C   C18       1.0  0.64018  0.24092  0.17112  1.0000
  C   C19       1.0  0.12712  0.55321  0.17628  1.0000
  C   C20       1.0  0.44476  0.57292  0.20827  1.0000
  C   C21       1.0  0.42707  0.87149  0.19640  1.0000
  C   C22       1.0  0.87210  0.44351  0.21130  1.0000
  C   C23       1.0  0.55174  0.42612  0.17455  1.0000
  C   C24       1.0  0.57199  0.13091  0.14031  1.0000
  C   C25       1.0  0.08967  0.53767  0.17844  1.0000
  C   C26       1.0  0.45918  0.55059  0.20143  1.0000
  C   C27       1.0  0.44849  0.90944  0.18659  1.0000
  C   C28       1.0  0.90853  0.45921  0.19510  1.0000
  C   C29       1.0  0.53551  0.44773  0.17160  1.0000
  C   C30       1.0  0.55011  0.09307  0.14729  1.0000
  C   C31       1.0  0.07575  0.55771  0.20094  1.0000
  C   C32       1.0  0.43944  0.51404  0.21460  1.0000
  C   C33       1.0  0.48298  0.92562  0.16278  1.0000
  C   C34       1.0  0.92189  0.43929  0.16663  1.0000
  C   C35       1.0  0.55492  0.48431  0.15639  1.0000
  C   C36       1.0  0.51600  0.07679  0.17560  1.0000
  C   C37       1.0  0.03998  0.54259  0.20448  1.0000
  C   C38       1.0  0.45404  0.49319  0.20846  1.0000
  C   C39       1.0  0.50355  0.96194  0.15476  1.0000
  C   C40       1.0  0.95742  0.45441  0.15902  1.0000
  C   C41       1.0  0.54009  0.50507  0.16036  1.0000
  C   C42       1.0  0.49526  0.04049  0.18136  1.0000
  C   C43       1.0  0.01693  0.50635  0.18010  1.0000
  C   C44       1.0  0.48949  0.50942  0.18802  1.0000
  C   C45       1.0  0.48907  0.98278  0.17079  1.0000
  C   C46       1.0  0.98046  0.49071  0.18183  1.0000
  C   C47       1.0  0.50469  0.48872  0.18150  1.0000
  C   C48       1.0  0.50955  0.01968  0.16319  1.0000
  C   C49       1.0  0.03098  0.48588  0.15682  1.0000
  C   C50       1.0  0.50948  0.54668  0.17298  1.0000
  C   C51       1.0  0.45396  0.96639  0.19466  1.0000
  C   C52       1.0  0.96663  0.51117  0.20701  1.0000
  C   C53       1.0  0.48464  0.45146  0.19501  1.0000
  C   C54       1.0  0.54444  0.03613  0.13665  1.0000
  C   C55       1.0  0.06735  0.50196  0.15873  1.0000
  C   C56       1.0  0.49394  0.56646  0.18122  1.0000
  C   C57       1.0  0.43427  0.92990  0.20157  1.0000
  C   C58       1.0  0.93078  0.49496  0.21247  1.0000
  C   C59       1.0  0.50048  0.43173  0.18852  1.0000
  C   C60       1.0  0.56379  0.07264  0.12638  1.0000
  C   C61       1.0  0.02539  0.56237  0.23043  1.0000
  C   C62       1.0  0.43453  0.45581  0.22102  1.0000
  C   C63       1.0  0.53875  0.97917  0.12914  1.0000
  C   C64       1.0  0.97203  0.43470  0.13231  1.0000
  C   C65       1.0  0.55938  0.54249  0.14427  1.0000
  C   C66       1.0  0.46004  0.02326  0.20667  1.0000
  C   C67       1.0  0.00728  0.44970  0.13217  1.0000
  C   C68       1.0  0.54464  0.56237  0.14979  1.0000
  C   C69       1.0  0.44025  0.98781  0.21242  1.0000
  C   C70       1.0  0.99015  0.54741  0.23025  1.0000
  C   C71       1.0  0.44916  0.43584  0.21461  1.0000
  C   C72       1.0  0.55826  0.01469  0.11965  1.0000
  C   C73       1.0  0.29642  0.65091  0.18872  1.0000
  C   C74       1.0  0.34946  0.64660  0.19479  1.0000
  C   C75       1.0  0.35383  0.70357  0.19354  1.0000
  C   C76       1.0  0.70444  0.35225  0.21224  1.0000
  C   C77       1.0  0.65068  0.35604  0.19615  1.0000
  C   C78       1.0  0.64676  0.29908  0.19667  1.0000
  C   C79       1.0  0.31723  0.68734  0.18733  1.0000
  C   C80       1.0  0.31303  0.63125  0.19007  1.0000
  C   C81       1.0  0.36966  0.68297  0.19838  1.0000
  C   C82       1.0  0.68379  0.31604  0.20831  1.0000
  C   C83       1.0  0.68749  0.37200  0.20513  1.0000
  C   C84       1.0  0.63083  0.31972  0.19140  1.0000
  C   C85       1.0  0.25909  0.63040  0.68545  1.0000
  C   C86       1.0  0.36937  0.62545  0.69281  1.0000
  C   C87       1.0  0.62671  0.25894  0.68960  1.0000
  C   C88       1.0  0.24464  0.64728  0.73176  1.0000
  C   C89       1.0  0.35714  0.58981  0.76166  1.0000
  C   C90       1.0  0.59227  0.24018  0.71626  1.0000
  C   C91       1.0  0.20825  0.63145  0.72370  1.0000
  C   C92       1.0  0.37467  0.57088  0.76952  1.0000
  C   C93       1.0  0.57326  0.20407  0.71798  1.0000
  C   C94       1.0  0.18459  0.59750  0.67234  1.0000
  C   C95       1.0  0.40559  0.58682  0.71135  1.0000
  C   C96       1.0  0.58753  0.18458  0.69282  1.0000
  C   C97       1.0  0.19892  0.58028  0.62738  1.0000
  C   C98       1.0  0.41808  0.62252  0.64277  1.0000
  C   C99       1.0  0.62220  0.20306  0.66799  1.0000
  C   C100      1.0  0.23517  0.59641  0.63321  1.0000
  C   C101      1.0  0.40022  0.64121  0.63370  1.0000
  C   C102      1.0  0.64093  0.23921  0.66504  1.0000
  C   C103      1.0  0.12718  0.55065  0.66806  1.0000
  C   C104      1.0  0.45227  0.57802  0.70223  1.0000
  C   C105      1.0  0.42430  0.86935  0.69859  1.0000
  C   C106      1.0  0.87302  0.44567  0.70993  1.0000
  C   C107      1.0  0.55346  0.42610  0.66881  1.0000
  C   C108      1.0  0.57265  0.12872  0.64129  1.0000
  C   C109      1.0  0.08995  0.53574  0.67226  1.0000
  C   C110      1.0  0.46662  0.55566  0.69500  1.0000
  C   C111      1.0  0.44588  0.90728  0.68973  1.0000
  C   C112      1.0  0.90954  0.46090  0.69538  1.0000
  C   C113      1.0  0.53829  0.44855  0.66662  1.0000
  C   C114      1.0  0.55036  0.09087  0.64843  1.0000
  C   C115      1.0  0.07708  0.55634  0.69884  1.0000
  C   C116      1.0  0.44616  0.51918  0.70848  1.0000
  C   C117      1.0  0.48056  0.92291  0.66864  1.0000
  C   C118      1.0  0.92220  0.44038  0.66644  1.0000
  C   C119      1.0  0.55872  0.48501  0.65318  1.0000
  C   C120      1.0  0.51623  0.07525  0.67606  1.0000
  C   C121      1.0  0.04149  0.54200  0.70385  1.0000
  C   C122      1.0  0.45982  0.49757  0.70250  1.0000
  C   C123      1.0  0.50157  0.95916  0.66026  1.0000
  C   C124      1.0  0.95760  0.45480  0.65833  1.0000
  C   C125      1.0  0.54479  0.50667  0.65606  1.0000
  C   C126      1.0  0.49493  0.03897  0.68232  1.0000
  C   C127      1.0  0.01766  0.50587  0.67878  1.0000
  C   C128      1.0  0.49515  0.51289  0.68182  1.0000
  C   C129      1.0  0.48759  0.98060  0.67461  1.0000
  C   C130      1.0  0.98138  0.49097  0.68226  1.0000
  C   C131      1.0  0.50942  0.49131  0.67604  1.0000
  C   C132      1.0  0.50869  0.01749  0.66619  1.0000
  C   C133      1.0  0.03068  0.48483  0.65191  1.0000
  C   C134      1.0  0.51592  0.55008  0.66649  1.0000
  C   C135      1.0  0.45235  0.96476  0.69653  1.0000
  C   C136      1.0  0.96836  0.51202  0.70921  1.0000
  C   C137      1.0  0.48854  0.45411  0.69018  1.0000
  C   C138      1.0  0.54359  0.03329  0.64023  1.0000
  C   C139      1.0  0.06678  0.50019  0.65049  1.0000
  C   C140      1.0  0.50122  0.57075  0.67399  1.0000
  C   C141      1.0  0.43197  0.92826  0.70248  1.0000
  C   C142      1.0  0.93250  0.49654  0.71416  1.0000
  C   C143      1.0  0.50330  0.43348  0.68305  1.0000
  C   C144      1.0  0.56349  0.06983  0.62836  1.0000
  C   C145      1.0  0.02776  0.56238  0.73184  1.0000
  C   C146      1.0  0.43949  0.46024  0.71668  1.0000
  C   C147      1.0  0.53677  0.97569  0.63550  1.0000
  C   C148      1.0  0.97119  0.43448  0.62860  1.0000
  C   C149      1.0  0.56492  0.54401  0.63976  1.0000
  C   C150      1.0  0.45959  0.02234  0.70587  1.0000
  C   C151      1.0  0.00621  0.44881  0.62617  1.0000
  C   C152      1.0  0.55106  0.56479  0.64452  1.0000
  C   C153      1.0  0.43923  0.98691  0.71241  1.0000
  C   C154      1.0  0.99269  0.54812  0.73308  1.0000
  C   C155      1.0  0.45327  0.43948  0.71096  1.0000
  C   C156      1.0  0.55683  0.01117  0.62532  1.0000
  C   C157      1.0  0.29732  0.64814  0.68500  1.0000
  C   C158      1.0  0.35124  0.64574  0.68847  1.0000
  C   C159      1.0  0.35379  0.70182  0.68749  1.0000
  C   C160      1.0  0.70463  0.35101  0.70544  1.0000
  C   C161      1.0  0.65054  0.35389  0.69165  1.0000
  C   C162      1.0  0.64747  0.29735  0.69223  1.0000
  C   C163      1.0  0.31725  0.68466  0.68229  1.0000
  C   C164      1.0  0.31484  0.62929  0.68690  1.0000
  C   C165      1.0  0.37047  0.68215  0.69098  1.0000
  C   C166      1.0  0.68444  0.31472  0.70222  1.0000
  C   C167      1.0  0.68731  0.37025  0.69977  1.0000
  C   C168      1.0  0.63107  0.31759  0.68668  1.0000
  N   N1        1.0  0.14771  0.58650  0.17417  1.0000
  N   N2        1.0  0.41264  0.56080  0.22052  1.0000
  N   N3        1.0  0.44004  0.85103  0.20215  1.0000
  N   N4        1.0  0.85166  0.41021  0.22055  1.0000
  N   N5        1.0  0.58481  0.43939  0.17289  1.0000
  N   N6        1.0  0.56449  0.15027  0.19367  1.0000
  N   N7        1.0  0.14870  0.58369  0.67325  1.0000
  N   N8        1.0  0.42008  0.56516  0.71533  1.0000
  N   N9        1.0  0.43736  0.84918  0.70158  1.0000
  N   N10       1.0  0.85237  0.41242  0.71747  1.0000
  N   N11       1.0  0.58661  0.43855  0.67052  1.0000
  N   N12       1.0  0.56586  0.14827  0.69763  1.0000
  C   C169      1.0  0.42036  0.76356  0.33495  1.0000
  C   C170      1.0  0.38384  0.74473  0.23589  1.0000
  C  Sn1       1.0  0.36398  0.76221  0.10444  1.0000
  C  Sn2       1.0  0.38108  0.79923  0.07182  1.0000
  C   C171      1.0  0.41763  0.81782  0.17156  1.0000
  C   C172      1.0  0.43724  0.80007  0.30282  1.0000
  H   H97       1.0  0.43554  0.74982  0.43644  1.0000
  O  Te1       1.0  0.32752  0.74299  0.00674  1.0000
  O  Te2       1.0  0.42428  0.79553  0.94119  1.0000
  H   H98       1.0  0.46552  0.81465  0.37941  1.0000
  Mg  Mg1       1.0  0.37518  0.75773  0.84307  1.0000
  C   C173      1.0  0.42979  0.78159  0.83834  1.0000
  C   C174      1.0  0.42098  0.80819  0.72110  1.0000
  C  Sn3       1.0  0.38661  0.80001  0.58844  1.0000
  C  Sn4       1.0  0.36064  0.76452  0.57322  1.0000
  C   C175      1.0  0.36971  0.73811  0.69125  1.0000
  C   C176      1.0  0.40418  0.74658  0.82348  1.0000
  H   H99       1.0  0.45645  0.78815  0.94072  1.0000
  O  Te3       1.0  0.37826  0.82690  0.47237  1.0000
  O  Te4       1.0  0.32609  0.75561  0.44190  1.0000
  H   H100      1.0  0.41099  0.72598  0.91431  1.0000
  Mg  Mg2       1.0  0.32758  0.80157  0.31524  1.0000
  C   C177      1.0  0.57889  0.37844  0.56742  1.0000
  C   C178      1.0  0.59357  0.40705  0.66177  1.0000
  C  Sn5       1.0  0.63028  0.42100  0.76895  1.0000
  C  Sn6       1.0  0.65263  0.40600  0.78159  1.0000
  C   C179      1.0  0.63769  0.37740  0.68657  1.0000
  C   C180      1.0  0.60092  0.36363  0.57976  1.0000
  H   H101      1.0  0.55044  0.36780  0.48470  1.0000
  O  Te5       1.0  0.64451  0.44958  0.86237  1.0000
  O  Te6       1.0  0.68941  0.41944  0.88768  1.0000
  H   H102      1.0  0.58956  0.34150  0.50663  1.0000
  Mg  Mg3       1.0  0.69620  0.45859  0.98947  1.0000
  C   C181      1.0  0.77482  0.35100  0.83333  1.0000
  C   C182      1.0  0.74917  0.36444  0.74955  1.0000
  C  Sn7       1.0  0.75720  0.39613  0.63538  1.0000
  C  Sn8       1.0  0.79156  0.41463  0.60473  1.0000
  C   C183      1.0  0.81703  0.40094  0.68909  1.0000
  C   C184      1.0  0.80871  0.36922  0.80313  1.0000
  H   H103      1.0  0.76838  0.32645  0.92149  1.0000
  O  Te7       1.0  0.73126  0.40919  0.55280  1.0000
  O  Te8       1.0  0.80029  0.44634  0.49121  1.0000
  H   H104      1.0  0.82857  0.35881  0.86788  1.0000
  Mg  Mg4       1.0  0.75592  0.45345  0.40960  1.0000
  C   C185      1.0  0.21659  0.64181  0.24112  1.0000
  C   C186      1.0  0.18842  0.61047  0.17284  1.0000
  C  Sn9       1.0  0.19584  0.58892  0.11588  1.0000
  C  Sn10      1.0  0.23215  0.59899  0.12771  1.0000
  C   C187      1.0  0.26014  0.63037  0.19633  1.0000
  C   C188      1.0  0.25241  0.65175  0.25289  1.0000
  H   H105      1.0  0.21062  0.65834  0.28497  1.0000
  O  Te9       1.0  0.16737  0.55771  0.04795  1.0000
  O  Te10      1.0  0.24033  0.57793  0.07180  1.0000
  H   H106      1.0  0.27423  0.67600  0.30586  1.0000
  Mg  Mg5       1.0  0.25463  0.51603  0.98882  1.0000
  C   C189      1.0  0.35272  0.58055  0.27985  1.0000
  C   C190      1.0  0.36310  0.61629  0.22571  1.0000
  C  Sn11      1.0  0.39187  0.63641  0.15202  1.0000
  C  Sn12      1.0  0.41052  0.62038  0.13227  1.0000
  C   C191      1.0  0.39991  0.58461  0.18672  1.0000
  C   C192      1.0  0.37109  0.56472  0.26035  1.0000
  H   H107      1.0  0.33041  0.56516  0.33672  1.0000
  O  Te11      1.0  0.40190  0.67209  0.09870  1.0000
  O  Te12      1.0  0.43936  0.63988  0.05897  1.0000
  H   H108      1.0  0.36304  0.53704  0.30214  1.0000
  Mg  Mg6       1.0  0.44292  0.68762  0.00627  1.0000
