data_image0
_chemical_formula_structural       H96C120S12N12O12C2Sn2C2HTe2HMgC2Sn2C2HTe2HMgC2Sn2C2HTe2HMgC2Sn2C2HTe2HMgC2Sn2C2HTe2HMgC2Sn2C2HTe2HMgC2Sn2C2HTe2HMgC2Sn2C2HTe2HMgC2Sn2C2HTe2HMgC2Sn2C2HTe2HMgC2Sn2C2HTe2HMgC2Sn2C2HTe2HMg
_chemical_formula_sum              "H120 C168 S12 N12 O12 Sn24 Te24 Mg12"
_cell_length_a       44.5865
_cell_length_b       44.1824
_cell_length_c       8.03722
_cell_angle_alpha    87.7643
_cell_angle_beta     66.0697
_cell_angle_gamma    119.914

_symmetry_space_group_name_H-M    'P1'
_space_group_IT_number       1

loop_
  _space_group_symop_operation_xyz
  'x, y, z'

loop_
  _atom_site_type_symbol
  _atom_site_label
  _atom_site_symmetry_multiplicity
  _atom_site_fract_x
  _atom_site_fract_y
  _atom_site_fract_z
  _atom_site_occupancy
  H   H1        1.0  0.70804  0.40019  0.27342  1.0000
  H   H2        1.0  0.61822  0.30198  0.24193  1.0000
  H   H3        1.0  0.71328  0.30587  0.27656  1.0000
  H   H4        1.0  0.31571  0.60517  0.23278  1.0000
  H   H5        1.0  0.41104  0.70395  0.22112  1.0000
  H   H6        1.0  0.30859  0.69832  0.26783  1.0000
  H   H7        1.0  0.88193  0.40203  0.19309  1.0000
  H   H8        1.0  0.61123  0.46819  0.26021  1.0000
  H   H9        1.0  0.55419  0.14616  0.16242  1.0000
  H   H10       1.0  0.14034  0.60356  0.31764  1.0000
  H   H11       1.0  0.40588  0.53432  0.24641  1.0000
  H   H12       1.0  0.46777  0.86131  0.36472  1.0000
  H   H13       1.0  0.94654  0.41621  0.19504  1.0000
  H   H14       1.0  0.59403  0.51649  0.26904  1.0000
  H   H15       1.0  0.50158  0.08007  0.17869  1.0000
  H   H16       1.0  0.07295  0.58639  0.33064  1.0000
  H   H17       1.0  0.41814  0.48279  0.25657  1.0000
  H   H18       1.0  0.51888  0.92821  0.35410  1.0000
  H   H19       1.0  0.46757  0.04522  0.05064  1.0000
  H   H20       1.0  0.00474  0.42727  0.02450  1.0000
  H   H21       1.0  0.58213  0.58913  0.99592  1.0000
  H   H22       1.0  0.58902  0.00114  0.02218  1.0000
  H   H23       1.0  0.00617  0.57749  0.05735  1.0000
  H   H24       1.0  0.42797  0.44601  0.10482  1.0000
  H   H25       1.0  0.43960  0.03756  0.30042  1.0000
  H   H26       1.0  0.97871  0.39462  0.25284  1.0000
  H   H27       1.0  0.61338  0.57538  0.99740  1.0000
  H   H28       1.0  0.58990  0.97330  0.18313  1.0000
  H   H29       1.0  0.05139  0.59844  0.06711  1.0000
  H   H30       1.0  0.39376  0.42590  0.35583  1.0000
  H   H31       1.0  0.37778  0.98687  0.30971  1.0000
  H   H32       1.0  0.04115  0.39659  0.17184  1.0000
  H   H33       1.0  0.63922  0.62269  0.16058  1.0000
  H   H34       1.0  0.64653  0.03047  0.18636  1.0000
  H   H35       1.0  0.02900  0.62946  0.29580  1.0000
  H   H36       1.0  0.38411  0.36532  0.33339  1.0000
  H   H37       1.0  0.40538  0.99298  0.06380  1.0000
  H   H38       1.0  0.06550  0.42838  0.94426  1.0000
  H   H39       1.0  0.60810  0.63625  0.15523  1.0000
  H   H40       1.0  0.64634  0.05757  0.01832  1.0000
  H   H41       1.0  0.98304  0.60731  0.29579  1.0000
  H   H42       1.0  0.41868  0.38560  0.08350  1.0000
  H   H43       1.0  0.39923  0.02816  0.13661  1.0000
  H   H44       1.0  0.02471  0.38257  0.00352  1.0000
  H   H45       1.0  0.64782  0.64358  0.93776  1.0000
  H   H46       1.0  0.65936  0.02594  0.95271  1.0000
  H   H47       1.0  0.02792  0.64061  0.08417  1.0000
  H   H48       1.0  0.37267  0.38134  0.17595  1.0000
  H   H49       1.0  0.68208  0.39222  0.76658  1.0000
  H   H50       1.0  0.59042  0.29271  0.75270  1.0000
  H   H51       1.0  0.68718  0.29800  0.77575  1.0000
  H   H52       1.0  0.29180  0.59577  0.73775  1.0000
  H   H53       1.0  0.38401  0.69586  0.73438  1.0000
  H   H54       1.0  0.28110  0.68710  0.76714  1.0000
  H   H55       1.0  0.85421  0.39519  0.70323  1.0000
  H   H56       1.0  0.58379  0.45971  0.81428  1.0000
  H   H57       1.0  0.53278  0.13712  0.66132  1.0000
  H   H58       1.0  0.11586  0.58715  0.81216  1.0000
  H   H59       1.0  0.38985  0.53541  0.73595  1.0000
  H   H60       1.0  0.44299  0.85154  0.85973  1.0000
  H   H61       1.0  0.91564  0.40598  0.70822  1.0000
  H   H62       1.0  0.56993  0.51043  0.81197  1.0000
  H   H63       1.0  0.48322  0.07305  0.65389  1.0000
  H   H64       1.0  0.05253  0.57371  0.82009  1.0000
  H   H65       1.0  0.40229  0.48462  0.73388  1.0000
  H   H66       1.0  0.49355  0.91774  0.86122  1.0000
  H   H67       1.0  0.44581  0.03935  0.54985  1.0000
  H   H68       1.0  0.97400  0.41192  0.54334  1.0000
  H   H69       1.0  0.58653  0.57005  0.51951  1.0000
  H   H70       1.0  0.56321  0.97833  0.59412  1.0000
  H   H71       1.0  0.00983  0.58253  0.54573  1.0000
  H   H72       1.0  0.40236  0.44222  0.62166  1.0000
  H   H73       1.0  0.42035  0.02935  0.80329  1.0000
  H   H74       1.0  0.94103  0.38159  0.78261  1.0000
  H   H75       1.0  0.60194  0.57354  0.69512  1.0000
  H   H76       1.0  0.57214  0.96840  0.78028  1.0000
  H   H77       1.0  0.03459  0.59631  0.68313  1.0000
  H   H78       1.0  0.37715  0.42676  0.87658  1.0000
  H   H79       1.0  0.38134  0.98769  0.57407  1.0000
  H   H80       1.0  0.99323  0.37118  0.76003  1.0000
  H   H81       1.0  0.59918  0.62937  0.72522  1.0000
  H   H82       1.0  0.62072  0.03726  0.70479  1.0000
  H   H83       1.0  0.98453  0.60891  0.89666  1.0000
  H   H84       1.0  0.36453  0.36462  0.86952  1.0000
  H   H85       1.0  0.37692  0.02269  0.65901  1.0000
  H   H86       1.0  0.02523  0.40109  0.52084  1.0000
  H   H87       1.0  0.58660  0.62632  0.54050  1.0000
  H   H88       1.0  0.61318  0.04508  0.51065  1.0000
  H   H89       1.0  0.96139  0.59650  0.75283  1.0000
  H   H90       1.0  0.39154  0.38069  0.61524  1.0000
  H   H91       1.0  0.35654  0.98072  0.82392  1.0000
  H   H92       1.0  0.98024  0.35862  0.57970  1.0000
  H   H93       1.0  0.63413  0.63670  0.48971  1.0000
  H   H94       1.0  0.63610  0.02150  0.50695  1.0000
  H   H95       1.0  0.01076  0.63610  0.65476  1.0000
  H   H96       1.0  0.34537  0.37617  0.74117  1.0000
  C   C1        1.0  0.71500  0.35551  0.27507  1.0000
  C   C2        1.0  0.65979  0.35316  0.26214  1.0000
  C   C3        1.0  0.66322  0.29939  0.26282  1.0000
  C   C4        1.0  0.30757  0.64963  0.24786  1.0000
  C   C5        1.0  0.36560  0.65283  0.22467  1.0000
  C   C6        1.0  0.36171  0.70604  0.24852  1.0000
  C   C7        1.0  0.69520  0.37199  0.27090  1.0000
  C   C8        1.0  0.64461  0.31690  0.25656  1.0000
  C   C9        1.0  0.69816  0.31889  0.27447  1.0000
  C   C10       1.0  0.32833  0.63335  0.23544  1.0000
  C   C11       1.0  0.38220  0.68920  0.22862  1.0000
  C   C12       1.0  0.32469  0.68576  0.25575  1.0000
  C   C13       1.0  0.88889  0.42863  0.21611  1.0000
  C   C14       1.0  0.58400  0.44803  0.25762  1.0000
  C   C15       1.0  0.56992  0.13503  0.18549  1.0000
  C   C16       1.0  0.13303  0.57622  0.30694  1.0000
  C   C17       1.0  0.43381  0.55293  0.24689  1.0000
  C   C18       1.0  0.45289  0.87186  0.32717  1.0000
  C   C19       1.0  0.92459  0.45061  0.22715  1.0000
  C   C20       1.0  0.55988  0.46072  0.25895  1.0000
  C   C21       1.0  0.55363  0.09696  0.20227  1.0000
  C   C22       1.0  0.09707  0.55326  0.29950  1.0000
  C   C23       1.0  0.45492  0.53751  0.25965  1.0000
  C   C24       1.0  0.46714  0.90933  0.31832  1.0000
  C   C25       1.0  0.97964  0.50013  0.26092  1.0000
  C   C26       1.0  0.50683  0.46676  0.26706  1.0000
  C   C27       1.0  0.54011  0.03485  0.25639  1.0000
  C   C28       1.0  0.04308  0.50328  0.26039  1.0000
  C   C29       1.0  0.50461  0.52816  0.26912  1.0000
  C   C30       1.0  0.47794  0.97040  0.27395  1.0000
  C   C31       1.0  0.98341  0.46973  0.23502  1.0000
  C   C32       1.0  0.53813  0.49936  0.26880  1.0000
  C   C33       1.0  0.50947  0.03516  0.23620  1.0000
  C   C34       1.0  0.03881  0.53303  0.28665  1.0000
  C   C35       1.0  0.47265  0.49547  0.26656  1.0000
  C   C36       1.0  0.50791  0.97041  0.29865  1.0000
  C   C37       1.0  0.95097  0.44190  0.21633  1.0000
  C   C38       1.0  0.56797  0.49513  0.26507  1.0000
  C   C39       1.0  0.51896  0.07173  0.20259  1.0000
  C   C40       1.0  0.07031  0.56130  0.30784  1.0000
  C   C41       1.0  0.44463  0.50226  0.26263  1.0000
  C   C42       1.0  0.50046  0.93482  0.32809  1.0000
  C   C43       1.0  0.00642  0.53115  0.28618  1.0000
  C   C44       1.0  0.47422  0.46411  0.26616  1.0000
  C   C45       1.0  0.53995  0.00363  0.28547  1.0000
  C   C46       1.0  0.01639  0.47204  0.23316  1.0000
  C   C47       1.0  0.53676  0.53048  0.26981  1.0000
  C   C48       1.0  0.47773  0.00173  0.24531  1.0000
  C   C49       1.0  0.44162  0.02457  0.18606  1.0000
  C   C50       1.0  0.00818  0.41725  0.13806  1.0000
  C   C51       1.0  0.59722  0.58738  0.07162  1.0000
  C   C52       1.0  0.59656  0.00066  0.13615  1.0000
  C   C53       1.0  0.01979  0.58830  0.14729  1.0000
  C   C54       1.0  0.41549  0.42446  0.23269  1.0000
  C   C55       1.0  0.40378  0.00712  0.17315  1.0000
  C   C56       1.0  0.03658  0.40547  0.06007  1.0000
  C   C57       1.0  0.62466  0.62460  0.08245  1.0000
  C   C58       1.0  0.63974  0.03045  0.06954  1.0000
  C   C59       1.0  0.01464  0.61814  0.20980  1.0000
  C   C60       1.0  0.39664  0.38683  0.20523  1.0000
  C   C61       1.0  0.68964  0.34807  0.76490  1.0000
  C   C62       1.0  0.63319  0.34477  0.76144  1.0000
  C   C63       1.0  0.63649  0.29089  0.76690  1.0000
  C   C64       1.0  0.28207  0.63910  0.74957  1.0000
  C   C65       1.0  0.34070  0.64451  0.73116  1.0000
  C   C66       1.0  0.33466  0.69657  0.75162  1.0000
  C   C67       1.0  0.66929  0.36408  0.76375  1.0000
  C   C68       1.0  0.61750  0.30814  0.76136  1.0000
  C   C69       1.0  0.67237  0.31115  0.77022  1.0000
  C   C70       1.0  0.30388  0.62403  0.73825  1.0000
  C   C71       1.0  0.35571  0.68057  0.73677  1.0000
  C   C72       1.0  0.29791  0.67534  0.75679  1.0000
  C   C73       1.0  0.86233  0.42255  0.71704  1.0000
  C   C74       1.0  0.55964  0.44245  0.78405  1.0000
  C   C75       1.0  0.54723  0.12558  0.69555  1.0000
  C   C76       1.0  0.10886  0.56009  0.79724  1.0000
  C   C77       1.0  0.41706  0.55353  0.74349  1.0000
  C   C78       1.0  0.42800  0.86234  0.82561  1.0000
  C   C79       1.0  0.89807  0.44366  0.72885  1.0000
  C   C80       1.0  0.53785  0.45714  0.77448  1.0000
  C   C81       1.0  0.53206  0.08797  0.70273  1.0000
  C   C82       1.0  0.07286  0.53788  0.78984  1.0000
  C   C83       1.0  0.43783  0.53787  0.75579  1.0000
  C   C84       1.0  0.44303  0.90003  0.81600  1.0000
  C   C85       1.0  0.95531  0.49126  0.75719  1.0000
  C   C86       1.0  0.48917  0.46668  0.75191  1.0000
  C   C87       1.0  0.51791  0.02559  0.75291  1.0000
  C   C88       1.0  0.01663  0.48998  0.75517  1.0000
  C   C89       1.0  0.48627  0.52725  0.76834  1.0000
  C   C90       1.0  0.45657  0.96217  0.75778  1.0000
  C   C91       1.0  0.95598  0.45916  0.73857  1.0000
  C   C92       1.0  0.51889  0.49779  0.77177  1.0000
  C   C93       1.0  0.48926  0.02712  0.71786  1.0000
  C   C94       1.0  0.01495  0.52114  0.77948  1.0000
  C   C95       1.0  0.45518  0.49557  0.75537  1.0000
  C   C96       1.0  0.48522  0.96120  0.79138  1.0000
  C   C97       1.0  0.92236  0.43253  0.72390  1.0000
  C   C98       1.0  0.54592  0.49124  0.78787  1.0000
  C   C99       1.0  0.49924  0.06387  0.68586  1.0000
  C   C100      1.0  0.04740  0.54780  0.80009  1.0000
  C   C101      1.0  0.42790  0.50307  0.74864  1.0000
  C   C102      1.0  0.47621  0.92504  0.82846  1.0000
  C   C103      1.0  0.98323  0.52139  0.78263  1.0000
  C   C104      1.0  0.45716  0.46453  0.74726  1.0000
  C   C105      1.0  0.51648  0.99375  0.78915  1.0000
  C   C106      1.0  0.98744  0.45882  0.74067  1.0000
  C   C107      1.0  0.51751  0.52893  0.77667  1.0000
  C   C108      1.0  0.45744  0.99403  0.72507  1.0000
  C   C109      1.0  0.42069  0.01768  0.68472  1.0000
  C   C110      1.0  0.97239  0.40061  0.67277  1.0000
  C   C111      1.0  0.58564  0.57979  0.64394  1.0000
  C   C112      1.0  0.57238  0.98906  0.69807  1.0000
  C   C113      1.0  0.00591  0.58482  0.68756  1.0000
  C   C114      1.0  0.39475  0.42308  0.74644  1.0000
  C   C115      1.0  0.38151  0.00117  0.68582  1.0000
  C   C116      1.0  0.99408  0.38174  0.63119  1.0000
  C   C117      1.0  0.60242  0.62047  0.59707  1.0000
  C   C118      1.0  0.61296  0.02538  0.59938  1.0000
  C   C119      1.0  0.98968  0.60790  0.75203  1.0000
  C   C120      1.0  0.37270  0.38374  0.74318  1.0000
  S   S1        1.0  0.93767  0.49328  0.26194  1.0000
  S   S2        1.0  0.51505  0.43197  0.25954  1.0000
  S   S3        1.0  0.57755  0.07790  0.23802  1.0000
  S   S4        1.0  0.08495  0.51073  0.26364  1.0000
  S   S5        1.0  0.49899  0.56447  0.26626  1.0000
  S   S6        1.0  0.44282  0.92754  0.27844  1.0000
  S   S7        1.0  0.91485  0.48742  0.75367  1.0000
  S   S8        1.0  0.49642  0.43129  0.74473  1.0000
  S   S9        1.0  0.55369  0.06766  0.75263  1.0000
  S   S10       1.0  0.05817  0.49506  0.75368  1.0000
  S   S11       1.0  0.48083  0.56366  0.77213  1.0000
  S   S12       1.0  0.42037  0.91935  0.76693  1.0000
  N   N1        1.0  0.86683  0.44045  0.23076  1.0000
  N   N2        1.0  0.57390  0.41517  0.25203  1.0000
  N   N3        1.0  0.60184  0.15458  0.19853  1.0000
  N   N4        1.0  0.15568  0.56506  0.29166  1.0000
  N   N5        1.0  0.44803  0.58727  0.23025  1.0000
  N   N6        1.0  0.42456  0.85288  0.28794  1.0000
  N   N7        1.0  0.84144  0.43521  0.72073  1.0000
  N   N8        1.0  0.55054  0.41084  0.75808  1.0000
  N   N9        1.0  0.57649  0.14436  0.72861  1.0000
  N   N10       1.0  0.13179  0.54923  0.78118  1.0000
  N   N11       1.0  0.43028  0.58741  0.73627  1.0000
  N   N12       1.0  0.39917  0.84374  0.78852  1.0000
  O   O1        1.0  0.44568  0.99535  0.22988  1.0000
  O   O2        1.0  0.02519  0.44624  0.21637  1.0000
  O   O3        1.0  0.56730  0.56297  0.26604  1.0000
  O   O4        1.0  0.57122  0.00617  0.29775  1.0000
  O   O5        1.0  0.00019  0.55871  0.31838  1.0000
  O   O6        1.0  0.44702  0.43031  0.26793  1.0000
  O   O7        1.0  0.42582  0.98839  0.70716  1.0000
  O   O8        1.0  0.99205  0.43022  0.74150  1.0000
  O   O9        1.0  0.54445  0.56028  0.79603  1.0000
  O   O10       1.0  0.54319  0.99428  0.83616  1.0000
  O   O11       1.0  0.97676  0.54833  0.82471  1.0000
  O   O12       1.0  0.43078  0.43118  0.74037  1.0000
  C   C121      1.0  0.81004  0.43489  0.14746  1.0000
  C   C122      1.0  0.82607  0.42374  0.23319  1.0000
  C  Sn1       1.0  0.80582  0.38687  0.33226  1.0000
  C  Sn2       1.0  0.76883  0.36073  0.34545  1.0000
  C   C123      1.0  0.75306  0.37216  0.25906  1.0000
  C   C124      1.0  0.77357  0.40913  0.16033  1.0000
  H   H97       1.0  0.82592  0.46350  0.07098  1.0000
  O  Te1       1.0  0.82225  0.37620  0.41713  1.0000
  O  Te2       1.0  0.74797  0.32370  0.44353  1.0000
  H   H98       1.0  0.76116  0.41775  0.09386  1.0000
  Mg  Mg1       1.0  0.78257  0.32259  0.53528  1.0000
  C   C125      1.0  0.58921  0.36207  0.20178  1.0000
  C   C126      1.0  0.59194  0.39253  0.25725  1.0000
  C  Sn3       1.0  0.62097  0.41419  0.30613  1.0000
  C  Sn4       1.0  0.64774  0.40511  0.29915  1.0000
  C   C127      1.0  0.64479  0.37459  0.24335  1.0000
  C   C128      1.0  0.61561  0.35310  0.19479  1.0000
  H   H99       1.0  0.56666  0.34545  0.16411  1.0000
  O  Te3       1.0  0.62327  0.44452  0.36130  1.0000
  O  Te4       1.0  0.67705  0.42629  0.34719  1.0000
  H   H100      1.0  0.61353  0.32953  0.15174  1.0000
  Mg  Mg2       1.0  0.66827  0.46494  0.41347  1.0000
  C   C129      1.0  0.67359  0.24254  0.14731  1.0000
  C   C130      1.0  0.65453  0.26035  0.21217  1.0000
  C  Sn5       1.0  0.61341  0.24132  0.28969  1.0000
  C  Sn6       1.0  0.59102  0.20375  0.30237  1.0000
  C   C131      1.0  0.61037  0.18617  0.23721  1.0000
  C   C132      1.0  0.65154  0.20548  0.15984  1.0000
  H   H101      1.0  0.70544  0.25747  0.08753  1.0000
  O  Te5       1.0  0.59484  0.25953  0.35374  1.0000
  O  Te6       1.0  0.54988  0.18407  0.37929  1.0000
  H   H102      1.0  0.66628  0.19168  0.10975  1.0000
  Mg  Mg3       1.0  0.53812  0.22096  0.44731  1.0000
  C   C133      1.0  0.22936  0.57955  0.18814  1.0000
  C   C134      1.0  0.19741  0.58286  0.27766  1.0000
  C  Sn7       1.0  0.20167  0.61152  0.35573  1.0000
  C  Sn8       1.0  0.23864  0.63731  0.34368  1.0000
  C   C135      1.0  0.27043  0.63377  0.25371  1.0000
  C   C136      1.0  0.26584  0.60498  0.17613  1.0000
  H   H103      1.0  0.22582  0.55729  0.12801  1.0000
  O  Te7       1.0  0.16945  0.61442  0.44473  1.0000
  O  Te8       1.0  0.24372  0.66622  0.42044  1.0000
  H   H104      1.0  0.29059  0.60243  0.10672  1.0000
  Mg  Mg4       1.0  0.19101  0.65856  0.52767  1.0000
  C   C137      1.0  0.43714  0.65380  0.07892  1.0000
  C   C138      1.0  0.39657  0.63929  0.17844  1.0000
  C  Sn9       1.0  0.36992  0.60482  0.31606  1.0000
  C  Sn10      1.0  0.38426  0.58457  0.35449  1.0000
  C   C139      1.0  0.42491  0.59934  0.25424  1.0000
  C   C140      1.0  0.45130  0.63385  0.11678  1.0000
  H   H105      1.0  0.35558  0.62208  0.97263  1.0000
  O  Te9       1.0  0.32948  0.59073  0.41413  1.0000
  O  Te10      1.0  0.35828  0.55007  0.49135  1.0000
  H   H106      1.0  0.48272  0.64508  0.03984  1.0000
  Mg  Mg5       1.0  0.30580  0.54253  0.58742  1.0000
  C   C141      1.0  0.36146  0.77140  0.24567  1.0000
  C   C142      1.0  0.37481  0.74878  0.24750  1.0000
  C  Sn11      1.0  0.40673  0.75993  0.28018  1.0000
  C  Sn12      1.0  0.42558  0.79437  0.31162  1.0000
  C   C143      1.0  0.41198  0.81680  0.30965  1.0000
  C   C144      1.0  0.38002  0.80538  0.27674  1.0000
  H   H107      1.0  0.33672  0.76256  0.22032  1.0000
  O  Te11      1.0  0.41970  0.73699  0.28146  1.0000
  O  Te12      1.0  0.45754  0.80619  0.34471  1.0000
  H   H108      1.0  0.36968  0.82289  0.27546  1.0000
  Mg  Mg6       1.0  0.46439  0.76521  0.33274  1.0000
  C   C145      1.0  0.78418  0.42864  0.63697  1.0000
  C   C146      1.0  0.80097  0.41780  0.71867  1.0000
  C  Sn13      1.0  0.78138  0.38093  0.81541  1.0000
  C  Sn14      1.0  0.74431  0.35449  0.83036  1.0000
  C   C147      1.0  0.72778  0.36562  0.74801  1.0000
  C   C148      1.0  0.74762  0.40258  0.65158  1.0000
  H   H109      1.0  0.79954  0.45724  0.56227  1.0000
  O  Te13      1.0  0.79857  0.37058  0.89627  1.0000
  O  Te14      1.0  0.72411  0.31746  0.92618  1.0000
  H   H110      1.0  0.73463  0.41096  0.58823  1.0000
  Mg  Mg7       1.0  0.86160  0.37527  0.01258  1.0000
  C   C149      1.0  0.62677  0.40686  0.77073  1.0000
  C   C150      1.0  0.61553  0.37109  0.77202  1.0000
  C  Sn15      1.0  0.58184  0.34743  0.75715  1.0000
  C  Sn16      1.0  0.55906  0.35988  0.74065  1.0000
  C   C151      1.0  0.57058  0.39572  0.73937  1.0000
  C   C152      1.0  0.60433  0.41917  0.75439  1.0000
  H   H111      1.0  0.65290  0.42501  0.78225  1.0000
  O  Te15      1.0  0.57102  0.31177  0.75874  1.0000
  O  Te16      1.0  0.52527  0.33681  0.72551  1.0000
  H   H112      1.0  0.61304  0.44687  0.75327  1.0000
  Mg  Mg8       1.0  0.52256  0.29062  0.73440  1.0000
  C   C153      1.0  0.56186  0.19817  0.84145  1.0000
  C   C154      1.0  0.58225  0.18271  0.74948  1.0000
  C  Sn17      1.0  0.62356  0.20275  0.66615  1.0000
  C  Sn18      1.0  0.64478  0.23893  0.67534  1.0000
  C   C155      1.0  0.62410  0.25414  0.76779  1.0000
  C   C156      1.0  0.58276  0.23384  0.85065  1.0000
  H   H113      1.0  0.52987  0.18246  0.90565  1.0000
  O  Te17      1.0  0.64347  0.18689  0.57476  1.0000
  O  Te18      1.0  0.68608  0.25956  0.59331  1.0000
  H   H114      1.0  0.56698  0.24581  0.92195  1.0000
  Mg  Mg9       1.0  0.69987  0.22597  0.48455  1.0000
  C   C157      1.0  0.22596  0.57766  0.68407  1.0000
  C   C158      1.0  0.24204  0.61029  0.72991  1.0000
  C  Sn19      1.0  0.21861  0.62326  0.81838  1.0000
  C  Sn20      1.0  0.17833  0.60313  0.86162  1.0000
  C   C159      1.0  0.16252  0.57050  0.81530  1.0000
  C   C160      1.0  0.18623  0.55778  0.72673  1.0000
  H   H115      1.0  0.24430  0.56780  0.61564  1.0000
  O  Te19      1.0  0.23515  0.65592  0.86314  1.0000
  O  Te20      1.0  0.15424  0.61546  0.95007  1.0000
  H   H116      1.0  0.17377  0.53250  0.69136  1.0000
  Mg  Mg10      1.0  0.19037  0.66149  0.98295  1.0000
  C   C161      1.0  0.34402  0.58501  0.86020  1.0000
  C   C162      1.0  0.35770  0.61991  0.76150  1.0000
  C  Sn21      1.0  0.39824  0.64561  0.63784  1.0000
  C  Sn22      1.0  0.42552  0.63611  0.61277  1.0000
  C   C163      1.0  0.41154  0.60112  0.71207  1.0000
  C   C164      1.0  0.37091  0.57562  0.83551  1.0000
  H   H117      1.0  0.31258  0.56527  0.95563  1.0000
  O  Te21      1.0  0.41141  0.68036  0.54039  1.0000
  O  Te22      1.0  0.46620  0.66126  0.49001  1.0000
  H   H118      1.0  0.36032  0.54859  0.91182  1.0000
  Mg  Mg11      1.0  0.46968  0.70516  0.38896  1.0000
  C   C165      1.0  0.33642  0.76326  0.73416  1.0000
  C   C166      1.0  0.34821  0.73964  0.74570  1.0000
  C  Sn23      1.0  0.37869  0.74972  0.78849  1.0000
  C  Sn24      1.0  0.39768  0.78410  0.82031  1.0000
  C   C167      1.0  0.38565  0.80753  0.80857  1.0000
  C   C168      1.0  0.35512  0.79717  0.76559  1.0000
  H   H119      1.0  0.31279  0.75524  0.70101  1.0000
  O  Te23      1.0  0.39011  0.72579  0.79940  1.0000
  O  Te24      1.0  0.42822  0.79486  0.86339  1.0000
  H   H120      1.0  0.34599  0.81546  0.75678  1.0000
  Mg  Mg12      1.0  0.43323  0.75278  0.86230  1.0000
