data_image0
_chemical_formula_structural       H76C52N16C2Sn2C2HTe2HMgC2Sn2C2HTe2HMgC2Sn2C2HTe2HMgC2Sn2C2HTe2HMgC2Sn2C2HTe2HMgC2Sn2C2HTe2HMgC2Sn2C2HTe2HMgC2Sn2C2HTe2HMgC2Sn2C2HTe2HMgC2Sn2C2HTe2HMgC2Sn2C2HTe2HMgC2Sn2C2HTe2HMgC2Sn2C2HTe2HMgC2Sn2C2HTe2HMgC2Sn2C2HTe2HMgC2Sn2C2HTe2HMg
_chemical_formula_sum              "H108 C116 N16 Sn32 Te32 Mg16"
_cell_length_a       25.0131
_cell_length_b       17.1824
_cell_length_c       12.012
_cell_angle_alpha    92.4561
_cell_angle_beta     88.3146
_cell_angle_gamma    110.383

_symmetry_space_group_name_H-M    'P1'
_space_group_IT_number       1

loop_
  _space_group_symop_operation_xyz
  'x, y, z'

loop_
  _atom_site_type_symbol
  _atom_site_label
  _atom_site_symmetry_multiplicity
  _atom_site_fract_x
  _atom_site_fract_y
  _atom_site_fract_z
  _atom_site_occupancy
  H   H1        1.0  0.64343  0.64023  0.08994  1.0000
  H   H2        1.0  0.66669  0.93531  0.05001  1.0000
  H   H3        1.0  0.09625  0.34262  0.29768  1.0000
  H   H4        1.0  0.08574  0.69574  0.30241  1.0000
  H   H5        1.0  0.21659  0.23876  0.35084  1.0000
  H   H6        1.0  0.22601  0.88707  0.35041  1.0000
  H   H7        1.0  0.25847  0.05553  0.09191  1.0000
  H   H8        1.0  0.18728  0.98286  0.09251  1.0000
  H   H9        1.0  0.19064  0.12906  0.09553  1.0000
  H   H10       1.0  0.15819  0.07432  0.47674  1.0000
  H   H11       1.0  0.28762  0.17360  0.30404  1.0000
  H   H12       1.0  0.21517  0.10534  0.29679  1.0000
  H   H13       1.0  0.27574  0.02117  0.28800  1.0000
  H   H14       1.0  0.31535  0.07496  0.40533  1.0000
  H   H15       1.0  0.09340  0.47539  0.35574  1.0000
  H   H16       1.0  0.02123  0.40690  0.34354  1.0000
  H   H17       1.0  0.03141  0.55839  0.35878  1.0000
  H   H18       1.0  0.99579  0.50542  0.23756  1.0000
  H   H19       1.0  0.12774  0.59951  0.06359  1.0000
  H   H20       1.0  0.05706  0.52636  0.05442  1.0000
  H   H21       1.0  0.12681  0.45463  0.05987  1.0000
  H   H22       1.0  0.15435  0.50806  0.18749  1.0000
  H   H23       1.0  0.07465  0.31699  0.48572  1.0000
  H   H24       1.0  0.07312  0.21026  0.05137  1.0000
  H   H25       1.0  0.17403  0.35457  0.43225  1.0000
  H   H26       1.0  0.13568  0.25175  0.38040  1.0000
  H   H27       1.0  0.23596  0.36511  0.09289  1.0000
  H   H28       1.0  0.23876  0.27289  0.14939  1.0000
  H   H29       1.0  0.14121  0.23080  0.21473  1.0000
  H   H30       1.0  0.17809  0.33602  0.25973  1.0000
  H   H31       1.0  0.19248  0.70900  0.12665  1.0000
  H   H32       1.0  0.18121  0.75292  0.25816  1.0000
  H   H33       1.0  0.25512  0.85310  0.13601  1.0000
  H   H34       1.0  0.19805  0.88742  0.17927  1.0000
  H   H35       1.0  0.13270  0.83175  0.39546  1.0000
  H   H36       1.0  0.12041  0.86989  0.03085  1.0000
  H   H37       1.0  0.05854  0.72397  0.01677  1.0000
  H   H38       1.0  0.11748  0.69779  0.47563  1.0000
  H   H39       1.0  0.64202  0.64530  0.60202  1.0000
  H   H40       1.0  0.66791  0.93987  0.54813  1.0000
  H   H41       1.0  0.09309  0.34851  0.79381  1.0000
  H   H42       1.0  0.08425  0.70026  0.80070  1.0000
  H   H43       1.0  0.21451  0.23514  0.84534  1.0000
  H   H44       1.0  0.22597  0.88273  0.85188  1.0000
  H   H45       1.0  0.26149  0.05969  0.59320  1.0000
  H   H46       1.0  0.19076  0.98547  0.59575  1.0000
  H   H47       1.0  0.19056  0.13063  0.59883  1.0000
  H   H48       1.0  0.15589  0.07273  0.97538  1.0000
  H   H49       1.0  0.28407  0.16679  0.79616  1.0000
  H   H50       1.0  0.21163  0.09860  0.79283  1.0000
  H   H51       1.0  0.27280  0.01480  0.78566  1.0000
  H   H52       1.0  0.31279  0.07136  0.90143  1.0000
  H   H53       1.0  0.09270  0.47802  0.85085  1.0000
  H   H54       1.0  0.01991  0.41209  0.83930  1.0000
  H   H55       1.0  0.03353  0.56453  0.85999  1.0000
  H   H56       1.0  0.99537  0.51397  0.73959  1.0000
  H   H57       1.0  0.12265  0.60391  0.55671  1.0000
  H   H58       1.0  0.05083  0.53402  0.55435  1.0000
  H   H59       1.0  0.11630  0.45649  0.54444  1.0000
  H   H60       1.0  0.15208  0.50897  0.66581  1.0000
  H   H61       1.0  0.06868  0.30146  0.99439  1.0000
  H   H62       1.0  0.07277  0.22184  0.54105  1.0000
  H   H63       1.0  0.16684  0.34489  0.92806  1.0000
  H   H64       1.0  0.13047  0.23957  0.88238  1.0000
  H   H65       1.0  0.23574  0.36468  0.60562  1.0000
  H   H66       1.0  0.23385  0.26895  0.65905  1.0000
  H   H67       1.0  0.13373  0.23020  0.70935  1.0000
  H   H68       1.0  0.17192  0.33177  0.76552  1.0000
  H   H69       1.0  0.19078  0.71163  0.62813  1.0000
  H   H70       1.0  0.17997  0.75791  0.75799  1.0000
  H   H71       1.0  0.25481  0.85558  0.63580  1.0000
  H   H72       1.0  0.19797  0.89097  0.67718  1.0000
  H   H73       1.0  0.13185  0.82830  0.89803  1.0000
  H   H74       1.0  0.12162  0.87551  0.52725  1.0000
  H   H75       1.0  0.05867  0.73002  0.51371  1.0000
  H   H76       1.0  0.11759  0.69305  0.97636  1.0000
  C   C1        1.0  0.60757  0.80995  0.04443  1.0000
  C   C2        1.0  0.60057  0.72560  0.05775  1.0000
  C   C3        1.0  0.64846  0.70546  0.08369  1.0000
  C   C4        1.0  0.70299  0.76568  0.09503  1.0000
  C   C5        1.0  0.70995  0.85034  0.08240  1.0000
  C   C6        1.0  0.66196  0.87024  0.05621  1.0000
  C   C7        1.0  0.07802  0.33948  0.21431  1.0000
  C   C8        1.0  0.07476  0.67254  0.21595  1.0000
  C   C9        1.0  0.23316  0.24212  0.43571  1.0000
  C   C10       1.0  0.23801  0.91048  0.43634  1.0000
  C   C11       1.0  0.21933  0.02856  0.04203  1.0000
  C   C12       1.0  0.19751  0.09872  0.01709  1.0000
  C   C13       1.0  0.25366  0.12622  0.34942  1.0000
  C   C14       1.0  0.27242  0.05241  0.36851  1.0000
  C   C15       1.0  0.05596  0.45466  0.30042  1.0000
  C   C16       1.0  0.03757  0.52849  0.27899  1.0000
  C   C17       1.0  0.09425  0.55256  0.10960  1.0000
  C   C18       1.0  0.11549  0.48226  0.13672  1.0000
  C   C19       1.0  0.09768  0.27587  0.03426  1.0000
  C   C20       1.0  0.15138  0.28954  0.45597  1.0000
  C   C21       1.0  0.21063  0.29956  0.10871  1.0000
  C   C22       1.0  0.16106  0.29546  0.18697  1.0000
  C   C23       1.0  0.17543  0.75441  0.16797  1.0000
  C   C24       1.0  0.20947  0.84111  0.12622  1.0000
  C   C25       1.0  0.13826  0.82979  0.48563  1.0000
  C   C26       1.0  0.10432  0.73810  0.02828  1.0000
  C   C27       1.0  0.60820  0.81496  0.54474  1.0000
  C   C28       1.0  0.60059  0.73080  0.56116  1.0000
  C   C29       1.0  0.64755  0.71038  0.59267  1.0000
  C   C30       1.0  0.70193  0.77039  0.60522  1.0000
  C   C31       1.0  0.70959  0.85447  0.58791  1.0000
  C   C32       1.0  0.66252  0.87489  0.55750  1.0000
  C   C33       1.0  0.07611  0.34488  0.70922  1.0000
  C   C34       1.0  0.07379  0.67745  0.71405  1.0000
  C   C35       1.0  0.23181  0.23821  0.92949  1.0000
  C   C36       1.0  0.23718  0.90731  0.93762  1.0000
  C   C37       1.0  0.22190  0.03190  0.54474  1.0000
  C   C38       1.0  0.19907  0.10132  0.52079  1.0000
  C   C39       1.0  0.25062  0.12038  0.84391  1.0000
  C   C40       1.0  0.26973  0.04736  0.86519  1.0000
  C   C41       1.0  0.05495  0.45957  0.79640  1.0000
  C   C42       1.0  0.03771  0.53481  0.77877  1.0000
  C   C43       1.0  0.08991  0.55750  0.60482  1.0000
  C   C44       1.0  0.11023  0.48516  0.62483  1.0000
  C   C45       1.0  0.10015  0.28708  0.52885  1.0000
  C   C46       1.0  0.14728  0.28017  0.95539  1.0000
  C   C47       1.0  0.20850  0.29916  0.61614  1.0000
  C   C48       1.0  0.15691  0.29573  0.68837  1.0000
  C   C49       1.0  0.17439  0.75836  0.66754  1.0000
  C   C50       1.0  0.20933  0.84430  0.62485  1.0000
  C   C51       1.0  0.13760  0.82527  0.98793  1.0000
  C   C52       1.0  0.10422  0.74329  0.52666  1.0000
  N   N1        1.0  0.23055  0.99261  0.43885  1.0000
  N   N2        1.0  0.06953  0.41890  0.19503  1.0000
  N   N3        1.0  0.11999  0.32495  0.13560  1.0000
  N   N4        1.0  0.11484  0.73453  0.14667  1.0000
  N   N5        1.0  0.24253  0.16340  0.45570  1.0000
  N   N6        1.0  0.08127  0.58976  0.21368  1.0000
  N   N7        1.0  0.18882  0.25142  0.00669  1.0000
  N   N8        1.0  0.19824  0.84522  0.00843  1.0000
  N   N9        1.0  0.22840  0.98839  0.93731  1.0000
  N   N10       1.0  0.06649  0.42344  0.68957  1.0000
  N   N11       1.0  0.12017  0.33210  0.63410  1.0000
  N   N12       1.0  0.11401  0.73991  0.64543  1.0000
  N   N13       1.0  0.24064  0.15916  0.94953  1.0000
  N   N14       1.0  0.08111  0.59525  0.71173  1.0000
  N   N15       1.0  0.18896  0.25476  0.51037  1.0000
  N   N16       1.0  0.19871  0.84826  0.50657  1.0000
  C   C53       1.0  0.82579  0.03796  0.02960  1.0000
  C   C54       1.0  0.85952  0.05628  0.12457  1.0000
  C  Sn1       1.0  0.08556  0.00139  0.21211  1.0000
  C  Sn2       1.0  0.03767  0.92681  0.20418  1.0000
  C   C55       1.0  0.00422  0.90902  0.10879  1.0000
  C   C56       1.0  0.01782  0.96439  0.02169  1.0000
  H   H77       1.0  0.82841  0.10672  0.96218  1.0000
  O  Te1       1.0  0.88043  0.02067  0.30641  1.0000
  O  Te2       1.0  0.02350  0.87084  0.29043  1.0000
  H   H78       1.0  0.98380  0.97610  0.94815  1.0000
  Mg  Mg1       1.0  0.08304  0.92473  0.40196  1.0000
  C   C57       1.0  0.83946  0.74980  0.03791  1.0000
  C   C58       1.0  0.85196  0.71185  0.12936  1.0000
  C  Sn3       1.0  0.81140  0.68273  0.21439  1.0000
  C  Sn4       1.0  0.75736  0.69183  0.20749  1.0000
  C   C59       1.0  0.74527  0.72983  0.11562  1.0000
  C   C60       1.0  0.78617  0.75877  0.03102  1.0000
  H   H79       1.0  0.86318  0.79809  0.97242  1.0000
  O  Te3       1.0  0.82460  0.64500  0.30519  1.0000
  O  Te4       1.0  0.71604  0.66326  0.29128  1.0000
  H   H80       1.0  0.76855  0.81404  0.96019  1.0000
  Mg  Mg2       1.0  0.75419  0.61613  0.39836  1.0000
  C   C61       1.0  0.47489  0.83735  0.60502  1.0000
  C   C62       1.0  0.46393  0.88035  0.51742  1.0000
  C  Sn5       1.0  0.50176  0.90186  0.42661  1.0000
  C  Sn6       1.0  0.55143  0.87980  0.42366  1.0000
  C   C63       1.0  0.56199  0.83673  0.51166  1.0000
  C   C64       1.0  0.52387  0.81554  0.60215  1.0000
  H   H81       1.0  0.44538  0.82090  0.67500  1.0000
  O  Te5       1.0  0.49016  0.94485  0.33982  1.0000
  O  Te6       1.0  0.58994  0.90050  0.33388  1.0000
  H   H82       1.0  0.53235  0.78220  0.66992  1.0000
  Mg  Mg3       1.0  0.55550  0.95921  0.23562  1.0000
  C   C65       1.0  0.51673  0.89128  0.89862  1.0000
  C   C66       1.0  0.46920  0.88051  0.96848  1.0000
  C  Sn7       1.0  0.47518  0.82325  0.07454  1.0000
  C  Sn8       1.0  0.52177  0.80242  0.11113  1.0000
  C   C67       1.0  0.56914  0.81349  0.04065  1.0000
  C   C68       1.0  0.56270  0.87078  0.93466  1.0000
  H   H83       1.0  0.51789  0.91558  0.81664  1.0000
  O  Te7       1.0  0.42736  0.81285  0.14325  1.0000
  O  Te8       1.0  0.52096  0.77104  0.21675  1.0000
  H   H84       1.0  0.59952  0.87917  0.88063  1.0000
  Mg  Mg4       1.0  0.44627  0.76796  0.27996  1.0000
  C   C69       1.0  0.47702  0.60341  0.90712  1.0000
  C   C70       1.0  0.44928  0.53446  0.97127  1.0000
  C  Sn9       1.0  0.47656  0.50344  0.07770  1.0000
  C  Sn10      1.0  0.52458  0.56872  0.12049  1.0000
  C   C71       1.0  0.55200  0.63747  0.05569  1.0000
  C   C72       1.0  0.52436  0.66784  0.94928  1.0000
  H   H85       1.0  0.46174  0.60687  0.82481  1.0000
  O  Te9       1.0  0.44837  0.43410  0.14067  1.0000
  O  Te10      1.0  0.54481  0.56526  0.22662  1.0000
  H   H86       1.0  0.54582  0.72126  0.89966  1.0000
  Mg  Mg5       1.0  0.49204  0.45792  0.28059  1.0000
  C   C73       1.0  0.50586  0.64402  0.41905  1.0000
  C   C74       1.0  0.53681  0.66659  0.51748  1.0000
  C  Sn11      1.0  0.52136  0.61524  0.60882  1.0000
  C  Sn12      1.0  0.47404  0.53993  0.60121  1.0000
  C   C75       1.0  0.44338  0.51788  0.50235  1.0000
  C   C76       1.0  0.45920  0.56973  0.41147  1.0000
  H   H87       1.0  0.51812  0.68411  0.34871  1.0000
  O  Te11      1.0  0.55273  0.63874  0.70654  1.0000
  O  Te12      1.0  0.45768  0.48744  0.69122  1.0000
  H   H88       1.0  0.43525  0.55222  0.33524  1.0000
  Mg  Mg6       1.0  0.51381  0.54648  0.80654  1.0000
  C   C77       1.0  0.37794  0.95671  0.55574  1.0000
  C   C78       1.0  0.40291  0.90812  0.49203  1.0000
  C  Sn13      1.0  0.37553  0.86302  0.39778  1.0000
  C  Sn14      1.0  0.32219  0.86677  0.36692  1.0000
  C   C79       1.0  0.29758  0.91561  0.43117  1.0000
  C   C80       1.0  0.32533  0.96047  0.52535  1.0000
  H   H89       1.0  0.39942  0.99146  0.62858  1.0000
  O  Te13      1.0  0.40107  0.81476  0.33508  1.0000
  O  Te14      1.0  0.29391  0.82235  0.27310  1.0000
  H   H90       1.0  0.30601  0.99813  0.57462  1.0000
  Mg  Mg7       1.0  0.34591  0.76539  0.21435  1.0000
  C   C81       1.0  0.35874  0.85048  0.87010  1.0000
  C   C82       1.0  0.40131  0.89166  0.94647  1.0000
  C  Sn15      1.0  0.39911  0.91744  0.03112  1.0000
  C  Sn16      1.0  0.34532  0.92799  0.03928  1.0000
  C   C83       1.0  0.29508  0.91242  0.96252  1.0000
  C   C84       1.0  0.30567  0.86083  0.87812  1.0000
  H   H91       1.0  0.36691  0.81053  0.80483  1.0000
  O  Te15      1.0  0.44212  0.95813  0.10670  1.0000
  O  Te16      1.0  0.33406  0.97929  0.12309  1.0000
  H   H92       1.0  0.27269  0.82892  0.81905  1.0000
  Mg  Mg8       1.0  0.16704  0.02149  0.20627  1.0000
  C   C85       1.0  0.96333  0.26334  0.12800  1.0000
  C   C86       1.0  0.00937  0.27155  0.19636  1.0000
  C  Sn17      1.0  0.01160  0.20332  0.25275  1.0000
  C  Sn18      1.0  0.96685  0.12551  0.24029  1.0000
  C   C87       1.0  0.92100  0.11792  0.17164  1.0000
  C   C88       1.0  0.91919  0.18660  0.11562  1.0000
  H   H93       1.0  0.96194  0.31646  0.08461  1.0000
  O  Te17      1.0  0.05790  0.21262  0.32076  1.0000
  O  Te18      1.0  0.96801  0.05630  0.29565  1.0000
  H   H94       1.0  0.88355  0.18021  0.06264  1.0000
  Mg  Mg9       1.0  0.04017  0.10011  0.37897  1.0000
  C   C89       1.0  0.95419  0.73463  0.27702  1.0000
  C   C90       1.0  0.91385  0.69804  0.19476  1.0000
  C  Sn19      1.0  0.92300  0.64196  0.11537  1.0000
  C  Sn20      1.0  0.97350  0.62227  0.11863  1.0000
  C   C91       1.0  0.01356  0.65917  0.20131  1.0000
  C   C92       1.0  0.00399  0.71521  0.28032  1.0000
  H   H95       1.0  0.94677  0.77796  0.33819  1.0000
  O  Te19      1.0  0.88228  0.60599  0.03373  1.0000
  O  Te20      1.0  0.98371  0.56641  0.04033  1.0000
  H   H96       1.0  0.03521  0.74350  0.34404  1.0000
  Mg  Mg10      1.0  0.90758  0.55950  0.94531  1.0000
  C   C93       1.0  0.30642  0.41082  0.38247  1.0000
  C   C94       1.0  0.29273  0.33040  0.42070  1.0000
  C  Sn21      1.0  0.32896  0.31219  0.49352  1.0000
  C  Sn22      1.0  0.37980  0.37580  0.52860  1.0000
  C   C95       1.0  0.39310  0.45607  0.48994  1.0000
  C   C96       1.0  0.35655  0.47361  0.41706  1.0000
  H   H97       1.0  0.27813  0.42441  0.32613  1.0000
  O  Te21      1.0  0.31465  0.23151  0.53088  1.0000
  O  Te22      1.0  0.41677  0.35932  0.60137  1.0000
  H   H98       1.0  0.36714  0.53589  0.38753  1.0000
  Mg  Mg11      1.0  0.37871  0.23969  0.62925  1.0000
  C   C97       1.0  0.37185  0.35248  0.03116  1.0000
  C   C98       1.0  0.38212  0.45580  0.98202  1.0000
  C  Sn23      1.0  0.34685  0.47526  0.90826  1.0000
  C  Sn24      1.0  0.29238  0.41605  0.88343  1.0000
  C   C99       1.0  0.27455  0.33884  0.93308  1.0000
  C   C100      1.0  0.31811  0.29405  0.00674  1.0000
  H   H99       1.0  0.39941  0.33791  0.08820  1.0000
  O  Te23      1.0  0.36571  0.55284  0.85988  1.0000
  O  Te24      1.0  0.25626  0.43389  0.81004  1.0000
  H   H100      1.0  0.30400  0.23416  0.04483  1.0000
  Mg  Mg12      1.0  0.30109  0.54808  0.76510  1.0000
  C   C101      1.0  0.80367  0.94634  0.72901  1.0000
  C   C102      1.0  0.77007  0.92490  0.63386  1.0000
  C  Sn25      1.0  0.78731  0.97104  0.53797  1.0000
  C  Sn26      1.0  0.59991  0.03988  0.53758  1.0000
  C   C103      1.0  0.63324  0.06079  0.63317  1.0000
  C   C104      1.0  0.85484  0.01421  0.72867  1.0000
  H   H101      1.0  0.79003  0.91027  0.80288  1.0000
  O  Te25      1.0  0.75322  0.94879  0.44365  1.0000
  O  Te26      1.0  0.61816  0.08705  0.44287  1.0000
  H   H102      1.0  0.64162  0.03079  0.80231  1.0000
  Mg  Mg13      1.0  0.55698  0.03222  0.33487  1.0000
  C   C105      1.0  0.82943  0.73302  0.53207  1.0000
  C   C106      1.0  0.84860  0.70986  0.62911  1.0000
  C  Sn27      1.0  0.81574  0.69933  0.72712  1.0000
  C  Sn28      1.0  0.76272  0.71225  0.72772  1.0000
  C   C107      1.0  0.74389  0.73536  0.63018  1.0000
  C   C108      1.0  0.77712  0.74575  0.53258  1.0000
  H   H103      1.0  0.85512  0.74102  0.45653  1.0000
  O  Te27      1.0  0.83555  0.67619  0.82335  1.0000
  O  Te28      1.0  0.72901  0.70212  0.82451  1.0000
  H   H104      1.0  0.76225  0.76364  0.45744  1.0000
  Mg  Mg14      1.0  0.77431  0.67011  0.93462  1.0000
  C   C109      1.0  0.93684  0.22861  0.60582  1.0000
  C   C110      1.0  0.92186  0.14875  0.64668  1.0000
  C  Sn29      1.0  0.95659  0.13098  0.72336  1.0000
  C  Sn30      1.0  0.00721  0.19448  0.75967  1.0000
  C   C111      1.0  0.02180  0.27418  0.71835  1.0000
  C   C112      1.0  0.98675  0.29128  0.64162  1.0000
  H   H105      1.0  0.90971  0.24186  0.54650  1.0000
  O  Te29      1.0  0.94101  0.05086  0.76331  1.0000
  O  Te30      1.0  0.04268  0.17842  0.83627  1.0000
  H   H106      1.0  0.99833  0.35313  0.61005  1.0000
  Mg  Mg15      1.0  0.00326  0.05949  0.86661  1.0000
  C   C113      1.0  0.93697  0.63590  0.58274  1.0000
  C   C114      1.0  0.90686  0.67247  0.65464  1.0000
  C  Sn31      1.0  0.93196  0.71496  0.75223  1.0000
  C  Sn32      1.0  0.98826  0.72086  0.77808  1.0000
  C   C115      1.0  0.01804  0.68411  0.70555  1.0000
  C   C116      1.0  0.99251  0.64172  0.60814  1.0000
  H   H107      1.0  0.91723  0.60313  0.50733  1.0000
  O  Te31      1.0  0.90127  0.75110  0.82317  1.0000
  O  Te32      1.0  0.01437  0.76299  0.87504  1.0000
  H   H108      1.0  0.01584  0.61346  0.55245  1.0000
  Mg  Mg16      1.0  0.95519  0.80191  0.94540  1.0000
