data_image0
_chemical_formula_structural       H108C100N16SnCSn2CSnTe4Mg2SnCSn2CSnTe4Mg2SnCSn2CSnTe4Mg2SnCSn2CSnTe4Mg2SnCSn2CSnTe4Mg2SnCSn2CSnTe4Mg2SnCSn2CSnTe4Mg2SnCSn2CSnTe4Mg2
_chemical_formula_sum              "H108 C116 N16 Sn32 Te32 Mg16"
_cell_length_a       25.0131
_cell_length_b       17.1824
_cell_length_c       12.012
_cell_angle_alpha    92.4561
_cell_angle_beta     88.3146
_cell_angle_gamma    110.383

_symmetry_space_group_name_H-M    'P1'
_space_group_IT_number       1

loop_
  _space_group_symop_operation_xyz
  'x, y, z'

loop_
  _atom_site_type_symbol
  _atom_site_label
  _atom_site_symmetry_multiplicity
  _atom_site_fract_x
  _atom_site_fract_y
  _atom_site_fract_z
  _atom_site_occupancy
  H   H1        1.0  0.64343  0.64023  0.08994  1.0000
  H   H2        1.0  0.66669  0.93531  0.05001  1.0000
  H   H3        1.0  0.77948  0.87425  0.26045  1.0000
  H   H4        1.0  0.86691  0.99214  0.30168  1.0000
  H   H5        1.0  0.58761  0.89097  0.36194  1.0000
  H   H6        1.0  0.50108  0.92603  0.32870  1.0000
  H   H7        1.0  0.54137  0.60340  0.19892  1.0000
  H   H8        1.0  0.45226  0.48709  0.16252  1.0000
  H   H9        1.0  0.44654  0.58474  0.33765  1.0000
  H   H10       1.0  0.53460  0.70305  0.37778  1.0000
  H   H11       1.0  0.35315  0.51434  0.35978  1.0000
  H   H12       1.0  0.26627  0.39163  0.33021  1.0000
  H   H13       1.0  0.32554  0.24677  0.04322  1.0000
  H   H14       1.0  0.41346  0.36837  0.07769  1.0000
  H   H15       1.0  0.09625  0.34262  0.29768  1.0000
  H   H16       1.0  0.08574  0.69574  0.30241  1.0000
  H   H17       1.0  0.21659  0.23876  0.35084  1.0000
  H   H18       1.0  0.22601  0.88707  0.35041  1.0000
  H   H19       1.0  0.25847  0.05553  0.09191  1.0000
  H   H20       1.0  0.18728  0.98286  0.09251  1.0000
  H   H21       1.0  0.19064  0.12906  0.09553  1.0000
  H   H22       1.0  0.15819  0.07432  0.47674  1.0000
  H   H23       1.0  0.28762  0.17360  0.30404  1.0000
  H   H24       1.0  0.21517  0.10534  0.29679  1.0000
  H   H25       1.0  0.27574  0.02117  0.28800  1.0000
  H   H26       1.0  0.31535  0.07496  0.40533  1.0000
  H   H27       1.0  0.09340  0.47539  0.35574  1.0000
  H   H28       1.0  0.02123  0.40690  0.34354  1.0000
  H   H29       1.0  0.03141  0.55839  0.35878  1.0000
  H   H30       1.0  0.99579  0.50542  0.23756  1.0000
  H   H31       1.0  0.12774  0.59951  0.06359  1.0000
  H   H32       1.0  0.05706  0.52636  0.05442  1.0000
  H   H33       1.0  0.12681  0.45463  0.05987  1.0000
  H   H34       1.0  0.15435  0.50806  0.18749  1.0000
  H   H35       1.0  0.07465  0.31699  0.48572  1.0000
  H   H36       1.0  0.07312  0.21026  0.05137  1.0000
  H   H37       1.0  0.17403  0.35457  0.43225  1.0000
  H   H38       1.0  0.13568  0.25175  0.38040  1.0000
  H   H39       1.0  0.23596  0.36511  0.09289  1.0000
  H   H40       1.0  0.23876  0.27289  0.14939  1.0000
  H   H41       1.0  0.14121  0.23080  0.21473  1.0000
  H   H42       1.0  0.17809  0.33602  0.25973  1.0000
  H   H43       1.0  0.19248  0.70900  0.12665  1.0000
  H   H44       1.0  0.18121  0.75292  0.25816  1.0000
  H   H45       1.0  0.25512  0.85310  0.13601  1.0000
  H   H46       1.0  0.19805  0.88742  0.17927  1.0000
  H   H47       1.0  0.13270  0.83175  0.39546  1.0000
  H   H48       1.0  0.12041  0.86989  0.03085  1.0000
  H   H49       1.0  0.05854  0.72397  0.01677  1.0000
  H   H50       1.0  0.11748  0.69779  0.47563  1.0000
  H   H51       1.0  0.64202  0.64530  0.60202  1.0000
  H   H52       1.0  0.66791  0.93987  0.54813  1.0000
  H   H53       1.0  0.85379  0.09673  0.98818  1.0000
  H   H54       1.0  0.76448  0.98107  0.95088  1.0000
  H   H55       1.0  0.43400  0.83621  0.65074  1.0000
  H   H56       1.0  0.51916  0.79747  0.68163  1.0000
  H   H57       1.0  0.54368  0.60672  0.69806  1.0000
  H   H58       1.0  0.45353  0.49115  0.66227  1.0000
  H   H59       1.0  0.44741  0.57659  0.83432  1.0000
  H   H60       1.0  0.53517  0.69477  0.87348  1.0000
  H   H61       1.0  0.95425  0.07389  0.78678  1.0000
  H   H62       1.0  0.04128  0.19588  0.81820  1.0000
  H   H63       1.0  0.98500  0.33216  0.58538  1.0000
  H   H64       1.0  0.89709  0.21012  0.55293  1.0000
  H   H65       1.0  0.89965  0.61207  0.52321  1.0000
  H   H66       1.0  0.99372  0.59962  0.54665  1.0000
  H   H67       1.0  0.01625  0.74915  0.85025  1.0000
  H   H68       1.0  0.92077  0.75893  0.82800  1.0000
  H   H69       1.0  0.35268  0.51140  0.86034  1.0000
  H   H70       1.0  0.26597  0.38987  0.82624  1.0000
  H   H71       1.0  0.32680  0.25419  0.55394  1.0000
  H   H72       1.0  0.41513  0.37613  0.58204  1.0000
  H   H73       1.0  0.09309  0.34851  0.79381  1.0000
  H   H74       1.0  0.08425  0.70026  0.80070  1.0000
  H   H75       1.0  0.21451  0.23514  0.84534  1.0000
  H   H76       1.0  0.22597  0.88273  0.85188  1.0000
  H   H77       1.0  0.26149  0.05969  0.59320  1.0000
  H   H78       1.0  0.19076  0.98547  0.59575  1.0000
  H   H79       1.0  0.19056  0.13063  0.59883  1.0000
  H   H80       1.0  0.15589  0.07273  0.97538  1.0000
  H   H81       1.0  0.28407  0.16679  0.79616  1.0000
  H   H82       1.0  0.21163  0.09860  0.79283  1.0000
  H   H83       1.0  0.27280  0.01480  0.78566  1.0000
  H   H84       1.0  0.31279  0.07136  0.90143  1.0000
  H   H85       1.0  0.09270  0.47802  0.85085  1.0000
  H   H86       1.0  0.01991  0.41209  0.83930  1.0000
  H   H87       1.0  0.03353  0.56453  0.85999  1.0000
  H   H88       1.0  0.99537  0.51397  0.73959  1.0000
  H   H89       1.0  0.12265  0.60391  0.55671  1.0000
  H   H90       1.0  0.05083  0.53402  0.55435  1.0000
  H   H91       1.0  0.11630  0.45649  0.54444  1.0000
  H   H92       1.0  0.15208  0.50897  0.66581  1.0000
  H   H93       1.0  0.06868  0.30146  0.99439  1.0000
  H   H94       1.0  0.07277  0.22184  0.54105  1.0000
  H   H95       1.0  0.16684  0.34489  0.92806  1.0000
  H   H96       1.0  0.13047  0.23957  0.88238  1.0000
  H   H97       1.0  0.23574  0.36468  0.60562  1.0000
  H   H98       1.0  0.23385  0.26895  0.65905  1.0000
  H   H99       1.0  0.13373  0.23020  0.70935  1.0000
  H   H100      1.0  0.17192  0.33177  0.76552  1.0000
  H   H101      1.0  0.19078  0.71163  0.62813  1.0000
  H   H102      1.0  0.17997  0.75791  0.75799  1.0000
  H   H103      1.0  0.25481  0.85558  0.63580  1.0000
  H   H104      1.0  0.19797  0.89097  0.67718  1.0000
  H   H105      1.0  0.13185  0.82830  0.89803  1.0000
  H   H106      1.0  0.12162  0.87551  0.52725  1.0000
  H   H107      1.0  0.05867  0.73002  0.51371  1.0000
  H   H108      1.0  0.11759  0.69305  0.97636  1.0000
  C   C1        1.0  0.60757  0.80995  0.04443  1.0000
  C   C2        1.0  0.60057  0.72560  0.05775  1.0000
  C   C3        1.0  0.64846  0.70546  0.08369  1.0000
  C   C4        1.0  0.70299  0.76568  0.09503  1.0000
  C   C5        1.0  0.70995  0.85034  0.08240  1.0000
  C   C6        1.0  0.66196  0.87024  0.05621  1.0000
  C   C7        1.0  0.76491  0.91879  0.10300  1.0000
  C   C8        1.0  0.54510  0.65790  0.03881  1.0000
  C   C9        1.0  0.79566  0.92316  0.20071  1.0000
  C   C10       1.0  0.84557  0.98986  0.22333  1.0000
  C   C11       1.0  0.86756  0.05491  0.14867  1.0000
  C   C12       1.0  0.83726  0.04927  0.04980  1.0000
  C   C13       1.0  0.78676  0.98333  0.02811  1.0000
  C   C14       1.0  0.55389  0.87889  0.42523  1.0000
  C   C15       1.0  0.50519  0.89844  0.40644  1.0000
  C   C16       1.0  0.46139  0.88299  0.48724  1.0000
  C   C17       1.0  0.52086  0.59777  0.11885  1.0000
  C   C18       1.0  0.47031  0.53173  0.09781  1.0000
  C   C19       1.0  0.44235  0.52209  0.99539  1.0000
  C   C20       1.0  0.46662  0.58973  0.41806  1.0000
  C   C21       1.0  0.51671  0.65627  0.43988  1.0000
  C   C22       1.0  0.39073  0.45542  0.47501  1.0000
  C   C23       1.0  0.34808  0.45755  0.40251  1.0000
  C   C24       1.0  0.29869  0.38812  0.38635  1.0000
  C   C25       1.0  0.28986  0.31452  0.44228  1.0000
  C   C26       1.0  0.33185  0.30543  0.00441  1.0000
  C   C27       1.0  0.38106  0.37392  0.02335  1.0000
  C   C28       1.0  0.07802  0.33948  0.21431  1.0000
  C   C29       1.0  0.07476  0.67254  0.21595  1.0000
  C   C30       1.0  0.23316  0.24212  0.43571  1.0000
  C   C31       1.0  0.23801  0.91048  0.43634  1.0000
  C   C32       1.0  0.21933  0.02856  0.04203  1.0000
  C   C33       1.0  0.19751  0.09872  0.01709  1.0000
  C   C34       1.0  0.25366  0.12622  0.34942  1.0000
  C   C35       1.0  0.27242  0.05241  0.36851  1.0000
  C   C36       1.0  0.05596  0.45466  0.30042  1.0000
  C   C37       1.0  0.03757  0.52849  0.27899  1.0000
  C   C38       1.0  0.09425  0.55256  0.10960  1.0000
  C   C39       1.0  0.11549  0.48226  0.13672  1.0000
  C   C40       1.0  0.09768  0.27587  0.03426  1.0000
  C   C41       1.0  0.15138  0.28954  0.45597  1.0000
  C   C42       1.0  0.21063  0.29956  0.10871  1.0000
  C   C43       1.0  0.16106  0.29546  0.18697  1.0000
  C   C44       1.0  0.17543  0.75441  0.16797  1.0000
  C   C45       1.0  0.20947  0.84111  0.12622  1.0000
  C   C46       1.0  0.13826  0.82979  0.48563  1.0000
  C   C47       1.0  0.10432  0.73810  0.02828  1.0000
  C   C48       1.0  0.60820  0.81496  0.54474  1.0000
  C   C49       1.0  0.60059  0.73080  0.56116  1.0000
  C   C50       1.0  0.64755  0.71038  0.59267  1.0000
  C   C51       1.0  0.70193  0.77039  0.60522  1.0000
  C   C52       1.0  0.70959  0.85447  0.58791  1.0000
  C   C53       1.0  0.66252  0.87489  0.55750  1.0000
  C   C54       1.0  0.55888  0.84104  0.52367  1.0000
  C   C55       1.0  0.54558  0.66317  0.54052  1.0000
  C   C56       1.0  0.46783  0.84854  0.58780  1.0000
  C   C57       1.0  0.51545  0.82677  0.60512  1.0000
  C   C58       1.0  0.52227  0.60178  0.61910  1.0000
  C   C59       1.0  0.47158  0.53628  0.59825  1.0000
  C   C60       1.0  0.44301  0.52792  0.49666  1.0000
  C   C61       1.0  0.46675  0.58279  0.91565  1.0000
  C   C62       1.0  0.51678  0.64952  0.93728  1.0000
  C   C63       1.0  0.91912  0.13202  0.66640  1.0000
  C   C64       1.0  0.90366  0.68762  0.67312  1.0000
  C   C65       1.0  0.38993  0.44989  0.97261  1.0000
  C   C66       1.0  0.96045  0.13037  0.74240  1.0000
  C   C67       1.0  0.00985  0.19946  0.75968  1.0000
  C   C68       1.0  0.01956  0.27261  0.70225  1.0000
  C   C69       1.0  0.97795  0.27478  0.62803  1.0000
  C   C70       1.0  0.92887  0.20603  0.61012  1.0000
  C   C71       1.0  0.92517  0.64242  0.59493  1.0000
  C   C72       1.0  0.97873  0.63592  0.60819  1.0000
  C   C73       1.0  0.01325  0.67622  0.69840  1.0000
  C   C74       1.0  0.99068  0.71849  0.77852  1.0000
  C   C75       1.0  0.93681  0.72372  0.76673  1.0000
  C   C76       1.0  0.34757  0.45352  0.90036  1.0000
  C   C77       1.0  0.29811  0.38460  0.88175  1.0000
  C   C78       1.0  0.28902  0.30983  0.93502  1.0000
  C   C79       1.0  0.33279  0.31180  0.51266  1.0000
  C   C80       1.0  0.38208  0.38060  0.52857  1.0000
  C   C81       1.0  0.07611  0.34488  0.70922  1.0000
  C   C82       1.0  0.07379  0.67745  0.71405  1.0000
  C   C83       1.0  0.23181  0.23821  0.92949  1.0000
  C   C84       1.0  0.23718  0.90731  0.93762  1.0000
  C   C85       1.0  0.22190  0.03190  0.54474  1.0000
  C   C86       1.0  0.19907  0.10132  0.52079  1.0000
  C   C87       1.0  0.25062  0.12038  0.84391  1.0000
  C   C88       1.0  0.26973  0.04736  0.86519  1.0000
  C   C89       1.0  0.05495  0.45957  0.79640  1.0000
  C   C90       1.0  0.03771  0.53481  0.77877  1.0000
  C   C91       1.0  0.08991  0.55750  0.60482  1.0000
  C   C92       1.0  0.11023  0.48516  0.62483  1.0000
  C   C93       1.0  0.10015  0.28708  0.52885  1.0000
  C   C94       1.0  0.14728  0.28017  0.95539  1.0000
  C   C95       1.0  0.20850  0.29916  0.61614  1.0000
  C   C96       1.0  0.15691  0.29573  0.68837  1.0000
  C   C97       1.0  0.17439  0.75836  0.66754  1.0000
  C   C98       1.0  0.20933  0.84430  0.62485  1.0000
  C   C99       1.0  0.13760  0.82527  0.98793  1.0000
  C   C100      1.0  0.10422  0.74329  0.52666  1.0000
  N   N1        1.0  0.23055  0.99261  0.43885  1.0000
  N   N2        1.0  0.06953  0.41890  0.19503  1.0000
  N   N3        1.0  0.11999  0.32495  0.13560  1.0000
  N   N4        1.0  0.11484  0.73453  0.14667  1.0000
  N   N5        1.0  0.24253  0.16340  0.45570  1.0000
  N   N6        1.0  0.08127  0.58976  0.21368  1.0000
  N   N7        1.0  0.18882  0.25142  0.00669  1.0000
  N   N8        1.0  0.19824  0.84522  0.00843  1.0000
  N   N9        1.0  0.22840  0.98839  0.93731  1.0000
  N   N10       1.0  0.06649  0.42344  0.68957  1.0000
  N   N11       1.0  0.12017  0.33210  0.63410  1.0000
  N   N12       1.0  0.11401  0.73991  0.64543  1.0000
  N   N13       1.0  0.24064  0.15916  0.94953  1.0000
  N   N14       1.0  0.08111  0.59525  0.71173  1.0000
  N   N15       1.0  0.18896  0.25476  0.51037  1.0000
  N   N16       1.0  0.19871  0.84826  0.50657  1.0000
  C  Sn1       1.0  0.79330  0.72237  0.52270  1.0000
  C   C101      1.0  0.75105  0.72315  0.60105  1.0000
  C  Sn2       1.0  0.75997  0.71928  0.71463  1.0000
  C  Sn3       1.0  0.81222  0.71459  0.75066  1.0000
  C   C102      1.0  0.85444  0.71383  0.67234  1.0000
  C  Sn4       1.0  0.84555  0.71768  0.55874  1.0000
  O  Te1       1.0  0.78347  0.72629  0.40959  1.0000
  O  Te2       1.0  0.71709  0.72013  0.79138  1.0000
  O  Te3       1.0  0.82203  0.71067  0.86388  1.0000
  O  Te4       1.0  0.88840  0.71685  0.48201  1.0000
  Mg  Mg1       1.0  0.75065  0.71367  0.93642  1.0000
  Mg  Mg2       1.0  0.85490  0.72335  0.33697  1.0000
  C  Sn5       1.0  0.97208  0.63997  0.08838  1.0000
  C   C103      1.0  0.01279  0.68009  0.16864  1.0000
  C  Sn6       1.0  0.99781  0.71862  0.26317  1.0000
  C  Sn7       1.0  0.94096  0.71698  0.27783  1.0000
  C   C104      1.0  0.90030  0.67686  0.19762  1.0000
  C  Sn8       1.0  0.91523  0.63832  0.10304  1.0000
  O  Te5       1.0  0.98009  0.62780  0.99452  1.0000
  O  Te6       1.0  0.03926  0.75836  0.34224  1.0000
  O  Te7       1.0  0.92507  0.75514  0.37178  1.0000
  O  Te8       1.0  0.87383  0.59859  0.02401  1.0000
  Mg  Mg3       1.0  0.99676  0.80132  0.45610  1.0000
  Mg  Mg4       1.0  0.90835  0.58152  0.91015  1.0000
  C  Sn9       1.0  0.01140  0.16771  0.23236  1.0000
  C   C105      1.0  0.02468  0.24846  0.19561  1.0000
  C  Sn10      1.0  0.98224  0.27382  0.15305  1.0000
  C  Sn11      1.0  0.92533  0.21731  0.14715  1.0000
  C   C106      1.0  0.91207  0.13662  0.18390  1.0000
  C  Sn12      1.0  0.95448  0.11120  0.22646  1.0000
  O  Te9       1.0  0.05451  0.14370  0.27460  1.0000
  O  Te10      1.0  0.99656  0.35486  0.11679  1.0000
  O  Te11      1.0  0.88221  0.24138  0.10486  1.0000
  O  Te12      1.0  0.94019  0.03022  0.26272  1.0000
  Mg  Mg5       1.0  0.92287  0.35829  0.06589  1.0000
  Mg  Mg6       1.0  0.01383  0.02674  0.31368  1.0000
  C  Sn13      1.0  0.49640  0.80738  0.10370  1.0000
  C   C107      1.0  0.54162  0.81349  0.02937  1.0000
  C  Sn14      1.0  0.54261  0.88900  0.93660  1.0000
  C  Sn15      1.0  0.50558  0.93342  0.91775  1.0000
  C   C108      1.0  0.46040  0.92731  0.99206  1.0000
  C  Sn16      1.0  0.45937  0.85180  0.08485  1.0000
  O  Te13      1.0  0.48830  0.75746  0.19589  1.0000
  O  Te14      1.0  0.58809  0.89411  0.86344  1.0000
  O  Te15      1.0  0.51372  0.98336  0.82546  1.0000
  O  Te16      1.0  0.41393  0.84669  0.15798  1.0000
  Mg  Mg7       1.0  0.58160  0.97030  0.74975  1.0000
  Mg  Mg8       1.0  0.42040  0.77056  0.27173  1.0000
  C  Sn17      1.0  0.84600  0.77021  0.06441  1.0000
  C   C109      1.0  0.85510  0.72457  0.15085  1.0000
  C  Sn18      1.0  0.80943  0.67727  0.21697  1.0000
  C  Sn19      1.0  0.75349  0.67551  0.19621  1.0000
  C   C110      1.0  0.74440  0.72111  0.10980  1.0000
  C  Sn20      1.0  0.79005  0.76844  0.04365  1.0000
  O  Te17      1.0  0.88437  0.84300  0.99936  1.0000
  O  Te18      1.0  0.81959  0.63219  0.30293  1.0000
  O  Te19      1.0  0.70719  0.62861  0.26134  1.0000
  O  Te20      1.0  0.77199  0.83944  0.95772  1.0000
  Mg  Mg9       1.0  0.74267  0.57770  0.36861  1.0000
  Mg  Mg10      1.0  0.84887  0.89391  0.89196  1.0000
  C  Sn21      1.0  0.36949  0.93106  0.07395  1.0000
  C   C111      1.0  0.39603  0.88718  0.00525  1.0000
  C  Sn22      1.0  0.36804  0.88588  0.89807  1.0000
  C  Sn23      1.0  0.32048  0.90288  0.85870  1.0000
  C   C112      1.0  0.29397  0.94675  0.92737  1.0000
  C  Sn24      1.0  0.32193  0.94807  0.03458  1.0000
  O  Te21      1.0  0.39028  0.95771  0.18080  1.0000
  O  Te22      1.0  0.39527  0.84210  0.83094  1.0000
  O  Te23      1.0  0.29970  0.87619  0.75176  1.0000
  O  Te24      1.0  0.29474  0.99183  0.10168  1.0000
  Mg  Mg11      1.0  0.35117  0.81883  0.69165  1.0000
  Mg  Mg12      1.0  0.09955  0.01516  0.24095  1.0000
  C  Sn25      1.0  0.36843  0.87908  0.35030  1.0000
  C   C113      1.0  0.40794  0.91205  0.43502  1.0000
  C  Sn26      1.0  0.39161  0.94243  0.53513  1.0000
  C  Sn27      1.0  0.33459  0.93977  0.55093  1.0000
  C   C114      1.0  0.29512  0.90680  0.46625  1.0000
  C  Sn28      1.0  0.31141  0.87642  0.36610  1.0000
  O  Te25      1.0  0.38569  0.84905  0.25091  1.0000
  O  Te26      1.0  0.43188  0.97512  0.61860  1.0000
  O  Te27      1.0  0.31735  0.96984  0.65043  1.0000
  O  Te28      1.0  0.27118  0.84373  0.28267  1.0000
  Mg  Mg13      1.0  0.38777  0.00837  0.73930  1.0000
  Mg  Mg14      1.0  0.31523  0.81042  0.16198  1.0000
  C  Sn29      1.0  0.82104  0.04736  0.53987  1.0000
  C   C115      1.0  0.85364  0.06779  0.63636  1.0000
  C  Sn30      1.0  0.08368  0.01024  0.71992  1.0000
  C  Sn31      1.0  0.04100  0.93058  0.70675  1.0000
  C   C116      1.0  0.00843  0.91018  0.61030  1.0000
  C  Sn32      1.0  0.01762  0.96771  0.52669  1.0000
  O  Te29      1.0  0.83100  0.10587  0.45740  1.0000
  O  Te30      1.0  0.87754  0.03210  0.81566  1.0000
  O  Te31      1.0  0.03106  0.87206  0.78932  1.0000
  O  Te32      1.0  0.98453  0.94587  0.43100  1.0000
  Mg  Mg15      1.0  0.08720  0.93105  0.90455  1.0000
  Mg  Mg16      1.0  0.77485  0.04686  0.34204  1.0000
