data_image0
_chemical_formula_structural       H108C100N16C2Sn2C2HTe2HMgC2Sn2C2HTe2HMgC2Sn2C2HTe2HMgC2Sn2C2HTe2HMgC2Sn2C2HTe2HMgC2Sn2C2HTe2HMgC2Sn2C2HTe2HMgC2Sn2C2HTe2HMg
_chemical_formula_sum              "H124 C132 N16 Sn16 Te16 Mg8"
_cell_length_a       25.0131
_cell_length_b       17.1824
_cell_length_c       12.012
_cell_angle_alpha    92.4561
_cell_angle_beta     88.3146
_cell_angle_gamma    110.383

_symmetry_space_group_name_H-M    'P1'
_space_group_IT_number       1

loop_
  _space_group_symop_operation_xyz
  'x, y, z'

loop_
  _atom_site_type_symbol
  _atom_site_label
  _atom_site_symmetry_multiplicity
  _atom_site_fract_x
  _atom_site_fract_y
  _atom_site_fract_z
  _atom_site_occupancy
  H   H1        1.0  0.64343  0.64023  0.08994  1.0000
  H   H2        1.0  0.66669  0.93531  0.05001  1.0000
  H   H3        1.0  0.86070  0.08622  0.47350  1.0000
  H   H4        1.0  0.77072  0.96889  0.44044  1.0000
  H   H5        1.0  0.71954  0.67587  0.26512  1.0000
  H   H6        1.0  0.80590  0.64156  0.30023  1.0000
  H   H7        1.0  0.58761  0.89097  0.36194  1.0000
  H   H8        1.0  0.50108  0.92603  0.32870  1.0000
  H   H9        1.0  0.31973  0.99176  0.09761  1.0000
  H   H10       1.0  0.41421  0.97822  0.12038  1.0000
  H   H11       1.0  0.89556  0.59297  0.04006  1.0000
  H   H12       1.0  0.99058  0.58198  0.06385  1.0000
  H   H13       1.0  0.02297  0.76110  0.33711  1.0000
  H   H14       1.0  0.92742  0.77148  0.31421  1.0000
  H   H15       1.0  0.35315  0.51434  0.35978  1.0000
  H   H16       1.0  0.26627  0.39163  0.33021  1.0000
  H   H17       1.0  0.09625  0.34262  0.29768  1.0000
  H   H18       1.0  0.08574  0.69574  0.30241  1.0000
  H   H19       1.0  0.21659  0.23876  0.35084  1.0000
  H   H20       1.0  0.22601  0.88707  0.35041  1.0000
  H   H21       1.0  0.25847  0.05553  0.09191  1.0000
  H   H22       1.0  0.18728  0.98286  0.09251  1.0000
  H   H23       1.0  0.19064  0.12906  0.09553  1.0000
  H   H24       1.0  0.15819  0.07432  0.47674  1.0000
  H   H25       1.0  0.28762  0.17360  0.30404  1.0000
  H   H26       1.0  0.21517  0.10534  0.29679  1.0000
  H   H27       1.0  0.27574  0.02117  0.28800  1.0000
  H   H28       1.0  0.31535  0.07496  0.40533  1.0000
  H   H29       1.0  0.09340  0.47539  0.35574  1.0000
  H   H30       1.0  0.02123  0.40690  0.34354  1.0000
  H   H31       1.0  0.03141  0.55839  0.35878  1.0000
  H   H32       1.0  0.99579  0.50542  0.23756  1.0000
  H   H33       1.0  0.12774  0.59951  0.06359  1.0000
  H   H34       1.0  0.05706  0.52636  0.05442  1.0000
  H   H35       1.0  0.12681  0.45463  0.05987  1.0000
  H   H36       1.0  0.15435  0.50806  0.18749  1.0000
  H   H37       1.0  0.07465  0.31699  0.48572  1.0000
  H   H38       1.0  0.07312  0.21026  0.05137  1.0000
  H   H39       1.0  0.17403  0.35457  0.43225  1.0000
  H   H40       1.0  0.13568  0.25175  0.38040  1.0000
  H   H41       1.0  0.23596  0.36511  0.09289  1.0000
  H   H42       1.0  0.23876  0.27289  0.14939  1.0000
  H   H43       1.0  0.14121  0.23080  0.21473  1.0000
  H   H44       1.0  0.17809  0.33602  0.25973  1.0000
  H   H45       1.0  0.19248  0.70900  0.12665  1.0000
  H   H46       1.0  0.18121  0.75292  0.25816  1.0000
  H   H47       1.0  0.25512  0.85310  0.13601  1.0000
  H   H48       1.0  0.19805  0.88742  0.17927  1.0000
  H   H49       1.0  0.13270  0.83175  0.39546  1.0000
  H   H50       1.0  0.12041  0.86989  0.03085  1.0000
  H   H51       1.0  0.05854  0.72397  0.01677  1.0000
  H   H52       1.0  0.11748  0.69779  0.47563  1.0000
  H   H53       1.0  0.64202  0.64530  0.60202  1.0000
  H   H54       1.0  0.66791  0.93987  0.54813  1.0000
  H   H55       1.0  0.77203  0.89327  0.77661  1.0000
  H   H56       1.0  0.85946  0.01324  0.81279  1.0000
  H   H57       1.0  0.88365  0.76063  0.99953  1.0000
  H   H58       1.0  0.79801  0.79719  0.96612  1.0000
  H   H59       1.0  0.43400  0.83621  0.65074  1.0000
  H   H60       1.0  0.51916  0.79747  0.68163  1.0000
  H   H61       1.0  0.38737  0.81967  0.82524  1.0000
  H   H62       1.0  0.29230  0.83147  0.80424  1.0000
  H   H63       1.0  0.95425  0.07389  0.78678  1.0000
  H   H64       1.0  0.04128  0.19588  0.81820  1.0000
  H   H65       1.0  0.98500  0.33216  0.58538  1.0000
  H   H66       1.0  0.89709  0.21012  0.55293  1.0000
  H   H67       1.0  0.89965  0.61207  0.52321  1.0000
  H   H68       1.0  0.99372  0.59962  0.54665  1.0000
  H   H69       1.0  0.01625  0.74915  0.85025  1.0000
  H   H70       1.0  0.92077  0.75893  0.82800  1.0000
  H   H71       1.0  0.32680  0.25419  0.55394  1.0000
  H   H72       1.0  0.41513  0.37613  0.58204  1.0000
  H   H73       1.0  0.09309  0.34851  0.79381  1.0000
  H   H74       1.0  0.08425  0.70026  0.80070  1.0000
  H   H75       1.0  0.21451  0.23514  0.84534  1.0000
  H   H76       1.0  0.22597  0.88273  0.85188  1.0000
  H   H77       1.0  0.26149  0.05969  0.59320  1.0000
  H   H78       1.0  0.19076  0.98547  0.59575  1.0000
  H   H79       1.0  0.19056  0.13063  0.59883  1.0000
  H   H80       1.0  0.15589  0.07273  0.97538  1.0000
  H   H81       1.0  0.28407  0.16679  0.79616  1.0000
  H   H82       1.0  0.21163  0.09860  0.79283  1.0000
  H   H83       1.0  0.27280  0.01480  0.78566  1.0000
  H   H84       1.0  0.31279  0.07136  0.90143  1.0000
  H   H85       1.0  0.09270  0.47802  0.85085  1.0000
  H   H86       1.0  0.01991  0.41209  0.83930  1.0000
  H   H87       1.0  0.03353  0.56453  0.85999  1.0000
  H   H88       1.0  0.99537  0.51397  0.73959  1.0000
  H   H89       1.0  0.12265  0.60391  0.55671  1.0000
  H   H90       1.0  0.05083  0.53402  0.55435  1.0000
  H   H91       1.0  0.11630  0.45649  0.54444  1.0000
  H   H92       1.0  0.15208  0.50897  0.66581  1.0000
  H   H93       1.0  0.06868  0.30146  0.99439  1.0000
  H   H94       1.0  0.07277  0.22184  0.54105  1.0000
  H   H95       1.0  0.16684  0.34489  0.92806  1.0000
  H   H96       1.0  0.13047  0.23957  0.88238  1.0000
  H   H97       1.0  0.23574  0.36468  0.60562  1.0000
  H   H98       1.0  0.23385  0.26895  0.65905  1.0000
  H   H99       1.0  0.13373  0.23020  0.70935  1.0000
  H   H100      1.0  0.17192  0.33177  0.76552  1.0000
  H   H101      1.0  0.19078  0.71163  0.62813  1.0000
  H   H102      1.0  0.17997  0.75791  0.75799  1.0000
  H   H103      1.0  0.25481  0.85558  0.63580  1.0000
  H   H104      1.0  0.19797  0.89097  0.67718  1.0000
  H   H105      1.0  0.13185  0.82830  0.89803  1.0000
  H   H106      1.0  0.12162  0.87551  0.52725  1.0000
  H   H107      1.0  0.05867  0.73002  0.51371  1.0000
  H   H108      1.0  0.11759  0.69305  0.97636  1.0000
  C   C1        1.0  0.60757  0.80995  0.04443  1.0000
  C   C2        1.0  0.60057  0.72560  0.05775  1.0000
  C   C3        1.0  0.64846  0.70546  0.08369  1.0000
  C   C4        1.0  0.70299  0.76568  0.09503  1.0000
  C   C5        1.0  0.70995  0.85034  0.08240  1.0000
  C   C6        1.0  0.66196  0.87024  0.05621  1.0000
  C   C7        1.0  0.75280  0.73984  0.11374  1.0000
  C   C8        1.0  0.75541  0.69441  0.20653  1.0000
  C   C9        1.0  0.80416  0.67518  0.22647  1.0000
  C   C10       1.0  0.85106  0.69879  0.15246  1.0000
  C   C11       1.0  0.84747  0.74151  0.05732  1.0000
  C   C12       1.0  0.79943  0.76234  0.03882  1.0000
  C   C13       1.0  0.55389  0.87889  0.42523  1.0000
  C   C14       1.0  0.50519  0.89844  0.40644  1.0000
  C   C15       1.0  0.46139  0.88299  0.48724  1.0000
  C   C16       1.0  0.90510  0.68425  0.17393  1.0000
  C   C17       1.0  0.39073  0.45542  0.47501  1.0000
  C   C18       1.0  0.33400  0.95315  0.03827  1.0000
  C   C19       1.0  0.38742  0.94587  0.05107  1.0000
  C   C20       1.0  0.92350  0.63016  0.10508  1.0000
  C   C21       1.0  0.97723  0.62403  0.11876  1.0000
  C   C22       1.0  0.01435  0.67238  0.20072  1.0000
  C   C23       1.0  0.99487  0.72370  0.27230  1.0000
  C   C24       1.0  0.94109  0.72945  0.25978  1.0000
  C   C25       1.0  0.34808  0.45755  0.40251  1.0000
  C   C26       1.0  0.29869  0.38812  0.38635  1.0000
  C   C27       1.0  0.28986  0.31452  0.44228  1.0000
  C   C28       1.0  0.07802  0.33948  0.21431  1.0000
  C   C29       1.0  0.07476  0.67254  0.21595  1.0000
  C   C30       1.0  0.23316  0.24212  0.43571  1.0000
  C   C31       1.0  0.23801  0.91048  0.43634  1.0000
  C   C32       1.0  0.21933  0.02856  0.04203  1.0000
  C   C33       1.0  0.19751  0.09872  0.01709  1.0000
  C   C34       1.0  0.25366  0.12622  0.34942  1.0000
  C   C35       1.0  0.27242  0.05241  0.36851  1.0000
  C   C36       1.0  0.05596  0.45466  0.30042  1.0000
  C   C37       1.0  0.03757  0.52849  0.27899  1.0000
  C   C38       1.0  0.09425  0.55256  0.10960  1.0000
  C   C39       1.0  0.11549  0.48226  0.13672  1.0000
  C   C40       1.0  0.09768  0.27587  0.03426  1.0000
  C   C41       1.0  0.15138  0.28954  0.45597  1.0000
  C   C42       1.0  0.21063  0.29956  0.10871  1.0000
  C   C43       1.0  0.16106  0.29546  0.18697  1.0000
  C   C44       1.0  0.17543  0.75441  0.16797  1.0000
  C   C45       1.0  0.20947  0.84111  0.12622  1.0000
  C   C46       1.0  0.13826  0.82979  0.48563  1.0000
  C   C47       1.0  0.10432  0.73810  0.02828  1.0000
  C   C48       1.0  0.60820  0.81496  0.54474  1.0000
  C   C49       1.0  0.60059  0.73080  0.56116  1.0000
  C   C50       1.0  0.64755  0.71038  0.59267  1.0000
  C   C51       1.0  0.70193  0.77039  0.60522  1.0000
  C   C52       1.0  0.70959  0.85447  0.58791  1.0000
  C   C53       1.0  0.66252  0.87489  0.55750  1.0000
  C   C54       1.0  0.76488  0.92251  0.60608  1.0000
  C   C55       1.0  0.55888  0.84104  0.52367  1.0000
  C   C56       1.0  0.79158  0.93533  0.70994  1.0000
  C   C57       1.0  0.84130  0.00291  0.72986  1.0000
  C   C58       1.0  0.86693  0.05932  0.64583  1.0000
  C   C59       1.0  0.84082  0.04507  0.54102  1.0000
  C   C60       1.0  0.79038  0.97843  0.52189  1.0000
  C   C61       1.0  0.46783  0.84854  0.58780  1.0000
  C   C62       1.0  0.51545  0.82677  0.60512  1.0000
  C   C63       1.0  0.40718  0.89688  0.97547  1.0000
  C   C64       1.0  0.91912  0.13202  0.66640  1.0000
  C   C65       1.0  0.90366  0.68762  0.67312  1.0000
  C   C66       1.0  0.37280  0.85802  0.88447  1.0000
  C   C67       1.0  0.31918  0.86425  0.87330  1.0000
  C   C68       1.0  0.29819  0.90998  0.95130  1.0000
  C   C69       1.0  0.96045  0.13037  0.74240  1.0000
  C   C70       1.0  0.00985  0.19946  0.75968  1.0000
  C   C71       1.0  0.01956  0.27261  0.70225  1.0000
  C   C72       1.0  0.97795  0.27478  0.62803  1.0000
  C   C73       1.0  0.92887  0.20603  0.61012  1.0000
  C   C74       1.0  0.92517  0.64242  0.59493  1.0000
  C   C75       1.0  0.97873  0.63592  0.60819  1.0000
  C   C76       1.0  0.01325  0.67622  0.69840  1.0000
  C   C77       1.0  0.99068  0.71849  0.77852  1.0000
  C   C78       1.0  0.93681  0.72372  0.76673  1.0000
  C   C79       1.0  0.33279  0.31180  0.51266  1.0000
  C   C80       1.0  0.38208  0.38060  0.52857  1.0000
  C   C81       1.0  0.07611  0.34488  0.70922  1.0000
  C   C82       1.0  0.07379  0.67745  0.71405  1.0000
  C   C83       1.0  0.23181  0.23821  0.92949  1.0000
  C   C84       1.0  0.23718  0.90731  0.93762  1.0000
  C   C85       1.0  0.22190  0.03190  0.54474  1.0000
  C   C86       1.0  0.19907  0.10132  0.52079  1.0000
  C   C87       1.0  0.25062  0.12038  0.84391  1.0000
  C   C88       1.0  0.26973  0.04736  0.86519  1.0000
  C   C89       1.0  0.05495  0.45957  0.79640  1.0000
  C   C90       1.0  0.03771  0.53481  0.77877  1.0000
  C   C91       1.0  0.08991  0.55750  0.60482  1.0000
  C   C92       1.0  0.11023  0.48516  0.62483  1.0000
  C   C93       1.0  0.10015  0.28708  0.52885  1.0000
  C   C94       1.0  0.14728  0.28017  0.95539  1.0000
  C   C95       1.0  0.20850  0.29916  0.61614  1.0000
  C   C96       1.0  0.15691  0.29573  0.68837  1.0000
  C   C97       1.0  0.17439  0.75836  0.66754  1.0000
  C   C98       1.0  0.20933  0.84430  0.62485  1.0000
  C   C99       1.0  0.13760  0.82527  0.98793  1.0000
  C   C100      1.0  0.10422  0.74329  0.52666  1.0000
  N   N1        1.0  0.23055  0.99261  0.43885  1.0000
  N   N2        1.0  0.06953  0.41890  0.19503  1.0000
  N   N3        1.0  0.11999  0.32495  0.13560  1.0000
  N   N4        1.0  0.11484  0.73453  0.14667  1.0000
  N   N5        1.0  0.24253  0.16340  0.45570  1.0000
  N   N6        1.0  0.08127  0.58976  0.21368  1.0000
  N   N7        1.0  0.18882  0.25142  0.00669  1.0000
  N   N8        1.0  0.19824  0.84522  0.00843  1.0000
  N   N9        1.0  0.22840  0.98839  0.93731  1.0000
  N   N10       1.0  0.06649  0.42344  0.68957  1.0000
  N   N11       1.0  0.12017  0.33210  0.63410  1.0000
  N   N12       1.0  0.11401  0.73991  0.64543  1.0000
  N   N13       1.0  0.24064  0.15916  0.94953  1.0000
  N   N14       1.0  0.08111  0.59525  0.71173  1.0000
  N   N15       1.0  0.18896  0.25476  0.51037  1.0000
  N   N16       1.0  0.19871  0.84826  0.50657  1.0000
  C   C101      1.0  0.34652  0.31391  0.01628  1.0000
  C   C102      1.0  0.29022  0.33423  0.95650  1.0000
  C  Sn1       1.0  0.28881  0.40196  0.89788  1.0000
  C  Sn2       1.0  0.33678  0.47663  0.89926  1.0000
  C   C103      1.0  0.38499  0.48161  0.95925  1.0000
  C   C104      1.0  0.39386  0.38752  0.01765  1.0000
  H   H109      1.0  0.34727  0.26118  0.06141  1.0000
  O  Te1       1.0  0.24012  0.39529  0.83861  1.0000
  O  Te2       1.0  0.33652  0.54526  0.84137  1.0000
  H   H110      1.0  0.43134  0.39188  0.06387  1.0000
  Mg  Mg1       1.0  0.26025  0.50581  0.77284  1.0000
  C   C105      1.0  0.54146  0.87549  0.90564  1.0000
  C   C106      1.0  0.56684  0.82323  0.00220  1.0000
  C  Sn3       1.0  0.53229  0.80952  0.09809  1.0000
  C  Sn4       1.0  0.47929  0.82243  0.09703  1.0000
  C   C107      1.0  0.45426  0.87466  0.99999  1.0000
  C   C108      1.0  0.48918  0.88821  0.90451  1.0000
  H   H111      1.0  0.56846  0.88594  0.83175  1.0000
  O  Te3       1.0  0.55040  0.78326  0.19385  1.0000
  O  Te4       1.0  0.44391  0.80916  0.19169  1.0000
  H   H112      1.0  0.47563  0.90854  0.82975  1.0000
  Mg  Mg2       1.0  0.48726  0.77357  0.30197  1.0000
  C   C109      1.0  0.83407  0.97080  0.23337  1.0000
  C   C110      1.0  0.62507  0.03708  0.16671  1.0000
  C  Sn5       1.0  0.60365  0.04618  0.06384  1.0000
  C  Sn6       1.0  0.79021  0.98775  0.02727  1.0000
  C   C111      1.0  0.76024  0.92169  0.09460  1.0000
  C   C112      1.0  0.78208  0.91316  0.19737  1.0000
  H   H113      1.0  0.85095  0.96423  0.31291  1.0000
  O  Te5       1.0  0.62652  0.13869  0.99827  1.0000
  O  Te6       1.0  0.75989  0.02132  0.92484  1.0000
  H   H114      1.0  0.75862  0.86187  0.24900  1.0000
  Mg  Mg3       1.0  0.57840  0.12253  0.86521  1.0000
  C   C113      1.0  0.47702  0.60341  0.90712  1.0000
  C   C114      1.0  0.44928  0.53446  0.97127  1.0000
  C  Sn7       1.0  0.47656  0.50344  0.07770  1.0000
  C  Sn8       1.0  0.52458  0.56872  0.12049  1.0000
  C   C115      1.0  0.55200  0.63747  0.05569  1.0000
  C   C116      1.0  0.52436  0.66784  0.94928  1.0000
  H   H115      1.0  0.46174  0.60687  0.82481  1.0000
  O  Te7       1.0  0.44837  0.43410  0.14067  1.0000
  O  Te8       1.0  0.54481  0.56526  0.22662  1.0000
  H   H116      1.0  0.54582  0.72126  0.89966  1.0000
  Mg  Mg4       1.0  0.49204  0.45792  0.28059  1.0000
  C   C117      1.0  0.82943  0.73302  0.53207  1.0000
  C   C118      1.0  0.84860  0.70986  0.62911  1.0000
  C  Sn9       1.0  0.81574  0.69933  0.72712  1.0000
  C  Sn10      1.0  0.76272  0.71225  0.72772  1.0000
  C   C119      1.0  0.74389  0.73536  0.63018  1.0000
  C   C120      1.0  0.77712  0.74575  0.53258  1.0000
  H   H117      1.0  0.85512  0.74102  0.45653  1.0000
  O  Te9       1.0  0.83555  0.67619  0.82335  1.0000
  O  Te10      1.0  0.72901  0.70212  0.82451  1.0000
  H   H118      1.0  0.76225  0.76364  0.45744  1.0000
  Mg  Mg5       1.0  0.77431  0.67011  0.93462  1.0000
  C   C121      1.0  0.34751  0.95694  0.55314  1.0000
  C   C122      1.0  0.30849  0.92788  0.46683  1.0000
  C  Sn11      1.0  0.31879  0.87874  0.37899  1.0000
  C  Sn12      1.0  0.36914  0.85840  0.37779  1.0000
  C   C123      1.0  0.40790  0.88773  0.46458  1.0000
  C   C124      1.0  0.39717  0.93688  0.55205  1.0000
  H   H119      1.0  0.33920  0.99493  0.62086  1.0000
  O  Te11      1.0  0.27937  0.85025  0.29339  1.0000
  O  Te12      1.0  0.38049  0.80937  0.29104  1.0000
  H   H120      1.0  0.42737  0.95933  0.61891  1.0000
  Mg  Mg6       1.0  0.31384  0.78538  0.19337  1.0000
  C   C125      1.0  0.50586  0.64402  0.41905  1.0000
  C   C126      1.0  0.53681  0.66659  0.51748  1.0000
  C  Sn13      1.0  0.52136  0.61524  0.60882  1.0000
  C  Sn14      1.0  0.47404  0.53993  0.60121  1.0000
  C   C127      1.0  0.44338  0.51788  0.50235  1.0000
  C   C128      1.0  0.45920  0.56973  0.41147  1.0000
  H   H121      1.0  0.51812  0.68411  0.34871  1.0000
  O  Te13      1.0  0.55273  0.63874  0.70654  1.0000
  O  Te14      1.0  0.45768  0.48744  0.69122  1.0000
  H   H122      1.0  0.43525  0.55222  0.33524  1.0000
  Mg  Mg7       1.0  0.51381  0.54648  0.80654  1.0000
  C   C129      1.0  0.93547  0.22721  0.12251  1.0000
  C   C130      1.0  0.92160  0.14566  0.15652  1.0000
  C  Sn15      1.0  0.95850  0.12470  0.22463  1.0000
  C  Sn16      1.0  0.01020  0.18667  0.25921  1.0000
  C   C131      1.0  0.02366  0.26809  0.22479  1.0000
  C   C132      1.0  0.98644  0.28838  0.15661  1.0000
  H   H123      1.0  0.90666  0.24293  0.06980  1.0000
  O  Te15      1.0  0.94400  0.04291  0.25782  1.0000
  O  Te16      1.0  0.04784  0.16743  0.32732  1.0000
  H   H124      1.0  0.99717  0.35154  0.13035  1.0000
  Mg  Mg8       1.0  0.00920  0.04724  0.35063  1.0000
