data_image0
_chemical_formula_structural       H76C52N16SnCSn2CSnTe4Mg2SnCSn2CSnTe4Mg2SnCSn2CSnTe4Mg2SnCSn2CSnTe4Mg2SnCSn2CSnTe4Mg2SnCSn2CSnTe4Mg2SnCSn2CSnTe4Mg2SnCSn2CSnTe4Mg2SnCSn2CSnTe4Mg2SnCSn2CSnTe4Mg2SnCSn2CSnTe4Mg2SnCSn2CSnTe4Mg2SnCSn2CSnTe4Mg2SnCSn2CSnTe4Mg2SnCSn2CSnTe4Mg2SnCSn2CSnTe4Mg2
_chemical_formula_sum              "H76 C84 N16 Sn64 Te64 Mg32"
_cell_length_a       25.0131
_cell_length_b       17.1824
_cell_length_c       12.012
_cell_angle_alpha    92.4561
_cell_angle_beta     88.3146
_cell_angle_gamma    110.383

_symmetry_space_group_name_H-M    'P1'
_space_group_IT_number       1

loop_
  _space_group_symop_operation_xyz
  'x, y, z'

loop_
  _atom_site_type_symbol
  _atom_site_label
  _atom_site_symmetry_multiplicity
  _atom_site_fract_x
  _atom_site_fract_y
  _atom_site_fract_z
  _atom_site_occupancy
  H   H1        1.0  0.64343  0.64023  0.08994  1.0000
  H   H2        1.0  0.66669  0.93531  0.05001  1.0000
  H   H3        1.0  0.09625  0.34262  0.29768  1.0000
  H   H4        1.0  0.08574  0.69574  0.30241  1.0000
  H   H5        1.0  0.21659  0.23876  0.35084  1.0000
  H   H6        1.0  0.22601  0.88707  0.35041  1.0000
  H   H7        1.0  0.25847  0.05553  0.09191  1.0000
  H   H8        1.0  0.18728  0.98286  0.09251  1.0000
  H   H9        1.0  0.19064  0.12906  0.09553  1.0000
  H   H10       1.0  0.15819  0.07432  0.47674  1.0000
  H   H11       1.0  0.28762  0.17360  0.30404  1.0000
  H   H12       1.0  0.21517  0.10534  0.29679  1.0000
  H   H13       1.0  0.27574  0.02117  0.28800  1.0000
  H   H14       1.0  0.31535  0.07496  0.40533  1.0000
  H   H15       1.0  0.09340  0.47539  0.35574  1.0000
  H   H16       1.0  0.02123  0.40690  0.34354  1.0000
  H   H17       1.0  0.03141  0.55839  0.35878  1.0000
  H   H18       1.0  0.99579  0.50542  0.23756  1.0000
  H   H19       1.0  0.12774  0.59951  0.06359  1.0000
  H   H20       1.0  0.05706  0.52636  0.05442  1.0000
  H   H21       1.0  0.12681  0.45463  0.05987  1.0000
  H   H22       1.0  0.15435  0.50806  0.18749  1.0000
  H   H23       1.0  0.07465  0.31699  0.48572  1.0000
  H   H24       1.0  0.07312  0.21026  0.05137  1.0000
  H   H25       1.0  0.17403  0.35457  0.43225  1.0000
  H   H26       1.0  0.13568  0.25175  0.38040  1.0000
  H   H27       1.0  0.23596  0.36511  0.09289  1.0000
  H   H28       1.0  0.23876  0.27289  0.14939  1.0000
  H   H29       1.0  0.14121  0.23080  0.21473  1.0000
  H   H30       1.0  0.17809  0.33602  0.25973  1.0000
  H   H31       1.0  0.19248  0.70900  0.12665  1.0000
  H   H32       1.0  0.18121  0.75292  0.25816  1.0000
  H   H33       1.0  0.25512  0.85310  0.13601  1.0000
  H   H34       1.0  0.19805  0.88742  0.17927  1.0000
  H   H35       1.0  0.13270  0.83175  0.39546  1.0000
  H   H36       1.0  0.12041  0.86989  0.03085  1.0000
  H   H37       1.0  0.05854  0.72397  0.01677  1.0000
  H   H38       1.0  0.11748  0.69779  0.47563  1.0000
  H   H39       1.0  0.64202  0.64530  0.60202  1.0000
  H   H40       1.0  0.66791  0.93987  0.54813  1.0000
  H   H41       1.0  0.09309  0.34851  0.79381  1.0000
  H   H42       1.0  0.08425  0.70026  0.80070  1.0000
  H   H43       1.0  0.21451  0.23514  0.84534  1.0000
  H   H44       1.0  0.22597  0.88273  0.85188  1.0000
  H   H45       1.0  0.26149  0.05969  0.59320  1.0000
  H   H46       1.0  0.19076  0.98547  0.59575  1.0000
  H   H47       1.0  0.19056  0.13063  0.59883  1.0000
  H   H48       1.0  0.15589  0.07273  0.97538  1.0000
  H   H49       1.0  0.28407  0.16679  0.79616  1.0000
  H   H50       1.0  0.21163  0.09860  0.79283  1.0000
  H   H51       1.0  0.27280  0.01480  0.78566  1.0000
  H   H52       1.0  0.31279  0.07136  0.90143  1.0000
  H   H53       1.0  0.09270  0.47802  0.85085  1.0000
  H   H54       1.0  0.01991  0.41209  0.83930  1.0000
  H   H55       1.0  0.03353  0.56453  0.85999  1.0000
  H   H56       1.0  0.99537  0.51397  0.73959  1.0000
  H   H57       1.0  0.12265  0.60391  0.55671  1.0000
  H   H58       1.0  0.05083  0.53402  0.55435  1.0000
  H   H59       1.0  0.11630  0.45649  0.54444  1.0000
  H   H60       1.0  0.15208  0.50897  0.66581  1.0000
  H   H61       1.0  0.06868  0.30146  0.99439  1.0000
  H   H62       1.0  0.07277  0.22184  0.54105  1.0000
  H   H63       1.0  0.16684  0.34489  0.92806  1.0000
  H   H64       1.0  0.13047  0.23957  0.88238  1.0000
  H   H65       1.0  0.23574  0.36468  0.60562  1.0000
  H   H66       1.0  0.23385  0.26895  0.65905  1.0000
  H   H67       1.0  0.13373  0.23020  0.70935  1.0000
  H   H68       1.0  0.17192  0.33177  0.76552  1.0000
  H   H69       1.0  0.19078  0.71163  0.62813  1.0000
  H   H70       1.0  0.17997  0.75791  0.75799  1.0000
  H   H71       1.0  0.25481  0.85558  0.63580  1.0000
  H   H72       1.0  0.19797  0.89097  0.67718  1.0000
  H   H73       1.0  0.13185  0.82830  0.89803  1.0000
  H   H74       1.0  0.12162  0.87551  0.52725  1.0000
  H   H75       1.0  0.05867  0.73002  0.51371  1.0000
  H   H76       1.0  0.11759  0.69305  0.97636  1.0000
  C   C1        1.0  0.60757  0.80995  0.04443  1.0000
  C   C2        1.0  0.60057  0.72560  0.05775  1.0000
  C   C3        1.0  0.64846  0.70546  0.08369  1.0000
  C   C4        1.0  0.70299  0.76568  0.09503  1.0000
  C   C5        1.0  0.70995  0.85034  0.08240  1.0000
  C   C6        1.0  0.66196  0.87024  0.05621  1.0000
  C   C7        1.0  0.07802  0.33948  0.21431  1.0000
  C   C8        1.0  0.07476  0.67254  0.21595  1.0000
  C   C9        1.0  0.23316  0.24212  0.43571  1.0000
  C   C10       1.0  0.23801  0.91048  0.43634  1.0000
  C   C11       1.0  0.21933  0.02856  0.04203  1.0000
  C   C12       1.0  0.19751  0.09872  0.01709  1.0000
  C   C13       1.0  0.25366  0.12622  0.34942  1.0000
  C   C14       1.0  0.27242  0.05241  0.36851  1.0000
  C   C15       1.0  0.05596  0.45466  0.30042  1.0000
  C   C16       1.0  0.03757  0.52849  0.27899  1.0000
  C   C17       1.0  0.09425  0.55256  0.10960  1.0000
  C   C18       1.0  0.11549  0.48226  0.13672  1.0000
  C   C19       1.0  0.09768  0.27587  0.03426  1.0000
  C   C20       1.0  0.15138  0.28954  0.45597  1.0000
  C   C21       1.0  0.21063  0.29956  0.10871  1.0000
  C   C22       1.0  0.16106  0.29546  0.18697  1.0000
  C   C23       1.0  0.17543  0.75441  0.16797  1.0000
  C   C24       1.0  0.20947  0.84111  0.12622  1.0000
  C   C25       1.0  0.13826  0.82979  0.48563  1.0000
  C   C26       1.0  0.10432  0.73810  0.02828  1.0000
  C   C27       1.0  0.60820  0.81496  0.54474  1.0000
  C   C28       1.0  0.60059  0.73080  0.56116  1.0000
  C   C29       1.0  0.64755  0.71038  0.59267  1.0000
  C   C30       1.0  0.70193  0.77039  0.60522  1.0000
  C   C31       1.0  0.70959  0.85447  0.58791  1.0000
  C   C32       1.0  0.66252  0.87489  0.55750  1.0000
  C   C33       1.0  0.07611  0.34488  0.70922  1.0000
  C   C34       1.0  0.07379  0.67745  0.71405  1.0000
  C   C35       1.0  0.23181  0.23821  0.92949  1.0000
  C   C36       1.0  0.23718  0.90731  0.93762  1.0000
  C   C37       1.0  0.22190  0.03190  0.54474  1.0000
  C   C38       1.0  0.19907  0.10132  0.52079  1.0000
  C   C39       1.0  0.25062  0.12038  0.84391  1.0000
  C   C40       1.0  0.26973  0.04736  0.86519  1.0000
  C   C41       1.0  0.05495  0.45957  0.79640  1.0000
  C   C42       1.0  0.03771  0.53481  0.77877  1.0000
  C   C43       1.0  0.08991  0.55750  0.60482  1.0000
  C   C44       1.0  0.11023  0.48516  0.62483  1.0000
  C   C45       1.0  0.10015  0.28708  0.52885  1.0000
  C   C46       1.0  0.14728  0.28017  0.95539  1.0000
  C   C47       1.0  0.20850  0.29916  0.61614  1.0000
  C   C48       1.0  0.15691  0.29573  0.68837  1.0000
  C   C49       1.0  0.17439  0.75836  0.66754  1.0000
  C   C50       1.0  0.20933  0.84430  0.62485  1.0000
  C   C51       1.0  0.13760  0.82527  0.98793  1.0000
  C   C52       1.0  0.10422  0.74329  0.52666  1.0000
  N   N1        1.0  0.23055  0.99261  0.43885  1.0000
  N   N2        1.0  0.06953  0.41890  0.19503  1.0000
  N   N3        1.0  0.11999  0.32495  0.13560  1.0000
  N   N4        1.0  0.11484  0.73453  0.14667  1.0000
  N   N5        1.0  0.24253  0.16340  0.45570  1.0000
  N   N6        1.0  0.08127  0.58976  0.21368  1.0000
  N   N7        1.0  0.18882  0.25142  0.00669  1.0000
  N   N8        1.0  0.19824  0.84522  0.00843  1.0000
  N   N9        1.0  0.22840  0.98839  0.93731  1.0000
  N   N10       1.0  0.06649  0.42344  0.68957  1.0000
  N   N11       1.0  0.12017  0.33210  0.63410  1.0000
  N   N12       1.0  0.11401  0.73991  0.64543  1.0000
  N   N13       1.0  0.24064  0.15916  0.94953  1.0000
  N   N14       1.0  0.08111  0.59525  0.71173  1.0000
  N   N15       1.0  0.18896  0.25476  0.51037  1.0000
  N   N16       1.0  0.19871  0.84826  0.50657  1.0000
  C  Sn1       1.0  0.81726  0.05071  0.05427  1.0000
  C   C53       1.0  0.85344  0.06321  0.14492  1.0000
  C  Sn2       1.0  0.08757  0.99820  0.21518  1.0000
  C  Sn3       1.0  0.04544  0.91902  0.19437  1.0000
  C   C54       1.0  0.00930  0.90655  0.10376  1.0000
  C  Sn4       1.0  0.01439  0.97154  0.03346  1.0000
  O  Te1       1.0  0.81523  0.14254  0.98512  1.0000
  O  Te2       1.0  0.88496  0.01221  0.30530  1.0000
  O  Te3       1.0  0.03958  0.85312  0.26361  1.0000
  O  Te4       1.0  0.96987  0.98350  0.94337  1.0000
  Mg  Mg1       1.0  0.09952  0.90291  0.37566  1.0000
  Mg  Mg2       1.0  0.75529  0.09273  0.87293  1.0000
  C  Sn5       1.0  0.80435  0.73895  0.01849  1.0000
  C   C55       1.0  0.75530  0.72313  0.08537  1.0000
  C  Sn6       1.0  0.75507  0.69982  0.19541  1.0000
  C  Sn7       1.0  0.80492  0.69220  0.23957  1.0000
  C   C56       1.0  0.85394  0.70803  0.17272  1.0000
  C  Sn8       1.0  0.85420  0.73134  0.06265  1.0000
  O  Te5       1.0  0.79570  0.78813  0.90871  1.0000
  O  Te6       1.0  0.70551  0.68430  0.26065  1.0000
  O  Te7       1.0  0.80562  0.66895  0.34945  1.0000
  O  Te8       1.0  0.89581  0.77281  0.99744  1.0000
  Mg  Mg3       1.0  0.72762  0.65446  0.40534  1.0000
  Mg  Mg4       1.0  0.87376  0.80269  0.85276  1.0000
  C  Sn9       1.0  0.48441  0.86456  0.61307  1.0000
  C   C57       1.0  0.47165  0.89989  0.51933  1.0000
  C  Sn10      1.0  0.50133  0.90023  0.41889  1.0000
  C  Sn11      1.0  0.54463  0.86447  0.41198  1.0000
  C   C58       1.0  0.55736  0.82916  0.50568  1.0000
  C  Sn12      1.0  0.52771  0.82880  0.60617  1.0000
  O  Te9       1.0  0.45420  0.86490  0.71262  1.0000
  O  Te10      1.0  0.48783  0.93594  0.32631  1.0000
  O  Te11      1.0  0.57485  0.86416  0.31232  1.0000
  O  Te12      1.0  0.54119  0.79310  0.69870  1.0000
  Mg  Mg5       1.0  0.54091  0.92027  0.20924  1.0000
  Mg  Mg6       1.0  0.48812  0.80870  0.81579  1.0000
  C  Sn13      1.0  0.48690  0.86734  0.11861  1.0000
  C   C59       1.0  0.47232  0.89901  0.02342  1.0000
  C  Sn14      1.0  0.49077  0.91893  0.92090  1.0000
  C  Sn15      1.0  0.53257  0.88039  0.91334  1.0000
  C   C60       1.0  0.55505  0.82279  0.00849  1.0000
  C  Sn16      1.0  0.52871  0.82880  0.11106  1.0000
  O  Te13      1.0  0.45999  0.87405  0.22024  1.0000
  O  Te14      1.0  0.47549  0.95108  0.82690  1.0000
  O  Te15      1.0  0.55949  0.87370  0.81161  1.0000
  O  Te16      1.0  0.54396  0.79666  0.20501  1.0000
  Mg  Mg7       1.0  0.52415  0.92692  0.70717  1.0000
  Mg  Mg8       1.0  0.49531  0.82075  0.32476  1.0000
  C  Sn17      1.0  0.51933  0.56783  0.10932  1.0000
  C   C61       1.0  0.54880  0.63288  0.04013  1.0000
  C  Sn18      1.0  0.51443  0.67479  0.94734  1.0000
  C  Sn19      1.0  0.45732  0.62473  0.92323  1.0000
  C   C62       1.0  0.42787  0.55974  0.99241  1.0000
  C  Sn20      1.0  0.46221  0.51777  0.08522  1.0000
  O  Te17      1.0  0.54661  0.55300  0.20164  1.0000
  O  Te18      1.0  0.54477  0.74015  0.87937  1.0000
  O  Te19      1.0  0.43005  0.63962  0.83083  1.0000
  O  Te20      1.0  0.43190  0.45247  0.15317  1.0000
  Mg  Mg9       1.0  0.48913  0.73583  0.76330  1.0000
  Mg  Mg10      1.0  0.48749  0.45676  0.26929  1.0000
  C  Sn21      1.0  0.48638  0.59300  0.40199  1.0000
  C   C63       1.0  0.45690  0.52789  0.47110  1.0000
  C  Sn22      1.0  0.46843  0.53369  0.58484  1.0000
  C  Sn23      1.0  0.51026  0.60609  0.63049  1.0000
  C   C64       1.0  0.53970  0.67115  0.56140  1.0000
  C  Sn24      1.0  0.52821  0.66540  0.44763  1.0000
  O  Te21      1.0  0.47416  0.58586  0.28852  1.0000
  O  Te22      1.0  0.43842  0.46779  0.65226  1.0000
  O  Te23      1.0  0.52246  0.61318  0.74405  1.0000
  O  Te24      1.0  0.55818  0.73125  0.38024  1.0000
  Mg  Mg11      1.0  0.47025  0.50686  0.80180  1.0000
  Mg  Mg12      1.0  0.52637  0.69227  0.23070  1.0000
  C  Sn25      1.0  0.35377  0.97570  0.52612  1.0000
  C   C65       1.0  0.31289  0.93884  0.44491  1.0000
  C  Sn26      1.0  0.31681  0.87313  0.37657  1.0000
  C  Sn27      1.0  0.36253  0.84360  0.38973  1.0000
  C   C66       1.0  0.40337  0.88045  0.47092  1.0000
  C  Sn28      1.0  0.39948  0.94618  0.53928  1.0000
  O  Te25      1.0  0.10974  0.04132  0.59352  1.0000
  O  Te26      1.0  0.27544  0.83729  0.29594  1.0000
  O  Te27      1.0  0.36727  0.77794  0.32225  1.0000
  O  Te28      1.0  0.44081  0.98200  0.61989  1.0000
  Mg  Mg13      1.0  0.30039  0.74946  0.22433  1.0000
  Mg  Mg14      1.0  0.17663  0.06980  0.69157  1.0000
  C  Sn29      1.0  0.35317  0.97525  0.02886  1.0000
  C   C67       1.0  0.30482  0.96359  0.94714  1.0000
  C  Sn30      1.0  0.30887  0.89694  0.88098  1.0000
  C  Sn31      1.0  0.35427  0.86722  0.89688  1.0000
  C   C68       1.0  0.39467  0.90481  0.97858  1.0000
  C  Sn32      1.0  0.39857  0.94553  0.04476  1.0000
  O  Te29      1.0  0.10902  0.04180  0.09404  1.0000
  O  Te30      1.0  0.26794  0.86037  0.79978  1.0000
  O  Te31      1.0  0.35913  0.80063  0.83161  1.0000
  O  Te32      1.0  0.43946  0.98209  0.12593  1.0000
  Mg  Mg15      1.0  0.29289  0.77139  0.73188  1.0000
  Mg  Mg16      1.0  0.17527  0.07103  0.19391  1.0000
  C  Sn33      1.0  0.01140  0.16771  0.23236  1.0000
  C   C69       1.0  0.02468  0.24846  0.19561  1.0000
  C  Sn34      1.0  0.98224  0.27382  0.15305  1.0000
  C  Sn35      1.0  0.92533  0.21731  0.14715  1.0000
  C   C70       1.0  0.91207  0.13662  0.18390  1.0000
  C  Sn36      1.0  0.95448  0.11120  0.22646  1.0000
  O  Te33      1.0  0.05451  0.14370  0.27460  1.0000
  O  Te34      1.0  0.99656  0.35486  0.11679  1.0000
  O  Te35      1.0  0.88221  0.24138  0.10486  1.0000
  O  Te36      1.0  0.94019  0.03022  0.26272  1.0000
  Mg  Mg17      1.0  0.92287  0.35829  0.06589  1.0000
  Mg  Mg18      1.0  0.01383  0.02674  0.31368  1.0000
  C  Sn37      1.0  0.92721  0.60623  0.12323  1.0000
  C   C71       1.0  0.90293  0.65754  0.18292  1.0000
  C  Sn38      1.0  0.93680  0.72418  0.24936  1.0000
  C  Sn39      1.0  0.99618  0.73990  0.25624  1.0000
  C   C72       1.0  0.02043  0.68862  0.19657  1.0000
  C  Sn40      1.0  0.98659  0.62195  0.13012  1.0000
  O  Te37      1.0  0.89254  0.53998  0.05733  1.0000
  O  Te38      1.0  0.91156  0.77459  0.30829  1.0000
  O  Te39      1.0  0.03084  0.80622  0.32222  1.0000
  O  Te40      1.0  0.01181  0.57157  0.07120  1.0000
  Mg  Mg19      1.0  0.97663  0.85727  0.38673  1.0000
  Mg  Mg20      1.0  0.93887  0.51485  0.99269  1.0000
  C  Sn41      1.0  0.32848  0.45390  0.41969  1.0000
  C   C73       1.0  0.37525  0.46092  0.48534  1.0000
  C  Sn42      1.0  0.38306  0.38993  0.52318  1.0000
  C  Sn43      1.0  0.34330  0.31024  0.49475  1.0000
  C   C74       1.0  0.29656  0.30325  0.42913  1.0000
  C  Sn44      1.0  0.28872  0.37422  0.39127  1.0000
  O  Te41      1.0  0.32153  0.52572  0.38278  1.0000
  O  Te42      1.0  0.43014  0.39852  0.58874  1.0000
  O  Te43      1.0  0.35029  0.23840  0.53173  1.0000
  O  Te44      1.0  0.24168  0.36565  0.32573  1.0000
  Mg  Mg21      1.0  0.42116  0.28221  0.61889  1.0000
  Mg  Mg22      1.0  0.25063  0.48191  0.29549  1.0000
  C  Sn45      1.0  0.37185  0.37471  0.99794  1.0000
  C   C75       1.0  0.38643  0.45436  0.95656  1.0000
  C  Sn46      1.0  0.34508  0.47937  0.90865  1.0000
  C  Sn47      1.0  0.28797  0.42363  0.90201  1.0000
  C   C76       1.0  0.27342  0.34404  0.94338  1.0000
  C  Sn48      1.0  0.31474  0.31897  0.99130  1.0000
  O  Te45      1.0  0.42180  0.32509  0.04550  1.0000
  O  Te46      1.0  0.36068  0.55930  0.86782  1.0000
  O  Te47      1.0  0.24593  0.44738  0.85439  1.0000
  O  Te48      1.0  0.30708  0.21315  0.03212  1.0000
  Mg  Mg23      1.0  0.28814  0.56269  0.81051  1.0000
  Mg  Mg24      1.0  0.37957  0.20971  0.08949  1.0000
  C  Sn49      1.0  0.79247  0.96212  0.73118  1.0000
  C   C77       1.0  0.76283  0.93712  0.63153  1.0000
  C  Sn50      1.0  0.78834  0.96961  0.53066  1.0000
  C  Sn51      1.0  0.60540  0.02827  0.52933  1.0000
  C   C78       1.0  0.63501  0.05323  0.62893  1.0000
  C  Sn52      1.0  0.60953  0.02078  0.72985  1.0000
  O  Te49      1.0  0.76613  0.92883  0.83105  1.0000
  O  Te50      1.0  0.75785  0.94369  0.43212  1.0000
  O  Te51      1.0  0.63172  0.06156  0.42934  1.0000
  O  Te52      1.0  0.63999  0.04666  0.82834  1.0000
  Mg  Mg25      1.0  0.81207  0.00685  0.31706  1.0000
  Mg  Mg26      1.0  0.82509  0.98352  0.94343  1.0000
  C  Sn53      1.0  0.78971  0.67448  0.73698  1.0000
  C   C79       1.0  0.83441  0.68038  0.66142  1.0000
  C  Sn54      1.0  0.84068  0.72580  0.56519  1.0000
  C  Sn55      1.0  0.80149  0.76622  0.54406  1.0000
  C   C80       1.0  0.75683  0.76032  0.61960  1.0000
  C  Sn56      1.0  0.75052  0.71489  0.71585  1.0000
  O  Te53      1.0  0.78426  0.62874  0.83265  1.0000
  O  Te54      1.0  0.88569  0.73079  0.49086  1.0000
  O  Te55      1.0  0.80697  0.81198  0.44830  1.0000
  O  Te56      1.0  0.70555  0.70991  0.79016  1.0000
  Mg  Mg27      1.0  0.87524  0.80048  0.37222  1.0000
  Mg  Mg28      1.0  0.71598  0.64027  0.90885  1.0000
  C  Sn57      1.0  0.95820  0.27159  0.64409  1.0000
  C   C81       1.0  0.00399  0.27864  0.71256  1.0000
  C  Sn58      1.0  0.01070  0.20773  0.75337  1.0000
  C  Sn59      1.0  0.97083  0.12810  0.72509  1.0000
  C   C82       1.0  0.92508  0.12107  0.65665  1.0000
  C  Sn60      1.0  0.91833  0.19195  0.61582  1.0000
  O  Te57      1.0  0.95234  0.34331  0.60424  1.0000
  O  Te58      1.0  0.05681  0.21636  0.82171  1.0000
  O  Te59      1.0  0.97674  0.05635  0.76501  1.0000
  O  Te60      1.0  0.87227  0.18335  0.54750  1.0000
  Mg  Mg29      1.0  0.04655  0.10017  0.85529  1.0000
  Mg  Mg30      1.0  0.88250  0.29949  0.51383  1.0000
  C  Sn61      1.0  0.92859  0.61683  0.60857  1.0000
  C   C83       1.0  0.90183  0.66111  0.67600  1.0000
  C  Sn62      1.0  0.93299  0.72065  0.75464  1.0000
  C  Sn63      1.0  0.99213  0.73629  0.76608  1.0000
  C   C84       1.0  0.01886  0.69204  0.69866  1.0000
  C  Sn64      1.0  0.98773  0.63247  0.62001  1.0000
  O  Te61      1.0  0.89660  0.55760  0.53050  1.0000
  O  Te62      1.0  0.90530  0.76411  0.82114  1.0000
  O  Te63      1.0  0.02411  0.79558  0.84423  1.0000
  O  Te64      1.0  0.01540  0.58904  0.55352  1.0000
  Mg  Mg31      1.0  0.96719  0.83870  0.91547  1.0000
  Mg  Mg32      1.0  0.95355  0.51447  0.45913  1.0000
