data_image0
_chemical_formula_structural       H48C88N24C2Sn2C2HTe2HMgC2Sn2C2HTe2HMgC2Sn2C2HTe2HMgC2Sn2C2HTe2HMgC2Sn2C2HTe2HMgC2Sn2C2HTe2HMgC2Sn2C2HTe2HMgC2Sn2C2HTe2HMgC2Sn2C2HTe2HMgC2Sn2C2HTe2HMgC2Sn2C2HTe2HMgC2Sn2C2HTe2HMgC2Sn2C2HTe2HMgC2Sn2C2HTe2HMgC2Sn2C2HTe2HMgC2Sn2C2HTe2HMgC2Sn2C2HTe2HMgC2Sn2C2HTe2HMgC2Sn2C2HTe2HMgC2Sn2C2HTe2HMgC2Sn2C2HTe2HMgC2Sn2C2HTe2HMgC2Sn2C2HTe2HMgC2Sn2C2HTe2HMg
_chemical_formula_sum              "H96 C184 N24 Sn48 Te48 Mg24"
_cell_length_a       33.2194
_cell_length_b       33.1572
_cell_length_c       8.24656
_cell_angle_alpha    89.3525
_cell_angle_beta     90.5579
_cell_angle_gamma    89.9913

_symmetry_space_group_name_H-M    'P1'
_space_group_IT_number       1

loop_
  _space_group_symop_operation_xyz
  'x, y, z'

loop_
  _atom_site_type_symbol
  _atom_site_label
  _atom_site_symmetry_multiplicity
  _atom_site_fract_x
  _atom_site_fract_y
  _atom_site_fract_z
  _atom_site_occupancy
  H   H1        1.0  0.00434  0.53423  0.19922  1.0000
  H   H2        1.0  0.99958  0.46758  0.18973  1.0000
  H   H3        1.0  0.46881  0.00186  0.19324  1.0000
  H   H4        1.0  0.53570  0.99793  0.19196  1.0000
  H   H5        1.0  0.85460  0.54854  0.09386  1.0000
  H   H6        1.0  0.14905  0.45457  0.10383  1.0000
  H   H7        1.0  0.45612  0.85146  0.10591  1.0000
  H   H8        1.0  0.54776  0.14864  0.10683  1.0000
  H   H9        1.0  0.85079  0.46777  0.08747  1.0000
  H   H10       1.0  0.15318  0.53529  0.11049  1.0000
  H   H11       1.0  0.53679  0.84781  0.11064  1.0000
  H   H12       1.0  0.46713  0.15215  0.11092  1.0000
  H   H13       1.0  0.04804  0.64920  0.33459  1.0000
  H   H14       1.0  0.95495  0.35346  0.33862  1.0000
  H   H15       1.0  0.35528  0.04512  0.34273  1.0000
  H   H16       1.0  0.65088  0.95358  0.32926  1.0000
  H   H17       1.0  0.96731  0.65184  0.32798  1.0000
  H   H18       1.0  0.03564  0.35009  0.33811  1.0000
  H   H19       1.0  0.35272  0.96411  0.33993  1.0000
  H   H20       1.0  0.65336  0.03452  0.32873  1.0000
  H   H21       1.0  0.76421  0.66524  0.23885  1.0000
  H   H22       1.0  0.23736  0.33106  0.22784  1.0000
  H   H23       1.0  0.33562  0.76285  0.20923  1.0000
  H   H24       1.0  0.66819  0.23871  0.23129  1.0000
  H   H25       1.0  0.99835  0.53279  0.68596  1.0000
  H   H26       1.0  0.99695  0.46590  0.68445  1.0000
  H   H27       1.0  0.46499  0.00064  0.69175  1.0000
  H   H28       1.0  0.53158  0.99869  0.68998  1.0000
  H   H29       1.0  0.84862  0.54575  0.59736  1.0000
  H   H30       1.0  0.14645  0.45346  0.60889  1.0000
  H   H31       1.0  0.45155  0.85076  0.61460  1.0000
  H   H32       1.0  0.54448  0.14860  0.60015  1.0000
  H   H33       1.0  0.84604  0.46496  0.59395  1.0000
  H   H34       1.0  0.14926  0.53433  0.60928  1.0000
  H   H35       1.0  0.53225  0.84809  0.60838  1.0000
  H   H36       1.0  0.46384  0.15209  0.60891  1.0000
  H   H37       1.0  0.04357  0.64569  0.84118  1.0000
  H   H38       1.0  0.95149  0.35110  0.82080  1.0000
  H   H39       1.0  0.35213  0.04599  0.84229  1.0000
  H   H40       1.0  0.64508  0.95302  0.84273  1.0000
  H   H41       1.0  0.96292  0.64933  0.83365  1.0000
  H   H42       1.0  0.03231  0.34782  0.82782  1.0000
  H   H43       1.0  0.34849  0.96508  0.84150  1.0000
  H   H44       1.0  0.64840  0.03398  0.84236  1.0000
  H   H45       1.0  0.76186  0.66942  0.74141  1.0000
  H   H46       1.0  0.23648  0.33241  0.75558  1.0000
  H   H47       1.0  0.32653  0.76457  0.71475  1.0000
  H   H48       1.0  0.66687  0.23562  0.70910  1.0000
  C   C1        1.0  0.87792  0.52722  0.12749  1.0000
  C   C2        1.0  0.12580  0.47541  0.13966  1.0000
  C   C3        1.0  0.47702  0.87508  0.13859  1.0000
  C   C4        1.0  0.52700  0.12487  0.13967  1.0000
  C   C5        1.0  0.87597  0.48623  0.12499  1.0000
  C   C6        1.0  0.12786  0.51642  0.14274  1.0000
  C   C7        1.0  0.51797  0.87324  0.14065  1.0000
  C   C8        1.0  0.48605  0.12660  0.14163  1.0000
  C   C9        1.0  0.91508  0.47161  0.18148  1.0000
  C   C10       1.0  0.08864  0.53048  0.19599  1.0000
  C   C11       1.0  0.53211  0.91283  0.19107  1.0000
  C   C12       1.0  0.47224  0.08679  0.19300  1.0000
  C   C13       1.0  0.91836  0.53737  0.18335  1.0000
  C   C14       1.0  0.08541  0.46461  0.19199  1.0000
  C   C15       1.0  0.46637  0.91565  0.18913  1.0000
  C   C16       1.0  0.53801  0.08404  0.18993  1.0000
  C   C17       1.0  0.02773  0.62530  0.29945  1.0000
  C   C18       1.0  0.97548  0.37706  0.30172  1.0000
  C   C19       1.0  0.37878  0.02475  0.30547  1.0000
  C   C20       1.0  0.62686  0.97414  0.29547  1.0000
  C   C21       1.0  0.98631  0.62670  0.29635  1.0000
  C   C22       1.0  0.01690  0.37537  0.30225  1.0000
  C   C23       1.0  0.37750  0.98325  0.30428  1.0000
  C   C24       1.0  0.62817  0.01565  0.29495  1.0000
  C   C25       1.0  0.97167  0.58833  0.24421  1.0000
  C   C26       1.0  0.03187  0.41353  0.24678  1.0000
  C   C27       1.0  0.41536  0.96880  0.24718  1.0000
  C   C28       1.0  0.58969  0.03057  0.24243  1.0000
  C   C29       1.0  0.04003  0.58595  0.24974  1.0000
  C   C30       1.0  0.96354  0.41623  0.24479  1.0000
  C   C31       1.0  0.41749  0.03725  0.24922  1.0000
  C   C32       1.0  0.58749  0.96203  0.24329  1.0000
  C   C33       1.0  0.93132  0.57726  0.21392  1.0000
  C   C34       1.0  0.07238  0.42444  0.21961  1.0000
  C   C35       1.0  0.42645  0.92839  0.21874  1.0000
  C   C36       1.0  0.57826  0.07121  0.21678  1.0000
  C   C37       1.0  0.07949  0.57150  0.22588  1.0000
  C   C38       1.0  0.92417  0.43056  0.21323  1.0000
  C   C39       1.0  0.43142  0.07700  0.22255  1.0000
  C   C40       1.0  0.57315  0.92243  0.21949  1.0000
  C   C41       1.0  0.77622  0.69621  0.23675  1.0000
  C   C42       1.0  0.22450  0.30045  0.23386  1.0000
  C   C43       1.0  0.30546  0.77466  0.23663  1.0000
  C   C44       1.0  0.69888  0.22613  0.23791  1.0000
  C   C45       1.0  0.87267  0.52495  0.62798  1.0000
  C   C46       1.0  0.12264  0.47418  0.63971  1.0000
  C   C47       1.0  0.47246  0.87475  0.64261  1.0000
  C   C48       1.0  0.52385  0.12482  0.63444  1.0000
  C   C49       1.0  0.87132  0.48390  0.62632  1.0000
  C   C50       1.0  0.12405  0.51521  0.64027  1.0000
  C   C51       1.0  0.51342  0.87337  0.63998  1.0000
  C   C52       1.0  0.48291  0.12656  0.63857  1.0000
  C   C53       1.0  0.91114  0.46986  0.67678  1.0000
  C   C54       1.0  0.08432  0.52886  0.68945  1.0000
  C   C55       1.0  0.52747  0.91314  0.68831  1.0000
  C   C56       1.0  0.46926  0.08672  0.69058  1.0000
  C   C57       1.0  0.91330  0.53579  0.67937  1.0000
  C   C58       1.0  0.08206  0.46301  0.68844  1.0000
  C   C59       1.0  0.46172  0.91545  0.69097  1.0000
  C   C60       1.0  0.53491  0.08408  0.68578  1.0000
  C   C61       1.0  0.02297  0.62244  0.80181  1.0000
  C   C62       1.0  0.97225  0.37485  0.78777  1.0000
  C   C63       1.0  0.37545  0.02534  0.80576  1.0000
  C   C64       1.0  0.62169  0.97382  0.80464  1.0000
  C   C65       1.0  0.98159  0.62429  0.79836  1.0000
  C   C66       1.0  0.01367  0.37317  0.79125  1.0000
  C   C67       1.0  0.37353  0.98386  0.80523  1.0000
  C   C68       1.0  0.62344  0.01530  0.80439  1.0000
  C   C69       1.0  0.96653  0.58658  0.74067  1.0000
  C   C70       1.0  0.02878  0.41158  0.73928  1.0000
  C   C71       1.0  0.41122  0.96883  0.74888  1.0000
  C   C72       1.0  0.58556  0.03049  0.74647  1.0000
  C   C73       1.0  0.03485  0.58359  0.74541  1.0000
  C   C74       1.0  0.96045  0.41438  0.73381  1.0000
  C   C75       1.0  0.41441  0.03726  0.74988  1.0000
  C   C76       1.0  0.58265  0.96215  0.74694  1.0000
  C   C77       1.0  0.92602  0.57578  0.71069  1.0000
  C   C78       1.0  0.06931  0.42277  0.71542  1.0000
  C   C79       1.0  0.42182  0.92828  0.72033  1.0000
  C   C80       1.0  0.57487  0.07107  0.71608  1.0000
  C   C81       1.0  0.07438  0.56965  0.71891  1.0000
  C   C82       1.0  0.92100  0.42878  0.70512  1.0000
  C   C83       1.0  0.42862  0.07685  0.72212  1.0000
  C   C84       1.0  0.56840  0.92279  0.71776  1.0000
  C   C85       1.0  0.77481  0.69985  0.75274  1.0000
  C   C86       1.0  0.22394  0.30185  0.74228  1.0000
  C   C87       1.0  0.29632  0.77742  0.73218  1.0000
  C   C88       1.0  0.69752  0.22315  0.72127  1.0000
  N   N1        1.0  0.94089  0.50319  0.20918  1.0000
  N   N2        1.0  0.06286  0.49860  0.21873  1.0000
  N   N3        1.0  0.50031  0.93853  0.21350  1.0000
  N   N4        1.0  0.50426  0.06099  0.21501  1.0000
  N   N5        1.0  0.00512  0.56445  0.22167  1.0000
  N   N6        1.0  0.99859  0.43752  0.21777  1.0000
  N   N7        1.0  0.43884  0.00246  0.21962  1.0000
  N   N8        1.0  0.56591  0.99709  0.21599  1.0000
  N   N9        1.0  0.81433  0.70341  0.22597  1.0000
  N   N10       1.0  0.18604  0.29451  0.23113  1.0000
  N   N11       1.0  0.29906  0.81281  0.25224  1.0000
  N   N12       1.0  0.70532  0.18772  0.23622  1.0000
  N   N13       1.0  0.93655  0.50188  0.70181  1.0000
  N   N14       1.0  0.05889  0.49669  0.71186  1.0000
  N   N15       1.0  0.49559  0.93865  0.71204  1.0000
  N   N16       1.0  0.50126  0.06102  0.71209  1.0000
  N   N17       1.0  0.99978  0.56266  0.71423  1.0000
  N   N18       1.0  0.99558  0.43573  0.71004  1.0000
  N   N19       1.0  0.43524  0.00210  0.72120  1.0000
  N   N20       1.0  0.56154  0.99734  0.71842  1.0000
  N   N21       1.0  0.81325  0.70571  0.75021  1.0000
  N   N22       1.0  0.18578  0.29563  0.72275  1.0000
  N   N23       1.0  0.29081  0.81594  0.73843  1.0000
  N   N24       1.0  0.70395  0.18474  0.72692  1.0000
  C   C89       1.0  0.17615  0.61006  0.33837  1.0000
  C   C90       1.0  0.18039  0.64683  0.25582  1.0000
  C  Sn1       1.0  0.14870  0.66223  0.16126  1.0000
  C  Sn2       1.0  0.11211  0.64034  0.14940  1.0000
  C   C91       1.0  0.10816  0.60359  0.23255  1.0000
  C   C92       1.0  0.14007  0.58846  0.32679  1.0000
  H   H49       1.0  0.20083  0.59836  0.41136  1.0000
  O  Te1       1.0  0.15345  0.69900  0.07953  1.0000
  O  Te2       1.0  0.07994  0.65503  0.05579  1.0000
  H   H50       1.0  0.13677  0.56000  0.39077  1.0000
  Mg  Mg1       1.0  0.10339  0.70371  0.96708  1.0000
  C   C93       1.0  0.84374  0.40707  0.30480  1.0000
  C   C94       1.0  0.88241  0.40305  0.24176  1.0000
  C  Sn3       1.0  0.89301  0.36833  0.15773  1.0000
  C  Sn4       1.0  0.86429  0.33711  0.13657  1.0000
  C   C95       1.0  0.82567  0.34144  0.20000  1.0000
  C   C96       1.0  0.81539  0.37630  0.28393  1.0000
  H   H51       1.0  0.83577  0.43405  0.36966  1.0000
  O  Te3       1.0  0.93178  0.36479  0.09559  1.0000
  O  Te4       1.0  0.87407  0.30210  0.05304  1.0000
  H   H52       1.0  0.78543  0.37941  0.33263  1.0000
  Mg  Mg2       1.0  0.93319  0.30853  0.99082  1.0000
  C   C97       1.0  0.40609  0.15645  0.32201  1.0000
  C   C98       1.0  0.40313  0.11818  0.25359  1.0000
  C  Sn5       1.0  0.36904  0.10761  0.16304  1.0000
  C  Sn6       1.0  0.33740  0.13593  0.14074  1.0000
  C   C99       1.0  0.34067  0.17415  0.20959  1.0000
  C   C100      1.0  0.37490  0.18441  0.30002  1.0000
  H   H53       1.0  0.43259  0.16440  0.39191  1.0000
  O  Te5       1.0  0.36657  0.06924  0.09558  1.0000
  O  Te6       1.0  0.30300  0.12616  0.05074  1.0000
  H   H54       1.0  0.37720  0.21405  0.35289  1.0000
  Mg  Mg3       1.0  0.31605  0.06728  0.98291  1.0000
  C   C101      1.0  0.66436  0.87023  0.13225  1.0000
  C   C102      1.0  0.66353  0.83450  0.22366  1.0000
  C  Sn7       1.0  0.63004  0.82504  0.31794  1.0000
  C  Sn8       1.0  0.59681  0.85190  0.32049  1.0000
  C   C103      1.0  0.59792  0.88756  0.22853  1.0000
  C   C104      1.0  0.63159  0.89674  0.13464  1.0000
  H   H55       1.0  0.69040  0.87733  0.05954  1.0000
  O  Te7       1.0  0.62972  0.78922  0.40859  1.0000
  O  Te8       1.0  0.56295  0.84318  0.41361  1.0000
  H   H56       1.0  0.63221  0.92439  0.06380  1.0000
  Mg  Mg4       1.0  0.57674  0.79066  0.51651  1.0000
  C   C105      1.0  0.09844  0.34485  0.12538  1.0000
  C   C106      1.0  0.09900  0.38159  0.20675  1.0000
  C  Sn9       1.0  0.13217  0.39215  0.30266  1.0000
  C  Sn10      1.0  0.16537  0.36538  0.31710  1.0000
  C   C107      1.0  0.16453  0.32870  0.23510  1.0000
  C   C108      1.0  0.13118  0.31843  0.13950  1.0000
  H   H57       1.0  0.07265  0.33691  0.05133  1.0000
  O  Te9       1.0  0.13223  0.42897  0.38319  1.0000
  O  Te10      1.0  0.19891  0.37518  0.41210  1.0000
  H   H58       1.0  0.13077  0.29000  0.07642  1.0000
  Mg  Mg5       1.0  0.18484  0.42880  0.49833  1.0000
  C   C109      1.0  0.85575  0.60864  0.32583  1.0000
  C   C110      1.0  0.89057  0.60673  0.23247  1.0000
  C  Sn11      1.0  0.90218  0.63978  0.13732  1.0000
  C  Sn12      1.0  0.87844  0.67536  0.13590  1.0000
  C   C111      1.0  0.84368  0.67698  0.22983  1.0000
  C   C112      1.0  0.83233  0.64373  0.32456  1.0000
  H   H59       1.0  0.84698  0.58292  0.39920  1.0000
  O  Te11      1.0  0.93705  0.63736  0.04471  1.0000
  O  Te12      1.0  0.88936  0.70884  0.04195  1.0000
  H   H60       1.0  0.80539  0.64522  0.39692  1.0000
  Mg  Mg6       1.0  0.94187  0.68810  0.93633  1.0000
  C   C113      1.0  0.61023  0.14713  0.32932  1.0000
  C   C114      1.0  0.60804  0.11202  0.23749  1.0000
  C  Sn13      1.0  0.64075  0.10011  0.14416  1.0000
  C  Sn14      1.0  0.67628  0.12385  0.14303  1.0000
  C   C115      1.0  0.67818  0.15891  0.23540  1.0000
  C   C116      1.0  0.64527  0.17055  0.32832  1.0000
  H   H61       1.0  0.58477  0.15613  0.40128  1.0000
  O  Te13      1.0  0.63804  0.06496  0.05308  1.0000
  O  Te14      1.0  0.70942  0.11264  0.05088  1.0000
  H   H62       1.0  0.64699  0.19772  0.39949  1.0000
  Mg  Mg7       1.0  0.69360  0.05941  0.94688  1.0000
  C   C117      1.0  0.39510  0.85228  0.33448  1.0000
  C   C118      1.0  0.39673  0.88766  0.24107  1.0000
  C  Sn15      1.0  0.36317  0.90030  0.15058  1.0000
  C  Sn16      1.0  0.32734  0.87702  0.15397  1.0000
  C   C119      1.0  0.32600  0.84169  0.24790  1.0000
  C   C120      1.0  0.35977  0.82932  0.33793  1.0000
  H   H63       1.0  0.42122  0.84272  0.40422  1.0000
  O  Te15      1.0  0.36533  0.93571  0.05786  1.0000
  O  Te16      1.0  0.29335  0.88896  0.06474  1.0000
  H   H64       1.0  0.35849  0.80194  0.41033  1.0000
  Mg  Mg8       1.0  0.31350  0.93668  0.95693  1.0000
  C   C121      1.0  0.74248  0.32323  0.22054  1.0000
  C   C122      1.0  0.78396  0.31762  0.23981  1.0000
  C  Sn17      1.0  0.79988  0.27875  0.25558  1.0000
  C  Sn18      1.0  0.77372  0.24494  0.25190  1.0000
  C   C123      1.0  0.73228  0.25088  0.23245  1.0000
  C   C124      1.0  0.71667  0.28990  0.21683  1.0000
  H   H65       1.0  0.73040  0.35342  0.20837  1.0000
  O  Te17      1.0  0.84139  0.27368  0.27480  1.0000
  O  Te18      1.0  0.78884  0.20577  0.26732  1.0000
  H   H66       1.0  0.68456  0.29424  0.20180  1.0000
  Mg  Mg9       1.0  0.84758  0.21435  0.29097  1.0000
  C   C125      1.0  0.20649  0.73816  0.29869  1.0000
  C   C126      1.0  0.20741  0.69782  0.25152  1.0000
  C  Sn19      1.0  0.24369  0.67999  0.20666  1.0000
  C  Sn20      1.0  0.27967  0.70304  0.20923  1.0000
  C   C127      1.0  0.27843  0.74337  0.25672  1.0000
  C   C128      1.0  0.24197  0.76091  0.30132  1.0000
  H   H67       1.0  0.17828  0.75173  0.33328  1.0000
  O  Te19      1.0  0.24407  0.63966  0.15979  1.0000
  O  Te20      1.0  0.31634  0.68597  0.16505  1.0000
  H   H68       1.0  0.24127  0.79213  0.33794  1.0000
  Mg  Mg10      1.0  0.30145  0.62990  0.11017  1.0000
  C   C129      1.0  0.75685  0.78034  0.23201  1.0000
  C   C130      1.0  0.75083  0.73875  0.24663  1.0000
  C  Sn21      1.0  0.71185  0.72303  0.25272  1.0000
  C  Sn22      1.0  0.67833  0.74951  0.24394  1.0000
  C   C131      1.0  0.68466  0.79107  0.22920  1.0000
  C   C132      1.0  0.72380  0.80648  0.22327  1.0000
  H   H69       1.0  0.78713  0.79226  0.22733  1.0000
  O  Te21      1.0  0.70638  0.68140  0.26741  1.0000
  O  Te22      1.0  0.63904  0.73461  0.24969  1.0000
  H   H70       1.0  0.72845  0.83868  0.21184  1.0000
  Mg  Mg11      1.0  0.64705  0.67559  0.27031  1.0000
  C   C133      1.0  0.30594  0.27380  0.24148  1.0000
  C   C134      1.0  0.26402  0.27082  0.23222  1.0000
  C  Sn23      1.0  0.24544  0.23302  0.23344  1.0000
  C  Sn24      1.0  0.26934  0.19761  0.24419  1.0000
  C   C135      1.0  0.31125  0.20091  0.25352  1.0000
  C   C136      1.0  0.32954  0.23889  0.25215  1.0000
  H   H71       1.0  0.32009  0.30318  0.24051  1.0000
  O  Te23      1.0  0.20352  0.23059  0.22404  1.0000
  O  Te24      1.0  0.25154  0.15945  0.24571  1.0000
  H   H72       1.0  0.36199  0.24119  0.25943  1.0000
  Mg  Mg12      1.0  0.19329  0.17174  0.23031  1.0000
  C   C137      1.0  0.12348  0.66310  0.63198  1.0000
  C   C138      1.0  0.15929  0.66280  0.72233  1.0000
  C  Sn25      1.0  0.17019  0.62875  0.81397  1.0000
  C  Sn26      1.0  0.14470  0.59441  0.81491  1.0000
  C   C139      1.0  0.10896  0.59501  0.72402  1.0000
  C   C140      1.0  0.09834  0.62924  0.63279  1.0000
  H   H73       1.0  0.11527  0.68958  0.56131  1.0000
  O  Te25      1.0  0.20606  0.62896  0.90359  1.0000
  O  Te26      1.0  0.15488  0.55998  0.90539  1.0000
  H   H74       1.0  0.07062  0.62946  0.56276  1.0000
  Mg  Mg13      1.0  0.20445  0.57766  0.00780  1.0000
  C   C141      1.0  0.87004  0.33675  0.61354  1.0000
  C   C142      1.0  0.83515  0.33653  0.70688  1.0000
  C  Sn27      1.0  0.82564  0.36970  0.80226  1.0000
  C  Sn28      1.0  0.85159  0.40368  0.80394  1.0000
  C   C143      1.0  0.88641  0.40362  0.71004  1.0000
  C   C144      1.0  0.89564  0.37026  0.61507  1.0000
  H   H75       1.0  0.87717  0.31096  0.53999  1.0000
  O  Te27      1.0  0.79067  0.36897  0.89483  1.0000
  O  Te28      1.0  0.84280  0.43723  0.89812  1.0000
  H   H76       1.0  0.92264  0.37045  0.54274  1.0000
  Mg  Mg14      1.0  0.78924  0.42473  0.00360  1.0000
  C   C145      1.0  0.40381  0.15582  0.82735  1.0000
  C   C146      1.0  0.40083  0.11806  0.75458  1.0000
  C  Sn29      1.0  0.36708  0.10841  0.66038  1.0000
  C  Sn30      1.0  0.33578  0.13715  0.63881  1.0000
  C   C147      1.0  0.33906  0.17485  0.71203  1.0000
  C   C148      1.0  0.37296  0.18419  0.80609  1.0000
  H   H77       1.0  0.43005  0.16306  0.90005  1.0000
  O  Te29      1.0  0.36458  0.07054  0.58858  1.0000
  O  Te30      1.0  0.30172  0.12829  0.54523  1.0000
  H   H78       1.0  0.37527  0.21343  0.86233  1.0000
  Mg  Mg15      1.0  0.31218  0.07262  0.47211  1.0000
  C   C149      1.0  0.66116  0.87273  0.63713  1.0000
  C   C150      1.0  0.66068  0.83706  0.72896  1.0000
  C  Sn31      1.0  0.62676  0.82668  0.81919  1.0000
  C  Sn32      1.0  0.59274  0.85256  0.81718  1.0000
  C   C151      1.0  0.59351  0.88817  0.72484  1.0000
  C   C152      1.0  0.62761  0.89827  0.63504  1.0000
  H   H79       1.0  0.68753  0.88053  0.56758  1.0000
  O  Te31      1.0  0.62679  0.79094  0.91032  1.0000
  O  Te32      1.0  0.55844  0.84292  0.90619  1.0000
  H   H80       1.0  0.62796  0.92588  0.56387  1.0000
  Mg  Mg16      1.0  0.57055  0.79372  0.01158  1.0000
  C   C153      1.0  0.11214  0.32697  0.62429  1.0000
  C   C154      1.0  0.15015  0.32657  0.69847  1.0000
  C  Sn33      1.0  0.16248  0.35878  0.79476  1.0000
  C  Sn34      1.0  0.13621  0.39196  0.81701  1.0000
  C   C155      1.0  0.09824  0.39206  0.74237  1.0000
  C   C156      1.0  0.08621  0.35968  0.64623  1.0000
  H   H81       1.0  0.10282  0.30191  0.54997  1.0000
  O  Te33      1.0  0.20056  0.35790  0.86793  1.0000
  O  Te34      1.0  0.14776  0.42454  0.91267  1.0000
  H   H82       1.0  0.05677  0.35998  0.58890  1.0000
  Mg  Mg17      1.0  0.20262  0.40941  0.98708  1.0000
  C   C157      1.0  0.85045  0.60769  0.82346  1.0000
  C   C158      1.0  0.88551  0.60596  0.73151  1.0000
  C  Sn35      1.0  0.89865  0.63994  0.64543  1.0000
  C  Sn36      1.0  0.87621  0.67629  0.65179  1.0000
  C   C159      1.0  0.84119  0.67772  0.74422  1.0000
  C   C160      1.0  0.82831  0.64353  0.82985  1.0000
  H   H83       1.0  0.84050  0.58124  0.88979  1.0000
  O  Te35      1.0  0.93373  0.63768  0.55412  1.0000
  O  Te36      1.0  0.88866  0.71071  0.56697  1.0000
  H   H84       1.0  0.80118  0.64489  0.90111  1.0000
  Mg  Mg18      1.0  0.93845  0.69263  0.45952  1.0000
  C   C161      1.0  0.60799  0.14701  0.82092  1.0000
  C   C162      1.0  0.60530  0.11117  0.73392  1.0000
  C  Sn37      1.0  0.63810  0.09762  0.64482  1.0000
  C  Sn38      1.0  0.67423  0.12044  0.64304  1.0000
  C   C163      1.0  0.67662  0.15624  0.73057  1.0000
  C   C164      1.0  0.64361  0.16952  0.81929  1.0000
  H   H85       1.0  0.58245  0.15728  0.88964  1.0000
  O  Te37      1.0  0.63490  0.06175  0.55853  1.0000
  O  Te38      1.0  0.70747  0.10759  0.55505  1.0000
  H   H86       1.0  0.64571  0.19726  0.88672  1.0000
  Mg  Mg19      1.0  0.68841  0.05674  0.45682  1.0000
  C   C165      1.0  0.32386  0.88878  0.63545  1.0000
  C   C166      1.0  0.32270  0.85050  0.70797  1.0000
  C  Sn39      1.0  0.35557  0.83630  0.79888  1.0000
  C  Sn40      1.0  0.39019  0.86094  0.81735  1.0000
  C   C167      1.0  0.39104  0.89919  0.74442  1.0000
  C   C168      1.0  0.35799  0.91311  0.65367  1.0000
  H   H87       1.0  0.29828  0.89956  0.56531  1.0000
  O  Te39      1.0  0.35392  0.79798  0.87046  1.0000
  O  Te40      1.0  0.42346  0.84749  0.90761  1.0000
  H   H88       1.0  0.35888  0.94275  0.59763  1.0000
  Mg  Mg20      1.0  0.40682  0.79305  0.98180  1.0000
  C   C169      1.0  0.74098  0.32022  0.71493  1.0000
  C   C170      1.0  0.78245  0.31429  0.73253  1.0000
  C  Sn41      1.0  0.79824  0.27527  0.74194  1.0000
  C  Sn42      1.0  0.77195  0.24162  0.73350  1.0000
  C   C171      1.0  0.73051  0.24787  0.71578  1.0000
  C   C172      1.0  0.71503  0.28705  0.70653  1.0000
  H   H89       1.0  0.72900  0.35053  0.70769  1.0000
  O  Te41      1.0  0.83975  0.26988  0.75957  1.0000
  O  Te42      1.0  0.78693  0.20229  0.74254  1.0000
  H   H90       1.0  0.68292  0.29163  0.69280  1.0000
  Mg  Mg21      1.0  0.84573  0.21045  0.76639  1.0000
  C   C173      1.0  0.21206  0.75739  0.75989  1.0000
  C   C174      1.0  0.25372  0.75176  0.75469  1.0000
  C  Sn43      1.0  0.26971  0.71318  0.73443  1.0000
  C  Sn44      1.0  0.24342  0.67969  0.71908  1.0000
  C   C175      1.0  0.20179  0.68564  0.72432  1.0000
  C   C176      1.0  0.18612  0.72437  0.74469  1.0000
  H   H91       1.0  0.19993  0.78735  0.77556  1.0000
  O  Te43      1.0  0.31140  0.70809  0.72956  1.0000
  O  Te44      1.0  0.25859  0.64081  0.69865  1.0000
  H   H92       1.0  0.15386  0.72872  0.74861  1.0000
  Mg  Mg22      1.0  0.31760  0.64924  0.69964  1.0000
  C   C177      1.0  0.75550  0.78444  0.75691  1.0000
  C   C178      1.0  0.74977  0.74281  0.77150  1.0000
  C  Sn45      1.0  0.71091  0.72672  0.77237  1.0000
  C  Sn46      1.0  0.67721  0.75286  0.75831  1.0000
  C   C179      1.0  0.68325  0.79447  0.74365  1.0000
  C   C180      1.0  0.72228  0.81025  0.74297  1.0000
  H   H93       1.0  0.78569  0.79665  0.75629  1.0000
  O  Te45      1.0  0.70573  0.68505  0.78711  1.0000
  O  Te46      1.0  0.63803  0.73758  0.75878  1.0000
  H   H94       1.0  0.72670  0.84248  0.73157  1.0000
  Mg  Mg23      1.0  0.64645  0.67866  0.78170  1.0000
  C   C181      1.0  0.24349  0.21776  0.71532  1.0000
  C   C182      1.0  0.24904  0.25883  0.74462  1.0000
  C  Sn47      1.0  0.28778  0.27440  0.76604  1.0000
  C  Sn48      1.0  0.32153  0.24830  0.75788  1.0000
  C   C183      1.0  0.31567  0.20727  0.72840  1.0000
  C   C184      1.0  0.27677  0.19201  0.70719  1.0000
  H   H95       1.0  0.21339  0.20595  0.69882  1.0000
  O  Te47      1.0  0.29278  0.31550  0.79527  1.0000
  O  Te48      1.0  0.36059  0.26307  0.77879  1.0000
  H   H96       1.0  0.27248  0.16022  0.68440  1.0000
  Mg  Mg24      1.0  0.35195  0.32132  0.81582  1.0000
