data_image0
_chemical_formula_structural       H96C160N24SnCSn2CSnTe4Mg2SnCSn2CSnTe4Mg2SnCSn2CSnTe4Mg2SnCSn2CSnTe4Mg2SnCSn2CSnTe4Mg2SnCSn2CSnTe4Mg2SnCSn2CSnTe4Mg2SnCSn2CSnTe4Mg2SnCSn2CSnTe4Mg2SnCSn2CSnTe4Mg2SnCSn2CSnTe4Mg2SnCSn2CSnTe4Mg2
_chemical_formula_sum              "H96 C184 N24 Sn48 Te48 Mg24"
_cell_length_a       33.2194
_cell_length_b       33.1572
_cell_length_c       8.24656
_cell_angle_alpha    89.3525
_cell_angle_beta     90.5579
_cell_angle_gamma    89.9913

_symmetry_space_group_name_H-M    'P1'
_space_group_IT_number       1

loop_
  _space_group_symop_operation_xyz
  'x, y, z'

loop_
  _atom_site_type_symbol
  _atom_site_label
  _atom_site_symmetry_multiplicity
  _atom_site_fract_x
  _atom_site_fract_y
  _atom_site_fract_z
  _atom_site_occupancy
  H   H1        1.0  0.00434  0.53423  0.19922  1.0000
  H   H2        1.0  0.99958  0.46758  0.18973  1.0000
  H   H3        1.0  0.46881  0.00186  0.19324  1.0000
  H   H4        1.0  0.53570  0.99793  0.19196  1.0000
  H   H5        1.0  0.85460  0.54854  0.09386  1.0000
  H   H6        1.0  0.14905  0.45457  0.10383  1.0000
  H   H7        1.0  0.45612  0.85146  0.10591  1.0000
  H   H8        1.0  0.54776  0.14864  0.10683  1.0000
  H   H9        1.0  0.85079  0.46777  0.08747  1.0000
  H   H10       1.0  0.15318  0.53529  0.11049  1.0000
  H   H11       1.0  0.53679  0.84781  0.11064  1.0000
  H   H12       1.0  0.46713  0.15215  0.11092  1.0000
  H   H13       1.0  0.04804  0.64920  0.33459  1.0000
  H   H14       1.0  0.95495  0.35346  0.33862  1.0000
  H   H15       1.0  0.35528  0.04512  0.34273  1.0000
  H   H16       1.0  0.65088  0.95358  0.32926  1.0000
  H   H17       1.0  0.96731  0.65184  0.32798  1.0000
  H   H18       1.0  0.03564  0.35009  0.33811  1.0000
  H   H19       1.0  0.35272  0.96411  0.33993  1.0000
  H   H20       1.0  0.65336  0.03452  0.32873  1.0000
  H   H21       1.0  0.15129  0.56369  0.38283  1.0000
  H   H22       1.0  0.85172  0.43766  0.35844  1.0000
  H   H23       1.0  0.43663  0.14870  0.37863  1.0000
  H   H24       1.0  0.20779  0.61229  0.39197  1.0000
  H   H25       1.0  0.79603  0.38841  0.36549  1.0000
  H   H26       1.0  0.38637  0.20346  0.38528  1.0000
  H   H27       1.0  0.13889  0.69555  0.09867  1.0000
  H   H28       1.0  0.86630  0.30676  0.08122  1.0000
  H   H29       1.0  0.30750  0.13390  0.08007  1.0000
  H   H30       1.0  0.08343  0.64600  0.08270  1.0000
  H   H31       1.0  0.92143  0.35666  0.07212  1.0000
  H   H32       1.0  0.35792  0.07945  0.07510  1.0000
  H   H33       1.0  0.35260  0.93121  0.07245  1.0000
  H   H34       1.0  0.29724  0.88101  0.09450  1.0000
  H   H35       1.0  0.37245  0.80621  0.39974  1.0000
  H   H36       1.0  0.42714  0.85695  0.38093  1.0000
  H   H37       1.0  0.74607  0.35732  0.21223  1.0000
  H   H38       1.0  0.64508  0.74354  0.24790  1.0000
  H   H39       1.0  0.69149  0.30655  0.22194  1.0000
  H   H40       1.0  0.69572  0.68850  0.25077  1.0000
  H   H41       1.0  0.77901  0.21145  0.26276  1.0000
  H   H42       1.0  0.79107  0.77561  0.23148  1.0000
  H   H43       1.0  0.83407  0.26249  0.25496  1.0000
  H   H44       1.0  0.74054  0.83118  0.23478  1.0000
  H   H45       1.0  0.76421  0.66524  0.23885  1.0000
  H   H46       1.0  0.23736  0.33106  0.22784  1.0000
  H   H47       1.0  0.33562  0.76285  0.20923  1.0000
  H   H48       1.0  0.66819  0.23871  0.23129  1.0000
  H   H49       1.0  0.99835  0.53279  0.68596  1.0000
  H   H50       1.0  0.99695  0.46590  0.68445  1.0000
  H   H51       1.0  0.46499  0.00064  0.69175  1.0000
  H   H52       1.0  0.53158  0.99869  0.68998  1.0000
  H   H53       1.0  0.84862  0.54575  0.59736  1.0000
  H   H54       1.0  0.14645  0.45346  0.60889  1.0000
  H   H55       1.0  0.45155  0.85076  0.61460  1.0000
  H   H56       1.0  0.54448  0.14860  0.60015  1.0000
  H   H57       1.0  0.84604  0.46496  0.59395  1.0000
  H   H58       1.0  0.14926  0.53433  0.60928  1.0000
  H   H59       1.0  0.53225  0.84809  0.60838  1.0000
  H   H60       1.0  0.46384  0.15209  0.60891  1.0000
  H   H61       1.0  0.04357  0.64569  0.84118  1.0000
  H   H62       1.0  0.95149  0.35110  0.82080  1.0000
  H   H63       1.0  0.35213  0.04599  0.84229  1.0000
  H   H64       1.0  0.64508  0.95302  0.84273  1.0000
  H   H65       1.0  0.96292  0.64933  0.83365  1.0000
  H   H66       1.0  0.03231  0.34782  0.82782  1.0000
  H   H67       1.0  0.34849  0.96508  0.84150  1.0000
  H   H68       1.0  0.64840  0.03398  0.84236  1.0000
  H   H69       1.0  0.14663  0.56440  0.87646  1.0000
  H   H70       1.0  0.56274  0.85092  0.87533  1.0000
  H   H71       1.0  0.20133  0.61489  0.88251  1.0000
  H   H72       1.0  0.61334  0.79668  0.89465  1.0000
  H   H73       1.0  0.12952  0.69476  0.58354  1.0000
  H   H74       1.0  0.69237  0.86609  0.58907  1.0000
  H   H75       1.0  0.07582  0.64344  0.57312  1.0000
  H   H76       1.0  0.64176  0.92039  0.57336  1.0000
  H   H77       1.0  0.06691  0.35116  0.55949  1.0000
  H   H78       1.0  0.92952  0.65034  0.56973  1.0000
  H   H79       1.0  0.34891  0.93329  0.57000  1.0000
  H   H80       1.0  0.11826  0.29646  0.56595  1.0000
  H   H81       1.0  0.88066  0.70680  0.59653  1.0000
  H   H82       1.0  0.29223  0.88456  0.58238  1.0000
  H   H83       1.0  0.19096  0.36656  0.89174  1.0000
  H   H84       1.0  0.80524  0.63073  0.88967  1.0000
  H   H85       1.0  0.36368  0.80683  0.89130  1.0000
  H   H86       1.0  0.14003  0.42085  0.88303  1.0000
  H   H87       1.0  0.85449  0.57526  0.86697  1.0000
  H   H88       1.0  0.41969  0.85574  0.88005  1.0000
  H   H89       1.0  0.74482  0.35434  0.71099  1.0000
  H   H90       1.0  0.68991  0.30349  0.71387  1.0000
  H   H91       1.0  0.77725  0.20806  0.73818  1.0000
  H   H92       1.0  0.83258  0.25912  0.74100  1.0000
  H   H93       1.0  0.76186  0.66942  0.74141  1.0000
  H   H94       1.0  0.23648  0.33241  0.75558  1.0000
  H   H95       1.0  0.32653  0.76457  0.71475  1.0000
  H   H96       1.0  0.66687  0.23562  0.70910  1.0000
  C   C1        1.0  0.87792  0.52722  0.12749  1.0000
  C   C2        1.0  0.12580  0.47541  0.13966  1.0000
  C   C3        1.0  0.47702  0.87508  0.13859  1.0000
  C   C4        1.0  0.52700  0.12487  0.13967  1.0000
  C   C5        1.0  0.87597  0.48623  0.12499  1.0000
  C   C6        1.0  0.12786  0.51642  0.14274  1.0000
  C   C7        1.0  0.51797  0.87324  0.14065  1.0000
  C   C8        1.0  0.48605  0.12660  0.14163  1.0000
  C   C9        1.0  0.91508  0.47161  0.18148  1.0000
  C   C10       1.0  0.08864  0.53048  0.19599  1.0000
  C   C11       1.0  0.53211  0.91283  0.19107  1.0000
  C   C12       1.0  0.47224  0.08679  0.19300  1.0000
  C   C13       1.0  0.91836  0.53737  0.18335  1.0000
  C   C14       1.0  0.08541  0.46461  0.19199  1.0000
  C   C15       1.0  0.46637  0.91565  0.18913  1.0000
  C   C16       1.0  0.53801  0.08404  0.18993  1.0000
  C   C17       1.0  0.02773  0.62530  0.29945  1.0000
  C   C18       1.0  0.97548  0.37706  0.30172  1.0000
  C   C19       1.0  0.37878  0.02475  0.30547  1.0000
  C   C20       1.0  0.62686  0.97414  0.29547  1.0000
  C   C21       1.0  0.98631  0.62670  0.29635  1.0000
  C   C22       1.0  0.01690  0.37537  0.30225  1.0000
  C   C23       1.0  0.37750  0.98325  0.30428  1.0000
  C   C24       1.0  0.62817  0.01565  0.29495  1.0000
  C   C25       1.0  0.97167  0.58833  0.24421  1.0000
  C   C26       1.0  0.03187  0.41353  0.24678  1.0000
  C   C27       1.0  0.41536  0.96880  0.24718  1.0000
  C   C28       1.0  0.58969  0.03057  0.24243  1.0000
  C   C29       1.0  0.04003  0.58595  0.24974  1.0000
  C   C30       1.0  0.96354  0.41623  0.24479  1.0000
  C   C31       1.0  0.41749  0.03725  0.24922  1.0000
  C   C32       1.0  0.58749  0.96203  0.24329  1.0000
  C   C33       1.0  0.93132  0.57726  0.21392  1.0000
  C   C34       1.0  0.07238  0.42444  0.21961  1.0000
  C   C35       1.0  0.42645  0.92839  0.21874  1.0000
  C   C36       1.0  0.57826  0.07121  0.21678  1.0000
  C   C37       1.0  0.07949  0.57150  0.22588  1.0000
  C   C38       1.0  0.92417  0.43056  0.21323  1.0000
  C   C39       1.0  0.43142  0.07700  0.22255  1.0000
  C   C40       1.0  0.57315  0.92243  0.21949  1.0000
  C   C41       1.0  0.39403  0.89780  0.22538  1.0000
  C   C42       1.0  0.89091  0.40088  0.21572  1.0000
  C   C43       1.0  0.11294  0.60104  0.23252  1.0000
  C   C44       1.0  0.40117  0.10980  0.22677  1.0000
  C   C45       1.0  0.14896  0.59223  0.31740  1.0000
  C   C46       1.0  0.85448  0.40930  0.29472  1.0000
  C   C47       1.0  0.40858  0.14582  0.31094  1.0000
  C   C48       1.0  0.18072  0.61961  0.32233  1.0000
  C   C49       1.0  0.82311  0.38151  0.29795  1.0000
  C   C50       1.0  0.38024  0.17673  0.31374  1.0000
  C   C51       1.0  0.17747  0.65759  0.24599  1.0000
  C   C52       1.0  0.82690  0.34360  0.22454  1.0000
  C   C53       1.0  0.34282  0.17295  0.23384  1.0000
  C   C54       1.0  0.14144  0.66682  0.16299  1.0000
  C   C55       1.0  0.86322  0.33510  0.14524  1.0000
  C   C56       1.0  0.33526  0.13697  0.14990  1.0000
  C   C57       1.0  0.11018  0.63896  0.15440  1.0000
  C   C58       1.0  0.89432  0.36319  0.13981  1.0000
  C   C59       1.0  0.36378  0.10626  0.14611  1.0000
  C   C60       1.0  0.35670  0.90413  0.14628  1.0000
  C   C61       1.0  0.32572  0.87617  0.15790  1.0000
  C   C62       1.0  0.36851  0.83305  0.32411  1.0000
  C   C63       1.0  0.39906  0.86168  0.31473  1.0000
  C   C64       1.0  0.33132  0.83981  0.24486  1.0000
  C   C65       1.0  0.79415  0.31364  0.23176  1.0000
  C   C66       1.0  0.68905  0.79143  0.24185  1.0000
  C   C67       1.0  0.75347  0.32548  0.22546  1.0000
  C   C68       1.0  0.67702  0.75075  0.24810  1.0000
  C   C69       1.0  0.72280  0.29690  0.22999  1.0000
  C   C70       1.0  0.70542  0.71988  0.24806  1.0000
  C   C71       1.0  0.73161  0.25546  0.24181  1.0000
  C   C72       1.0  0.74678  0.72864  0.24179  1.0000
  C   C73       1.0  0.77228  0.24348  0.25152  1.0000
  C   C74       1.0  0.75898  0.76929  0.23650  1.0000
  C   C75       1.0  0.80278  0.27204  0.24590  1.0000
  C   C76       1.0  0.73066  0.79992  0.23679  1.0000
  C   C77       1.0  0.77622  0.69621  0.23675  1.0000
  C   C78       1.0  0.22450  0.30045  0.23386  1.0000
  C   C79       1.0  0.30546  0.77466  0.23663  1.0000
  C   C80       1.0  0.69888  0.22613  0.23791  1.0000
  C   C81       1.0  0.87267  0.52495  0.62798  1.0000
  C   C82       1.0  0.12264  0.47418  0.63971  1.0000
  C   C83       1.0  0.47246  0.87475  0.64261  1.0000
  C   C84       1.0  0.52385  0.12482  0.63444  1.0000
  C   C85       1.0  0.87132  0.48390  0.62632  1.0000
  C   C86       1.0  0.12405  0.51521  0.64027  1.0000
  C   C87       1.0  0.51342  0.87337  0.63998  1.0000
  C   C88       1.0  0.48291  0.12656  0.63857  1.0000
  C   C89       1.0  0.91114  0.46986  0.67678  1.0000
  C   C90       1.0  0.08432  0.52886  0.68945  1.0000
  C   C91       1.0  0.52747  0.91314  0.68831  1.0000
  C   C92       1.0  0.46926  0.08672  0.69058  1.0000
  C   C93       1.0  0.91330  0.53579  0.67937  1.0000
  C   C94       1.0  0.08206  0.46301  0.68844  1.0000
  C   C95       1.0  0.46172  0.91545  0.69097  1.0000
  C   C96       1.0  0.53491  0.08408  0.68578  1.0000
  C   C97       1.0  0.02297  0.62244  0.80181  1.0000
  C   C98       1.0  0.97225  0.37485  0.78777  1.0000
  C   C99       1.0  0.37545  0.02534  0.80576  1.0000
  C   C100      1.0  0.62169  0.97382  0.80464  1.0000
  C   C101      1.0  0.98159  0.62429  0.79836  1.0000
  C   C102      1.0  0.01367  0.37317  0.79125  1.0000
  C   C103      1.0  0.37353  0.98386  0.80523  1.0000
  C   C104      1.0  0.62344  0.01530  0.80439  1.0000
  C   C105      1.0  0.96653  0.58658  0.74067  1.0000
  C   C106      1.0  0.02878  0.41158  0.73928  1.0000
  C   C107      1.0  0.41122  0.96883  0.74888  1.0000
  C   C108      1.0  0.58556  0.03049  0.74647  1.0000
  C   C109      1.0  0.03485  0.58359  0.74541  1.0000
  C   C110      1.0  0.96045  0.41438  0.73381  1.0000
  C   C111      1.0  0.41441  0.03726  0.74988  1.0000
  C   C112      1.0  0.58265  0.96215  0.74694  1.0000
  C   C113      1.0  0.92602  0.57578  0.71069  1.0000
  C   C114      1.0  0.06931  0.42277  0.71542  1.0000
  C   C115      1.0  0.42182  0.92828  0.72033  1.0000
  C   C116      1.0  0.57487  0.07107  0.71608  1.0000
  C   C117      1.0  0.07438  0.56965  0.71891  1.0000
  C   C118      1.0  0.92100  0.42878  0.70512  1.0000
  C   C119      1.0  0.42862  0.07685  0.72212  1.0000
  C   C120      1.0  0.56840  0.92279  0.71776  1.0000
  C   C121      1.0  0.89574  0.60851  0.71697  1.0000
  C   C122      1.0  0.09987  0.39028  0.71926  1.0000
  C   C123      1.0  0.38883  0.89816  0.72301  1.0000
  C   C124      1.0  0.10703  0.60003  0.72428  1.0000
  C   C125      1.0  0.59850  0.88993  0.72437  1.0000
  C   C126      1.0  0.14332  0.59259  0.80911  1.0000
  C   C127      1.0  0.59096  0.85391  0.81084  1.0000
  C   C128      1.0  0.17402  0.62114  0.81266  1.0000
  C   C129      1.0  0.61949  0.82328  0.82054  1.0000
  C   C130      1.0  0.16944  0.65887  0.73494  1.0000
  C   C131      1.0  0.65710  0.82728  0.74491  1.0000
  C   C132      1.0  0.13319  0.66653  0.65068  1.0000
  C   C133      1.0  0.66452  0.86301  0.65643  1.0000
  C   C134      1.0  0.10293  0.63760  0.64428  1.0000
  C   C135      1.0  0.63587  0.89356  0.64631  1.0000
  C   C136      1.0  0.09400  0.35430  0.63297  1.0000
  C   C137      1.0  0.90256  0.64628  0.64171  1.0000
  C   C138      1.0  0.35206  0.90564  0.64098  1.0000
  C   C139      1.0  0.12252  0.32365  0.63655  1.0000
  C   C140      1.0  0.87534  0.67785  0.65585  1.0000
  C   C141      1.0  0.32023  0.87851  0.64774  1.0000
  C   C142      1.0  0.16458  0.36361  0.81362  1.0000
  C   C143      1.0  0.83184  0.63481  0.81532  1.0000
  C   C144      1.0  0.36083  0.83382  0.81561  1.0000
  C   C145      1.0  0.13580  0.39407  0.81001  1.0000
  C   C146      1.0  0.85970  0.60366  0.80370  1.0000
  C   C147      1.0  0.39230  0.86156  0.81042  1.0000
  C   C148      1.0  0.83919  0.67256  0.74102  1.0000
  C   C149      1.0  0.15865  0.32790  0.72530  1.0000
  C   C150      1.0  0.32417  0.84177  0.73376  1.0000
  C   C151      1.0  0.79258  0.31037  0.72531  1.0000
  C   C152      1.0  0.75198  0.32238  0.71999  1.0000
  C   C153      1.0  0.72126  0.29387  0.71995  1.0000
  C   C154      1.0  0.73015  0.25242  0.72578  1.0000
  C   C155      1.0  0.77076  0.24022  0.73317  1.0000
  C   C156      1.0  0.80129  0.26873  0.73296  1.0000
  C   C157      1.0  0.77481  0.69985  0.75274  1.0000
  C   C158      1.0  0.22394  0.30185  0.74228  1.0000
  C   C159      1.0  0.29632  0.77742  0.73218  1.0000
  C   C160      1.0  0.69752  0.22315  0.72127  1.0000
  N   N1        1.0  0.94089  0.50319  0.20918  1.0000
  N   N2        1.0  0.06286  0.49860  0.21873  1.0000
  N   N3        1.0  0.50031  0.93853  0.21350  1.0000
  N   N4        1.0  0.50426  0.06099  0.21501  1.0000
  N   N5        1.0  0.00512  0.56445  0.22167  1.0000
  N   N6        1.0  0.99859  0.43752  0.21777  1.0000
  N   N7        1.0  0.43884  0.00246  0.21962  1.0000
  N   N8        1.0  0.56591  0.99709  0.21599  1.0000
  N   N9        1.0  0.81433  0.70341  0.22597  1.0000
  N   N10       1.0  0.18604  0.29451  0.23113  1.0000
  N   N11       1.0  0.29906  0.81281  0.25224  1.0000
  N   N12       1.0  0.70532  0.18772  0.23622  1.0000
  N   N13       1.0  0.93655  0.50188  0.70181  1.0000
  N   N14       1.0  0.05889  0.49669  0.71186  1.0000
  N   N15       1.0  0.49559  0.93865  0.71204  1.0000
  N   N16       1.0  0.50126  0.06102  0.71209  1.0000
  N   N17       1.0  0.99978  0.56266  0.71423  1.0000
  N   N18       1.0  0.99558  0.43573  0.71004  1.0000
  N   N19       1.0  0.43524  0.00210  0.72120  1.0000
  N   N20       1.0  0.56154  0.99734  0.71842  1.0000
  N   N21       1.0  0.81325  0.70571  0.75021  1.0000
  N   N22       1.0  0.18578  0.29563  0.72275  1.0000
  N   N23       1.0  0.29081  0.81594  0.73843  1.0000
  N   N24       1.0  0.70395  0.18474  0.72692  1.0000
  C  Sn1       1.0  0.60616  0.15113  0.27917  1.0000
  C   C161      1.0  0.60637  0.11414  0.19957  1.0000
  C  Sn2       1.0  0.64245  0.09779  0.14474  1.0000
  C  Sn3       1.0  0.67911  0.11884  0.17008  1.0000
  C   C162      1.0  0.67889  0.15579  0.24966  1.0000
  C  Sn4       1.0  0.64282  0.17217  0.30451  1.0000
  O  Te1       1.0  0.56973  0.16691  0.33296  1.0000
  O  Te2       1.0  0.64190  0.06078  0.06543  1.0000
  O  Te3       1.0  0.71555  0.10303  0.11621  1.0000
  O  Te4       1.0  0.64336  0.20916  0.38379  1.0000
  Mg  Mg1       1.0  0.69929  0.05166  0.01464  1.0000
  Mg  Mg2       1.0  0.58600  0.21830  0.43470  1.0000
  C  Sn5       1.0  0.32028  0.25472  0.28665  1.0000
  C   C163      1.0  0.31398  0.21306  0.28402  1.0000
  C  Sn6       1.0  0.27609  0.19751  0.24472  1.0000
  C  Sn7       1.0  0.24383  0.22415  0.20717  1.0000
  C   C164      1.0  0.25014  0.26579  0.20979  1.0000
  C  Sn8       1.0  0.28802  0.28137  0.24910  1.0000
  O  Te5       1.0  0.35841  0.26960  0.32626  1.0000
  O  Te6       1.0  0.27051  0.15575  0.24295  1.0000
  O  Te7       1.0  0.20568  0.20924  0.16755  1.0000
  O  Te8       1.0  0.29361  0.32310  0.25085  1.0000
  Mg  Mg3       1.0  0.21305  0.15006  0.18146  1.0000
  Mg  Mg4       1.0  0.35106  0.32882  0.31224  1.0000
  C  Sn9       1.0  0.85164  0.60470  0.27602  1.0000
  C   C165      1.0  0.88836  0.60516  0.19471  1.0000
  C  Sn10      1.0  0.90449  0.64149  0.13773  1.0000
  C  Sn11      1.0  0.88351  0.67812  0.16262  1.0000
  C   C166      1.0  0.84682  0.67765  0.24391  1.0000
  C  Sn12      1.0  0.83066  0.64133  0.30091  1.0000
  O  Te9       1.0  0.83607  0.56803  0.33195  1.0000
  O  Te10      1.0  0.94124  0.64119  0.05673  1.0000
  O  Te11      1.0  0.89911  0.71481  0.10661  1.0000
  O  Te12      1.0  0.79394  0.64162  0.38189  1.0000
  Mg  Mg5       1.0  0.95014  0.69885  0.00330  1.0000
  Mg  Mg6       1.0  0.78502  0.58399  0.43544  1.0000
  C  Sn13      1.0  0.35938  0.11764  0.59791  1.0000
  C   C167      1.0  0.39629  0.11474  0.68004  1.0000
  C  Sn14      1.0  0.40512  0.14042  0.80869  1.0000
  C  Sn15      1.0  0.37647  0.16960  0.85632  1.0000
  C   C168      1.0  0.33959  0.17248  0.77423  1.0000
  C  Sn16      1.0  0.33073  0.14681  0.64554  1.0000
  O  Te13      1.0  0.35119  0.09165  0.46966  1.0000
  O  Te14      1.0  0.44222  0.13696  0.88892  1.0000
  O  Te15      1.0  0.38469  0.19559  0.98469  1.0000
  O  Te16      1.0  0.29365  0.15026  0.56536  1.0000
  Mg  Mg7       1.0  0.43697  0.18199  0.05630  1.0000
  Mg  Mg8       1.0  0.29645  0.10804  0.39803  1.0000
  C  Sn17      1.0  0.88070  0.35933  0.58129  1.0000
  C   C169      1.0  0.88315  0.39625  0.66087  1.0000
  C  Sn18      1.0  0.85748  0.40463  0.78939  1.0000
  C  Sn19      1.0  0.82880  0.37548  0.83949  1.0000
  C   C170      1.0  0.82637  0.33858  0.75995  1.0000
  C  Sn20      1.0  0.85202  0.33018  0.63139  1.0000
  O  Te17      1.0  0.90666  0.35160  0.45312  1.0000
  O  Te18      1.0  0.86048  0.44175  0.86704  1.0000
  O  Te19      1.0  0.80283  0.38324  0.96777  1.0000
  O  Te20      1.0  0.84903  0.29308  0.55378  1.0000
  Mg  Mg9       1.0  0.81609  0.44099  0.03538  1.0000
  Mg  Mg10      1.0  0.89101  0.29662  0.38549  1.0000
  C  Sn21      1.0  0.60456  0.84996  0.36123  1.0000
  C   C171      1.0  0.60714  0.88651  0.27591  1.0000
  C  Sn22      1.0  0.63516  0.89142  0.15203  1.0000
  C  Sn23      1.0  0.66113  0.85910  0.11251  1.0000
  C   C172      1.0  0.65854  0.82258  0.19778  1.0000
  C  Sn24      1.0  0.63053  0.81765  0.32171  1.0000
  O  Te21      1.0  0.57632  0.84574  0.48461  1.0000
  O  Te22      1.0  0.63718  0.92824  0.06848  1.0000
  O  Te23      1.0  0.69180  0.86055  0.98902  1.0000
  O  Te24      1.0  0.62850  0.78085  0.40521  1.0000
  Mg  Mg11      1.0  0.68303  0.91649  0.91015  1.0000
  Mg  Mg12      1.0  0.58507  0.78975  0.56350  1.0000
  C  Sn25      1.0  0.24411  0.21894  0.76988  1.0000
  C   C173      1.0  0.25081  0.26039  0.78274  1.0000
  C  Sn26      1.0  0.28930  0.27631  0.75990  1.0000
  C  Sn27      1.0  0.32176  0.25026  0.72334  1.0000
  C   C174      1.0  0.31505  0.20883  0.71048  1.0000
  C  Sn28      1.0  0.27657  0.19288  0.73333  1.0000
  O  Te25      1.0  0.20538  0.20368  0.79319  1.0000
  O  Te26      1.0  0.29527  0.31785  0.77342  1.0000
  O  Te27      1.0  0.36050  0.26555  0.70004  1.0000
  O  Te28      1.0  0.27059  0.15137  0.71979  1.0000
  Mg  Mg13      1.0  0.35349  0.32423  0.73104  1.0000
  Mg  Mg14      1.0  0.21238  0.14496  0.76206  1.0000
  C  Sn29      1.0  0.75379  0.78195  0.81045  1.0000
  C   C175      1.0  0.74725  0.74033  0.80814  1.0000
  C  Sn30      1.0  0.70953  0.72496  0.76508  1.0000
  C  Sn31      1.0  0.67770  0.75175  0.72336  1.0000
  C   C176      1.0  0.68425  0.79334  0.72566  1.0000
  C  Sn32      1.0  0.72196  0.80874  0.76873  1.0000
  O  Te29      1.0  0.79174  0.79665  0.85386  1.0000
  O  Te30      1.0  0.70371  0.68323  0.76371  1.0000
  O  Te31      1.0  0.63972  0.73701  0.67993  1.0000
  O  Te32      1.0  0.72778  0.85044  0.77008  1.0000
  Mg  Mg15      1.0  0.64664  0.67781  0.69608  1.0000
  Mg  Mg16      1.0  0.78485  0.85590  0.83761  1.0000
  C  Sn33      1.0  0.15766  0.36737  0.35723  1.0000
  C   C177      1.0  0.15596  0.33045  0.27739  1.0000
  C  Sn34      1.0  0.12835  0.32454  0.15103  1.0000
  C  Sn35      1.0  0.10191  0.35620  0.10339  1.0000
  C   C178      1.0  0.10363  0.39310  0.18318  1.0000
  C  Sn36      1.0  0.13122  0.39904  0.30958  1.0000
  O  Te33      1.0  0.18550  0.37261  0.48322  1.0000
  O  Te34      1.0  0.12720  0.28735  0.07308  1.0000
  O  Te35      1.0  0.07648  0.34812  0.97729  1.0000
  O  Te36      1.0  0.13239  0.43620  0.38749  1.0000
  Mg  Mg17      1.0  0.08644  0.29205  0.90829  1.0000
  Mg  Mg18      1.0  0.17556  0.42873  0.55223  1.0000
  C  Sn37      1.0  0.63116  0.15600  0.85276  1.0000
  C   C179      1.0  0.66835  0.15430  0.77541  1.0000
  C  Sn38      1.0  0.67472  0.12683  0.65104  1.0000
  C  Sn39      1.0  0.64324  0.10053  0.60289  1.0000
  C   C180      1.0  0.60607  0.10224  0.68019  1.0000
  C  Sn40      1.0  0.59968  0.12970  0.80460  1.0000
  O  Te37      1.0  0.62546  0.18370  0.97679  1.0000
  O  Te38      1.0  0.71217  0.12568  0.57557  1.0000
  O  Te39      1.0  0.64897  0.07282  0.47875  1.0000
  O  Te40      1.0  0.56225  0.13086  0.88004  1.0000
  Mg  Mg19      1.0  0.70527  0.08273  0.41280  1.0000
  Mg  Mg20      1.0  0.56670  0.17662  0.04275  1.0000
  C  Sn41      1.0  0.25185  0.68071  0.77028  1.0000
  C   C181      1.0  0.21041  0.68693  0.78371  1.0000
  C  Sn42      1.0  0.19415  0.72551  0.76254  1.0000
  C  Sn43      1.0  0.21983  0.75855  0.72712  1.0000
  C   C182      1.0  0.26124  0.75232  0.71368  1.0000
  C  Sn44      1.0  0.27753  0.71375  0.73485  1.0000
  O  Te41      1.0  0.26746  0.64189  0.79190  1.0000
  O  Te42      1.0  0.15263  0.73098  0.77661  1.0000
  O  Te43      1.0  0.20419  0.79740  0.70550  1.0000
  O  Te44      1.0  0.31903  0.70827  0.72077  1.0000
  Mg  Mg21      1.0  0.14569  0.78958  0.73664  1.0000
  Mg  Mg22      1.0  0.32599  0.64969  0.76063  1.0000
  C  Sn45      1.0  0.27394  0.69866  0.16091  1.0000
  C   C183      1.0  0.27172  0.73957  0.19877  1.0000
  C  Sn46      1.0  0.23852  0.75464  0.28134  1.0000
  C  Sn47      1.0  0.20690  0.72827  0.32713  1.0000
  C   C184      1.0  0.20913  0.68738  0.28931  1.0000
  C  Sn48      1.0  0.24231  0.67229  0.20670  1.0000
  O  Te45      1.0  0.30741  0.68426  0.07830  1.0000
  O  Te46      1.0  0.23698  0.79566  0.31780  1.0000
  O  Te47      1.0  0.17342  0.74271  0.40980  1.0000
  O  Te48      1.0  0.24387  0.63130  0.17027  1.0000
  Mg  Mg23      1.0  0.18513  0.80092  0.43209  1.0000
  Mg  Mg24      1.0  0.29571  0.62600  0.05607  1.0000
