data_image0
_chemical_formula_structural       H48C88N24SnCSn2CSnTe4Mg2SnCSn2CSnTe4Mg2SnCSn2CSnTe4Mg2SnCSn2CSnTe4Mg2SnCSn2CSnTe4Mg2SnCSn2CSnTe4Mg2SnCSn2CSnTe4Mg2SnCSn2CSnTe4Mg2SnCSn2CSnTe4Mg2SnCSn2CSnTe4Mg2SnCSn2CSnTe4Mg2SnCSn2CSnTe4Mg2SnCSn2CSnTe4Mg2SnCSn2CSnTe4Mg2SnCSn2CSnTe4Mg2SnCSn2CSnTe4Mg2SnCSn2CSnTe4Mg2SnCSn2CSnTe4Mg2SnCSn2CSnTe4Mg2SnCSn2CSnTe4Mg2SnCSn2CSnTe4Mg2SnCSn2CSnTe4Mg2SnCSn2CSnTe4Mg2SnCSn2CSnTe4Mg2
_chemical_formula_sum              "H48 C136 N24 Sn96 Te96 Mg48"
_cell_length_a       33.2194
_cell_length_b       33.1572
_cell_length_c       8.24656
_cell_angle_alpha    89.3525
_cell_angle_beta     90.5579
_cell_angle_gamma    89.9913

_symmetry_space_group_name_H-M    'P1'
_space_group_IT_number       1

loop_
  _space_group_symop_operation_xyz
  'x, y, z'

loop_
  _atom_site_type_symbol
  _atom_site_label
  _atom_site_symmetry_multiplicity
  _atom_site_fract_x
  _atom_site_fract_y
  _atom_site_fract_z
  _atom_site_occupancy
  H   H1        1.0  0.00434  0.53423  0.19922  1.0000
  H   H2        1.0  0.99958  0.46758  0.18973  1.0000
  H   H3        1.0  0.46881  0.00186  0.19324  1.0000
  H   H4        1.0  0.53570  0.99793  0.19196  1.0000
  H   H5        1.0  0.85460  0.54854  0.09386  1.0000
  H   H6        1.0  0.14905  0.45457  0.10383  1.0000
  H   H7        1.0  0.45612  0.85146  0.10591  1.0000
  H   H8        1.0  0.54776  0.14864  0.10683  1.0000
  H   H9        1.0  0.85079  0.46777  0.08747  1.0000
  H   H10       1.0  0.15318  0.53529  0.11049  1.0000
  H   H11       1.0  0.53679  0.84781  0.11064  1.0000
  H   H12       1.0  0.46713  0.15215  0.11092  1.0000
  H   H13       1.0  0.04804  0.64920  0.33459  1.0000
  H   H14       1.0  0.95495  0.35346  0.33862  1.0000
  H   H15       1.0  0.35528  0.04512  0.34273  1.0000
  H   H16       1.0  0.65088  0.95358  0.32926  1.0000
  H   H17       1.0  0.96731  0.65184  0.32798  1.0000
  H   H18       1.0  0.03564  0.35009  0.33811  1.0000
  H   H19       1.0  0.35272  0.96411  0.33993  1.0000
  H   H20       1.0  0.65336  0.03452  0.32873  1.0000
  H   H21       1.0  0.76421  0.66524  0.23885  1.0000
  H   H22       1.0  0.23736  0.33106  0.22784  1.0000
  H   H23       1.0  0.33562  0.76285  0.20923  1.0000
  H   H24       1.0  0.66819  0.23871  0.23129  1.0000
  H   H25       1.0  0.99835  0.53279  0.68596  1.0000
  H   H26       1.0  0.99695  0.46590  0.68445  1.0000
  H   H27       1.0  0.46499  0.00064  0.69175  1.0000
  H   H28       1.0  0.53158  0.99869  0.68998  1.0000
  H   H29       1.0  0.84862  0.54575  0.59736  1.0000
  H   H30       1.0  0.14645  0.45346  0.60889  1.0000
  H   H31       1.0  0.45155  0.85076  0.61460  1.0000
  H   H32       1.0  0.54448  0.14860  0.60015  1.0000
  H   H33       1.0  0.84604  0.46496  0.59395  1.0000
  H   H34       1.0  0.14926  0.53433  0.60928  1.0000
  H   H35       1.0  0.53225  0.84809  0.60838  1.0000
  H   H36       1.0  0.46384  0.15209  0.60891  1.0000
  H   H37       1.0  0.04357  0.64569  0.84118  1.0000
  H   H38       1.0  0.95149  0.35110  0.82080  1.0000
  H   H39       1.0  0.35213  0.04599  0.84229  1.0000
  H   H40       1.0  0.64508  0.95302  0.84273  1.0000
  H   H41       1.0  0.96292  0.64933  0.83365  1.0000
  H   H42       1.0  0.03231  0.34782  0.82782  1.0000
  H   H43       1.0  0.34849  0.96508  0.84150  1.0000
  H   H44       1.0  0.64840  0.03398  0.84236  1.0000
  H   H45       1.0  0.76186  0.66942  0.74141  1.0000
  H   H46       1.0  0.23648  0.33241  0.75558  1.0000
  H   H47       1.0  0.32653  0.76457  0.71475  1.0000
  H   H48       1.0  0.66687  0.23562  0.70910  1.0000
  C   C1        1.0  0.87792  0.52722  0.12749  1.0000
  C   C2        1.0  0.12580  0.47541  0.13966  1.0000
  C   C3        1.0  0.47702  0.87508  0.13859  1.0000
  C   C4        1.0  0.52700  0.12487  0.13967  1.0000
  C   C5        1.0  0.87597  0.48623  0.12499  1.0000
  C   C6        1.0  0.12786  0.51642  0.14274  1.0000
  C   C7        1.0  0.51797  0.87324  0.14065  1.0000
  C   C8        1.0  0.48605  0.12660  0.14163  1.0000
  C   C9        1.0  0.91508  0.47161  0.18148  1.0000
  C   C10       1.0  0.08864  0.53048  0.19599  1.0000
  C   C11       1.0  0.53211  0.91283  0.19107  1.0000
  C   C12       1.0  0.47224  0.08679  0.19300  1.0000
  C   C13       1.0  0.91836  0.53737  0.18335  1.0000
  C   C14       1.0  0.08541  0.46461  0.19199  1.0000
  C   C15       1.0  0.46637  0.91565  0.18913  1.0000
  C   C16       1.0  0.53801  0.08404  0.18993  1.0000
  C   C17       1.0  0.02773  0.62530  0.29945  1.0000
  C   C18       1.0  0.97548  0.37706  0.30172  1.0000
  C   C19       1.0  0.37878  0.02475  0.30547  1.0000
  C   C20       1.0  0.62686  0.97414  0.29547  1.0000
  C   C21       1.0  0.98631  0.62670  0.29635  1.0000
  C   C22       1.0  0.01690  0.37537  0.30225  1.0000
  C   C23       1.0  0.37750  0.98325  0.30428  1.0000
  C   C24       1.0  0.62817  0.01565  0.29495  1.0000
  C   C25       1.0  0.97167  0.58833  0.24421  1.0000
  C   C26       1.0  0.03187  0.41353  0.24678  1.0000
  C   C27       1.0  0.41536  0.96880  0.24718  1.0000
  C   C28       1.0  0.58969  0.03057  0.24243  1.0000
  C   C29       1.0  0.04003  0.58595  0.24974  1.0000
  C   C30       1.0  0.96354  0.41623  0.24479  1.0000
  C   C31       1.0  0.41749  0.03725  0.24922  1.0000
  C   C32       1.0  0.58749  0.96203  0.24329  1.0000
  C   C33       1.0  0.93132  0.57726  0.21392  1.0000
  C   C34       1.0  0.07238  0.42444  0.21961  1.0000
  C   C35       1.0  0.42645  0.92839  0.21874  1.0000
  C   C36       1.0  0.57826  0.07121  0.21678  1.0000
  C   C37       1.0  0.07949  0.57150  0.22588  1.0000
  C   C38       1.0  0.92417  0.43056  0.21323  1.0000
  C   C39       1.0  0.43142  0.07700  0.22255  1.0000
  C   C40       1.0  0.57315  0.92243  0.21949  1.0000
  C   C41       1.0  0.77622  0.69621  0.23675  1.0000
  C   C42       1.0  0.22450  0.30045  0.23386  1.0000
  C   C43       1.0  0.30546  0.77466  0.23663  1.0000
  C   C44       1.0  0.69888  0.22613  0.23791  1.0000
  C   C45       1.0  0.87267  0.52495  0.62798  1.0000
  C   C46       1.0  0.12264  0.47418  0.63971  1.0000
  C   C47       1.0  0.47246  0.87475  0.64261  1.0000
  C   C48       1.0  0.52385  0.12482  0.63444  1.0000
  C   C49       1.0  0.87132  0.48390  0.62632  1.0000
  C   C50       1.0  0.12405  0.51521  0.64027  1.0000
  C   C51       1.0  0.51342  0.87337  0.63998  1.0000
  C   C52       1.0  0.48291  0.12656  0.63857  1.0000
  C   C53       1.0  0.91114  0.46986  0.67678  1.0000
  C   C54       1.0  0.08432  0.52886  0.68945  1.0000
  C   C55       1.0  0.52747  0.91314  0.68831  1.0000
  C   C56       1.0  0.46926  0.08672  0.69058  1.0000
  C   C57       1.0  0.91330  0.53579  0.67937  1.0000
  C   C58       1.0  0.08206  0.46301  0.68844  1.0000
  C   C59       1.0  0.46172  0.91545  0.69097  1.0000
  C   C60       1.0  0.53491  0.08408  0.68578  1.0000
  C   C61       1.0  0.02297  0.62244  0.80181  1.0000
  C   C62       1.0  0.97225  0.37485  0.78777  1.0000
  C   C63       1.0  0.37545  0.02534  0.80576  1.0000
  C   C64       1.0  0.62169  0.97382  0.80464  1.0000
  C   C65       1.0  0.98159  0.62429  0.79836  1.0000
  C   C66       1.0  0.01367  0.37317  0.79125  1.0000
  C   C67       1.0  0.37353  0.98386  0.80523  1.0000
  C   C68       1.0  0.62344  0.01530  0.80439  1.0000
  C   C69       1.0  0.96653  0.58658  0.74067  1.0000
  C   C70       1.0  0.02878  0.41158  0.73928  1.0000
  C   C71       1.0  0.41122  0.96883  0.74888  1.0000
  C   C72       1.0  0.58556  0.03049  0.74647  1.0000
  C   C73       1.0  0.03485  0.58359  0.74541  1.0000
  C   C74       1.0  0.96045  0.41438  0.73381  1.0000
  C   C75       1.0  0.41441  0.03726  0.74988  1.0000
  C   C76       1.0  0.58265  0.96215  0.74694  1.0000
  C   C77       1.0  0.92602  0.57578  0.71069  1.0000
  C   C78       1.0  0.06931  0.42277  0.71542  1.0000
  C   C79       1.0  0.42182  0.92828  0.72033  1.0000
  C   C80       1.0  0.57487  0.07107  0.71608  1.0000
  C   C81       1.0  0.07438  0.56965  0.71891  1.0000
  C   C82       1.0  0.92100  0.42878  0.70512  1.0000
  C   C83       1.0  0.42862  0.07685  0.72212  1.0000
  C   C84       1.0  0.56840  0.92279  0.71776  1.0000
  C   C85       1.0  0.77481  0.69985  0.75274  1.0000
  C   C86       1.0  0.22394  0.30185  0.74228  1.0000
  C   C87       1.0  0.29632  0.77742  0.73218  1.0000
  C   C88       1.0  0.69752  0.22315  0.72127  1.0000
  N   N1        1.0  0.94089  0.50319  0.20918  1.0000
  N   N2        1.0  0.06286  0.49860  0.21873  1.0000
  N   N3        1.0  0.50031  0.93853  0.21350  1.0000
  N   N4        1.0  0.50426  0.06099  0.21501  1.0000
  N   N5        1.0  0.00512  0.56445  0.22167  1.0000
  N   N6        1.0  0.99859  0.43752  0.21777  1.0000
  N   N7        1.0  0.43884  0.00246  0.21962  1.0000
  N   N8        1.0  0.56591  0.99709  0.21599  1.0000
  N   N9        1.0  0.81433  0.70341  0.22597  1.0000
  N   N10       1.0  0.18604  0.29451  0.23113  1.0000
  N   N11       1.0  0.29906  0.81281  0.25224  1.0000
  N   N12       1.0  0.70532  0.18772  0.23622  1.0000
  N   N13       1.0  0.93655  0.50188  0.70181  1.0000
  N   N14       1.0  0.05889  0.49669  0.71186  1.0000
  N   N15       1.0  0.49559  0.93865  0.71204  1.0000
  N   N16       1.0  0.50126  0.06102  0.71209  1.0000
  N   N17       1.0  0.99978  0.56266  0.71423  1.0000
  N   N18       1.0  0.99558  0.43573  0.71004  1.0000
  N   N19       1.0  0.43524  0.00210  0.72120  1.0000
  N   N20       1.0  0.56154  0.99734  0.71842  1.0000
  N   N21       1.0  0.81325  0.70571  0.75021  1.0000
  N   N22       1.0  0.18578  0.29563  0.72275  1.0000
  N   N23       1.0  0.29081  0.81594  0.73843  1.0000
  N   N24       1.0  0.70395  0.18474  0.72692  1.0000
  C  Sn1       1.0  0.12829  0.66757  0.19436  1.0000
  C   C89       1.0  0.16550  0.66336  0.27329  1.0000
  C  Sn2       1.0  0.17907  0.62534  0.32403  1.0000
  C  Sn3       1.0  0.15496  0.59081  0.29519  1.0000
  C   C90       1.0  0.11778  0.59503  0.21628  1.0000
  C  Sn4       1.0  0.10418  0.63304  0.16552  1.0000
  O  Te1       1.0  0.11533  0.70587  0.14468  1.0000
  O  Te2       1.0  0.21636  0.62189  0.40276  1.0000
  O  Te3       1.0  0.16795  0.55249  0.34495  1.0000
  O  Te4       1.0  0.06692  0.63650  0.08682  1.0000
  Mg  Mg1       1.0  0.22095  0.56326  0.44734  1.0000
  Mg  Mg2       1.0  0.06231  0.69511  0.04211  1.0000
  C  Sn5       1.0  0.88451  0.36027  0.09339  1.0000
  C   C91       1.0  0.88636  0.39809  0.16620  1.0000
  C  Sn6       1.0  0.85915  0.40826  0.28720  1.0000
  C  Sn7       1.0  0.82949  0.38004  0.33655  1.0000
  C   C92       1.0  0.82765  0.34224  0.26378  1.0000
  C  Sn8       1.0  0.85484  0.33204  0.14274  1.0000
  O  Te5       1.0  0.91443  0.34793  0.97267  1.0000
  O  Te6       1.0  0.86159  0.44626  0.35817  1.0000
  O  Te7       1.0  0.80198  0.38960  0.45737  1.0000
  O  Te8       1.0  0.85242  0.29407  0.07181  1.0000
  Mg  Mg3       1.0  0.81742  0.44514  0.51765  1.0000
  Mg  Mg4       1.0  0.89900  0.29234  0.91239  1.0000
  C  Sn9       1.0  0.39303  0.17686  0.27993  1.0000
  C   C93       1.0  0.35478  0.17782  0.20793  1.0000
  C  Sn10      1.0  0.33699  0.14240  0.15166  1.0000
  C  Sn11      1.0  0.35786  0.10522  0.16779  1.0000
  C   C94       1.0  0.39608  0.10427  0.23977  1.0000
  C  Sn12      1.0  0.41390  0.13968  0.29606  1.0000
  O  Te9       1.0  0.41024  0.21264  0.33533  1.0000
  O  Te10      1.0  0.29873  0.14412  0.08006  1.0000
  O  Te11      1.0  0.34062  0.06943  0.11231  1.0000
  O  Te12      1.0  0.45214  0.13797  0.36765  1.0000
  Mg  Mg5       1.0  0.28790  0.08725  0.02350  1.0000
  Mg  Mg6       1.0  0.46298  0.19482  0.42432  1.0000
  C  Sn13      1.0  0.64219  0.88176  0.09973  1.0000
  C   C95       1.0  0.60532  0.88459  0.17896  1.0000
  C  Sn14      1.0  0.59609  0.85810  0.30617  1.0000
  C  Sn15      1.0  0.62433  0.82817  0.35531  1.0000
  C   C96       1.0  0.66118  0.82536  0.27612  1.0000
  C  Sn16      1.0  0.67042  0.85183  0.14886  1.0000
  O  Te13      1.0  0.65319  0.90575  0.97286  1.0000
  O  Te14      1.0  0.55903  0.86151  0.38350  1.0000
  O  Te15      1.0  0.61571  0.80137  0.48229  1.0000
  O  Te16      1.0  0.70746  0.84844  0.07157  1.0000
  Mg  Mg7       1.0  0.56124  0.81804  0.54993  1.0000
  Mg  Mg8       1.0  0.70771  0.88909  0.90519  1.0000
  C  Sn17      1.0  0.15766  0.36737  0.35723  1.0000
  C   C97       1.0  0.15596  0.33045  0.27739  1.0000
  C  Sn18      1.0  0.12835  0.32454  0.15103  1.0000
  C  Sn19      1.0  0.10191  0.35620  0.10339  1.0000
  C   C98       1.0  0.10363  0.39310  0.18318  1.0000
  C  Sn20      1.0  0.13122  0.39904  0.30958  1.0000
  O  Te17      1.0  0.18550  0.37261  0.48322  1.0000
  O  Te18      1.0  0.12720  0.28735  0.07308  1.0000
  O  Te19      1.0  0.07648  0.34812  0.97729  1.0000
  O  Te20      1.0  0.13239  0.43620  0.38749  1.0000
  Mg  Mg9       1.0  0.08644  0.29205  0.90829  1.0000
  Mg  Mg10      1.0  0.17556  0.42873  0.55223  1.0000
  C  Sn21      1.0  0.87960  0.66750  0.09210  1.0000
  C   C99       1.0  0.84393  0.66789  0.18052  1.0000
  C  Sn22      1.0  0.83769  0.63973  0.30500  1.0000
  C  Sn23      1.0  0.86775  0.61057  0.34196  1.0000
  C   C100      1.0  0.90340  0.61019  0.25358  1.0000
  C  Sn24      1.0  0.90966  0.63834  0.12905  1.0000
  O  Te21      1.0  0.88760  0.69313  0.96817  1.0000
  O  Te22      1.0  0.80178  0.64071  0.39167  1.0000
  O  Te23      1.0  0.86214  0.58212  0.46600  1.0000
  O  Te24      1.0  0.94554  0.63737  0.04243  1.0000
  Mg  Mg11      1.0  0.80820  0.59569  0.54954  1.0000
  Mg  Mg12      1.0  0.94158  0.67958  0.88460  1.0000
  C  Sn25      1.0  0.60616  0.15113  0.27917  1.0000
  C   C101      1.0  0.60637  0.11414  0.19957  1.0000
  C  Sn26      1.0  0.64245  0.09779  0.14474  1.0000
  C  Sn27      1.0  0.67911  0.11884  0.17008  1.0000
  C   C102      1.0  0.67889  0.15579  0.24966  1.0000
  C  Sn28      1.0  0.64282  0.17217  0.30451  1.0000
  O  Te25      1.0  0.56973  0.16691  0.33296  1.0000
  O  Te26      1.0  0.64190  0.06078  0.06543  1.0000
  O  Te27      1.0  0.71555  0.10303  0.11621  1.0000
  O  Te28      1.0  0.64336  0.20916  0.38379  1.0000
  Mg  Mg13      1.0  0.69929  0.05166  0.01464  1.0000
  Mg  Mg14      1.0  0.58600  0.21830  0.43470  1.0000
  C  Sn29      1.0  0.39856  0.84839  0.28411  1.0000
  C   C103      1.0  0.39796  0.88564  0.20308  1.0000
  C  Sn30      1.0  0.36150  0.90263  0.15124  1.0000
  C  Sn31      1.0  0.32488  0.88199  0.18109  1.0000
  C   C104      1.0  0.32549  0.84477  0.26209  1.0000
  C  Sn32      1.0  0.36194  0.82774  0.31395  1.0000
  O  Te29      1.0  0.43536  0.83197  0.33486  1.0000
  O  Te30      1.0  0.36166  0.93990  0.07043  1.0000
  O  Te31      1.0  0.28807  0.89845  0.13025  1.0000
  O  Te32      1.0  0.36179  0.79051  0.39474  1.0000
  Mg  Mg15      1.0  0.30387  0.94993  0.02505  1.0000
  Mg  Mg16      1.0  0.41956  0.78046  0.44025  1.0000
  C  Sn33      1.0  0.79854  0.26309  0.19876  1.0000
  C   C105      1.0  0.79512  0.30507  0.18998  1.0000
  C  Sn34      1.0  0.75841  0.32381  0.22183  1.0000
  C  Sn35      1.0  0.72443  0.30010  0.26341  1.0000
  C   C106      1.0  0.72787  0.25815  0.27219  1.0000
  C  Sn36      1.0  0.76456  0.23938  0.24034  1.0000
  O  Te33      1.0  0.83553  0.24500  0.16644  1.0000
  O  Te34      1.0  0.75572  0.36582  0.21224  1.0000
  O  Te35      1.0  0.68743  0.31823  0.29573  1.0000
  O  Te36      1.0  0.76726  0.19739  0.24993  1.0000
  Mg  Mg17      1.0  0.69884  0.37645  0.26709  1.0000
  Mg  Mg18      1.0  0.82413  0.18673  0.19520  1.0000
  C  Sn37      1.0  0.20530  0.73837  0.24400  1.0000
  C   C107      1.0  0.20784  0.69713  0.21241  1.0000
  C  Sn38      1.0  0.24522  0.67782  0.21131  1.0000
  C  Sn39      1.0  0.28079  0.70019  0.24254  1.0000
  C   C108      1.0  0.27824  0.74140  0.27414  1.0000
  C  Sn40      1.0  0.24088  0.76074  0.27523  1.0000
  O  Te37      1.0  0.16762  0.75705  0.24449  1.0000
  O  Te38      1.0  0.24700  0.63657  0.17937  1.0000
  O  Te39      1.0  0.31849  0.68147  0.24203  1.0000
  O  Te40      1.0  0.23909  0.80196  0.30718  1.0000
  Mg  Mg19      1.0  0.30536  0.62469  0.19220  1.0000
  Mg  Mg20      1.0  0.18074  0.81387  0.29446  1.0000
  C  Sn41      1.0  0.68123  0.74247  0.29800  1.0000
  C   C109      1.0  0.68810  0.78399  0.28767  1.0000
  C  Sn42      1.0  0.72561  0.79875  0.24010  1.0000
  C  Sn43      1.0  0.75690  0.77144  0.20195  1.0000
  C   C110      1.0  0.75001  0.72994  0.21226  1.0000
  C  Sn44      1.0  0.71251  0.71515  0.25985  1.0000
  O  Te41      1.0  0.64349  0.72838  0.34582  1.0000
  O  Te42      1.0  0.73177  0.84039  0.23073  1.0000
  O  Te43      1.0  0.79465  0.78555  0.15411  1.0000
  O  Te44      1.0  0.70634  0.67354  0.26921  1.0000
  Mg  Mg21      1.0  0.78836  0.84488  0.15958  1.0000
  Mg  Mg22      1.0  0.64976  0.66901  0.34026  1.0000
  C  Sn45      1.0  0.26242  0.20097  0.19107  1.0000
  C   C111      1.0  0.30432  0.20477  0.19250  1.0000
  C  Sn46      1.0  0.32235  0.24144  0.23246  1.0000
  C  Sn47      1.0  0.29800  0.27501  0.27192  1.0000
  C   C112      1.0  0.25613  0.27119  0.27050  1.0000
  C  Sn48      1.0  0.23807  0.23453  0.23053  1.0000
  O  Te45      1.0  0.24504  0.16402  0.15077  1.0000
  O  Te46      1.0  0.36430  0.24452  0.23302  1.0000
  O  Te47      1.0  0.31542  0.31197  0.31224  1.0000
  O  Te48      1.0  0.19615  0.23144  0.22999  1.0000
  Mg  Mg23      1.0  0.37384  0.30118  0.29612  1.0000
  Mg  Mg24      1.0  0.18658  0.17479  0.16700  1.0000
  C  Sn49      1.0  0.17396  0.60833  0.77887  1.0000
  C   C113      1.0  0.17450  0.64668  0.70680  1.0000
  C  Sn50      1.0  0.13882  0.66450  0.65073  1.0000
  C  Sn51      1.0  0.10182  0.64358  0.66712  1.0000
  C   C114      1.0  0.10129  0.60527  0.73918  1.0000
  C  Sn52      1.0  0.13696  0.58741  0.79526  1.0000
  O  Te49      1.0  0.21000  0.59109  0.83407  1.0000
  O  Te50      1.0  0.14012  0.70286  0.57905  1.0000
  O  Te51      1.0  0.06577  0.66086  0.61184  1.0000
  O  Te52      1.0  0.13568  0.54908  0.86693  1.0000
  Mg  Mg25      1.0  0.08303  0.71371  0.52284  1.0000
  Mg  Mg26      1.0  0.19274  0.53822  0.92326  1.0000
  C  Sn53      1.0  0.85009  0.39590  0.84521  1.0000
  C   C115      1.0  0.88598  0.39430  0.75847  1.0000
  C  Sn54      1.0  0.89060  0.36654  0.63388  1.0000
  C  Sn55      1.0  0.85868  0.33982  0.59510  1.0000
  C   C116      1.0  0.82282  0.34142  0.68179  1.0000
  C  Sn56      1.0  0.81817  0.36918  0.80642  1.0000
  O  Te53      1.0  0.84613  0.42390  0.96928  1.0000
  O  Te54      1.0  0.92676  0.36550  0.54892  1.0000
  O  Te55      1.0  0.86267  0.31180  0.47092  1.0000
  O  Te56      1.0  0.78203  0.37023  0.89134  1.0000
  Mg  Mg27      1.0  0.91768  0.32202  0.39011  1.0000
  Mg  Mg28      1.0  0.78865  0.41652  0.05011  1.0000
  C  Sn57      1.0  0.39679  0.14799  0.86232  1.0000
  C   C117      1.0  0.39488  0.11218  0.77481  1.0000
  C  Sn58      1.0  0.36677  0.10781  0.64913  1.0000
  C  Sn59      1.0  0.34005  0.13991  0.61002  1.0000
  C   C118      1.0  0.34197  0.17569  0.69748  1.0000
  C  Sn60      1.0  0.37006  0.18009  0.82321  1.0000
  O  Te57      1.0  0.42513  0.15169  0.98748  1.0000
  O  Te58      1.0  0.36542  0.07172  0.56340  1.0000
  O  Te59      1.0  0.31170  0.13617  0.48475  1.0000
  O  Te60      1.0  0.37143  0.21615  0.90889  1.0000
  Mg  Mg29      1.0  0.32156  0.08117  0.40321  1.0000
  Mg  Mg30      1.0  0.41288  0.20956  0.06904  1.0000
  C  Sn61      1.0  0.63871  0.88343  0.60168  1.0000
  C   C119      1.0  0.60130  0.88533  0.67731  1.0000
  C  Sn62      1.0  0.59213  0.85886  0.80465  1.0000
  C  Sn63      1.0  0.62095  0.82990  0.85757  1.0000
  C   C120      1.0  0.65834  0.82801  0.78198  1.0000
  C  Sn64      1.0  0.66753  0.85447  0.65461  1.0000
  O  Te61      1.0  0.64723  0.91019  0.47462  1.0000
  O  Te62      1.0  0.55453  0.86133  0.87833  1.0000
  O  Te63      1.0  0.61240  0.80313  0.98473  1.0000
  O  Te64      1.0  0.70511  0.85201  0.58096  1.0000
  Mg  Mg31      1.0  0.55464  0.82112  0.04660  1.0000
  Mg  Mg32      1.0  0.70262  0.89503  0.41275  1.0000
  C  Sn65      1.0  0.12035  0.33371  0.58995  1.0000
  C   C121      1.0  0.15638  0.33226  0.67874  1.0000
  C  Sn66      1.0  0.16313  0.35895  0.80603  1.0000
  C  Sn67      1.0  0.13323  0.38766  0.84548  1.0000
  C   C122      1.0  0.09722  0.38909  0.75674  1.0000
  C  Sn68      1.0  0.09045  0.36242  0.62940  1.0000
  O  Te65      1.0  0.11426  0.30674  0.46320  1.0000
  O  Te66      1.0  0.19939  0.35694  0.89302  1.0000
  O  Te67      1.0  0.13935  0.41464  0.97235  1.0000
  O  Te68      1.0  0.05421  0.36442  0.54246  1.0000
  Mg  Mg33      1.0  0.19120  0.40289  0.05519  1.0000
  Mg  Mg34      1.0  0.05994  0.32127  0.38033  1.0000
  C  Sn69      1.0  0.90437  0.65841  0.67868  1.0000
  C   C123      1.0  0.90143  0.61914  0.74078  1.0000
  C  Sn70      1.0  0.86466  0.60449  0.79731  1.0000
  C  Sn71      1.0  0.83010  0.62960  0.79158  1.0000
  C   C124      1.0  0.83305  0.66884  0.72949  1.0000
  C  Sn72      1.0  0.86981  0.68352  0.67294  1.0000
  O  Te69      1.0  0.94143  0.67242  0.62282  1.0000
  O  Te70      1.0  0.86247  0.56513  0.85891  1.0000
  O  Te71      1.0  0.79302  0.61555  0.84752  1.0000
  O  Te72      1.0  0.87200  0.72285  0.61135  1.0000
  Mg  Mg35      1.0  0.80525  0.55977  0.92043  1.0000
  Mg  Mg36      1.0  0.92921  0.72824  0.54973  1.0000
  C  Sn73      1.0  0.60424  0.15067  0.76998  1.0000
  C   C125      1.0  0.60385  0.11300  0.69564  1.0000
  C  Sn74      1.0  0.63974  0.09527  0.64584  1.0000
  C  Sn75      1.0  0.67681  0.11559  0.67096  1.0000
  C   C126      1.0  0.67719  0.15323  0.74529  1.0000
  C  Sn76      1.0  0.64130  0.17099  0.79510  1.0000
  O  Te73      1.0  0.56799  0.16783  0.81879  1.0000
  O  Te74      1.0  0.63859  0.05759  0.57174  1.0000
  O  Te75      1.0  0.71307  0.09839  0.62207  1.0000
  O  Te76      1.0  0.64244  0.20864  0.86919  1.0000
  Mg  Mg37      1.0  0.69595  0.04658  0.52656  1.0000
  Mg  Mg38      1.0  0.58511  0.21967  0.91448  1.0000
  C  Sn77      1.0  0.33943  0.90724  0.67511  1.0000
  C   C127      1.0  0.37768  0.90383  0.74603  1.0000
  C  Sn78      1.0  0.39143  0.86661  0.80516  1.0000
  C  Sn79      1.0  0.36644  0.83207  0.79307  1.0000
  C   C128      1.0  0.32822  0.83549  0.72217  1.0000
  C  Sn80      1.0  0.31445  0.87271  0.66302  1.0000
  O  Te77      1.0  0.32631  0.94475  0.61680  1.0000
  O  Te78      1.0  0.42977  0.86395  0.87561  1.0000
  O  Te79      1.0  0.37960  0.79455  0.85146  1.0000
  O  Te80      1.0  0.27613  0.87537  0.59259  1.0000
  Mg  Mg39      1.0  0.43417  0.80622  0.93723  1.0000
  Mg  Mg40      1.0  0.27171  0.93308  0.53086  1.0000
  C  Sn81      1.0  0.74328  0.31888  0.76887  1.0000
  C   C129      1.0  0.78479  0.31201  0.76975  1.0000
  C  Sn82      1.0  0.80001  0.27383  0.73502  1.0000
  C  Sn83      1.0  0.77318  0.24185  0.69854  1.0000
  C   C130      1.0  0.73170  0.24873  0.69765  1.0000
  C  Sn84      1.0  0.71645  0.28690  0.73240  1.0000
  O  Te81      1.0  0.72874  0.35730  0.80395  1.0000
  O  Te82      1.0  0.84162  0.26768  0.73669  1.0000
  O  Te83      1.0  0.78775  0.20341  0.66345  1.0000
  O  Te84      1.0  0.67487  0.29305  0.73071  1.0000
  Mg  Mg41      1.0  0.84685  0.21001  0.68085  1.0000
  Mg  Mg42      1.0  0.66961  0.35071  0.78644  1.0000
  C  Sn85      1.0  0.25185  0.68071  0.77028  1.0000
  C   C131      1.0  0.21041  0.68693  0.78371  1.0000
  C  Sn86      1.0  0.19415  0.72551  0.76254  1.0000
  C  Sn87      1.0  0.21983  0.75855  0.72712  1.0000
  C   C132      1.0  0.26124  0.75232  0.71368  1.0000
  C  Sn88      1.0  0.27753  0.71375  0.73485  1.0000
  O  Te85      1.0  0.26746  0.64189  0.79190  1.0000
  O  Te86      1.0  0.15263  0.73098  0.77661  1.0000
  O  Te87      1.0  0.20419  0.79740  0.70550  1.0000
  O  Te88      1.0  0.31903  0.70827  0.72077  1.0000
  Mg  Mg43      1.0  0.14569  0.78958  0.73664  1.0000
  Mg  Mg44      1.0  0.32599  0.64969  0.76063  1.0000
  C  Sn89      1.0  0.75379  0.78195  0.81045  1.0000
  C   C133      1.0  0.74725  0.74033  0.80814  1.0000
  C  Sn90      1.0  0.70953  0.72496  0.76508  1.0000
  C  Sn91      1.0  0.67770  0.75175  0.72336  1.0000
  C   C134      1.0  0.68425  0.79334  0.72566  1.0000
  C  Sn92      1.0  0.72196  0.80874  0.76873  1.0000
  O  Te89      1.0  0.79174  0.79665  0.85386  1.0000
  O  Te90      1.0  0.70371  0.68323  0.76371  1.0000
  O  Te91      1.0  0.63972  0.73701  0.67993  1.0000
  O  Te92      1.0  0.72778  0.85044  0.77008  1.0000
  Mg  Mg45      1.0  0.64664  0.67781  0.69608  1.0000
  Mg  Mg46      1.0  0.78485  0.85590  0.83761  1.0000
  C  Sn93      1.0  0.24411  0.21894  0.76988  1.0000
  C   C135      1.0  0.25081  0.26039  0.78274  1.0000
  C  Sn94      1.0  0.28930  0.27631  0.75990  1.0000
  C  Sn95      1.0  0.32176  0.25026  0.72334  1.0000
  C   C136      1.0  0.31505  0.20883  0.71048  1.0000
  C  Sn96      1.0  0.27657  0.19288  0.73333  1.0000
  O  Te93      1.0  0.20538  0.20368  0.79319  1.0000
  O  Te94      1.0  0.29527  0.31785  0.77342  1.0000
  O  Te95      1.0  0.36050  0.26555  0.70004  1.0000
  O  Te96      1.0  0.27059  0.15137  0.71979  1.0000
  Mg  Mg47      1.0  0.35349  0.32423  0.73104  1.0000
  Mg  Mg48      1.0  0.21238  0.14496  0.76206  1.0000
