data_image0
_chemical_formula_structural       H96C160N24C2Sn2C2HTe2HMgC2Sn2C2HTe2HMgC2Sn2C2HTe2HMgC2Sn2C2HTe2HMgC2Sn2C2HTe2HMgC2Sn2C2HTe2HMgC2Sn2C2HTe2HMgC2Sn2C2HTe2HMgC2Sn2C2HTe2HMgC2Sn2C2HTe2HMgC2Sn2C2HTe2HMgC2Sn2C2HTe2HMg
_chemical_formula_sum              "H120 C208 N24 Sn24 Te24 Mg12"
_cell_length_a       33.2194
_cell_length_b       33.1572
_cell_length_c       8.24656
_cell_angle_alpha    89.3525
_cell_angle_beta     90.5579
_cell_angle_gamma    89.9913

_symmetry_space_group_name_H-M    'P1'
_space_group_IT_number       1

loop_
  _space_group_symop_operation_xyz
  'x, y, z'

loop_
  _atom_site_type_symbol
  _atom_site_label
  _atom_site_symmetry_multiplicity
  _atom_site_fract_x
  _atom_site_fract_y
  _atom_site_fract_z
  _atom_site_occupancy
  H   H1        1.0  0.00434  0.53423  0.19922  1.0000
  H   H2        1.0  0.99958  0.46758  0.18973  1.0000
  H   H3        1.0  0.46881  0.00186  0.19324  1.0000
  H   H4        1.0  0.53570  0.99793  0.19196  1.0000
  H   H5        1.0  0.85460  0.54854  0.09386  1.0000
  H   H6        1.0  0.14905  0.45457  0.10383  1.0000
  H   H7        1.0  0.45612  0.85146  0.10591  1.0000
  H   H8        1.0  0.54776  0.14864  0.10683  1.0000
  H   H9        1.0  0.85079  0.46777  0.08747  1.0000
  H   H10       1.0  0.15318  0.53529  0.11049  1.0000
  H   H11       1.0  0.53679  0.84781  0.11064  1.0000
  H   H12       1.0  0.46713  0.15215  0.11092  1.0000
  H   H13       1.0  0.04804  0.64920  0.33459  1.0000
  H   H14       1.0  0.95495  0.35346  0.33862  1.0000
  H   H15       1.0  0.35528  0.04512  0.34273  1.0000
  H   H16       1.0  0.65088  0.95358  0.32926  1.0000
  H   H17       1.0  0.96731  0.65184  0.32798  1.0000
  H   H18       1.0  0.03564  0.35009  0.33811  1.0000
  H   H19       1.0  0.35272  0.96411  0.33993  1.0000
  H   H20       1.0  0.65336  0.03452  0.32873  1.0000
  H   H21       1.0  0.15129  0.56369  0.38283  1.0000
  H   H22       1.0  0.85172  0.43766  0.35844  1.0000
  H   H23       1.0  0.20779  0.61229  0.39197  1.0000
  H   H24       1.0  0.79603  0.38841  0.36549  1.0000
  H   H25       1.0  0.13889  0.69555  0.09867  1.0000
  H   H26       1.0  0.86630  0.30676  0.08122  1.0000
  H   H27       1.0  0.08343  0.64600  0.08270  1.0000
  H   H28       1.0  0.92143  0.35666  0.07212  1.0000
  H   H29       1.0  0.93304  0.65055  0.06155  1.0000
  H   H30       1.0  0.65089  0.06969  0.06572  1.0000
  H   H31       1.0  0.88172  0.70512  0.07282  1.0000
  H   H32       1.0  0.70586  0.12039  0.08198  1.0000
  H   H33       1.0  0.80999  0.63104  0.38890  1.0000
  H   H34       1.0  0.63294  0.19307  0.39161  1.0000
  H   H35       1.0  0.86122  0.57706  0.37711  1.0000
  H   H36       1.0  0.57894  0.14182  0.38029  1.0000
  H   H37       1.0  0.74607  0.35732  0.21223  1.0000
  H   H38       1.0  0.64508  0.74354  0.24790  1.0000
  H   H39       1.0  0.69149  0.30655  0.22194  1.0000
  H   H40       1.0  0.69572  0.68850  0.25077  1.0000
  H   H41       1.0  0.77901  0.21145  0.26276  1.0000
  H   H42       1.0  0.79107  0.77561  0.23148  1.0000
  H   H43       1.0  0.83407  0.26249  0.25496  1.0000
  H   H44       1.0  0.74054  0.83118  0.23478  1.0000
  H   H45       1.0  0.76421  0.66524  0.23885  1.0000
  H   H46       1.0  0.23736  0.33106  0.22784  1.0000
  H   H47       1.0  0.33562  0.76285  0.20923  1.0000
  H   H48       1.0  0.66819  0.23871  0.23129  1.0000
  H   H49       1.0  0.99835  0.53279  0.68596  1.0000
  H   H50       1.0  0.99695  0.46590  0.68445  1.0000
  H   H51       1.0  0.46499  0.00064  0.69175  1.0000
  H   H52       1.0  0.53158  0.99869  0.68998  1.0000
  H   H53       1.0  0.84862  0.54575  0.59736  1.0000
  H   H54       1.0  0.14645  0.45346  0.60889  1.0000
  H   H55       1.0  0.45155  0.85076  0.61460  1.0000
  H   H56       1.0  0.54448  0.14860  0.60015  1.0000
  H   H57       1.0  0.84604  0.46496  0.59395  1.0000
  H   H58       1.0  0.14926  0.53433  0.60928  1.0000
  H   H59       1.0  0.53225  0.84809  0.60838  1.0000
  H   H60       1.0  0.46384  0.15209  0.60891  1.0000
  H   H61       1.0  0.04357  0.64569  0.84118  1.0000
  H   H62       1.0  0.95149  0.35110  0.82080  1.0000
  H   H63       1.0  0.35213  0.04599  0.84229  1.0000
  H   H64       1.0  0.64508  0.95302  0.84273  1.0000
  H   H65       1.0  0.96292  0.64933  0.83365  1.0000
  H   H66       1.0  0.03231  0.34782  0.82782  1.0000
  H   H67       1.0  0.34849  0.96508  0.84150  1.0000
  H   H68       1.0  0.64840  0.03398  0.84236  1.0000
  H   H69       1.0  0.43401  0.14731  0.88559  1.0000
  H   H70       1.0  0.38431  0.20240  0.89463  1.0000
  H   H71       1.0  0.30614  0.13568  0.57595  1.0000
  H   H72       1.0  0.35584  0.08085  0.56980  1.0000
  H   H73       1.0  0.06691  0.35116  0.55949  1.0000
  H   H74       1.0  0.64781  0.06614  0.57192  1.0000
  H   H75       1.0  0.11826  0.29646  0.56595  1.0000
  H   H76       1.0  0.70410  0.11552  0.58528  1.0000
  H   H77       1.0  0.19096  0.36656  0.89174  1.0000
  H   H78       1.0  0.63163  0.19275  0.87917  1.0000
  H   H79       1.0  0.14003  0.42085  0.88303  1.0000
  H   H80       1.0  0.57642  0.14278  0.87087  1.0000
  H   H81       1.0  0.24946  0.64648  0.70539  1.0000
  H   H82       1.0  0.64397  0.74669  0.75977  1.0000
  H   H83       1.0  0.35465  0.25401  0.77307  1.0000
  H   H84       1.0  0.30372  0.69789  0.70641  1.0000
  H   H85       1.0  0.69497  0.69218  0.76366  1.0000
  H   H86       1.0  0.30399  0.30862  0.77854  1.0000
  H   H87       1.0  0.21631  0.79138  0.77697  1.0000
  H   H88       1.0  0.78975  0.78017  0.76343  1.0000
  H   H89       1.0  0.20932  0.22223  0.70766  1.0000
  H   H90       1.0  0.16165  0.73968  0.77624  1.0000
  H   H91       1.0  0.73857  0.83526  0.75844  1.0000
  H   H92       1.0  0.25988  0.16701  0.70681  1.0000
  H   H93       1.0  0.76186  0.66942  0.74141  1.0000
  H   H94       1.0  0.23648  0.33241  0.75558  1.0000
  H   H95       1.0  0.32653  0.76457  0.71475  1.0000
  H   H96       1.0  0.66687  0.23562  0.70910  1.0000
  C   C1        1.0  0.87792  0.52722  0.12749  1.0000
  C   C2        1.0  0.12580  0.47541  0.13966  1.0000
  C   C3        1.0  0.47702  0.87508  0.13859  1.0000
  C   C4        1.0  0.52700  0.12487  0.13967  1.0000
  C   C5        1.0  0.87597  0.48623  0.12499  1.0000
  C   C6        1.0  0.12786  0.51642  0.14274  1.0000
  C   C7        1.0  0.51797  0.87324  0.14065  1.0000
  C   C8        1.0  0.48605  0.12660  0.14163  1.0000
  C   C9        1.0  0.91508  0.47161  0.18148  1.0000
  C   C10       1.0  0.08864  0.53048  0.19599  1.0000
  C   C11       1.0  0.53211  0.91283  0.19107  1.0000
  C   C12       1.0  0.47224  0.08679  0.19300  1.0000
  C   C13       1.0  0.91836  0.53737  0.18335  1.0000
  C   C14       1.0  0.08541  0.46461  0.19199  1.0000
  C   C15       1.0  0.46637  0.91565  0.18913  1.0000
  C   C16       1.0  0.53801  0.08404  0.18993  1.0000
  C   C17       1.0  0.02773  0.62530  0.29945  1.0000
  C   C18       1.0  0.97548  0.37706  0.30172  1.0000
  C   C19       1.0  0.37878  0.02475  0.30547  1.0000
  C   C20       1.0  0.62686  0.97414  0.29547  1.0000
  C   C21       1.0  0.98631  0.62670  0.29635  1.0000
  C   C22       1.0  0.01690  0.37537  0.30225  1.0000
  C   C23       1.0  0.37750  0.98325  0.30428  1.0000
  C   C24       1.0  0.62817  0.01565  0.29495  1.0000
  C   C25       1.0  0.97167  0.58833  0.24421  1.0000
  C   C26       1.0  0.03187  0.41353  0.24678  1.0000
  C   C27       1.0  0.41536  0.96880  0.24718  1.0000
  C   C28       1.0  0.58969  0.03057  0.24243  1.0000
  C   C29       1.0  0.04003  0.58595  0.24974  1.0000
  C   C30       1.0  0.96354  0.41623  0.24479  1.0000
  C   C31       1.0  0.41749  0.03725  0.24922  1.0000
  C   C32       1.0  0.58749  0.96203  0.24329  1.0000
  C   C33       1.0  0.93132  0.57726  0.21392  1.0000
  C   C34       1.0  0.07238  0.42444  0.21961  1.0000
  C   C35       1.0  0.42645  0.92839  0.21874  1.0000
  C   C36       1.0  0.57826  0.07121  0.21678  1.0000
  C   C37       1.0  0.07949  0.57150  0.22588  1.0000
  C   C38       1.0  0.92417  0.43056  0.21323  1.0000
  C   C39       1.0  0.43142  0.07700  0.22255  1.0000
  C   C40       1.0  0.57315  0.92243  0.21949  1.0000
  C   C41       1.0  0.90065  0.60959  0.21702  1.0000
  C   C42       1.0  0.61057  0.10200  0.22117  1.0000
  C   C43       1.0  0.89091  0.40088  0.21572  1.0000
  C   C44       1.0  0.11294  0.60104  0.23252  1.0000
  C   C45       1.0  0.14896  0.59223  0.31740  1.0000
  C   C46       1.0  0.85448  0.40930  0.29472  1.0000
  C   C47       1.0  0.18072  0.61961  0.32233  1.0000
  C   C48       1.0  0.82311  0.38151  0.29795  1.0000
  C   C49       1.0  0.17747  0.65759  0.24599  1.0000
  C   C50       1.0  0.82690  0.34360  0.22454  1.0000
  C   C51       1.0  0.14144  0.66682  0.16299  1.0000
  C   C52       1.0  0.86322  0.33510  0.14524  1.0000
  C   C53       1.0  0.11018  0.63896  0.15440  1.0000
  C   C54       1.0  0.89432  0.36319  0.13981  1.0000
  C   C55       1.0  0.90616  0.64646  0.13376  1.0000
  C   C56       1.0  0.64716  0.09643  0.13909  1.0000
  C   C57       1.0  0.87762  0.67700  0.13964  1.0000
  C   C58       1.0  0.67793  0.12473  0.14719  1.0000
  C   C59       1.0  0.83615  0.63488  0.31186  1.0000
  C   C60       1.0  0.63649  0.16666  0.31596  1.0000
  C   C61       1.0  0.86508  0.60464  0.30658  1.0000
  C   C62       1.0  0.60618  0.13774  0.31034  1.0000
  C   C63       1.0  0.84174  0.67146  0.22635  1.0000
  C   C64       1.0  0.67295  0.16073  0.23356  1.0000
  C   C65       1.0  0.79415  0.31364  0.23176  1.0000
  C   C66       1.0  0.68905  0.79143  0.24185  1.0000
  C   C67       1.0  0.75347  0.32548  0.22546  1.0000
  C   C68       1.0  0.67702  0.75075  0.24810  1.0000
  C   C69       1.0  0.72280  0.29690  0.22999  1.0000
  C   C70       1.0  0.70542  0.71988  0.24806  1.0000
  C   C71       1.0  0.73161  0.25546  0.24181  1.0000
  C   C72       1.0  0.74678  0.72864  0.24179  1.0000
  C   C73       1.0  0.77228  0.24348  0.25152  1.0000
  C   C74       1.0  0.75898  0.76929  0.23650  1.0000
  C   C75       1.0  0.80278  0.27204  0.24590  1.0000
  C   C76       1.0  0.73066  0.79992  0.23679  1.0000
  C   C77       1.0  0.77622  0.69621  0.23675  1.0000
  C   C78       1.0  0.22450  0.30045  0.23386  1.0000
  C   C79       1.0  0.30546  0.77466  0.23663  1.0000
  C   C80       1.0  0.69888  0.22613  0.23791  1.0000
  C   C81       1.0  0.87267  0.52495  0.62798  1.0000
  C   C82       1.0  0.12264  0.47418  0.63971  1.0000
  C   C83       1.0  0.47246  0.87475  0.64261  1.0000
  C   C84       1.0  0.52385  0.12482  0.63444  1.0000
  C   C85       1.0  0.87132  0.48390  0.62632  1.0000
  C   C86       1.0  0.12405  0.51521  0.64027  1.0000
  C   C87       1.0  0.51342  0.87337  0.63998  1.0000
  C   C88       1.0  0.48291  0.12656  0.63857  1.0000
  C   C89       1.0  0.91114  0.46986  0.67678  1.0000
  C   C90       1.0  0.08432  0.52886  0.68945  1.0000
  C   C91       1.0  0.52747  0.91314  0.68831  1.0000
  C   C92       1.0  0.46926  0.08672  0.69058  1.0000
  C   C93       1.0  0.91330  0.53579  0.67937  1.0000
  C   C94       1.0  0.08206  0.46301  0.68844  1.0000
  C   C95       1.0  0.46172  0.91545  0.69097  1.0000
  C   C96       1.0  0.53491  0.08408  0.68578  1.0000
  C   C97       1.0  0.02297  0.62244  0.80181  1.0000
  C   C98       1.0  0.97225  0.37485  0.78777  1.0000
  C   C99       1.0  0.37545  0.02534  0.80576  1.0000
  C   C100      1.0  0.62169  0.97382  0.80464  1.0000
  C   C101      1.0  0.98159  0.62429  0.79836  1.0000
  C   C102      1.0  0.01367  0.37317  0.79125  1.0000
  C   C103      1.0  0.37353  0.98386  0.80523  1.0000
  C   C104      1.0  0.62344  0.01530  0.80439  1.0000
  C   C105      1.0  0.96653  0.58658  0.74067  1.0000
  C   C106      1.0  0.02878  0.41158  0.73928  1.0000
  C   C107      1.0  0.41122  0.96883  0.74888  1.0000
  C   C108      1.0  0.58556  0.03049  0.74647  1.0000
  C   C109      1.0  0.03485  0.58359  0.74541  1.0000
  C   C110      1.0  0.96045  0.41438  0.73381  1.0000
  C   C111      1.0  0.41441  0.03726  0.74988  1.0000
  C   C112      1.0  0.58265  0.96215  0.74694  1.0000
  C   C113      1.0  0.92602  0.57578  0.71069  1.0000
  C   C114      1.0  0.06931  0.42277  0.71542  1.0000
  C   C115      1.0  0.42182  0.92828  0.72033  1.0000
  C   C116      1.0  0.57487  0.07107  0.71608  1.0000
  C   C117      1.0  0.07438  0.56965  0.71891  1.0000
  C   C118      1.0  0.92100  0.42878  0.70512  1.0000
  C   C119      1.0  0.42862  0.07685  0.72212  1.0000
  C   C120      1.0  0.56840  0.92279  0.71776  1.0000
  C   C121      1.0  0.09987  0.39028  0.71926  1.0000
  C   C122      1.0  0.60770  0.10108  0.71872  1.0000
  C   C123      1.0  0.39876  0.10991  0.72697  1.0000
  C   C124      1.0  0.40626  0.14525  0.81531  1.0000
  C   C125      1.0  0.37820  0.17636  0.81921  1.0000
  C   C126      1.0  0.34117  0.17359  0.73557  1.0000
  C   C127      1.0  0.33365  0.13822  0.64757  1.0000
  C   C128      1.0  0.36179  0.10724  0.64310  1.0000
  C   C129      1.0  0.09400  0.35430  0.63297  1.0000
  C   C130      1.0  0.64449  0.09370  0.64060  1.0000
  C   C131      1.0  0.12252  0.32365  0.63655  1.0000
  C   C132      1.0  0.67594  0.12121  0.64717  1.0000
  C   C133      1.0  0.16458  0.36361  0.81362  1.0000
  C   C134      1.0  0.63477  0.16573  0.80675  1.0000
  C   C135      1.0  0.13580  0.39407  0.81001  1.0000
  C   C136      1.0  0.60378  0.13756  0.80297  1.0000
  C   C137      1.0  0.15865  0.32790  0.72530  1.0000
  C   C138      1.0  0.67131  0.15816  0.72716  1.0000
  C   C139      1.0  0.20167  0.68939  0.73997  1.0000
  C   C140      1.0  0.31118  0.20631  0.73969  1.0000
  C   C141      1.0  0.68747  0.79499  0.75601  1.0000
  C   C142      1.0  0.24218  0.67810  0.72307  1.0000
  C   C143      1.0  0.67582  0.75421  0.76181  1.0000
  C   C144      1.0  0.32285  0.24672  0.76123  1.0000
  C   C145      1.0  0.27254  0.70699  0.72279  1.0000
  C   C146      1.0  0.70445  0.72362  0.76343  1.0000
  C   C147      1.0  0.29437  0.27748  0.76317  1.0000
  C   C148      1.0  0.26359  0.74817  0.74049  1.0000
  C   C149      1.0  0.74580  0.73265  0.76166  1.0000
  C   C150      1.0  0.25312  0.26905  0.74368  1.0000
  C   C151      1.0  0.22312  0.75957  0.76102  1.0000
  C   C152      1.0  0.75770  0.77342  0.76192  1.0000
  C   C153      1.0  0.24123  0.22865  0.72271  1.0000
  C   C154      1.0  0.19283  0.73067  0.75982  1.0000
  C   C155      1.0  0.72904  0.80387  0.75814  1.0000
  C   C156      1.0  0.26969  0.19808  0.72108  1.0000
  C   C157      1.0  0.77481  0.69985  0.75274  1.0000
  C   C158      1.0  0.22394  0.30185  0.74228  1.0000
  C   C159      1.0  0.29632  0.77742  0.73218  1.0000
  C   C160      1.0  0.69752  0.22315  0.72127  1.0000
  N   N1        1.0  0.94089  0.50319  0.20918  1.0000
  N   N2        1.0  0.06286  0.49860  0.21873  1.0000
  N   N3        1.0  0.50031  0.93853  0.21350  1.0000
  N   N4        1.0  0.50426  0.06099  0.21501  1.0000
  N   N5        1.0  0.00512  0.56445  0.22167  1.0000
  N   N6        1.0  0.99859  0.43752  0.21777  1.0000
  N   N7        1.0  0.43884  0.00246  0.21962  1.0000
  N   N8        1.0  0.56591  0.99709  0.21599  1.0000
  N   N9        1.0  0.81433  0.70341  0.22597  1.0000
  N   N10       1.0  0.18604  0.29451  0.23113  1.0000
  N   N11       1.0  0.29906  0.81281  0.25224  1.0000
  N   N12       1.0  0.70532  0.18772  0.23622  1.0000
  N   N13       1.0  0.93655  0.50188  0.70181  1.0000
  N   N14       1.0  0.05889  0.49669  0.71186  1.0000
  N   N15       1.0  0.49559  0.93865  0.71204  1.0000
  N   N16       1.0  0.50126  0.06102  0.71209  1.0000
  N   N17       1.0  0.99978  0.56266  0.71423  1.0000
  N   N18       1.0  0.99558  0.43573  0.71004  1.0000
  N   N19       1.0  0.43524  0.00210  0.72120  1.0000
  N   N20       1.0  0.56154  0.99734  0.71842  1.0000
  N   N21       1.0  0.81325  0.70571  0.75021  1.0000
  N   N22       1.0  0.18578  0.29563  0.72275  1.0000
  N   N23       1.0  0.29081  0.81594  0.73843  1.0000
  N   N24       1.0  0.70395  0.18474  0.72692  1.0000
  C   C161      1.0  0.83423  0.62389  0.82246  1.0000
  C   C162      1.0  0.83702  0.66367  0.76584  1.0000
  C  Sn1       1.0  0.86975  0.67578  0.67195  1.0000
  C  Sn2       1.0  0.90019  0.64747  0.63419  1.0000
  C   C163      1.0  0.89711  0.60774  0.69131  1.0000
  C   C164      1.0  0.86424  0.59595  0.78522  1.0000
  H   H97       1.0  0.80879  0.61476  0.89505  1.0000
  O  Te1       1.0  0.87207  0.71564  0.61641  1.0000
  O  Te2       1.0  0.93321  0.65876  0.54052  1.0000
  H   H98       1.0  0.86207  0.56514  0.82895  1.0000
  Mg  Mg1       1.0  0.92292  0.71653  0.49295  1.0000
  C   C165      1.0  0.60978  0.82757  0.83531  1.0000
  C   C166      1.0  0.64661  0.82427  0.75607  1.0000
  C  Sn3       1.0  0.66063  0.85597  0.65895  1.0000
  C  Sn4       1.0  0.63729  0.89162  0.64111  1.0000
  C   C167      1.0  0.60050  0.89464  0.72098  1.0000
  C   C168      1.0  0.58675  0.86272  0.81783  1.0000
  H   H99       1.0  0.59915  0.80289  0.91032  1.0000
  O  Te3       1.0  0.69749  0.85216  0.58059  1.0000
  O  Te4       1.0  0.65060  0.92377  0.54483  1.0000
  H   H100      1.0  0.55825  0.86530  0.87925  1.0000
  Mg  Mg2       1.0  0.70280  0.90422  0.46253  1.0000
  C   C169      1.0  0.11246  0.32696  0.13486  1.0000
  C   C170      1.0  0.15069  0.32590  0.20696  1.0000
  C  Sn5       1.0  0.16455  0.35860  0.29712  1.0000
  C  Sn6       1.0  0.13958  0.39295  0.31525  1.0000
  C   C171      1.0  0.10137  0.39370  0.24273  1.0000
  C   C172      1.0  0.08781  0.36082  0.15273  1.0000
  H   H101      1.0  0.10196  0.30151  0.06529  1.0000
  O  Te5       1.0  0.20283  0.35706  0.36830  1.0000
  O  Te6       1.0  0.15267  0.42605  0.40476  1.0000
  H   H102      1.0  0.05820  0.36163  0.09700  1.0000
  Mg  Mg3       1.0  0.20721  0.40965  0.47864  1.0000
  C   C173      1.0  0.40609  0.15645  0.32201  1.0000
  C   C174      1.0  0.40313  0.11818  0.25359  1.0000
  C  Sn7       1.0  0.36904  0.10761  0.16304  1.0000
  C  Sn8       1.0  0.33740  0.13593  0.14074  1.0000
  C   C175      1.0  0.34067  0.17415  0.20959  1.0000
  C   C176      1.0  0.37490  0.18441  0.30002  1.0000
  H   H103      1.0  0.43259  0.16440  0.39191  1.0000
  O  Te7       1.0  0.36657  0.06924  0.09558  1.0000
  O  Te8       1.0  0.30300  0.12616  0.05074  1.0000
  H   H104      1.0  0.37720  0.21405  0.35289  1.0000
  Mg  Mg4       1.0  0.31605  0.06728  0.98291  1.0000
  C   C177      1.0  0.26015  0.19939  0.24476  1.0000
  C   C178      1.0  0.30190  0.20239  0.22936  1.0000
  C  Sn9       1.0  0.32047  0.24019  0.22530  1.0000
  C  Sn10      1.0  0.29671  0.27559  0.23695  1.0000
  C   C179      1.0  0.25497  0.27227  0.25244  1.0000
  C   C180      1.0  0.23670  0.23429  0.25632  1.0000
  H   H105      1.0  0.24601  0.17001  0.24786  1.0000
  O  Te9       1.0  0.36221  0.24264  0.20979  1.0000
  O  Te10      1.0  0.31449  0.31375  0.23327  1.0000
  H   H106      1.0  0.20438  0.23198  0.26835  1.0000
  Mg  Mg5       1.0  0.37249  0.30148  0.21049  1.0000
  C   C181      1.0  0.78181  0.24233  0.73058  1.0000
  C   C182      1.0  0.74020  0.24841  0.73453  1.0000
  C  Sn11      1.0  0.72440  0.28744  0.72740  1.0000
  C  Sn12      1.0  0.75081  0.32096  0.71608  1.0000
  C   C183      1.0  0.79239  0.31456  0.71209  1.0000
  C   C184      1.0  0.80788  0.27537  0.71935  1.0000
  H   H107      1.0  0.79380  0.21201  0.73611  1.0000
  O  Te11      1.0  0.68275  0.29297  0.73154  1.0000
  O  Te12      1.0  0.73582  0.36030  0.70871  1.0000
  H   H108      1.0  0.84010  0.27067  0.71619  1.0000
  Mg  Mg6       1.0  0.67681  0.35237  0.71832  1.0000
  C   C185      1.0  0.10618  0.64822  0.63572  1.0000
  C   C186      1.0  0.10614  0.60869  0.69639  1.0000
  C  Sn13      1.0  0.13875  0.59431  0.78839  1.0000
  C  Sn14      1.0  0.17196  0.62004  0.82007  1.0000
  C   C187      1.0  0.17170  0.65954  0.75892  1.0000
  C   C188      1.0  0.13892  0.67362  0.66696  1.0000
  H   H109      1.0  0.08081  0.65912  0.56463  1.0000
  O  Te13      1.0  0.13823  0.55473  0.84804  1.0000
  O  Te14      1.0  0.20493  0.60644  0.91172  1.0000
  H   H110      1.0  0.13895  0.70423  0.62009  1.0000
  Mg  Mg7       1.0  0.19019  0.55009  0.96660  1.0000
  C   C189      1.0  0.66436  0.87023  0.13225  1.0000
  C   C190      1.0  0.66353  0.83450  0.22366  1.0000
  C  Sn15      1.0  0.63004  0.82504  0.31794  1.0000
  C  Sn16      1.0  0.59681  0.85190  0.32049  1.0000
  C   C191      1.0  0.59792  0.88756  0.22853  1.0000
  C   C192      1.0  0.63159  0.89674  0.13464  1.0000
  H   H111      1.0  0.69040  0.87733  0.05954  1.0000
  O  Te15      1.0  0.62972  0.78922  0.40859  1.0000
  O  Te16      1.0  0.56295  0.84318  0.41361  1.0000
  H   H112      1.0  0.63221  0.92439  0.06380  1.0000
  Mg  Mg8       1.0  0.57674  0.79066  0.51651  1.0000
  C   C193      1.0  0.87004  0.33675  0.61354  1.0000
  C   C194      1.0  0.83515  0.33653  0.70688  1.0000
  C  Sn17      1.0  0.82564  0.36970  0.80226  1.0000
  C  Sn18      1.0  0.85159  0.40368  0.80394  1.0000
  C   C195      1.0  0.88641  0.40362  0.71004  1.0000
  C   C196      1.0  0.89564  0.37026  0.61507  1.0000
  H   H113      1.0  0.87717  0.31096  0.53999  1.0000
  O  Te17      1.0  0.79067  0.36897  0.89483  1.0000
  O  Te18      1.0  0.84280  0.43723  0.89812  1.0000
  H   H114      1.0  0.92264  0.37045  0.54274  1.0000
  Mg  Mg9       1.0  0.78924  0.42473  0.00360  1.0000
  C   C197      1.0  0.27803  0.69351  0.20934  1.0000
  C   C198      1.0  0.27577  0.73521  0.23027  1.0000
  C  Sn19      1.0  0.23933  0.75321  0.27195  1.0000
  C  Sn20      1.0  0.20457  0.72892  0.29303  1.0000
  C   C199      1.0  0.20715  0.68723  0.27193  1.0000
  C   C200      1.0  0.24376  0.66953  0.23017  1.0000
  H   H115      1.0  0.30637  0.67981  0.17711  1.0000
  O  Te19      1.0  0.23759  0.79491  0.29233  1.0000
  O  Te20      1.0  0.16777  0.74612  0.33475  1.0000
  H   H116      1.0  0.24551  0.63724  0.21408  1.0000
  Mg  Mg10      1.0  0.18058  0.80430  0.34911  1.0000
  C   C201      1.0  0.39510  0.85228  0.33448  1.0000
  C   C202      1.0  0.39673  0.88766  0.24107  1.0000
  C  Sn21      1.0  0.36317  0.90030  0.15058  1.0000
  C  Sn22      1.0  0.32734  0.87702  0.15397  1.0000
  C   C203      1.0  0.32600  0.84169  0.24790  1.0000
  C   C204      1.0  0.35977  0.82932  0.33793  1.0000
  H   H117      1.0  0.42122  0.84272  0.40422  1.0000
  O  Te21      1.0  0.36533  0.93571  0.05786  1.0000
  O  Te22      1.0  0.29335  0.88896  0.06474  1.0000
  H   H118      1.0  0.35849  0.80194  0.41033  1.0000
  Mg  Mg11      1.0  0.31350  0.93668  0.95693  1.0000
  C   C205      1.0  0.38794  0.85224  0.82933  1.0000
  C   C206      1.0  0.39119  0.88780  0.73782  1.0000
  C  Sn23      1.0  0.35856  0.90170  0.64478  1.0000
  C  Sn24      1.0  0.32203  0.87953  0.64360  1.0000
  C   C207      1.0  0.31907  0.84401  0.73566  1.0000
  C   C208      1.0  0.35192  0.83036  0.82829  1.0000
  H   H119      1.0  0.41334  0.84169  0.90107  1.0000
  O  Te23      1.0  0.36233  0.93728  0.55401  1.0000
  O  Te24      1.0  0.28894  0.89275  0.55174  1.0000
  H   H120      1.0  0.34938  0.80284  0.89921  1.0000
  Mg  Mg12      1.0  0.30882  0.94299  0.44812  1.0000
