data_image0
_chemical_formula_structural       H24C36N12O8C2Sn2C2HTe2HMgC2Sn2C2HTe2HMgC2Sn2C2HTe2HMgC2Sn2C2HTe2HMgC2Sn2C2HTe2HMgC2Sn2C2HTe2HMg
_chemical_formula_sum              "H36 C60 N12 O8 Sn12 Te12 Mg6"
_cell_length_a       22.8325
_cell_length_b       21.8372
_cell_length_c       8.02402
_cell_angle_alpha    84.079
_cell_angle_beta     63.2238
_cell_angle_gamma    118.772

_symmetry_space_group_name_H-M    'P1'
_space_group_IT_number       1

loop_
  _space_group_symop_operation_xyz
  'x, y, z'

loop_
  _atom_site_type_symbol
  _atom_site_label
  _atom_site_symmetry_multiplicity
  _atom_site_fract_x
  _atom_site_fract_y
  _atom_site_fract_z
  _atom_site_occupancy
  H   H1        1.0  0.82004  0.35726  0.27254  1.0000
  H   H2        1.0  0.62637  0.47460  0.24771  1.0000
  H   H3        1.0  0.80653  0.48562  0.26688  1.0000
  H   H4        1.0  0.65038  0.16495  0.28061  1.0000
  H   H5        1.0  0.54179  0.24362  0.24914  1.0000
  H   H6        1.0  0.51109  0.33372  0.24260  1.0000
  H   H7        1.0  0.42812  0.62343  0.34072  1.0000
  H   H8        1.0  0.42293  0.72496  0.29315  1.0000
  H   H9        1.0  0.13763  0.50766  0.31410  1.0000
  H   H10       1.0  0.22550  0.50318  0.18623  1.0000
  H   H11       1.0  0.25437  0.76764  0.26527  1.0000
  H   H12       1.0  0.35672  0.84048  0.18652  1.0000
  H   H13       1.0  0.82315  0.34199  0.76715  1.0000
  H   H14       1.0  0.68178  0.48838  0.75726  1.0000
  H   H15       1.0  0.83480  0.49591  0.77190  1.0000
  H   H16       1.0  0.67966  0.17965  0.75069  1.0000
  H   H17       1.0  0.56958  0.25967  0.73945  1.0000
  H   H18       1.0  0.54526  0.35331  0.71713  1.0000
  H   H19       1.0  0.45740  0.63624  0.82548  1.0000
  H   H20       1.0  0.45604  0.74110  0.76304  1.0000
  H   H21       1.0  0.15500  0.51562  0.84828  1.0000
  H   H22       1.0  0.24208  0.50932  0.71454  1.0000
  H   H23       1.0  0.25323  0.75508  0.86234  1.0000
  H   H24       1.0  0.37208  0.84596  0.70147  1.0000
  C   C1        1.0  0.39299  0.59463  0.27940  1.0000
  C   C2        1.0  0.56199  0.37387  0.24709  1.0000
  C   C3        1.0  0.34724  0.62257  0.27085  1.0000
  C   C4        1.0  0.61121  0.35412  0.25236  1.0000
  C   C5        1.0  0.28123  0.58474  0.25165  1.0000
  C   C6        1.0  0.68081  0.40701  0.25511  1.0000
  C   C7        1.0  0.37372  0.80851  0.24476  1.0000
  C   C8        1.0  0.61559  0.18263  0.26080  1.0000
  C   C9        1.0  0.33871  0.73079  0.25725  1.0000
  C   C10       1.0  0.63801  0.25729  0.25895  1.0000
  C   C11       1.0  0.37238  0.69406  0.27866  1.0000
  C   C12       1.0  0.59334  0.28229  0.25386  1.0000
  C   C13       1.0  0.16457  0.56918  0.26233  1.0000
  C   C14       1.0  0.79362  0.43060  0.26800  1.0000
  C   C15       1.0  0.23996  0.61656  0.24709  1.0000
  C   C16       1.0  0.72772  0.38094  0.26169  1.0000
  C   C17       1.0  0.27147  0.69113  0.24431  1.0000
  C   C18       1.0  0.70850  0.30676  0.26154  1.0000
  C   C19       1.0  0.42190  0.60739  0.76537  1.0000
  C   C20       1.0  0.59170  0.39159  0.73927  1.0000
  C   C21       1.0  0.37642  0.63579  0.75777  1.0000
  C   C22       1.0  0.63870  0.36781  0.75174  1.0000
  C   C23       1.0  0.30706  0.59550  0.75252  1.0000
  C   C24       1.0  0.70607  0.41622  0.75995  1.0000
  C   C25       1.0  0.39648  0.81939  0.74405  1.0000
  C   C26       1.0  0.64097  0.19594  0.75219  1.0000
  C   C27       1.0  0.36439  0.74200  0.75501  1.0000
  C   C28       1.0  0.66429  0.27056  0.75468  1.0000
  C   C29       1.0  0.40272  0.70823  0.76005  1.0000
  C   C30       1.0  0.62032  0.29695  0.74830  1.0000
  C   C31       1.0  0.18801  0.57799  0.77342  1.0000
  C   C32       1.0  0.82210  0.44104  0.76958  1.0000
  C   C33       1.0  0.26427  0.62597  0.75465  1.0000
  C   C34       1.0  0.75321  0.39214  0.76493  1.0000
  C   C35       1.0  0.29291  0.69902  0.76033  1.0000
  C   C36       1.0  0.73203  0.31902  0.76163  1.0000
  N   N1        1.0  0.39351  0.54180  0.22159  1.0000
  N   N2        1.0  0.57500  0.44051  0.24591  1.0000
  N   N3        1.0  0.42596  0.84108  0.28917  1.0000
  N   N4        1.0  0.55660  0.14142  0.24214  1.0000
  N   N5        1.0  0.12755  0.59386  0.23059  1.0000
  N   N6        1.0  0.84001  0.41183  0.27602  1.0000
  N   N7        1.0  0.42133  0.55363  0.71038  1.0000
  N   N8        1.0  0.60452  0.45573  0.75042  1.0000
  N   N9        1.0  0.45247  0.85563  0.77542  1.0000
  N   N10       1.0  0.57744  0.15327  0.75137  1.0000
  N   N11       1.0  0.15697  0.60442  0.71731  1.0000
  N   N12       1.0  0.86721  0.42000  0.76871  1.0000
  O   O1        1.0  0.25763  0.51544  0.24254  1.0000
  O   O2        1.0  0.69849  0.47199  0.25438  1.0000
  O   O3        1.0  0.23384  0.72300  0.23376  1.0000
  O   O4        1.0  0.75217  0.28636  0.26143  1.0000
  O   O5        1.0  0.28090  0.52471  0.75090  1.0000
  O   O6        1.0  0.72564  0.48478  0.75919  1.0000
  O   O7        1.0  0.24715  0.72468  0.78247  1.0000
  O   O8        1.0  0.77649  0.29644  0.76360  1.0000
  C   C37       1.0  0.52686  0.56820  0.23654  1.0000
  C   C38       1.0  0.46207  0.53596  0.21594  1.0000
  C  Sn1       1.0  0.42693  0.46288  0.21667  1.0000
  C  Sn2       1.0  0.45732  0.42143  0.23851  1.0000
  C   C39       1.0  0.52212  0.45416  0.25917  1.0000
  C   C40       1.0  0.55685  0.52734  0.25818  1.0000
  H   H25       1.0  0.55371  0.62480  0.23589  1.0000
  O  Te1       1.0  0.36226  0.43154  0.19584  1.0000
  O  Te2       1.0  0.42331  0.34827  0.23981  1.0000
  H   H26       1.0  0.60698  0.55226  0.27427  1.0000
  Mg  Mg1       1.0  0.33621  0.32999  0.20658  1.0000
  C   C41       1.0  0.95805  0.96847  0.28161  1.0000
  C   C42       1.0  0.44671  0.92382  0.27270  1.0000
  C  Sn3       1.0  0.51901  0.95182  0.25811  1.0000
  C  Sn4       1.0  0.10330  0.02589  0.25242  1.0000
  C   C43       1.0  0.07443  0.07008  0.26157  1.0000
  C   C44       1.0  0.00202  0.04152  0.27609  1.0000
  H   H27       1.0  0.36235  0.94636  0.29296  1.0000
  O  Te3       1.0  0.54644  0.90647  0.24928  1.0000
  O  Te4       1.0  0.17573  0.05526  0.23795  1.0000
  H   H28       1.0  0.98009  0.07608  0.28312  1.0000
  Mg  Mg2       1.0  0.18819  0.97172  0.23021  1.0000
  C   C45       1.0  0.99373  0.57187  0.25875  1.0000
  C   C46       1.0  0.04205  0.55069  0.26287  1.0000
  C  Sn5       1.0  0.02355  0.47946  0.26542  1.0000
  C  Sn6       1.0  0.95540  0.42861  0.26375  1.0000
  C   C47       1.0  0.90748  0.45036  0.25948  1.0000
  C   C48       1.0  0.92652  0.52177  0.25702  1.0000
  H   H29       1.0  0.00848  0.62714  0.25674  1.0000
  O  Te5       1.0  0.07245  0.45919  0.26960  1.0000
  O  Te6       1.0  0.93555  0.35708  0.26615  1.0000
  H   H30       1.0  0.88913  0.53817  0.25370  1.0000
  Mg  Mg3       1.0  0.02064  0.35549  0.27171  1.0000
  C   C49       1.0  0.58286  0.56978  0.71215  1.0000
  C   C50       1.0  0.56343  0.49651  0.74357  1.0000
  C  Sn7       1.0  0.49583  0.44025  0.75264  1.0000
  C  Sn8       1.0  0.44690  0.45785  0.72970  1.0000
  C   C51       1.0  0.46688  0.53133  0.69819  1.0000
  C   C52       1.0  0.53465  0.58719  0.68944  1.0000
  H   H31       1.0  0.63531  0.61302  0.70527  1.0000
  O  Te7       1.0  0.47726  0.36734  0.78420  1.0000
  O  Te8       1.0  0.37901  0.40271  0.73804  1.0000
  H   H32       1.0  0.54971  0.64393  0.66498  1.0000
  Mg  Mg4       1.0  0.37855  0.31159  0.78405  1.0000
  C   C53       1.0  0.10688  0.98538  0.77012  1.0000
  C   C54       1.0  0.03648  0.93766  0.77824  1.0000
  C  Sn9       1.0  0.99407  0.96480  0.76250  1.0000
  C  Sn10      1.0  0.02283  0.04116  0.73814  1.0000
  C   C55       1.0  0.09335  0.08846  0.73005  1.0000
  C   C56       1.0  0.13530  0.06071  0.74602  1.0000
  H   H33       1.0  0.13936  0.96392  0.78236  1.0000
  O  Te9       1.0  0.92383  0.91635  0.77099  1.0000
  O  Te10      1.0  0.98164  0.06976  0.72195  1.0000
  H   H34       1.0  0.18984  0.09769  0.73959  1.0000
  Mg  Mg5       1.0  0.88883  0.98167  0.74210  1.0000
  C   C57       1.0  0.03747  0.46236  0.74746  1.0000
  C   C58       1.0  0.07990  0.53763  0.72941  1.0000
  C  Sn11      1.0  0.04674  0.57797  0.74166  1.0000
  C  Sn12      1.0  0.96963  0.54212  0.77261  1.0000
  C   C59       1.0  0.92763  0.46678  0.79062  1.0000
  C   C60       1.0  0.96140  0.42695  0.77807  1.0000
  H   H35       1.0  0.06356  0.43152  0.73787  1.0000
  O  Te11      1.0  0.08997  0.65314  0.72323  1.0000
  O  Te12      1.0  0.93506  0.58111  0.78550  1.0000
  H   H36       1.0  0.92850  0.36866  0.79218  1.0000
  Mg  Mg6       1.0  0.01748  0.68259  0.75114  1.0000
