data_image0
_chemical_formula_structural       H24C36N12O8SnCSn2CSnTe4Mg2SnCSn2CSnTe4Mg2SnCSn2CSnTe4Mg2SnCSn2CSnTe4Mg2SnCSn2CSnTe4Mg2SnCSn2CSnTe4Mg2
_chemical_formula_sum              "H24 C48 N12 O8 Sn24 Te24 Mg12"
_cell_length_a       22.8325
_cell_length_b       21.8372
_cell_length_c       8.02402
_cell_angle_alpha    84.079
_cell_angle_beta     63.2238
_cell_angle_gamma    118.772

_symmetry_space_group_name_H-M    'P1'
_space_group_IT_number       1

loop_
  _space_group_symop_operation_xyz
  'x, y, z'

loop_
  _atom_site_type_symbol
  _atom_site_label
  _atom_site_symmetry_multiplicity
  _atom_site_fract_x
  _atom_site_fract_y
  _atom_site_fract_z
  _atom_site_occupancy
  H   H1        1.0  0.82004  0.35726  0.27254  1.0000
  H   H2        1.0  0.62637  0.47460  0.24771  1.0000
  H   H3        1.0  0.80653  0.48562  0.26688  1.0000
  H   H4        1.0  0.65038  0.16495  0.28061  1.0000
  H   H5        1.0  0.54179  0.24362  0.24914  1.0000
  H   H6        1.0  0.51109  0.33372  0.24260  1.0000
  H   H7        1.0  0.42812  0.62343  0.34072  1.0000
  H   H8        1.0  0.42293  0.72496  0.29315  1.0000
  H   H9        1.0  0.13763  0.50766  0.31410  1.0000
  H   H10       1.0  0.22550  0.50318  0.18623  1.0000
  H   H11       1.0  0.25437  0.76764  0.26527  1.0000
  H   H12       1.0  0.35672  0.84048  0.18652  1.0000
  H   H13       1.0  0.82315  0.34199  0.76715  1.0000
  H   H14       1.0  0.68178  0.48838  0.75726  1.0000
  H   H15       1.0  0.83480  0.49591  0.77190  1.0000
  H   H16       1.0  0.67966  0.17965  0.75069  1.0000
  H   H17       1.0  0.56958  0.25967  0.73945  1.0000
  H   H18       1.0  0.54526  0.35331  0.71713  1.0000
  H   H19       1.0  0.45740  0.63624  0.82548  1.0000
  H   H20       1.0  0.45604  0.74110  0.76304  1.0000
  H   H21       1.0  0.15500  0.51562  0.84828  1.0000
  H   H22       1.0  0.24208  0.50932  0.71454  1.0000
  H   H23       1.0  0.25323  0.75508  0.86234  1.0000
  H   H24       1.0  0.37208  0.84596  0.70147  1.0000
  C   C1        1.0  0.39299  0.59463  0.27940  1.0000
  C   C2        1.0  0.56199  0.37387  0.24709  1.0000
  C   C3        1.0  0.34724  0.62257  0.27085  1.0000
  C   C4        1.0  0.61121  0.35412  0.25236  1.0000
  C   C5        1.0  0.28123  0.58474  0.25165  1.0000
  C   C6        1.0  0.68081  0.40701  0.25511  1.0000
  C   C7        1.0  0.37372  0.80851  0.24476  1.0000
  C   C8        1.0  0.61559  0.18263  0.26080  1.0000
  C   C9        1.0  0.33871  0.73079  0.25725  1.0000
  C   C10       1.0  0.63801  0.25729  0.25895  1.0000
  C   C11       1.0  0.37238  0.69406  0.27866  1.0000
  C   C12       1.0  0.59334  0.28229  0.25386  1.0000
  C   C13       1.0  0.16457  0.56918  0.26233  1.0000
  C   C14       1.0  0.79362  0.43060  0.26800  1.0000
  C   C15       1.0  0.23996  0.61656  0.24709  1.0000
  C   C16       1.0  0.72772  0.38094  0.26169  1.0000
  C   C17       1.0  0.27147  0.69113  0.24431  1.0000
  C   C18       1.0  0.70850  0.30676  0.26154  1.0000
  C   C19       1.0  0.42190  0.60739  0.76537  1.0000
  C   C20       1.0  0.59170  0.39159  0.73927  1.0000
  C   C21       1.0  0.37642  0.63579  0.75777  1.0000
  C   C22       1.0  0.63870  0.36781  0.75174  1.0000
  C   C23       1.0  0.30706  0.59550  0.75252  1.0000
  C   C24       1.0  0.70607  0.41622  0.75995  1.0000
  C   C25       1.0  0.39648  0.81939  0.74405  1.0000
  C   C26       1.0  0.64097  0.19594  0.75219  1.0000
  C   C27       1.0  0.36439  0.74200  0.75501  1.0000
  C   C28       1.0  0.66429  0.27056  0.75468  1.0000
  C   C29       1.0  0.40272  0.70823  0.76005  1.0000
  C   C30       1.0  0.62032  0.29695  0.74830  1.0000
  C   C31       1.0  0.18801  0.57799  0.77342  1.0000
  C   C32       1.0  0.82210  0.44104  0.76958  1.0000
  C   C33       1.0  0.26427  0.62597  0.75465  1.0000
  C   C34       1.0  0.75321  0.39214  0.76493  1.0000
  C   C35       1.0  0.29291  0.69902  0.76033  1.0000
  C   C36       1.0  0.73203  0.31902  0.76163  1.0000
  N   N1        1.0  0.39351  0.54180  0.22159  1.0000
  N   N2        1.0  0.57500  0.44051  0.24591  1.0000
  N   N3        1.0  0.42596  0.84108  0.28917  1.0000
  N   N4        1.0  0.55660  0.14142  0.24214  1.0000
  N   N5        1.0  0.12755  0.59386  0.23059  1.0000
  N   N6        1.0  0.84001  0.41183  0.27602  1.0000
  N   N7        1.0  0.42133  0.55363  0.71038  1.0000
  N   N8        1.0  0.60452  0.45573  0.75042  1.0000
  N   N9        1.0  0.45247  0.85563  0.77542  1.0000
  N   N10       1.0  0.57744  0.15327  0.75137  1.0000
  N   N11       1.0  0.15697  0.60442  0.71731  1.0000
  N   N12       1.0  0.86721  0.42000  0.76871  1.0000
  O   O1        1.0  0.25763  0.51544  0.24254  1.0000
  O   O2        1.0  0.69849  0.47199  0.25438  1.0000
  O   O3        1.0  0.23384  0.72300  0.23376  1.0000
  O   O4        1.0  0.75217  0.28636  0.26143  1.0000
  O   O5        1.0  0.28090  0.52471  0.75090  1.0000
  O   O6        1.0  0.72564  0.48478  0.75919  1.0000
  O   O7        1.0  0.24715  0.72468  0.78247  1.0000
  O   O8        1.0  0.77649  0.29644  0.76360  1.0000
  C  Sn1       1.0  0.53830  0.57390  0.16901  1.0000
  C   C37       1.0  0.46831  0.53718  0.16978  1.0000
  C  Sn2       1.0  0.42158  0.45820  0.22584  1.0000
  C  Sn3       1.0  0.44525  0.41501  0.28246  1.0000
  C   C38       1.0  0.51519  0.45173  0.28172  1.0000
  C  Sn4       1.0  0.56197  0.53071  0.22563  1.0000
  O  Te1       1.0  0.58410  0.65291  0.11244  1.0000
  O  Te2       1.0  0.35188  0.42277  0.22536  1.0000
  O  Te3       1.0  0.39938  0.33594  0.33906  1.0000
  O  Te4       1.0  0.63162  0.56614  0.22613  1.0000
  Mg  Mg1       1.0  0.30945  0.31377  0.31445  1.0000
  Mg  Mg2       1.0  0.67407  0.67511  0.13717  1.0000
  C  Sn5       1.0  0.43152  0.00325  0.32918  1.0000
  C   C39       1.0  0.50553  0.05200  0.30471  1.0000
  C  Sn6       1.0  0.56091  0.03417  0.24939  1.0000
  C  Sn7       1.0  0.00231  0.96623  0.21774  1.0000
  C   C40       1.0  0.92835  0.91754  0.24217  1.0000
  C  Sn8       1.0  0.87292  0.93531  0.29753  1.0000
  O  Te5       1.0  0.37707  0.02221  0.38454  1.0000
  O  Te6       1.0  0.63449  0.08378  0.22590  1.0000
  O  Te7       1.0  0.05684  0.94731  0.16234  1.0000
  O  Te8       1.0  0.79939  0.88575  0.32098  1.0000
  Mg  Mg3       1.0  0.68885  0.03310  0.14886  1.0000
  Mg  Mg4       1.0  0.74501  0.93640  0.39791  1.0000
  C  Sn9       1.0  0.96589  0.55202  0.20938  1.0000
  C   C41       1.0  0.92567  0.47753  0.22080  1.0000
  C  Sn10      1.0  0.94592  0.43027  0.26706  1.0000
  C  Sn11      1.0  0.00762  0.45802  0.30279  1.0000
  C   C42       1.0  0.04778  0.53246  0.29140  1.0000
  C  Sn12      1.0  0.02759  0.57977  0.24510  1.0000
  O  Te9       1.0  0.94465  0.59826  0.16291  1.0000
  O  Te10      1.0  0.90488  0.35602  0.27755  1.0000
  O  Te11      1.0  0.02883  0.41171  0.34928  1.0000
  O  Te12      1.0  0.06858  0.65397  0.23464  1.0000
  Mg  Mg5       1.0  0.95551  0.31484  0.34615  1.0000
  Mg  Mg6       1.0  0.01797  0.69519  0.16617  1.0000
  C  Sn13      1.0  0.48875  0.44048  0.68009  1.0000
  C   C43       1.0  0.55749  0.47757  0.68451  1.0000
  C  Sn14      1.0  0.58128  0.54348  0.72290  1.0000
  C  Sn15      1.0  0.53538  0.57292  0.75772  1.0000
  C   C44       1.0  0.46667  0.53583  0.75333  1.0000
  C  Sn16      1.0  0.44285  0.46992  0.71491  1.0000
  O  Te13      1.0  0.46609  0.37467  0.64143  1.0000
  O  Te14      1.0  0.65024  0.57958  0.72649  1.0000
  O  Te15      1.0  0.55810  0.63879  0.79640  1.0000
  O  Te16      1.0  0.37392  0.43383  0.71135  1.0000
  Mg  Mg7       1.0  0.65662  0.66755  0.78575  1.0000
  Mg  Mg8       1.0  0.36746  0.34583  0.65221  1.0000
  C  Sn17      1.0  0.00763  0.99407  0.68297  1.0000
  C   C45       1.0  0.03054  0.94638  0.70371  1.0000
  C  Sn18      1.0  0.08125  0.96224  0.77007  1.0000
  C  Sn19      1.0  0.10961  0.02711  0.81681  1.0000
  C   C46       1.0  0.08669  0.07475  0.79609  1.0000
  C  Sn20      1.0  0.03600  0.05893  0.72970  1.0000
  O  Te17      1.0  0.95689  0.97711  0.61639  1.0000
  O  Te18      1.0  0.10335  0.91374  0.78956  1.0000
  O  Te19      1.0  0.16039  0.04404  0.88342  1.0000
  O  Te20      1.0  0.01389  0.10738  0.71025  1.0000
  Mg  Mg9       1.0  0.17358  0.96082  0.88590  1.0000
  Mg  Mg10      1.0  0.94363  0.06034  0.61403  1.0000
  C  Sn21      1.0  0.98510  0.43372  0.81174  1.0000
  C   C47       1.0  0.93444  0.45406  0.82283  1.0000
  C  Sn22      1.0  0.96247  0.53037  0.77255  1.0000
  C  Sn23      1.0  0.04284  0.58757  0.70973  1.0000
  C   C48       1.0  0.09346  0.56722  0.69863  1.0000
  C  Sn24      1.0  0.06547  0.49092  0.74892  1.0000
  O  Te21      1.0  0.95580  0.35708  0.86272  1.0000
  O  Te22      1.0  0.91069  0.54931  0.78489  1.0000
  O  Te23      1.0  0.07211  0.66425  0.65875  1.0000
  O  Te24      1.0  0.11721  0.47198  0.73658  1.0000
  Mg  Mg11      1.0  0.97856  0.66156  0.69958  1.0000
  Mg  Mg12      1.0  0.04942  0.35976  0.82175  1.0000
