data_image0
_chemical_formula_structural       H36C54N12O8C2Sn2C2HTe2HMgC2Sn2C2HTe2HMgC2Sn2C2HTe2HMg
_chemical_formula_sum              "H42 C66 N12 O8 Sn6 Te6 Mg3"
_cell_length_a       22.8325
_cell_length_b       21.8372
_cell_length_c       8.02402
_cell_angle_alpha    84.079
_cell_angle_beta     63.2238
_cell_angle_gamma    118.772

_symmetry_space_group_name_H-M    'P1'
_space_group_IT_number       1

loop_
  _space_group_symop_operation_xyz
  'x, y, z'

loop_
  _atom_site_type_symbol
  _atom_site_label
  _atom_site_symmetry_multiplicity
  _atom_site_fract_x
  _atom_site_fract_y
  _atom_site_fract_z
  _atom_site_occupancy
  H   H1        1.0  0.82004  0.35726  0.27254  1.0000
  H   H2        1.0  0.62637  0.47460  0.24771  1.0000
  H   H3        1.0  0.80653  0.48562  0.26688  1.0000
  H   H4        1.0  0.90546  0.55379  0.28108  1.0000
  H   H5        1.0  0.92945  0.36991  0.26811  1.0000
  H   H6        1.0  0.65038  0.16495  0.28061  1.0000
  H   H7        1.0  0.54179  0.24362  0.24914  1.0000
  H   H8        1.0  0.51109  0.33372  0.24260  1.0000
  H   H9        1.0  0.60721  0.57360  0.23790  1.0000
  H   H10       1.0  0.53151  0.62293  0.22453  1.0000
  H   H11       1.0  0.36572  0.41393  0.22638  1.0000
  H   H12       1.0  0.44136  0.36400  0.23769  1.0000
  H   H13       1.0  0.42812  0.62343  0.34072  1.0000
  H   H14       1.0  0.42293  0.72496  0.29315  1.0000
  H   H15       1.0  0.13763  0.50766  0.31410  1.0000
  H   H16       1.0  0.22550  0.50318  0.18623  1.0000
  H   H17       1.0  0.25437  0.76764  0.26527  1.0000
  H   H18       1.0  0.03430  0.62974  0.25739  1.0000
  H   H19       1.0  0.05643  0.44527  0.24839  1.0000
  H   H20       1.0  0.35672  0.84048  0.18652  1.0000
  H   H21       1.0  0.82315  0.34199  0.76715  1.0000
  H   H22       1.0  0.68178  0.48838  0.75726  1.0000
  H   H23       1.0  0.83480  0.49591  0.77190  1.0000
  H   H24       1.0  0.63602  0.06829  0.77884  1.0000
  H   H25       1.0  0.45818  0.07299  0.72979  1.0000
  H   H26       1.0  0.67966  0.17965  0.75069  1.0000
  H   H27       1.0  0.56958  0.25967  0.73945  1.0000
  H   H28       1.0  0.54526  0.35331  0.71713  1.0000
  H   H29       1.0  0.45740  0.63624  0.82548  1.0000
  H   H30       1.0  0.45604  0.74110  0.76304  1.0000
  H   H31       1.0  0.15500  0.51562  0.84828  1.0000
  H   H32       1.0  0.24208  0.50932  0.71454  1.0000
  H   H33       1.0  0.25323  0.75508  0.86234  1.0000
  H   H34       1.0  0.37208  0.84596  0.70147  1.0000
  H   H35       1.0  0.39736  0.94275  0.73740  1.0000
  H   H36       1.0  0.57380  0.93683  0.79198  1.0000
  C   C1        1.0  0.51093  0.56594  0.22937  1.0000
  C   C2        1.0  0.46091  0.42019  0.23793  1.0000
  C   C3        1.0  0.55419  0.53869  0.23533  1.0000
  C   C4        1.0  0.41813  0.44777  0.23156  1.0000
  C   C5        1.0  0.52959  0.46552  0.23956  1.0000
  C   C6        1.0  0.44138  0.52053  0.22982  1.0000
  C   C7        1.0  0.39299  0.59463  0.27940  1.0000
  C   C8        1.0  0.56199  0.37387  0.24709  1.0000
  C   C9        1.0  0.34724  0.62257  0.27085  1.0000
  C   C10       1.0  0.61121  0.35412  0.25236  1.0000
  C   C11       1.0  0.28123  0.58474  0.25165  1.0000
  C   C12       1.0  0.68081  0.40701  0.25511  1.0000
  C   C13       1.0  0.37372  0.80851  0.24476  1.0000
  C   C14       1.0  0.61559  0.18263  0.26080  1.0000
  C   C15       1.0  0.33871  0.73079  0.25725  1.0000
  C   C16       1.0  0.63801  0.25729  0.25895  1.0000
  C   C17       1.0  0.37238  0.69406  0.27866  1.0000
  C   C18       1.0  0.59334  0.28229  0.25386  1.0000
  C   C19       1.0  0.02381  0.46954  0.25622  1.0000
  C   C20       1.0  0.93823  0.52983  0.27386  1.0000
  C   C21       1.0  0.95242  0.42673  0.26740  1.0000
  C   C22       1.0  0.01012  0.57254  0.26058  1.0000
  C   C23       1.0  0.90944  0.45672  0.27376  1.0000
  C   C24       1.0  0.05458  0.54382  0.25156  1.0000
  C   C25       1.0  0.16457  0.56918  0.26233  1.0000
  C   C26       1.0  0.79362  0.43060  0.26800  1.0000
  C   C27       1.0  0.23996  0.61656  0.24709  1.0000
  C   C28       1.0  0.72772  0.38094  0.26169  1.0000
  C   C29       1.0  0.27147  0.69113  0.24431  1.0000
  C   C30       1.0  0.70850  0.30676  0.26154  1.0000
  C   C31       1.0  0.42190  0.60739  0.76537  1.0000
  C   C32       1.0  0.59170  0.39159  0.73927  1.0000
  C   C33       1.0  0.37642  0.63579  0.75777  1.0000
  C   C34       1.0  0.63870  0.36781  0.75174  1.0000
  C   C35       1.0  0.30706  0.59550  0.75252  1.0000
  C   C36       1.0  0.70607  0.41622  0.75995  1.0000
  C   C37       1.0  0.44949  0.96936  0.74681  1.0000
  C   C38       1.0  0.58450  0.04172  0.76731  1.0000
  C   C39       1.0  0.48331  0.04260  0.74191  1.0000
  C   C40       1.0  0.54992  0.96800  0.77502  1.0000
  C   C41       1.0  0.55134  0.08066  0.75199  1.0000
  C   C42       1.0  0.48227  0.93021  0.76384  1.0000
  C   C43       1.0  0.39648  0.81939  0.74405  1.0000
  C   C44       1.0  0.64097  0.19594  0.75219  1.0000
  C   C45       1.0  0.36439  0.74200  0.75501  1.0000
  C   C46       1.0  0.66429  0.27056  0.75468  1.0000
  C   C47       1.0  0.40272  0.70823  0.76005  1.0000
  C   C48       1.0  0.62032  0.29695  0.74830  1.0000
  C   C49       1.0  0.18801  0.57799  0.77342  1.0000
  C   C50       1.0  0.82210  0.44104  0.76958  1.0000
  C   C51       1.0  0.26427  0.62597  0.75465  1.0000
  C   C52       1.0  0.75321  0.39214  0.76493  1.0000
  C   C53       1.0  0.29291  0.69902  0.76033  1.0000
  C   C54       1.0  0.73203  0.31902  0.76163  1.0000
  N   N1        1.0  0.39351  0.54180  0.22159  1.0000
  N   N2        1.0  0.57500  0.44051  0.24591  1.0000
  N   N3        1.0  0.42596  0.84108  0.28917  1.0000
  N   N4        1.0  0.55660  0.14142  0.24214  1.0000
  N   N5        1.0  0.12755  0.59386  0.23059  1.0000
  N   N6        1.0  0.84001  0.41183  0.27602  1.0000
  N   N7        1.0  0.42133  0.55363  0.71038  1.0000
  N   N8        1.0  0.60452  0.45573  0.75042  1.0000
  N   N9        1.0  0.45247  0.85563  0.77542  1.0000
  N   N10       1.0  0.57744  0.15327  0.75137  1.0000
  N   N11       1.0  0.15697  0.60442  0.71731  1.0000
  N   N12       1.0  0.86721  0.42000  0.76871  1.0000
  O   O1        1.0  0.25763  0.51544  0.24254  1.0000
  O   O2        1.0  0.69849  0.47199  0.25438  1.0000
  O   O3        1.0  0.23384  0.72300  0.23376  1.0000
  O   O4        1.0  0.75217  0.28636  0.26143  1.0000
  O   O5        1.0  0.28090  0.52471  0.75090  1.0000
  O   O6        1.0  0.72564  0.48478  0.75919  1.0000
  O   O7        1.0  0.24715  0.72468  0.78247  1.0000
  O   O8        1.0  0.77649  0.29644  0.76360  1.0000
  C   C55       1.0  0.44004  0.01014  0.26303  1.0000
  C   C56       1.0  0.50937  0.05729  0.25961  1.0000
  C  Sn1       1.0  0.55543  0.03233  0.25924  1.0000
  C  Sn2       1.0  0.99183  0.95879  0.26230  1.0000
  C   C57       1.0  0.92240  0.91207  0.26556  1.0000
  C   C58       1.0  0.87674  0.93761  0.26596  1.0000
  H   H37       1.0  0.40473  0.02991  0.26323  1.0000
  O  Te1       1.0  0.62451  0.08015  0.25588  1.0000
  O  Te2       1.0  0.03676  0.93242  0.26193  1.0000
  H   H38       1.0  0.82309  0.90111  0.26848  1.0000
  Mg  Mg1       1.0  0.66583  0.01858  0.25682  1.0000
  C   C59       1.0  0.03747  0.46236  0.74746  1.0000
  C   C60       1.0  0.07990  0.53763  0.72941  1.0000
  C  Sn3       1.0  0.04674  0.57797  0.74166  1.0000
  C  Sn4       1.0  0.96963  0.54212  0.77261  1.0000
  C   C61       1.0  0.92763  0.46678  0.79062  1.0000
  C   C62       1.0  0.96140  0.42695  0.77807  1.0000
  H   H39       1.0  0.06356  0.43152  0.73787  1.0000
  O  Te3       1.0  0.08997  0.65314  0.72323  1.0000
  O  Te4       1.0  0.93506  0.58111  0.78550  1.0000
  H   H40       1.0  0.92850  0.36866  0.79218  1.0000
  Mg  Mg2       1.0  0.01748  0.68259  0.75114  1.0000
  C   C63       1.0  0.46880  0.42739  0.74791  1.0000
  C   C64       1.0  0.54217  0.46585  0.73146  1.0000
  C  Sn5       1.0  0.58012  0.54124  0.71418  1.0000
  C  Sn6       1.0  0.54378  0.57868  0.71344  1.0000
  C   C65       1.0  0.47033  0.53969  0.73012  1.0000
  C   C66       1.0  0.43289  0.46426  0.74728  1.0000
  H   H41       1.0  0.43980  0.36902  0.76130  1.0000
  O  Te5       1.0  0.65343  0.57883  0.69780  1.0000
  O  Te6       1.0  0.58038  0.65400  0.69643  1.0000
  H   H42       1.0  0.37606  0.43449  0.76014  1.0000
  Mg  Mg3       1.0  0.67994  0.68117  0.67792  1.0000
