data_image0
_chemical_formula_structural       H8C10N8SnCSn2CSnTe4Mg2SnCSn2CSnTe4Mg2SnCSn2CSnTe4Mg2SnCSn2CSnTe4Mg2SnCSn2CSnTe4Mg2SnCSn2CSnTe4Mg2SnCSn2CSnTe4Mg2SnCSn2CSnTe4Mg2
_chemical_formula_sum              "H8 C26 N8 Sn32 Te32 Mg16"
_cell_length_a       15.4267
_cell_length_b       14.9627
_cell_length_c       19.663
_cell_angle_alpha    89.9526
_cell_angle_beta     90.0671
_cell_angle_gamma    91.3907

_symmetry_space_group_name_H-M    'P1'
_space_group_IT_number       1

loop_
  _space_group_symop_operation_xyz
  'x, y, z'

loop_
  _atom_site_type_symbol
  _atom_site_label
  _atom_site_symmetry_multiplicity
  _atom_site_fract_x
  _atom_site_fract_y
  _atom_site_fract_z
  _atom_site_occupancy
  H   H1        1.0  0.20174  0.63042  0.70419  1.0000
  H   H2        1.0  0.80049  0.36658  0.70066  1.0000
  H   H3        1.0  0.84452  0.68372  0.18755  1.0000
  H   H4        1.0  0.14075  0.31078  0.19443  1.0000
  H   H5        1.0  0.30029  0.86641  0.79939  1.0000
  H   H6        1.0  0.69631  0.14028  0.80474  1.0000
  H   H7        1.0  0.64699  0.80628  0.30296  1.0000
  H   H8        1.0  0.35850  0.20125  0.29397  1.0000
  C   C1        1.0  0.26507  0.66369  0.69636  1.0000
  C   C2        1.0  0.73683  0.33358  0.69374  1.0000
  C   C3        1.0  0.82416  0.75343  0.18595  1.0000
  C   C4        1.0  0.16772  0.24410  0.18874  1.0000
  C   C5        1.0  0.23503  0.83612  0.80340  1.0000
  C   C6        1.0  0.76253  0.16829  0.80783  1.0000
  C   C7        1.0  0.66922  0.73741  0.30658  1.0000
  C   C8        1.0  0.33077  0.26718  0.30220  1.0000
  C   C9        1.0  0.49959  0.49959  0.50314  1.0000
  C   C10       1.0  0.99940  0.99840  0.99693  1.0000
  N   N1        1.0  0.28353  0.73834  0.72755  1.0000
  N   N2        1.0  0.71722  0.26118  0.72748  1.0000
  N   N3        1.0  0.76199  0.77973  0.22522  1.0000
  N   N4        1.0  0.23453  0.22150  0.22464  1.0000
  N   N5        1.0  0.21458  0.76520  0.76814  1.0000
  N   N6        1.0  0.78548  0.23539  0.76925  1.0000
  N   N7        1.0  0.73110  0.71079  0.26720  1.0000
  N   N8        1.0  0.26252  0.29008  0.26808  1.0000
  C  Sn1       1.0  0.41667  0.66989  0.61420  1.0000
  C   C11       1.0  0.33256  0.64289  0.63261  1.0000
  C  Sn2       1.0  0.30094  0.55733  0.61620  1.0000
  C  Sn3       1.0  0.35452  0.49746  0.58068  1.0000
  C   C12       1.0  0.43857  0.52445  0.56230  1.0000
  C  Sn4       1.0  0.47025  0.61002  0.57868  1.0000
  O  Te1       1.0  0.44694  0.75574  0.63113  1.0000
  O  Te2       1.0  0.21663  0.53187  0.63512  1.0000
  O  Te3       1.0  0.32418  0.41155  0.56375  1.0000
  O  Te4       1.0  0.55451  0.63547  0.55978  1.0000
  Mg  Mg1       1.0  0.20479  0.40792  0.60059  1.0000
  Mg  Mg2       1.0  0.56642  0.75939  0.59432  1.0000
  C  Sn5       1.0  0.53552  0.37889  0.61364  1.0000
  C   C13       1.0  0.55119  0.45462  0.57343  1.0000
  C  Sn6       1.0  0.63570  0.48795  0.56409  1.0000
  C  Sn7       1.0  0.70604  0.44467  0.59556  1.0000
  C   C14       1.0  0.69036  0.36898  0.63573  1.0000
  C  Sn8       1.0  0.60586  0.33561  0.64511  1.0000
  O  Te5       1.0  0.45050  0.34672  0.62227  1.0000
  O  Te6       1.0  0.64975  0.56377  0.52368  1.0000
  O  Te7       1.0  0.79110  0.47691  0.58689  1.0000
  O  Te8       1.0  0.59180  0.25983  0.68548  1.0000
  Mg  Mg3       1.0  0.77720  0.58216  0.52718  1.0000
  Mg  Mg4       1.0  0.46439  0.24135  0.68199  1.0000
  C  Sn9       1.0  0.95214  0.81775  0.04400  1.0000
  C   C15       1.0  0.94182  0.90960  0.03534  1.0000
  C  Sn10      1.0  0.89912  0.95928  0.08460  1.0000
  C  Sn11      1.0  0.86607  0.91629  0.14377  1.0000
  C   C16       1.0  0.87640  0.82450  0.15241  1.0000
  C  Sn12      1.0  0.91909  0.77476  0.10317  1.0000
  O  Te9       1.0  0.99652  0.76835  0.99410  1.0000
  O  Te10      1.0  0.86603  0.05102  0.07480  1.0000
  O  Te11      1.0  0.82313  0.96473  0.19368  1.0000
  O  Te12      1.0  0.92865  0.68308  0.11295  1.0000
  Mg  Mg5       1.0  0.80278  0.08812  0.15724  1.0000
  Mg  Mg6       1.0  0.99193  0.64593  0.03056  1.0000
  C  Sn13      1.0  0.02752  0.19531  0.10370  1.0000
  C   C17       1.0  0.09720  0.17815  0.14689  1.0000
  C  Sn14      1.0  0.14864  0.10399  0.13592  1.0000
  C  Sn15      1.0  0.13011  0.04578  0.08062  1.0000
  C   C18       1.0  0.06048  0.06296  0.03746  1.0000
  C  Sn16      1.0  0.00899  0.13710  0.04840  1.0000
  O  Te13      1.0  0.97696  0.26984  0.11562  1.0000
  O  Te14      1.0  0.21793  0.08820  0.17980  1.0000
  O  Te15      1.0  0.20429  0.97120  0.06873  1.0000
  O  Te16      1.0  0.93975  0.15291  0.00455  1.0000
  Mg  Mg7       1.0  0.29155  0.97796  0.14253  1.0000
  Mg  Mg8       1.0  0.88965  0.26314  0.04175  1.0000
  C  Sn17      1.0  0.06378  0.87029  0.85028  1.0000
  C   C19       1.0  0.15185  0.88898  0.83924  1.0000
  C  Sn18      1.0  0.20029  0.93822  0.88687  1.0000
  C  Sn19      1.0  0.15989  0.96940  0.94681  1.0000
  C   C20       1.0  0.07189  0.95070  0.95783  1.0000
  C  Sn20      1.0  0.02338  0.90146  0.91022  1.0000
  O  Te17      1.0  0.01661  0.82093  0.80198  1.0000
  O  Te18      1.0  0.28823  0.95609  0.87470  1.0000
  O  Te19      1.0  0.18361  0.01879  0.99512  1.0000
  O  Te20      1.0  0.93550  0.88358  0.92237  1.0000
  Mg  Mg9       1.0  0.30154  0.02593  0.95564  1.0000
  Mg  Mg10      1.0  0.89860  0.81372  0.84148  1.0000
  C  Sn21      1.0  0.83619  0.00402  0.92219  1.0000
  C   C21       1.0  0.92366  0.02390  0.93504  1.0000
  C  Sn22      1.0  0.96167  0.10378  0.91156  1.0000
  C  Sn23      1.0  0.91119  0.16511  0.87451  1.0000
  C   C22       1.0  0.82377  0.14523  0.86169  1.0000
  C  Sn24      1.0  0.78571  0.06535  0.88514  1.0000
  O  Te21      1.0  0.82308  0.92376  0.94615  1.0000
  O  Te22      1.0  0.04925  0.12217  0.92502  1.0000
  O  Te23      1.0  0.94792  0.24541  0.85055  1.0000
  O  Te24      1.0  0.69819  0.04696  0.87171  1.0000
  Mg  Mg11      1.0  0.06973  0.24033  0.88178  1.0000
  Mg  Mg12      1.0  0.70117  0.92884  0.91495  1.0000
  C  Sn25      1.0  0.50583  0.66099  0.42026  1.0000
  C   C23       1.0  0.52667  0.57388  0.43870  1.0000
  C  Sn26      1.0  0.60635  0.53890  0.42009  1.0000
  C  Sn27      1.0  0.66648  0.59211  0.38229  1.0000
  C   C24       1.0  0.64563  0.67917  0.36388  1.0000
  C  Sn28      1.0  0.56596  0.71420  0.38246  1.0000
  O  Te25      1.0  0.42580  0.69459  0.43942  1.0000
  O  Te26      1.0  0.62571  0.45161  0.43910  1.0000
  O  Te27      1.0  0.74655  0.55843  0.36314  1.0000
  O  Te28      1.0  0.54659  0.80143  0.36349  1.0000
  Mg  Mg13      1.0  0.74310  0.43581  0.40104  1.0000
  Mg  Mg14      1.0  0.42924  0.81732  0.40155  1.0000
  C  Sn29      1.0  0.49675  0.34502  0.41349  1.0000
  C   C25       1.0  0.47307  0.42973  0.43562  1.0000
  C  Sn30      1.0  0.39131  0.46227  0.41995  1.0000
  C  Sn31      1.0  0.33197  0.40902  0.38140  1.0000
  C   C26       1.0  0.35565  0.32436  0.35931  1.0000
  C  Sn32      1.0  0.43741  0.29177  0.37494  1.0000
  O  Te29      1.0  0.57882  0.31384  0.42975  1.0000
  O  Te30      1.0  0.36911  0.54718  0.44261  1.0000
  O  Te31      1.0  0.24984  0.44028  0.36516  1.0000
  O  Te32      1.0  0.45961  0.20691  0.35232  1.0000
  Mg  Mg15      1.0  0.24971  0.56020  0.40757  1.0000
  Mg  Mg16      1.0  0.57896  0.19381  0.38736  1.0000
