data_image0
_chemical_formula_structural       H8C10N8C2Sn2C2HTe2HMgC2Sn2C2HTe2HMgC2Sn2C2HTe2HMgC2Sn2C2HTe2HMgC2Sn2C2HTe2HMgC2Sn2C2HTe2HMgC2Sn2C2HTe2HMgC2Sn2C2HTe2HMg
_chemical_formula_sum              "H24 C42 N8 Sn16 Te16 Mg8"
_cell_length_a       15.4267
_cell_length_b       14.9627
_cell_length_c       19.663
_cell_angle_alpha    89.9526
_cell_angle_beta     90.0671
_cell_angle_gamma    91.3907

_symmetry_space_group_name_H-M    'P1'
_space_group_IT_number       1

loop_
  _space_group_symop_operation_xyz
  'x, y, z'

loop_
  _atom_site_type_symbol
  _atom_site_label
  _atom_site_symmetry_multiplicity
  _atom_site_fract_x
  _atom_site_fract_y
  _atom_site_fract_z
  _atom_site_occupancy
  H   H1        1.0  0.20174  0.63042  0.70419  1.0000
  H   H2        1.0  0.80049  0.36658  0.70066  1.0000
  H   H3        1.0  0.84452  0.68372  0.18755  1.0000
  H   H4        1.0  0.14075  0.31078  0.19443  1.0000
  H   H5        1.0  0.30029  0.86641  0.79939  1.0000
  H   H6        1.0  0.69631  0.14028  0.80474  1.0000
  H   H7        1.0  0.64699  0.80628  0.30296  1.0000
  H   H8        1.0  0.35850  0.20125  0.29397  1.0000
  C   C1        1.0  0.26507  0.66369  0.69636  1.0000
  C   C2        1.0  0.73683  0.33358  0.69374  1.0000
  C   C3        1.0  0.82416  0.75343  0.18595  1.0000
  C   C4        1.0  0.16772  0.24410  0.18874  1.0000
  C   C5        1.0  0.23503  0.83612  0.80340  1.0000
  C   C6        1.0  0.76253  0.16829  0.80783  1.0000
  C   C7        1.0  0.66922  0.73741  0.30658  1.0000
  C   C8        1.0  0.33077  0.26718  0.30220  1.0000
  C   C9        1.0  0.49959  0.49959  0.50314  1.0000
  C   C10       1.0  0.99940  0.99840  0.99693  1.0000
  N   N1        1.0  0.28353  0.73834  0.72755  1.0000
  N   N2        1.0  0.71722  0.26118  0.72748  1.0000
  N   N3        1.0  0.76199  0.77973  0.22522  1.0000
  N   N4        1.0  0.23453  0.22150  0.22464  1.0000
  N   N5        1.0  0.21458  0.76520  0.76814  1.0000
  N   N6        1.0  0.78548  0.23539  0.76925  1.0000
  N   N7        1.0  0.73110  0.71079  0.26720  1.0000
  N   N8        1.0  0.26252  0.29008  0.26808  1.0000
  C   C11       1.0  0.45933  0.63798  0.60231  1.0000
  C   C12       1.0  0.44732  0.55839  0.56598  1.0000
  C  Sn1       1.0  0.36838  0.51086  0.56951  1.0000
  C  Sn2       1.0  0.30030  0.54380  0.61018  1.0000
  C   C13       1.0  0.31294  0.62352  0.64629  1.0000
  C   C14       1.0  0.39221  0.67053  0.64242  1.0000
  H   H9        1.0  0.52065  0.67438  0.59928  1.0000
  O  Te1       1.0  0.35748  0.43145  0.53291  1.0000
  O  Te2       1.0  0.22073  0.49765  0.61460  1.0000
  H   H10       1.0  0.40147  0.73218  0.67051  1.0000
  Mg  Mg1       1.0  0.23723  0.39253  0.55531  1.0000
  C   C15       1.0  0.57032  0.33817  0.62678  1.0000
  C   C16       1.0  0.65701  0.35961  0.64144  1.0000
  C  Sn3       1.0  0.69722  0.43487  0.61209  1.0000
  C  Sn4       1.0  0.64959  0.48957  0.56726  1.0000
  C   C17       1.0  0.56287  0.46759  0.55297  1.0000
  C   C18       1.0  0.52328  0.39210  0.58260  1.0000
  H   H11       1.0  0.53967  0.27979  0.64974  1.0000
  O  Te3       1.0  0.78389  0.45531  0.62726  1.0000
  O  Te4       1.0  0.68817  0.56520  0.53725  1.0000
  H   H12       1.0  0.45614  0.37555  0.57128  1.0000
  Mg  Mg2       1.0  0.80786  0.56533  0.57372  1.0000
  C   C19       1.0  0.87386  0.95914  0.10352  1.0000
  C   C20       1.0  0.94325  0.94185  0.06024  1.0000
  C  Sn5       1.0  0.97443  0.85529  0.05451  1.0000
  C  Sn6       1.0  0.93526  0.78487  0.09287  1.0000
  C   C21       1.0  0.86584  0.80284  0.13599  1.0000
  C   C22       1.0  0.83518  0.88971  0.14136  1.0000
  H   H13       1.0  0.82656  0.02634  0.10765  1.0000
  O  Te5       1.0  0.04382  0.83919  0.01105  1.0000
  O  Te6       1.0  0.96511  0.69773  0.08809  1.0000
  H   H14       1.0  0.78142  0.90307  0.17484  1.0000
  Mg  Mg3       1.0  0.06139  0.70926  0.02192  1.0000
  C   C23       1.0  0.13189  0.04129  0.09859  1.0000
  C   C24       1.0  0.05790  0.05453  0.05911  1.0000
  C  Sn7       1.0  0.01903  0.13788  0.05804  1.0000
  C  Sn8       1.0  0.05505  0.20919  0.09725  1.0000
  C   C25       1.0  0.12911  0.19529  0.13654  1.0000
  C   C26       1.0  0.16748  0.11160  0.13726  1.0000
  H   H15       1.0  0.18515  0.97656  0.09912  1.0000
  O  Te7       1.0  0.94512  0.14995  0.01834  1.0000
  O  Te8       1.0  0.01752  0.29319  0.09709  1.0000
  H   H16       1.0  0.22479  0.10139  0.16779  1.0000
  Mg  Mg4       1.0  0.91741  0.27665  0.03487  1.0000
  C   C27       1.0  0.20040  0.96524  0.90467  1.0000
  C   C28       1.0  0.18448  0.89222  0.86179  1.0000
  C  Sn9       1.0  0.10194  0.85187  0.85878  1.0000
  C  Sn10      1.0  0.03420  0.88540  0.89951  1.0000
  C   C29       1.0  0.05077  0.95852  0.94221  1.0000
  C   C30       1.0  0.13361  0.99838  0.94484  1.0000
  H   H17       1.0  0.26448  0.99611  0.90668  1.0000
  O  Te9       1.0  0.08717  0.77895  0.81568  1.0000
  O  Te10      1.0  0.95109  0.84636  0.89747  1.0000
  H   H18       1.0  0.12236  0.05495  0.97801  1.0000
  Mg  Mg5       1.0  0.96301  0.74844  0.83071  1.0000
  C   C31       1.0  0.93208  0.15398  0.86876  1.0000
  C   C32       1.0  0.84523  0.13387  0.85372  1.0000
  C  Sn11      1.0  0.80003  0.06757  0.89023  1.0000
  C  Sn12      1.0  0.84275  0.02066  0.94275  1.0000
  C   C33       1.0  0.92963  0.04133  0.95744  1.0000
  C   C34       1.0  0.97425  0.10778  0.92058  1.0000
  H   H19       1.0  0.96659  0.20543  0.84027  1.0000
  O  Te11      1.0  0.71329  0.04829  0.87452  1.0000
  O  Te12      1.0  0.82265  0.95411  0.98006  1.0000
  H   H20       1.0  0.04148  0.12338  0.93227  1.0000
  Mg  Mg6       1.0  0.70499  0.95197  0.93966  1.0000
  C   C35       1.0  0.65657  0.56920  0.37754  1.0000
  C   C36       1.0  0.63461  0.65480  0.35609  1.0000
  C  Sn13      1.0  0.56696  0.69933  0.38757  1.0000
  C  Sn14      1.0  0.52057  0.65721  0.44152  1.0000
  C   C37       1.0  0.54308  0.57159  0.46263  1.0000
  C   C38       1.0  0.61087  0.52763  0.43076  1.0000
  H   H21       1.0  0.70904  0.53520  0.35291  1.0000
  O  Te13      1.0  0.54585  0.78482  0.36550  1.0000
  O  Te14      1.0  0.45270  0.70021  0.47389  1.0000
  H   H22       1.0  0.62789  0.46137  0.44740  1.0000
  Mg  Mg7       1.0  0.44823  0.81618  0.42559  1.0000
  C   C39       1.0  0.34099  0.43272  0.37713  1.0000
  C   C40       1.0  0.36528  0.34950  0.35233  1.0000
  C  Sn15      1.0  0.43580  0.30602  0.38078  1.0000
  C  Sn16      1.0  0.48274  0.34678  0.43506  1.0000
  C   C41       1.0  0.45789  0.43003  0.45953  1.0000
  C   C42       1.0  0.38723  0.47296  0.43068  1.0000
  H   H23       1.0  0.28629  0.46592  0.35484  1.0000
  O  Te15      1.0  0.45922  0.22291  0.35538  1.0000
  O  Te16      1.0  0.55347  0.30479  0.46444  1.0000
  H   H24       1.0  0.36840  0.53737  0.44992  1.0000
  Mg  Mg8       1.0  0.56034  0.19213  0.41218  1.0000
