data_image0
_chemical_formula_structural       H24C34N8SnCSn2CSnTe4Mg2SnCSn2CSnTe4Mg2SnCSn2CSnTe4Mg2SnCSn2CSnTe4Mg2
_chemical_formula_sum              "H24 C42 N8 Sn16 Te16 Mg8"
_cell_length_a       15.4267
_cell_length_b       14.9627
_cell_length_c       19.663
_cell_angle_alpha    89.9526
_cell_angle_beta     90.0671
_cell_angle_gamma    91.3907

_symmetry_space_group_name_H-M    'P1'
_space_group_IT_number       1

loop_
  _space_group_symop_operation_xyz
  'x, y, z'

loop_
  _atom_site_type_symbol
  _atom_site_label
  _atom_site_symmetry_multiplicity
  _atom_site_fract_x
  _atom_site_fract_y
  _atom_site_fract_z
  _atom_site_occupancy
  H   H1        1.0  0.43093  0.71706  0.66625  1.0000
  H   H2        1.0  0.20769  0.07143  0.16424  1.0000
  H   H3        1.0  0.93496  0.20722  0.82704  1.0000
  H   H4        1.0  0.71071  0.56672  0.33794  1.0000
  H   H5        1.0  0.52913  0.64564  0.58366  1.0000
  H   H6        1.0  0.13369  0.96795  0.08287  1.0000
  H   H7        1.0  0.03308  0.13224  0.90787  1.0000
  H   H8        1.0  0.63790  0.46848  0.42302  1.0000
  H   H9        1.0  0.33014  0.44817  0.53812  1.0000
  H   H10       1.0  0.96338  0.17730  0.02317  1.0000
  H   H11       1.0  0.82065  0.96442  0.97714  1.0000
  H   H12       1.0  0.46417  0.67907  0.47299  1.0000
  H   H13       1.0  0.23460  0.51645  0.62292  1.0000
  H   H14       1.0  0.03386  0.27863  0.10659  1.0000
  H   H15       1.0  0.72379  0.03668  0.89480  1.0000
  H   H16       1.0  0.53626  0.77657  0.38776  1.0000
  H   H17       1.0  0.20174  0.63042  0.70419  1.0000
  H   H18       1.0  0.80049  0.36658  0.70066  1.0000
  H   H19       1.0  0.84452  0.68372  0.18755  1.0000
  H   H20       1.0  0.14075  0.31078  0.19443  1.0000
  H   H21       1.0  0.30029  0.86641  0.79939  1.0000
  H   H22       1.0  0.69631  0.14028  0.80474  1.0000
  H   H23       1.0  0.64699  0.80628  0.30296  1.0000
  H   H24       1.0  0.35850  0.20125  0.29397  1.0000
  C   C1        1.0  0.32544  0.62257  0.64973  1.0000
  C   C2        1.0  0.12689  0.18258  0.14048  1.0000
  C   C3        1.0  0.82209  0.12784  0.85557  1.0000
  C   C4        1.0  0.62826  0.67835  0.35646  1.0000
  C   C5        1.0  0.40963  0.65807  0.63797  1.0000
  C   C6        1.0  0.15429  0.09385  0.13287  1.0000
  C   C7        1.0  0.91034  0.15435  0.86029  1.0000
  C   C8        1.0  0.65653  0.59058  0.36763  1.0000
  C   C9        1.0  0.46382  0.61840  0.59111  1.0000
  C   C10       1.0  0.11312  0.03675  0.08690  1.0000
  C   C11       1.0  0.96476  0.11253  0.90591  1.0000
  C   C12       1.0  0.61563  0.53615  0.41543  1.0000
  C   C13       1.0  0.43594  0.54351  0.55270  1.0000
  C   C14       1.0  0.04494  0.06600  0.04517  1.0000
  C   C15       1.0  0.93373  0.04417  0.94968  1.0000
  C   C16       1.0  0.54590  0.56662  0.45481  1.0000
  C   C17       1.0  0.35312  0.50694  0.56578  1.0000
  C   C18       1.0  0.01699  0.15358  0.05355  1.0000
  C   C19       1.0  0.84635  0.01759  0.94473  1.0000
  C   C20       1.0  0.51795  0.65371  0.44374  1.0000
  C   C21       1.0  0.29888  0.54558  0.61368  1.0000
  C   C22       1.0  0.05705  0.21094  0.10067  1.0000
  C   C23       1.0  0.79147  0.05860  0.89818  1.0000
  C   C24       1.0  0.55866  0.70886  0.39543  1.0000
  C   C25       1.0  0.26507  0.66369  0.69636  1.0000
  C   C26       1.0  0.73683  0.33358  0.69374  1.0000
  C   C27       1.0  0.82416  0.75343  0.18595  1.0000
  C   C28       1.0  0.16772  0.24410  0.18874  1.0000
  C   C29       1.0  0.23503  0.83612  0.80340  1.0000
  C   C30       1.0  0.76253  0.16829  0.80783  1.0000
  C   C31       1.0  0.66922  0.73741  0.30658  1.0000
  C   C32       1.0  0.33077  0.26718  0.30220  1.0000
  C   C33       1.0  0.49959  0.49959  0.50314  1.0000
  C   C34       1.0  0.99940  0.99840  0.99693  1.0000
  N   N1        1.0  0.28353  0.73834  0.72755  1.0000
  N   N2        1.0  0.71722  0.26118  0.72748  1.0000
  N   N3        1.0  0.76199  0.77973  0.22522  1.0000
  N   N4        1.0  0.23453  0.22150  0.22464  1.0000
  N   N5        1.0  0.21458  0.76520  0.76814  1.0000
  N   N6        1.0  0.78548  0.23539  0.76925  1.0000
  N   N7        1.0  0.73110  0.71079  0.26720  1.0000
  N   N8        1.0  0.26252  0.29008  0.26808  1.0000
  C  Sn1       1.0  0.49675  0.34502  0.41349  1.0000
  C   C35       1.0  0.47307  0.42973  0.43562  1.0000
  C  Sn2       1.0  0.39131  0.46227  0.41995  1.0000
  C  Sn3       1.0  0.33197  0.40902  0.38140  1.0000
  C   C36       1.0  0.35565  0.32436  0.35931  1.0000
  C  Sn4       1.0  0.43741  0.29177  0.37494  1.0000
  O  Te1       1.0  0.57882  0.31384  0.42975  1.0000
  O  Te2       1.0  0.36911  0.54718  0.44261  1.0000
  O  Te3       1.0  0.24984  0.44028  0.36516  1.0000
  O  Te4       1.0  0.45961  0.20691  0.35232  1.0000
  Mg  Mg1       1.0  0.24971  0.56020  0.40757  1.0000
  Mg  Mg2       1.0  0.57896  0.19381  0.38736  1.0000
  C  Sn5       1.0  0.53552  0.37889  0.61364  1.0000
  C   C37       1.0  0.55119  0.45462  0.57343  1.0000
  C  Sn6       1.0  0.63570  0.48795  0.56409  1.0000
  C  Sn7       1.0  0.70604  0.44467  0.59556  1.0000
  C   C38       1.0  0.69036  0.36898  0.63573  1.0000
  C  Sn8       1.0  0.60586  0.33561  0.64511  1.0000
  O  Te5       1.0  0.45050  0.34672  0.62227  1.0000
  O  Te6       1.0  0.64975  0.56377  0.52368  1.0000
  O  Te7       1.0  0.79110  0.47691  0.58689  1.0000
  O  Te8       1.0  0.59180  0.25983  0.68548  1.0000
  Mg  Mg3       1.0  0.77720  0.58216  0.52718  1.0000
  Mg  Mg4       1.0  0.46439  0.24135  0.68199  1.0000
  C  Sn9       1.0  0.83661  0.91802  0.11446  1.0000
  C   C39       1.0  0.84970  0.82701  0.12526  1.0000
  C  Sn10      1.0  0.92413  0.78687  0.10051  1.0000
  C  Sn11      1.0  0.98682  0.83879  0.06425  1.0000
  C   C40       1.0  0.97373  0.92974  0.05347  1.0000
  C  Sn12      1.0  0.89930  0.96994  0.07819  1.0000
  O  Te9       1.0  0.76172  0.95675  0.13966  1.0000
  O  Te10      1.0  0.93577  0.69576  0.11193  1.0000
  O  Te11      1.0  0.06175  0.79997  0.03904  1.0000
  O  Te12      1.0  0.86412  0.06099  0.06680  1.0000
  Mg  Mg5       1.0  0.04836  0.67351  0.06760  1.0000
  Mg  Mg6       1.0  0.75158  0.08331  0.11114  1.0000
  C  Sn13      1.0  0.13500  0.99943  0.91718  1.0000
  C   C41       1.0  0.07201  0.97675  0.93131  1.0000
  C  Sn14      1.0  0.03569  0.89590  0.90820  1.0000
  C  Sn15      1.0  0.08695  0.83644  0.87020  1.0000
  C   C42       1.0  0.17343  0.85911  0.85610  1.0000
  C  Sn16      1.0  0.20980  0.93997  0.87919  1.0000
  O  Te13      1.0  0.16995  0.08061  0.94080  1.0000
  O  Te14      1.0  0.94903  0.87471  0.92294  1.0000
  O  Te15      1.0  0.05192  0.75521  0.84659  1.0000
  O  Te16      1.0  0.29641  0.96116  0.86447  1.0000
  Mg  Mg7       1.0  0.93083  0.75628  0.87970  1.0000
  Mg  Mg8       1.0  0.29115  0.07954  0.90772  1.0000
