data_image0
_chemical_formula_structural       H24C34N8C2Sn2C2HTe2HMgC2Sn2C2HTe2HMgC2Sn2C2HTe2HMgC2Sn2C2HTe2HMg
_chemical_formula_sum              "H32 C50 N8 Sn8 Te8 Mg4"
_cell_length_a       15.4267
_cell_length_b       14.9627
_cell_length_c       19.663
_cell_angle_alpha    89.9526
_cell_angle_beta     90.0671
_cell_angle_gamma    91.3907

_symmetry_space_group_name_H-M    'P1'
_space_group_IT_number       1

loop_
  _space_group_symop_operation_xyz
  'x, y, z'

loop_
  _atom_site_type_symbol
  _atom_site_label
  _atom_site_symmetry_multiplicity
  _atom_site_fract_x
  _atom_site_fract_y
  _atom_site_fract_z
  _atom_site_occupancy
  H   H1        1.0  0.57214  0.27706  0.66167  1.0000
  H   H2        1.0  0.20769  0.07143  0.16424  1.0000
  H   H3        1.0  0.71071  0.56672  0.33794  1.0000
  H   H4        1.0  0.28546  0.43535  0.33857  1.0000
  H   H5        1.0  0.47277  0.34867  0.57985  1.0000
  H   H6        1.0  0.13369  0.96795  0.08287  1.0000
  H   H7        1.0  0.63790  0.46848  0.42302  1.0000
  H   H8        1.0  0.35792  0.53157  0.42533  1.0000
  H   H9        1.0  0.66817  0.55118  0.53774  1.0000
  H   H10       1.0  0.96338  0.17730  0.02317  1.0000
  H   H11       1.0  0.46417  0.67907  0.47299  1.0000
  H   H12       1.0  0.54145  0.32551  0.46423  1.0000
  H   H13       1.0  0.76564  0.48180  0.62073  1.0000
  H   H14       1.0  0.03386  0.27863  0.10659  1.0000
  H   H15       1.0  0.53626  0.77657  0.38776  1.0000
  H   H16       1.0  0.47027  0.23087  0.37702  1.0000
  H   H17       1.0  0.20174  0.63042  0.70419  1.0000
  H   H18       1.0  0.80049  0.36658  0.70066  1.0000
  H   H19       1.0  0.84452  0.68372  0.18755  1.0000
  H   H20       1.0  0.14075  0.31078  0.19443  1.0000
  H   H21       1.0  0.30029  0.86641  0.79939  1.0000
  H   H22       1.0  0.69631  0.14028  0.80474  1.0000
  H   H23       1.0  0.64699  0.80628  0.30296  1.0000
  H   H24       1.0  0.35850  0.20125  0.29397  1.0000
  C   C1        1.0  0.67645  0.37343  0.64633  1.0000
  C   C2        1.0  0.12689  0.18258  0.14048  1.0000
  C   C3        1.0  0.62826  0.67835  0.35646  1.0000
  C   C4        1.0  0.37207  0.32597  0.35211  1.0000
  C   C5        1.0  0.59272  0.33684  0.63401  1.0000
  C   C6        1.0  0.15429  0.09385  0.13287  1.0000
  C   C7        1.0  0.65653  0.59058  0.36763  1.0000
  C   C8        1.0  0.34143  0.41198  0.36651  1.0000
  C   C9        1.0  0.53766  0.37691  0.58778  1.0000
  C   C10       1.0  0.11312  0.03675  0.08690  1.0000
  C   C11       1.0  0.61563  0.53615  0.41543  1.0000
  C   C12       1.0  0.38198  0.46509  0.41548  1.0000
  C   C13       1.0  0.56417  0.45367  0.55096  1.0000
  C   C14       1.0  0.04494  0.06600  0.04517  1.0000
  C   C15       1.0  0.54590  0.56662  0.45481  1.0000
  C   C16       1.0  0.45355  0.43473  0.45300  1.0000
  C   C17       1.0  0.64660  0.49099  0.56435  1.0000
  C   C18       1.0  0.01699  0.15358  0.05355  1.0000
  C   C19       1.0  0.51795  0.65371  0.44374  1.0000
  C   C20       1.0  0.48520  0.35021  0.43745  1.0000
  C   C21       1.0  0.70187  0.45159  0.61121  1.0000
  C   C22       1.0  0.05705  0.21094  0.10067  1.0000
  C   C23       1.0  0.55866  0.70886  0.39543  1.0000
  C   C24       1.0  0.44506  0.29668  0.38787  1.0000
  C   C25       1.0  0.26507  0.66369  0.69636  1.0000
  C   C26       1.0  0.73683  0.33358  0.69374  1.0000
  C   C27       1.0  0.82416  0.75343  0.18595  1.0000
  C   C28       1.0  0.16772  0.24410  0.18874  1.0000
  C   C29       1.0  0.23503  0.83612  0.80340  1.0000
  C   C30       1.0  0.76253  0.16829  0.80783  1.0000
  C   C31       1.0  0.66922  0.73741  0.30658  1.0000
  C   C32       1.0  0.33077  0.26718  0.30220  1.0000
  C   C33       1.0  0.49959  0.49959  0.50314  1.0000
  C   C34       1.0  0.99940  0.99840  0.99693  1.0000
  N   N1        1.0  0.28353  0.73834  0.72755  1.0000
  N   N2        1.0  0.71722  0.26118  0.72748  1.0000
  N   N3        1.0  0.76199  0.77973  0.22522  1.0000
  N   N4        1.0  0.23453  0.22150  0.22464  1.0000
  N   N5        1.0  0.21458  0.76520  0.76814  1.0000
  N   N6        1.0  0.78548  0.23539  0.76925  1.0000
  N   N7        1.0  0.73110  0.71079  0.26720  1.0000
  N   N8        1.0  0.26252  0.29008  0.26808  1.0000
  C   C35       1.0  0.33271  0.50522  0.57604  1.0000
  C   C36       1.0  0.41390  0.53518  0.55274  1.0000
  C  Sn1       1.0  0.45467  0.61010  0.58212  1.0000
  C  Sn2       1.0  0.41324  0.65573  0.63581  1.0000
  C   C37       1.0  0.33205  0.62519  0.65879  1.0000
  C   C38       1.0  0.29183  0.55016  0.62902  1.0000
  H   H25       1.0  0.30161  0.44714  0.55303  1.0000
  O  Te1       1.0  0.53576  0.63916  0.55821  1.0000
  O  Te2       1.0  0.45255  0.73078  0.66610  1.0000
  H   H26       1.0  0.22900  0.52695  0.64709  1.0000
  Mg  Mg1       1.0  0.56318  0.74467  0.61580  1.0000
  C   C39       1.0  0.85390  0.92988  0.13089  1.0000
  C   C40       1.0  0.85942  0.83722  0.13775  1.0000
  C  Sn3       1.0  0.91922  0.79026  0.09925  1.0000
  C  Sn4       1.0  0.97444  0.83711  0.05308  1.0000
  C   C41       1.0  0.96846  0.92981  0.04662  1.0000
  C   C42       1.0  0.90837  0.97615  0.08538  1.0000
  H   H27       1.0  0.80744  0.96574  0.16091  1.0000
  O  Te3       1.0  0.92385  0.69769  0.10671  1.0000
  O  Te4       1.0  0.03481  0.79183  0.01399  1.0000
  H   H28       1.0  0.88061  0.04789  0.08009  1.0000
  Mg  Mg2       1.0  0.01660  0.66571  0.04220  1.0000
  C   C43       1.0  0.20040  0.96524  0.90467  1.0000
  C   C44       1.0  0.18448  0.89222  0.86179  1.0000
  C  Sn5       1.0  0.10194  0.85187  0.85878  1.0000
  C  Sn6       1.0  0.03420  0.88540  0.89951  1.0000
  C   C45       1.0  0.05077  0.95852  0.94221  1.0000
  C   C46       1.0  0.13361  0.99838  0.94484  1.0000
  H   H29       1.0  0.26448  0.99611  0.90668  1.0000
  O  Te5       1.0  0.08717  0.77895  0.81568  1.0000
  O  Te6       1.0  0.95109  0.84636  0.89747  1.0000
  H   H30       1.0  0.12236  0.05495  0.97801  1.0000
  Mg  Mg3       1.0  0.96301  0.74844  0.83071  1.0000
  C   C47       1.0  0.96224  0.12822  0.89124  1.0000
  C   C48       1.0  0.94279  0.06355  0.94058  1.0000
  C  Sn7       1.0  0.85889  0.02689  0.94572  1.0000
  C  Sn8       1.0  0.79340  0.05562  0.90054  1.0000
  C   C49       1.0  0.81353  0.12032  0.85132  1.0000
  C   C50       1.0  0.89769  0.15658  0.84664  1.0000
  H   H31       1.0  0.02737  0.15625  0.88759  1.0000
  O  Te7       1.0  0.86409  0.96236  0.99533  1.0000
  O  Te8       1.0  0.70902  0.02007  0.90454  1.0000
  H   H32       1.0  0.91275  0.20661  0.80840  1.0000
  Mg  Mg4       1.0  0.73942  0.93384  0.98068  1.0000
