data_image0
_chemical_formula_structural       H48C96S12N24SnCSn2CSnTe4Mg2SnCSn2CSnTe4Mg2SnCSn2CSnTe4Mg2SnCSn2CSnTe4Mg2SnCSn2CSnTe4Mg2SnCSn2CSnTe4Mg2
_chemical_formula_sum              "H48 C108 S12 N24 Sn24 Te24 Mg12"
_cell_length_a       39.6927
_cell_length_b       40.029
_cell_length_c       7.97873
_cell_angle_alpha    108.226
_cell_angle_beta     62.2814
_cell_angle_gamma    120.377

_symmetry_space_group_name_H-M    'P1'
_space_group_IT_number       1

loop_
  _space_group_symop_operation_xyz
  'x, y, z'

loop_
  _atom_site_type_symbol
  _atom_site_label
  _atom_site_symmetry_multiplicity
  _atom_site_fract_x
  _atom_site_fract_y
  _atom_site_fract_z
  _atom_site_occupancy
  H   H1        1.0  0.57842  0.33027  0.17953  1.0000
  H   H2        1.0  0.67136  0.24821  0.24890  1.0000
  H   H3        1.0  0.24242  0.57871  0.32295  1.0000
  H   H4        1.0  0.54458  0.36917  0.19168  1.0000
  H   H5        1.0  0.63212  0.17711  0.25951  1.0000
  H   H6        1.0  0.16879  0.54502  0.34012  1.0000
  H   H7        1.0  0.64785  0.47439  0.28605  1.0000
  H   H8        1.0  0.52965  0.17999  0.21496  1.0000
  H   H9        1.0  0.18214  0.64921  0.21557  1.0000
  H   H10       1.0  0.68214  0.43442  0.26910  1.0000
  H   H11       1.0  0.56966  0.25248  0.20829  1.0000
  H   H12       1.0  0.25641  0.68336  0.20417  1.0000
  H   H13       1.0  0.88413  0.48217  0.26536  1.0000
  H   H14       1.0  0.52991  0.40797  0.14909  1.0000
  H   H15       1.0  0.59412  0.11980  0.27555  1.0000
  H   H16       1.0  0.11908  0.52001  0.25233  1.0000
  H   H17       1.0  0.47409  0.60245  0.36186  1.0000
  H   H18       1.0  0.40368  0.88556  0.22553  1.0000
  H   H19       1.0  0.95801  0.53779  0.26216  1.0000
  H   H20       1.0  0.47383  0.42537  0.15592  1.0000
  H   H21       1.0  0.57885  0.04735  0.26094  1.0000
  H   H22       1.0  0.04481  0.46255  0.24891  1.0000
  H   H23       1.0  0.53004  0.58490  0.36371  1.0000
  H   H24       1.0  0.41856  0.95843  0.23781  1.0000
  H   H25       1.0  0.75641  0.42200  0.68530  1.0000
  H   H26       1.0  0.23866  0.57338  0.82448  1.0000
  H   H27       1.0  0.32865  0.75300  0.76865  1.0000
  H   H28       1.0  0.82931  0.45680  0.67845  1.0000
  H   H29       1.0  0.16529  0.54128  0.83899  1.0000
  H   H30       1.0  0.36772  0.82471  0.77072  1.0000
  H   H31       1.0  0.81824  0.35195  0.78327  1.0000
  H   H32       1.0  0.18221  0.64709  0.71426  1.0000
  H   H33       1.0  0.47499  0.81887  0.74823  1.0000
  H   H34       1.0  0.74470  0.31677  0.78514  1.0000
  H   H35       1.0  0.25602  0.67956  0.70578  1.0000
  H   H36       1.0  0.43490  0.74620  0.74837  1.0000
  H   H37       1.0  0.88134  0.48169  0.75523  1.0000
  H   H38       1.0  0.52499  0.39756  0.64262  1.0000
  H   H39       1.0  0.58779  0.11641  0.83033  1.0000
  H   H40       1.0  0.11469  0.51781  0.75604  1.0000
  H   H41       1.0  0.47004  0.59363  0.86301  1.0000
  H   H42       1.0  0.41533  0.87804  0.65904  1.0000
  H   H43       1.0  0.95608  0.53831  0.75513  1.0000
  H   H44       1.0  0.46813  0.41567  0.64860  1.0000
  H   H45       1.0  0.57466  0.04388  0.82392  1.0000
  H   H46       1.0  0.04069  0.46212  0.75444  1.0000
  H   H47       1.0  0.52532  0.57500  0.86598  1.0000
  H   H48       1.0  0.42877  0.95007  0.66780  1.0000
  C   C1        1.0  0.35209  0.65082  0.27387  1.0000
  C   C2        1.0  0.35601  0.70886  0.26167  1.0000
  C   C3        1.0  0.29681  0.65302  0.26316  1.0000
  C   C4        1.0  0.65144  0.35643  0.22284  1.0000
  C   C5        1.0  0.64696  0.29747  0.22498  1.0000
  C   C6        1.0  0.70601  0.35283  0.23280  1.0000
  C   C7        1.0  0.63240  0.37991  0.22293  1.0000
  C   C8        1.0  0.62316  0.25491  0.22722  1.0000
  C   C9        1.0  0.25403  0.63301  0.26144  1.0000
  C   C10       1.0  0.59341  0.36187  0.20177  1.0000
  C   C11       1.0  0.64038  0.23297  0.24058  1.0000
  C   C12       1.0  0.22907  0.59364  0.29698  1.0000
  C   C13       1.0  0.57470  0.38392  0.20869  1.0000
  C   C14       1.0  0.61810  0.19301  0.24620  1.0000
  C   C15       1.0  0.18801  0.57495  0.30501  1.0000
  C   C16       1.0  0.59452  0.42502  0.23689  1.0000
  C   C17       1.0  0.57761  0.17334  0.23784  1.0000
  C   C18       1.0  0.17066  0.59493  0.27572  1.0000
  C   C19       1.0  0.63333  0.44281  0.26016  1.0000
  C   C20       1.0  0.56067  0.19541  0.22300  1.0000
  C   C21       1.0  0.19576  0.63434  0.24030  1.0000
  C   C22       1.0  0.65221  0.42076  0.25130  1.0000
  C   C23       1.0  0.58291  0.23551  0.21861  1.0000
  C   C24       1.0  0.23686  0.65308  0.23310  1.0000
  C   C25       1.0  0.89466  0.46008  0.24640  1.0000
  C   C26       1.0  0.54654  0.43811  0.20270  1.0000
  C   C27       1.0  0.56429  0.11015  0.26023  1.0000
  C   C28       1.0  0.10785  0.54120  0.26591  1.0000
  C   C29       1.0  0.45713  0.57190  0.31405  1.0000
  C   C30       1.0  0.43407  0.89588  0.23703  1.0000
  C   C31       1.0  0.93595  0.47502  0.24592  1.0000
  C   C32       1.0  0.53003  0.46431  0.22249  1.0000
  C   C33       1.0  0.53857  0.06906  0.25766  1.0000
  C   C34       1.0  0.06655  0.52530  0.26500  1.0000
  C   C35       1.0  0.47328  0.54589  0.30052  1.0000
  C   C36       1.0  0.45932  0.93706  0.23880  1.0000
  C   C37       1.0  0.96437  0.51406  0.25723  1.0000
  C   C38       1.0  0.49328  0.45476  0.19976  1.0000
  C   C39       1.0  0.54927  0.04057  0.25476  1.0000
  C   C40       1.0  0.03832  0.48617  0.25328  1.0000
  C   C41       1.0  0.50997  0.55542  0.32394  1.0000
  C   C42       1.0  0.44844  0.96544  0.24176  1.0000
  C   C43       1.0  0.00123  0.48199  0.24992  1.0000
  C   C44       1.0  0.51703  0.52234  0.28930  1.0000
  C   C45       1.0  0.48110  0.00304  0.24708  1.0000
  C   C46       1.0  0.00149  0.51806  0.25902  1.0000
  C   C47       1.0  0.48569  0.48767  0.23853  1.0000
  C   C48       1.0  0.51683  0.00302  0.24645  1.0000
  C   C49       1.0  0.34962  0.64357  0.77166  1.0000
  C   C50       1.0  0.35507  0.70245  0.76095  1.0000
  C   C51       1.0  0.29493  0.64742  0.76433  1.0000
  C   C52       1.0  0.64769  0.34899  0.72427  1.0000
  C   C53       1.0  0.64459  0.29082  0.72843  1.0000
  C   C54       1.0  0.70337  0.34689  0.73139  1.0000
  C   C55       1.0  0.74595  0.36728  0.73621  1.0000
  C   C56       1.0  0.25208  0.62839  0.76314  1.0000
  C   C57       1.0  0.37929  0.74497  0.75693  1.0000
  C   C58       1.0  0.77015  0.40710  0.70869  1.0000
  C   C59       1.0  0.22610  0.58906  0.79823  1.0000
  C   C60       1.0  0.36082  0.76770  0.76314  1.0000
  C   C61       1.0  0.81088  0.42638  0.70581  1.0000
  C   C62       1.0  0.18513  0.57126  0.80512  1.0000
  C   C63       1.0  0.38303  0.80783  0.76282  1.0000
  C   C64       1.0  0.82879  0.40651  0.73173  1.0000
  C   C65       1.0  0.16873  0.59211  0.77546  1.0000
  C   C66       1.0  0.42486  0.82671  0.75486  1.0000
  C   C67       1.0  0.80431  0.36672  0.76030  1.0000
  C   C68       1.0  0.19488  0.63147  0.74026  1.0000
  C   C69       1.0  0.44307  0.80385  0.75052  1.0000
  C   C70       1.0  0.76358  0.34739  0.76237  1.0000
  C   C71       1.0  0.23585  0.64930  0.73424  1.0000
  C   C72       1.0  0.42081  0.76369  0.75071  1.0000
  C   C73       1.0  0.89201  0.46013  0.74263  1.0000
  C   C74       1.0  0.54096  0.42779  0.69732  1.0000
  C   C75       1.0  0.56261  0.10465  0.77579  1.0000
  C   C76       1.0  0.10477  0.53983  0.76705  1.0000
  C   C77       1.0  0.45299  0.56315  0.81481  1.0000
  C   C78       1.0  0.44070  0.88912  0.71147  1.0000
  C   C79       1.0  0.93328  0.47551  0.74376  1.0000
  C   C80       1.0  0.52450  0.45390  0.71590  1.0000
  C   C81       1.0  0.53880  0.06317  0.76630  1.0000
  C   C82       1.0  0.06357  0.52493  0.76605  1.0000
  C   C83       1.0  0.46913  0.53687  0.79776  1.0000
  C   C84       1.0  0.46458  0.93054  0.72435  1.0000
  C   C85       1.0  0.96202  0.51451  0.75314  1.0000
  C   C86       1.0  0.48798  0.44489  0.69231  1.0000
  C   C87       1.0  0.54787  0.03588  0.78981  1.0000
  C   C88       1.0  0.03481  0.48596  0.75642  1.0000
  C   C89       1.0  0.50550  0.54581  0.82195  1.0000
  C   C90       1.0  0.45548  0.95795  0.70239  1.0000
  C   C91       1.0  0.99801  0.48216  0.75176  1.0000
  C   C92       1.0  0.51234  0.51246  0.78384  1.0000
  C   C93       1.0  0.48543  0.99612  0.72832  1.0000
  C   C94       1.0  0.99887  0.51834  0.75754  1.0000
  C   C95       1.0  0.48100  0.47816  0.73096  1.0000
  C   C96       1.0  0.51765  0.99764  0.76657  1.0000
  S   S1        1.0  0.95496  0.44306  0.23584  1.0000
  S   S2        1.0  0.55580  0.51392  0.28909  1.0000
  S   S3        1.0  0.48823  0.04984  0.25450  1.0000
  S   S4        1.0  0.04756  0.55709  0.27322  1.0000
  S   S5        1.0  0.44694  0.49609  0.23900  1.0000
  S   S6        1.0  0.50976  0.95639  0.24086  1.0000
  S   S7        1.0  0.95161  0.44340  0.73869  1.0000
  S   S8        1.0  0.55067  0.50341  0.78305  1.0000
  S   S9        1.0  0.49284  0.04208  0.71905  1.0000
  S   S10       1.0  0.04531  0.55708  0.77094  1.0000
  S   S11       1.0  0.44278  0.48736  0.73107  1.0000
  S   S12       1.0  0.51039  0.95150  0.77286  1.0000
  N   N1        1.0  0.69025  0.37543  0.22923  1.0000
  N   N2        1.0  0.62855  0.31747  0.21971  1.0000
  N   N3        1.0  0.68564  0.31375  0.23061  1.0000
  N   N4        1.0  0.31285  0.63126  0.27229  1.0000
  N   N5        1.0  0.37504  0.68966  0.26864  1.0000
  N   N6        1.0  0.31706  0.69195  0.25830  1.0000
  N   N7        1.0  0.87171  0.42285  0.22930  1.0000
  N   N8        1.0  0.57874  0.45021  0.24746  1.0000
  N   N9        1.0  0.55234  0.13323  0.24212  1.0000
  N   N10       1.0  0.13005  0.57866  0.27781  1.0000
  N   N11       1.0  0.42451  0.55904  0.27103  1.0000
  N   N12       1.0  0.44712  0.87333  0.25120  1.0000
  N   N13       1.0  0.68681  0.36868  0.72697  1.0000
  N   N14       1.0  0.62511  0.31008  0.72623  1.0000
  N   N15       1.0  0.68371  0.30779  0.73017  1.0000
  N   N16       1.0  0.31027  0.62481  0.77165  1.0000
  N   N17       1.0  0.37339  0.68232  0.76573  1.0000
  N   N18       1.0  0.31597  0.68637  0.76010  1.0000
  N   N19       1.0  0.86928  0.42274  0.73142  1.0000
  N   N20       1.0  0.57304  0.44025  0.74378  1.0000
  N   N21       1.0  0.55368  0.12606  0.72460  1.0000
  N   N22       1.0  0.12830  0.57706  0.77660  1.0000
  N   N23       1.0  0.42020  0.55046  0.77334  1.0000
  N   N24       1.0  0.44954  0.86693  0.75772  1.0000
  C  Sn1       1.0  0.41996  0.63555  0.73167  1.0000
  C   C97       1.0  0.38040  0.62218  0.72612  1.0000
  C  Sn2       1.0  0.35014  0.58416  0.76390  1.0000
  C  Sn3       1.0  0.35960  0.55898  0.80826  1.0000
  C   C98       1.0  0.39913  0.57235  0.81383  1.0000
  C  Sn4       1.0  0.42941  0.61037  0.77604  1.0000
  O  Te1       1.0  0.44973  0.67368  0.69344  1.0000
  O  Te2       1.0  0.31083  0.57145  0.75743  1.0000
  O  Te3       1.0  0.32979  0.52083  0.84650  1.0000
  O  Te4       1.0  0.46870  0.62308  0.78253  1.0000
  Mg  Mg1       1.0  0.28073  0.51702  0.82026  1.0000
  Mg  Mg2       1.0  0.49882  0.67752  0.71982  1.0000
  C  Sn5       1.0  0.34624  0.58068  0.32419  1.0000
  C   C99       1.0  0.36285  0.62107  0.33082  1.0000
  C  Sn6       1.0  0.40583  0.64414  0.29155  1.0000
  C  Sn7       1.0  0.43277  0.62646  0.24457  1.0000
  C   C100      1.0  0.41616  0.58608  0.23794  1.0000
  C  Sn8       1.0  0.37318  0.56299  0.27721  1.0000
  O  Te5       1.0  0.30318  0.55819  0.36396  1.0000
  O  Te6       1.0  0.42170  0.68447  0.29913  1.0000
  O  Te7       1.0  0.47586  0.64899  0.20480  1.0000
  O  Te8       1.0  0.35731  0.52269  0.26962  1.0000
  Mg  Mg3       1.0  0.48255  0.70270  0.23344  1.0000
  Mg  Mg4       1.0  0.29647  0.50442  0.33519  1.0000
  C  Sn9       1.0  0.80216  0.43108  0.26260  1.0000
  C   C101      1.0  0.82384  0.41419  0.27811  1.0000
  C  Sn10      1.0  0.80861  0.37374  0.25877  1.0000
  C  Sn11      1.0  0.77096  0.34968  0.22308  1.0000
  C   C102      1.0  0.74930  0.36657  0.20755  1.0000
  C  Sn12      1.0  0.76450  0.40702  0.22690  1.0000
  O  Te9       1.0  0.81795  0.47159  0.28242  1.0000
  O  Te10      1.0  0.83083  0.35752  0.27491  1.0000
  O  Te11      1.0  0.75517  0.30915  0.20327  1.0000
  O  Te12      1.0  0.74231  0.42324  0.21075  1.0000
  Mg  Mg5       1.0  0.79667  0.30083  0.23689  1.0000
  Mg  Mg6       1.0  0.77645  0.47992  0.24865  1.0000
  C  Sn13      1.0  0.56587  0.19597  0.66985  1.0000
  C   C103      1.0  0.57960  0.17027  0.67309  1.0000
  C  Sn14      1.0  0.61422  0.18420  0.72291  1.0000
  C  Sn15      1.0  0.63554  0.22466  0.77060  1.0000
  C   C104      1.0  0.62180  0.25033  0.76738  1.0000
  C  Sn16      1.0  0.58719  0.23643  0.71754  1.0000
  O  Te13      1.0  0.53119  0.18140  0.61962  1.0000
  O  Te14      1.0  0.62738  0.15795  0.72507  1.0000
  O  Te15      1.0  0.67024  0.23922  0.82085  1.0000
  O  Te16      1.0  0.57402  0.26266  0.71539  1.0000
  Mg  Mg7       1.0  0.67621  0.19190  0.80307  1.0000
  Mg  Mg8       1.0  0.52519  0.22873  0.63752  1.0000
  C  Sn17      1.0  0.37028  0.77945  0.17556  1.0000
  C   C105      1.0  0.38211  0.75470  0.20307  1.0000
  C  Sn18      1.0  0.41380  0.76986  0.27437  1.0000
  C  Sn19      1.0  0.43406  0.81062  0.31922  1.0000
  C   C106      1.0  0.42222  0.83534  0.29174  1.0000
  C  Sn20      1.0  0.39054  0.82020  0.22041  1.0000
  O  Te17      1.0  0.33852  0.76365  0.10413  1.0000
  O  Te18      1.0  0.42510  0.74454  0.30060  1.0000
  O  Te19      1.0  0.46584  0.82640  0.39069  1.0000
  O  Te20      1.0  0.37924  0.84550  0.19421  1.0000
  Mg  Mg9       1.0  0.47013  0.78003  0.40169  1.0000
  Mg  Mg10      1.0  0.33420  0.81004  0.09323  1.0000
  C  Sn21      1.0  0.58873  0.35543  0.64308  1.0000
  C   C107      1.0  0.62643  0.36941  0.66811  1.0000
  C  Sn22      1.0  0.64455  0.40765  0.74562  1.0000
  C  Sn23      1.0  0.62456  0.43244  0.79934  1.0000
  C   C108      1.0  0.58688  0.41846  0.77432  1.0000
  C  Sn24      1.0  0.56875  0.38022  0.69679  1.0000
  O  Te21      1.0  0.57119  0.31709  0.56533  1.0000
  O  Te22      1.0  0.68225  0.42097  0.76922  1.0000
  O  Te23      1.0  0.64214  0.47080  0.87713  1.0000
  O  Te24      1.0  0.53106  0.36690  0.67322  1.0000
  Mg  Mg11      1.0  0.69383  0.47548  0.88132  1.0000
  Mg  Mg12      1.0  0.51944  0.31239  0.56123  1.0000
