data_image0
_chemical_formula_structural       H144C252N24SnCSn2CSnTe4Mg2SnCSn2CSnTe4Mg2SnCSn2CSnTe4Mg2SnCSn2CSnTe4Mg2SnCSn2CSnTe4Mg2SnCSn2CSnTe4Mg2SnCSn2CSnTe4Mg2SnCSn2CSnTe4Mg2SnCSn2CSnTe4Mg2SnCSn2CSnTe4Mg2SnCSn2CSnTe4Mg2SnCSn2CSnTe4Mg2SnCSn2CSnTe4Mg2SnCSn2CSnTe4Mg2SnCSn2CSnTe4Mg2SnCSn2CSnTe4Mg2SnCSn2CSnTe4Mg2SnCSn2CSnTe4Mg2
_chemical_formula_sum              "H144 C288 N24 Sn72 Te72 Mg36"
_cell_length_a       51.5988
_cell_length_b       51.5807
_cell_length_c       8.04182
_cell_angle_alpha    78.4204
_cell_angle_beta     73.5188
_cell_angle_gamma    119.972

_symmetry_space_group_name_H-M    'P1'
_space_group_IT_number       1

loop_
  _space_group_symop_operation_xyz
  'x, y, z'

loop_
  _atom_site_type_symbol
  _atom_site_label
  _atom_site_symmetry_multiplicity
  _atom_site_fract_x
  _atom_site_fract_y
  _atom_site_fract_z
  _atom_site_occupancy
  H   H1        1.0  0.48361  0.56005  0.30243  1.0000
  H   H2        1.0  0.43977  0.92940  0.24869  1.0000
  H   H3        1.0  0.07160  0.51289  0.28846  1.0000
  H   H4        1.0  0.51320  0.44170  0.28667  1.0000
  H   H5        1.0  0.55565  0.07361  0.29746  1.0000
  H   H6        1.0  0.92457  0.48488  0.27455  1.0000
  H   H7        1.0  0.58213  0.60444  0.26730  1.0000
  H   H8        1.0  0.39907  0.98430  0.24296  1.0000
  H   H9        1.0  0.02091  0.42039  0.24835  1.0000
  H   H10       1.0  0.41639  0.39904  0.30442  1.0000
  H   H11       1.0  0.59678  0.01913  0.29853  1.0000
  H   H12       1.0  0.97662  0.57955  0.29147  1.0000
  H   H13       1.0  0.60576  0.57411  0.27077  1.0000
  H   H14       1.0  0.42743  0.03611  0.26007  1.0000
  H   H15       1.0  0.96715  0.39664  0.24708  1.0000
  H   H16       1.0  0.39299  0.42936  0.30176  1.0000
  H   H17       1.0  0.56638  0.96505  0.30349  1.0000
  H   H18       1.0  0.02893  0.60257  0.30481  1.0000
  H   H19       1.0  0.55204  0.47774  0.28190  1.0000
  H   H20       1.0  0.52202  0.07803  0.27675  1.0000
  H   H21       1.0  0.92410  0.44930  0.24594  1.0000
  H   H22       1.0  0.45049  0.52921  0.24049  1.0000
  H   H23       1.0  0.47370  0.92457  0.26861  1.0000
  H   H24       1.0  0.07381  0.55148  0.29203  1.0000
  H   H25       1.0  0.57391  0.47119  0.47474  1.0000
  H   H26       1.0  0.87841  0.40332  0.39385  1.0000
  H   H27       1.0  0.10057  0.58070  0.40972  1.0000
  H   H28       1.0  0.61844  0.46449  0.47536  1.0000
  H   H29       1.0  0.82759  0.35677  0.40596  1.0000
  H   H30       1.0  0.15251  0.62879  0.37922  1.0000
  H   H31       1.0  0.69383  0.56570  0.08542  1.0000
  H   H32       1.0  0.88474  0.32518  0.14450  1.0000
  H   H33       1.0  0.13060  0.69248  0.13059  1.0000
  H   H34       1.0  0.64955  0.57211  0.07850  1.0000
  H   H35       1.0  0.93551  0.37182  0.12744  1.0000
  H   H36       1.0  0.08001  0.64522  0.15153  1.0000
  H   H37       1.0  0.41105  0.35320  0.51476  1.0000
  H   H38       1.0  0.62479  0.04915  0.40981  1.0000
  H   H39       1.0  0.40698  0.30356  0.49963  1.0000
  H   H40       1.0  0.67691  0.09683  0.38158  1.0000
  H   H41       1.0  0.50919  0.36518  0.06615  1.0000
  H   H42       1.0  0.65568  0.16141  0.13607  1.0000
  H   H43       1.0  0.51325  0.41467  0.08012  1.0000
  H   H44       1.0  0.60511  0.11469  0.15408  1.0000
  H   H45       1.0  0.71275  0.55375  0.30622  1.0000
  H   H46       1.0  0.45549  0.17450  0.15222  1.0000
  H   H47       1.0  0.83416  0.27846  0.31849  1.0000
  H   H48       1.0  0.28538  0.44861  0.20849  1.0000
  H   H49       1.0  0.55472  0.84149  0.28370  1.0000
  H   H50       1.0  0.15980  0.72032  0.25514  1.0000
  H   H51       1.0  0.50506  0.69393  0.20518  1.0000
  H   H52       1.0  0.31017  0.81279  0.29898  1.0000
  H   H53       1.0  0.18070  0.49777  0.31931  1.0000
  H   H54       1.0  0.49962  0.31740  0.28460  1.0000
  H   H55       1.0  0.68533  0.18910  0.25495  1.0000
  H   H56       1.0  0.81717  0.50405  0.18194  1.0000
  H   H57       1.0  0.42912  0.20244  0.18665  1.0000
  H   H58       1.0  0.80191  0.22580  0.31938  1.0000
  H   H59       1.0  0.19331  0.77452  0.23141  1.0000
  H   H60       1.0  0.43184  0.25117  0.21156  1.0000
  H   H61       1.0  0.75272  0.18190  0.29744  1.0000
  H   H62       1.0  0.24284  0.81947  0.24503  1.0000
  H   H63       1.0  0.51911  0.28390  0.30365  1.0000
  H   H64       1.0  0.71936  0.24304  0.23244  1.0000
  H   H65       1.0  0.27852  0.76028  0.30014  1.0000
  H   H66       1.0  0.51485  0.23385  0.29375  1.0000
  H   H67       1.0  0.76893  0.28718  0.25061  1.0000
  H   H68       1.0  0.22941  0.71562  0.28242  1.0000
  H   H69       1.0  0.48503  0.55583  0.80627  1.0000
  H   H70       1.0  0.44514  0.92688  0.74628  1.0000
  H   H71       1.0  0.07483  0.51102  0.79509  1.0000
  H   H72       1.0  0.51615  0.43871  0.77721  1.0000
  H   H73       1.0  0.55837  0.07155  0.80300  1.0000
  H   H74       1.0  0.93084  0.48730  0.75459  1.0000
  H   H75       1.0  0.58372  0.60106  0.76972  1.0000
  H   H76       1.0  0.40373  0.98101  0.72734  1.0000
  H   H77       1.0  0.02337  0.41858  0.75625  1.0000
  H   H78       1.0  0.41842  0.39549  0.80728  1.0000
  H   H79       1.0  0.60121  0.01860  0.80039  1.0000
  H   H80       1.0  0.98169  0.57932  0.80407  1.0000
  H   H81       1.0  0.60792  0.57142  0.77011  1.0000
  H   H82       1.0  0.43105  0.03285  0.74465  1.0000
  H   H83       1.0  0.97023  0.39589  0.74764  1.0000
  H   H84       1.0  0.39510  0.42589  0.80385  1.0000
  H   H85       1.0  0.57254  0.96523  0.79271  1.0000
  H   H86       1.0  0.03386  0.60137  0.81749  1.0000
  H   H87       1.0  0.55429  0.47429  0.79064  1.0000
  H   H88       1.0  0.52266  0.07388  0.79681  1.0000
  H   H89       1.0  0.92849  0.44978  0.74087  1.0000
  H   H90       1.0  0.45295  0.52579  0.74068  1.0000
  H   H91       1.0  0.47879  0.92271  0.77051  1.0000
  H   H92       1.0  0.07742  0.54911  0.79955  1.0000
  H   H93       1.0  0.57822  0.46960  0.98511  1.0000
  H   H94       1.0  0.88252  0.40365  0.88836  1.0000
  H   H95       1.0  0.47085  0.87743  0.99510  1.0000
  H   H96       1.0  0.62402  0.46531  0.98737  1.0000
  H   H97       1.0  0.83169  0.35724  0.89966  1.0000
  H   H98       1.0  0.46512  0.82702  0.98435  1.0000
  H   H99       1.0  0.69707  0.56613  0.58637  1.0000
  H   H100      1.0  0.88869  0.32550  0.63807  1.0000
  H   H101      1.0  0.56804  0.88628  0.56299  1.0000
  H   H102      1.0  0.65151  0.56998  0.57600  1.0000
  H   H103      1.0  0.93947  0.37200  0.62217  1.0000
  H   H104      1.0  0.57355  0.93671  0.56956  1.0000
  H   H105      1.0  0.58188  0.63633  0.81883  1.0000
  H   H106      1.0  0.41428  0.35028  0.02331  1.0000
  H   H107      1.0  0.94594  0.58289  0.79979  1.0000
  H   H108      1.0  0.58354  0.68469  0.82384  1.0000
  H   H109      1.0  0.40874  0.30014  0.00701  1.0000
  H   H110      1.0  0.89966  0.58581  0.80341  1.0000
  H   H111      1.0  0.49001  0.64220  0.79494  1.0000
  H   H112      1.0  0.50851  0.36061  0.54630  1.0000
  H   H113      1.0  0.85078  0.49358  0.75488  1.0000
  H   H114      1.0  0.48827  0.59458  0.78604  1.0000
  H   H115      1.0  0.51382  0.41059  0.55972  1.0000
  H   H116      1.0  0.89613  0.49035  0.75125  1.0000
  H   H117      1.0  0.71774  0.55622  0.80730  1.0000
  H   H118      1.0  0.45043  0.16602  0.67460  1.0000
  H   H119      1.0  0.83801  0.27894  0.81108  1.0000
  H   H120      1.0  0.28910  0.44792  0.70056  1.0000
  H   H121      1.0  0.55489  0.83660  0.80427  1.0000
  H   H122      1.0  0.16574  0.71641  0.76011  1.0000
  H   H123      1.0  0.51333  0.69507  0.65805  1.0000
  H   H124      1.0  0.31619  0.80905  0.79984  1.0000
  H   H125      1.0  0.18368  0.49621  0.82706  1.0000
  H   H126      1.0  0.50041  0.31324  0.76264  1.0000
  H   H127      1.0  0.68821  0.18831  0.75914  1.0000
  H   H128      1.0  0.82512  0.50991  0.67225  1.0000
  H   H129      1.0  0.42435  0.19442  0.71226  1.0000
  H   H130      1.0  0.80552  0.22613  0.81709  1.0000
  H   H131      1.0  0.23506  0.42500  0.72401  1.0000
  H   H132      1.0  0.19928  0.77040  0.73306  1.0000
  H   H133      1.0  0.42857  0.24431  0.72571  1.0000
  H   H134      1.0  0.75593  0.18169  0.80070  1.0000
  H   H135      1.0  0.18670  0.42735  0.75741  1.0000
  H   H136      1.0  0.24913  0.81554  0.74410  1.0000
  H   H137      1.0  0.51939  0.27963  0.78141  1.0000
  H   H138      1.0  0.72259  0.24275  0.73077  1.0000
  H   H139      1.0  0.23603  0.51645  0.83740  1.0000
  H   H140      1.0  0.28499  0.75647  0.79670  1.0000
  H   H141      1.0  0.51432  0.22899  0.77721  1.0000
  H   H142      1.0  0.77228  0.28727  0.74569  1.0000
  H   H143      1.0  0.28383  0.51347  0.81088  1.0000
  H   H144      1.0  0.23520  0.71139  0.78428  1.0000
  C   C1        1.0  0.47222  0.00457  0.26184  1.0000
  C   C2        1.0  0.99731  0.47190  0.26455  1.0000
  C   C3        1.0  0.52886  0.52926  0.27354  1.0000
  C   C4        1.0  0.52344  0.99857  0.28182  1.0000
  C   C5        1.0  0.99963  0.52765  0.28423  1.0000
  C   C6        1.0  0.47049  0.47528  0.28642  1.0000
  C   C7        1.0  0.47288  0.50442  0.27613  1.0000
  C   C8        1.0  0.49568  0.97240  0.27324  1.0000
  C   C9        1.0  0.02644  0.52612  0.28605  1.0000
  C   C10       1.0  0.52679  0.50047  0.27811  1.0000
  C   C11       1.0  0.49981  0.03065  0.27153  1.0000
  C   C12       1.0  0.97049  0.47344  0.26366  1.0000
  C   C13       1.0  0.50237  0.53169  0.27659  1.0000
  C   C14       1.0  0.46966  0.97580  0.25910  1.0000
  C   C15       1.0  0.02534  0.49749  0.27465  1.0000
  C   C16       1.0  0.49683  0.47273  0.28508  1.0000
  C   C17       1.0  0.52625  0.02760  0.28145  1.0000
  C   C18       1.0  0.97163  0.50203  0.27504  1.0000
  C   C19       1.0  0.50476  0.55932  0.28727  1.0000
  C   C20       1.0  0.44197  0.95142  0.24954  1.0000
  C   C21       1.0  0.05061  0.49427  0.27448  1.0000
  C   C22       1.0  0.49338  0.44406  0.28840  1.0000
  C   C23       1.0  0.55396  0.05206  0.29043  1.0000
  C   C24       1.0  0.94604  0.50478  0.27789  1.0000
  C   C25       1.0  0.53313  0.58614  0.28473  1.0000
  C   C26       1.0  0.41548  0.95320  0.24879  1.0000
  C   C27       1.0  0.04929  0.46643  0.26790  1.0000
  C   C28       1.0  0.46443  0.41701  0.29815  1.0000
  C   C29       1.0  0.58019  0.05007  0.29418  1.0000
  C   C30       1.0  0.94693  0.53253  0.28159  1.0000
  C   C31       1.0  0.55960  0.58432  0.27223  1.0000
  C   C32       1.0  0.41832  0.98143  0.24908  1.0000
  C   C33       1.0  0.02202  0.44161  0.25841  1.0000
  C   C34       1.0  0.43847  0.41915  0.30336  1.0000
  C   C35       1.0  0.57714  0.02165  0.29699  1.0000
  C   C36       1.0  0.97450  0.55761  0.28880  1.0000
  C   C37       1.0  0.55794  0.55619  0.26964  1.0000
  C   C38       1.0  0.44620  0.00730  0.25542  1.0000
  C   C39       1.0  0.99589  0.44377  0.25517  1.0000
  C   C40       1.0  0.44110  0.44811  0.29465  1.0000
  C   C41       1.0  0.54924  0.99569  0.29188  1.0000
  C   C42       1.0  0.00080  0.55572  0.29196  1.0000
  C   C43       1.0  0.58427  0.55393  0.26792  1.0000
  C   C44       1.0  0.44803  0.03535  0.26158  1.0000
  C   C45       1.0  0.96796  0.41808  0.24825  1.0000
  C   C46       1.0  0.41527  0.45072  0.29079  1.0000
  C   C47       1.0  0.54690  0.96713  0.29261  1.0000
  C   C48       1.0  0.02878  0.58168  0.29726  1.0000
  C   C49       1.0  0.58199  0.52572  0.27424  1.0000
  C   C50       1.0  0.47488  0.06100  0.27042  1.0000
  C   C51       1.0  0.94156  0.41928  0.25051  1.0000
  C   C52       1.0  0.41812  0.47957  0.27156  1.0000
  C   C53       1.0  0.51966  0.94148  0.28782  1.0000
  C   C54       1.0  0.05532  0.58072  0.29478  1.0000
  C   C55       1.0  0.55308  0.49936  0.27949  1.0000
  C   C56       1.0  0.50076  0.05812  0.27177  1.0000
  C   C57       1.0  0.94394  0.44769  0.25376  1.0000
  C   C58       1.0  0.44749  0.50623  0.26235  1.0000
  C   C59       1.0  0.49420  0.94448  0.27916  1.0000
  C   C60       1.0  0.05311  0.55224  0.29321  1.0000
  C   C61       1.0  0.46243  0.38751  0.29769  1.0000
  C   C62       1.0  0.61033  0.07793  0.28761  1.0000
  C   C63       1.0  0.08561  0.60887  0.28620  1.0000
  C   C64       1.0  0.60850  0.52231  0.27889  1.0000
  C   C65       1.0  0.91120  0.39144  0.25862  1.0000
  C   C66       1.0  0.60022  0.49192  0.38887  1.0000
  C   C67       1.0  0.88017  0.38663  0.33597  1.0000
  C   C68       1.0  0.10710  0.60512  0.34617  1.0000
  C   C69       1.0  0.62487  0.48799  0.39065  1.0000
  C   C70       1.0  0.85140  0.36027  0.34597  1.0000
  C   C71       1.0  0.13625  0.63194  0.33036  1.0000
  C   C72       1.0  0.65900  0.51479  0.28532  1.0000
  C   C73       1.0  0.85213  0.33707  0.28227  1.0000
  C   C74       1.0  0.14509  0.66392  0.25716  1.0000
  C   C75       1.0  0.66750  0.54526  0.17425  1.0000
  C   C76       1.0  0.88304  0.34160  0.20544  1.0000
  C   C77       1.0  0.12383  0.66797  0.19545  1.0000
  C   C78       1.0  0.64262  0.54882  0.17075  1.0000
  C   C79       1.0  0.91178  0.36820  0.19427  1.0000
  C   C80       1.0  0.09502  0.64111  0.20860  1.0000
  C   C81       1.0  0.43246  0.35582  0.41539  1.0000
  C   C82       1.0  0.63158  0.07371  0.34755  1.0000
  C   C83       1.0  0.43007  0.32806  0.40832  1.0000
  C   C84       1.0  0.66077  0.10022  0.33273  1.0000
  C   C85       1.0  0.45794  0.33100  0.28601  1.0000
  C   C86       1.0  0.66978  0.13229  0.26112  1.0000
  C   C87       1.0  0.48806  0.36262  0.16817  1.0000
  C   C88       1.0  0.64875  0.13680  0.19968  1.0000
  C   C89       1.0  0.49014  0.39031  0.17518  1.0000
  C   C90       1.0  0.61990  0.11023  0.21159  1.0000
  C   C91       1.0  0.70958  0.53175  0.29116  1.0000
  C   C92       1.0  0.46914  0.18583  0.22973  1.0000
  C   C93       1.0  0.81741  0.28458  0.29735  1.0000
  C   C94       1.0  0.28652  0.46783  0.25229  1.0000
  C   C95       1.0  0.53216  0.82273  0.27851  1.0000
  C   C96       1.0  0.17877  0.71599  0.25149  1.0000
  C   C97       1.0  0.47159  0.21476  0.24205  1.0000
  C   C98       1.0  0.78859  0.25942  0.28477  1.0000
  C   C99       1.0  0.20830  0.74214  0.25478  1.0000
  C   C100      1.0  0.52311  0.70839  0.25347  1.0000
  C   C101      1.0  0.29281  0.81843  0.28353  1.0000
  C   C102      1.0  0.17792  0.47590  0.30435  1.0000
  C   C103      1.0  0.47745  0.29910  0.27420  1.0000
  C   C104      1.0  0.70376  0.18417  0.25568  1.0000
  C   C105      1.0  0.81794  0.52296  0.22823  1.0000
  C   C106      1.0  0.44833  0.21995  0.21678  1.0000
  C   C107      1.0  0.78399  0.22960  0.29716  1.0000
  C   C108      1.0  0.21216  0.77158  0.24591  1.0000
  C   C109      1.0  0.44981  0.24706  0.22911  1.0000
  C   C110      1.0  0.75682  0.20516  0.28555  1.0000
  C   C111      1.0  0.23957  0.79665  0.25299  1.0000
  C   C112      1.0  0.47549  0.27052  0.25938  1.0000
  C   C113      1.0  0.73315  0.20974  0.26205  1.0000
  C   C114      1.0  0.26394  0.79291  0.27248  1.0000
  C   C115      1.0  0.49931  0.26586  0.27921  1.0000
  C   C116      1.0  0.73763  0.23948  0.25097  1.0000
  C   C117      1.0  0.26000  0.76345  0.28213  1.0000
  C   C118      1.0  0.49710  0.23810  0.27382  1.0000
  C   C119      1.0  0.76500  0.26405  0.26050  1.0000
  C   C120      1.0  0.23280  0.73853  0.27282  1.0000
  C   C121      1.0  0.47579  0.00168  0.76271  1.0000
  C   C122      1.0  0.00106  0.47119  0.76492  1.0000
  C   C123      1.0  0.53099  0.52582  0.77500  1.0000
  C   C124      1.0  0.52750  0.99677  0.78521  1.0000
  C   C125      1.0  0.00399  0.52708  0.78738  1.0000
  C   C126      1.0  0.47269  0.47168  0.78858  1.0000
  C   C127      1.0  0.47500  0.50079  0.77839  1.0000
  C   C128      1.0  0.50008  0.97041  0.77592  1.0000
  C   C129      1.0  0.03032  0.52486  0.79067  1.0000
  C   C130      1.0  0.52909  0.49705  0.78004  1.0000
  C   C131      1.0  0.50268  0.02773  0.77743  1.0000
  C   C132      1.0  0.97470  0.47341  0.76092  1.0000
  C   C133      1.0  0.50438  0.52809  0.77891  1.0000
  C   C134      1.0  0.47387  0.97322  0.76026  1.0000
  C   C135      1.0  0.02899  0.49628  0.77744  1.0000
  C   C136      1.0  0.49922  0.46929  0.78536  1.0000
  C   C137      1.0  0.52953  0.02537  0.78734  1.0000
  C   C138      1.0  0.97627  0.50224  0.77213  1.0000
  C   C139      1.0  0.50642  0.55553  0.79058  1.0000
  C   C140      1.0  0.44685  0.94870  0.74682  1.0000
  C   C141      1.0  0.05392  0.49266  0.77954  1.0000
  C   C142      1.0  0.49602  0.44086  0.78375  1.0000
  C   C143      1.0  0.55704  0.05013  0.79644  1.0000
  C   C144      1.0  0.95154  0.50608  0.76906  1.0000
  C   C145      1.0  0.53463  0.58261  0.78749  1.0000
  C   C146      1.0  0.42060  0.95032  0.73959  1.0000
  C   C147      1.0  0.05223  0.46465  0.77449  1.0000
  C   C148      1.0  0.46687  0.41375  0.79501  1.0000
  C   C149      1.0  0.58358  0.04864  0.80015  1.0000
  C   C150      1.0  0.95249  0.53366  0.77922  1.0000
  C   C151      1.0  0.56128  0.58099  0.77369  1.0000
  C   C152      1.0  0.42281  0.97831  0.73892  1.0000
  C   C153      1.0  0.02490  0.44006  0.76423  1.0000
  C   C154      1.0  0.44064  0.41570  0.80458  1.0000
  C   C155      1.0  0.58124  0.02062  0.79991  1.0000
  C   C156      1.0  0.97960  0.55770  0.79457  1.0000
  C   C157      1.0  0.55991  0.55296  0.77079  1.0000
  C   C158      1.0  0.44988  0.00412  0.75078  1.0000
  C   C159      1.0  0.99927  0.44284  0.75707  1.0000
  C   C160      1.0  0.44322  0.44459  0.79687  1.0000
  C   C161      1.0  0.55380  0.99453  0.79226  1.0000
  C   C162      1.0  0.00553  0.55516  0.79823  1.0000
  C   C163      1.0  0.58642  0.55100  0.76870  1.0000
  C   C164      1.0  0.45111  0.03193  0.75560  1.0000
  C   C165      1.0  0.97142  0.41754  0.74782  1.0000
  C   C166      1.0  0.41736  0.44722  0.79326  1.0000
  C   C167      1.0  0.55239  0.96656  0.78730  1.0000
  C   C168      1.0  0.03339  0.58042  0.80794  1.0000
  C   C169      1.0  0.58435  0.52280  0.77719  1.0000
  C   C170      1.0  0.47682  0.05717  0.77347  1.0000
  C   C171      1.0  0.94549  0.41934  0.74675  1.0000
  C   C172      1.0  0.42033  0.47616  0.77295  1.0000
  C   C173      1.0  0.52520  0.94054  0.78403  1.0000
  C   C174      1.0  0.05949  0.57870  0.80628  1.0000
  C   C175      1.0  0.55538  0.49607  0.78446  1.0000
  C   C176      1.0  0.50253  0.05449  0.78192  1.0000
  C   C177      1.0  0.94815  0.44792  0.74965  1.0000
  C   C178      1.0  0.44975  0.50271  0.76373  1.0000
  C   C179      1.0  0.49922  0.94286  0.77996  1.0000
  C   C180      1.0  0.05698  0.55034  0.80101  1.0000
  C   C181      1.0  0.53532  0.61131  0.79752  1.0000
  C   C182      1.0  0.46446  0.38409  0.79232  1.0000
  C   C183      1.0  0.92546  0.53640  0.77400  1.0000
  C   C184      1.0  0.52268  0.91076  0.78324  1.0000
  C   C185      1.0  0.61144  0.52032  0.78231  1.0000
  C   C186      1.0  0.91525  0.39178  0.75230  1.0000
  C   C187      1.0  0.60427  0.49079  0.89641  1.0000
  C   C188      1.0  0.88429  0.38705  0.82943  1.0000
  C   C189      1.0  0.49208  0.87942  0.89877  1.0000
  C   C190      1.0  0.62971  0.48820  0.89921  1.0000
  C   C191      1.0  0.85551  0.36079  0.83888  1.0000
  C   C192      1.0  0.48876  0.85117  0.89440  1.0000
  C   C193      1.0  0.66361  0.51555  0.79096  1.0000
  C   C194      1.0  0.85618  0.33761  0.77475  1.0000
  C   C195      1.0  0.51635  0.85315  0.77738  1.0000
  C   C196      1.0  0.67097  0.54519  0.67650  1.0000
  C   C197      1.0  0.88706  0.34205  0.69810  1.0000
  C   C198      1.0  0.54706  0.88440  0.66099  1.0000
  C   C199      1.0  0.64534  0.54734  0.67146  1.0000
  C   C200      1.0  0.91579  0.36856  0.68762  1.0000
  C   C201      1.0  0.55000  0.91266  0.66428  1.0000
  C   C202      1.0  0.56198  0.63759  0.80808  1.0000
  C   C203      1.0  0.43479  0.35255  0.91737  1.0000
  C   C204      1.0  0.92558  0.56334  0.78664  1.0000
  C   C205      1.0  0.56318  0.66500  0.81113  1.0000
  C   C206      1.0  0.43159  0.32449  0.90956  1.0000
  C   C207      1.0  0.89954  0.56524  0.78917  1.0000
  C   C208      1.0  0.53789  0.66789  0.80072  1.0000
  C   C209      1.0  0.45841  0.32693  0.77944  1.0000
  C   C210      1.0  0.87206  0.54056  0.77568  1.0000
  C   C211      1.0  0.51059  0.64137  0.79630  1.0000
  C   C212      1.0  0.48823  0.35838  0.65396  1.0000
  C   C213      1.0  0.87162  0.51347  0.76352  1.0000
  C   C214      1.0  0.50953  0.61397  0.79425  1.0000
  C   C215      1.0  0.49105  0.38641  0.66124  1.0000
  C   C216      1.0  0.89765  0.51165  0.76239  1.0000
  C   C217      1.0  0.71502  0.53432  0.79320  1.0000
  C   C218      1.0  0.46628  0.17918  0.73774  1.0000
  C   C219      1.0  0.82111  0.28500  0.79191  1.0000
  C   C220      1.0  0.28988  0.46657  0.74917  1.0000
  C   C221      1.0  0.53364  0.81926  0.78376  1.0000
  C   C222      1.0  0.18452  0.71190  0.75783  1.0000
  C   C223      1.0  0.46901  0.20840  0.74597  1.0000
  C   C224      1.0  0.79203  0.25961  0.78222  1.0000
  C   C225      1.0  0.26259  0.46917  0.76518  1.0000
  C   C226      1.0  0.21425  0.73807  0.75795  1.0000
  C   C227      1.0  0.52657  0.70651  0.73641  1.0000
  C   C228      1.0  0.29907  0.81465  0.77919  1.0000
  C   C229      1.0  0.18078  0.47425  0.81293  1.0000
  C   C230      1.0  0.47724  0.29447  0.76243  1.0000
  C   C231      1.0  0.70675  0.18356  0.75967  1.0000
  C   C232      1.0  0.82501  0.52771  0.72744  1.0000
  C   C233      1.0  0.44484  0.21290  0.73051  1.0000
  C   C234      1.0  0.78740  0.22972  0.79626  1.0000
  C   C235      1.0  0.23496  0.44480  0.75098  1.0000
  C   C236      1.0  0.21814  0.76750  0.74772  1.0000
  C   C237      1.0  0.44712  0.24064  0.73690  1.0000
  C   C238      1.0  0.76004  0.20500  0.78737  1.0000
  C   C239      1.0  0.20802  0.44589  0.76954  1.0000
  C   C240      1.0  0.24564  0.79260  0.75342  1.0000
  C   C241      1.0  0.47423  0.26518  0.75329  1.0000
  C   C242      1.0  0.73625  0.20938  0.76413  1.0000
  C   C243      1.0  0.20819  0.47189  0.80015  1.0000
  C   C244      1.0  0.27006  0.78884  0.77142  1.0000
  C   C245      1.0  0.49864  0.26090  0.76592  1.0000
  C   C246      1.0  0.74081  0.23923  0.75058  1.0000
  C   C247      1.0  0.23592  0.49641  0.81286  1.0000
  C   C248      1.0  0.26617  0.75939  0.78155  1.0000
  C   C249      1.0  0.49594  0.23279  0.76421  1.0000
  C   C250      1.0  0.76830  0.26404  0.75826  1.0000
  C   C251      1.0  0.26266  0.49503  0.79733  1.0000
  C   C252      1.0  0.23876  0.73436  0.77471  1.0000
  N   N1        1.0  0.68288  0.50945  0.28786  1.0000
  N   N2        1.0  0.48277  0.17471  0.30322  1.0000
  N   N3        1.0  0.82277  0.31233  0.28645  1.0000
  N   N4        1.0  0.31009  0.48670  0.29070  1.0000
  N   N5        1.0  0.50834  0.82564  0.28809  1.0000
  N   N6        1.0  0.17445  0.68901  0.25222  1.0000
  N   N7        1.0  0.54057  0.70007  0.30310  1.0000
  N   N8        1.0  0.29754  0.84574  0.27842  1.0000
  N   N9        1.0  0.15178  0.45361  0.29645  1.0000
  N   N10       1.0  0.45399  0.30235  0.28117  1.0000
  N   N11       1.0  0.69907  0.15699  0.25824  1.0000
  N   N12       1.0  0.84075  0.54124  0.27335  1.0000
  N   N13       1.0  0.68831  0.51140  0.79255  1.0000
  N   N14       1.0  0.48248  0.17013  0.79773  1.0000
  N   N15       1.0  0.82664  0.31284  0.78034  1.0000
  N   N16       1.0  0.31316  0.48477  0.79157  1.0000
  N   N17       1.0  0.51164  0.82403  0.77574  1.0000
  N   N18       1.0  0.17988  0.68468  0.76178  1.0000
  N   N19       1.0  0.54071  0.69598  0.80860  1.0000
  N   N20       1.0  0.30420  0.84243  0.76412  1.0000
  N   N21       1.0  0.15438  0.45171  0.80839  1.0000
  N   N22       1.0  0.45360  0.29781  0.77702  1.0000
  N   N23       1.0  0.70216  0.15636  0.76319  1.0000
  N   N24       1.0  0.84719  0.54489  0.77964  1.0000
  C  Sn1       1.0  0.49514  0.75750  0.30813  1.0000
  C   C253      1.0  0.52021  0.78448  0.32076  1.0000
  C  Sn2       1.0  0.55107  0.78993  0.28320  1.0000
  C  Sn3       1.0  0.55700  0.76796  0.23183  1.0000
  C   C254      1.0  0.53195  0.74100  0.21919  1.0000
  C  Sn4       1.0  0.50108  0.73553  0.25676  1.0000
  O  Te1       1.0  0.46448  0.75253  0.34629  1.0000
  O  Te2       1.0  0.57574  0.81707  0.29682  1.0000
  O  Te3       1.0  0.58769  0.77295  0.19367  1.0000
  O  Te4       1.0  0.47642  0.70841  0.24313  1.0000
  Mg  Mg1       1.0  0.61342  0.81340  0.23109  1.0000
  Mg  Mg2       1.0  0.43874  0.71206  0.30873  1.0000
  C  Sn5       1.0  0.24394  0.50462  0.25582  1.0000
  C   C255      1.0  0.21507  0.48284  0.24302  1.0000
  C  Sn6       1.0  0.20609  0.45169  0.25930  1.0000
  C  Sn7       1.0  0.22639  0.44209  0.28912  1.0000
  C   C256      1.0  0.25523  0.46386  0.30194  1.0000
  C  Sn8       1.0  0.26423  0.49502  0.28564  1.0000
  O  Te5       1.0  0.25243  0.53564  0.23914  1.0000
  O  Te6       1.0  0.17712  0.43034  0.24596  1.0000
  O  Te7       1.0  0.21787  0.41104  0.30580  1.0000
  O  Te8       1.0  0.29318  0.51635  0.29900  1.0000
  Mg  Mg3       1.0  0.17604  0.39069  0.27789  1.0000
  Mg  Mg4       1.0  0.29428  0.55600  0.26720  1.0000
  C  Sn9       1.0  0.34457  0.90941  0.39156  1.0000
  C   C257      1.0  0.37729  0.91846  0.31632  1.0000
  C  Sn10      1.0  0.38664  0.90536  0.19584  1.0000
  C  Sn11      1.0  0.36282  0.88277  0.14950  1.0000
  C   C258      1.0  0.33013  0.87374  0.22469  1.0000
  C  Sn12      1.0  0.32074  0.88681  0.34521  1.0000
  O  Te9       1.0  0.33577  0.92281  0.51170  1.0000
  O  Te10      1.0  0.41949  0.91477  0.12242  1.0000
  O  Te11      1.0  0.37165  0.86937  0.02926  1.0000
  O  Te12      1.0  0.28792  0.87742  0.41858  1.0000
  Mg  Mg5       1.0  0.33968  0.81864  0.96487  1.0000
  Mg  Mg6       1.0  0.28796  0.90240  0.57606  1.0000
  C  Sn13      1.0  0.54937  0.75955  0.84843  1.0000
  C   C259      1.0  0.52675  0.73477  0.81076  1.0000
  C  Sn14      1.0  0.50747  0.73928  0.73370  1.0000
  C  Sn15      1.0  0.51089  0.76919  0.69333  1.0000
  C   C260      1.0  0.53350  0.79395  0.73096  1.0000
  C  Sn16      1.0  0.55279  0.78946  0.80806  1.0000
  O  Te13      1.0  0.56840  0.75450  0.92548  1.0000
  O  Te14      1.0  0.48502  0.71415  0.69733  1.0000
  O  Te15      1.0  0.49184  0.77422  0.61622  1.0000
  O  Te16      1.0  0.57524  0.81457  0.84439  1.0000
  Mg  Mg7       1.0  0.46468  0.73270  0.59171  1.0000
  Mg  Mg8       1.0  0.59560  0.79606  0.94991  1.0000
  C  Sn17      1.0  0.12075  0.48879  0.63355  1.0000
  C   C261      1.0  0.08614  0.46431  0.72538  1.0000
  C  Sn18      1.0  0.07223  0.43508  0.87633  1.0000
  C  Sn19      1.0  0.09334  0.43023  0.93686  1.0000
  C   C262      1.0  0.12793  0.45470  0.84508  1.0000
  C  Sn20      1.0  0.14186  0.48393  0.69408  1.0000
  O  Te17      1.0  0.13411  0.51781  0.48297  1.0000
  O  Te18      1.0  0.03756  0.41096  0.96587  1.0000
  O  Te19      1.0  0.15970  0.47232  0.08756  1.0000
  O  Te20      1.0  0.17651  0.50804  0.60458  1.0000
  Mg  Mg9       1.0  0.11099  0.44678  0.16435  1.0000
  Mg  Mg10      1.0  0.18285  0.54339  0.40617  1.0000
  C  Sn21      1.0  0.90728  0.55628  0.36235  1.0000
  C   C263      1.0  0.91329  0.53352  0.33475  1.0000
  C  Sn22      1.0  0.89693  0.51306  0.25354  1.0000
  C  Sn23      1.0  0.87412  0.51542  0.19867  1.0000
  C   C264      1.0  0.86813  0.53818  0.22625  1.0000
  C  Sn24      1.0  0.88447  0.55864  0.30748  1.0000
  O  Te21      1.0  0.92391  0.57648  0.44378  1.0000
  O  Te22      1.0  0.90334  0.49049  0.22743  1.0000
  O  Te23      1.0  0.85749  0.49519  0.11719  1.0000
  O  Te24      1.0  0.87808  0.58121  0.33356  1.0000
  Mg  Mg11      1.0  0.87456  0.46834  0.11060  1.0000
  Mg  Mg12      1.0  0.90686  0.60337  0.45028  1.0000
  C  Sn25      1.0  0.44544  0.11017  0.32087  1.0000
  C   C265      1.0  0.46858  0.13635  0.34808  1.0000
  C  Sn26      1.0  0.49904  0.14189  0.32496  1.0000
  C  Sn27      1.0  0.50655  0.12083  0.27345  1.0000
  C   C266      1.0  0.48342  0.09467  0.24623  1.0000
  C  Sn28      1.0  0.45295  0.08911  0.26936  1.0000
  O  Te25      1.0  0.41514  0.10510  0.34475  1.0000
  O  Te26      1.0  0.52177  0.16822  0.35300  1.0000
  O  Te27      1.0  0.53688  0.12593  0.24959  1.0000
  O  Te28      1.0  0.43023  0.06280  0.24132  1.0000
  Mg  Mg13      1.0  0.55971  0.16506  0.30358  1.0000
  Mg  Mg14      1.0  0.39229  0.06595  0.29060  1.0000
  C  Sn29      1.0  0.54457  0.90996  0.12462  1.0000
  C   C267      1.0  0.51962  0.91175  0.23456  1.0000
  C  Sn30      1.0  0.49040  0.88378  0.39008  1.0000
  C  Sn31      1.0  0.48603  0.85339  0.43677  1.0000
  C   C268      1.0  0.51097  0.85161  0.32688  1.0000
  C  Sn32      1.0  0.54020  0.87957  0.17131  1.0000
  O  Te29      1.0  0.49383  0.86709  0.96978  1.0000
  O  Te30      1.0  0.46580  0.88618  0.49783  1.0000
  O  Te31      1.0  0.45698  0.82510  0.59174  1.0000
  O  Te32      1.0  0.56478  0.87719  0.06361  1.0000
  Mg  Mg15      1.0  0.43069  0.84081  0.69528  1.0000
  Mg  Mg16      1.0  0.52017  0.85139  0.86620  1.0000
  C  Sn33      1.0  0.73635  0.49519  0.29530  1.0000
  C   C269      1.0  0.73279  0.51919  0.32628  1.0000
  C  Sn34      1.0  0.76049  0.54922  0.29739  1.0000
  C  Sn35      1.0  0.79243  0.55540  0.23616  1.0000
  C   C270      1.0  0.79599  0.53142  0.20518  1.0000
  C  Sn36      1.0  0.76829  0.50138  0.23406  1.0000
  O  Te33      1.0  0.70831  0.46535  0.32506  1.0000
  O  Te34      1.0  0.75630  0.57282  0.32936  1.0000
  O  Te35      1.0  0.82048  0.58527  0.20641  1.0000
  O  Te36      1.0  0.77247  0.47778  0.20210  1.0000
  Mg  Mg17      1.0  0.80207  0.60967  0.26905  1.0000
  Mg  Mg18      1.0  0.72673  0.44093  0.26227  1.0000
  C  Sn37      1.0  0.37873  0.50310  0.35958  1.0000
  C   C271      1.0  0.38524  0.48103  0.32348  1.0000
  C  Sn38      1.0  0.36847  0.46080  0.24254  1.0000
  C  Sn39      1.0  0.34470  0.46269  0.19659  1.0000
  C   C272      1.0  0.33820  0.48475  0.23265  1.0000
  C  Sn40      1.0  0.35496  0.50499  0.31363  1.0000
  O  Te37      1.0  0.39579  0.52309  0.44058  1.0000
  O  Te38      1.0  0.37540  0.43892  0.20784  1.0000
  O  Te39      1.0  0.32764  0.44268  0.11553  1.0000
  O  Te40      1.0  0.34805  0.52686  0.34829  1.0000
  Mg  Mg19      1.0  0.34571  0.41683  0.09531  1.0000
  Mg  Mg20      1.0  0.37773  0.54898  0.46072  1.0000
  C  Sn41      1.0  0.39033  0.89864  0.62128  1.0000
  C   C273      1.0  0.39255  0.92250  0.68630  1.0000
  C  Sn42      1.0  0.36354  0.91757  0.80803  1.0000
  C  Sn43      1.0  0.33166  0.88817  0.86608  1.0000
  C   C274      1.0  0.32946  0.86432  0.80110  1.0000
  C  Sn44      1.0  0.35845  0.86923  0.67933  1.0000
  O  Te41      1.0  0.41966  0.90408  0.49967  1.0000
  O  Te42      1.0  0.86700  0.94178  0.87111  1.0000
  O  Te43      1.0  0.30232  0.88273  0.98778  1.0000
  O  Te44      1.0  0.35561  0.84504  0.61629  1.0000
  Mg  Mg21      1.0  0.39893  0.99414  0.03533  1.0000
  Mg  Mg22      1.0  0.40281  0.86379  0.45215  1.0000
  C  Sn45      1.0  0.51182  0.13903  0.74094  1.0000
  C   C275      1.0  0.48779  0.14452  0.74435  1.0000
  C  Sn46      1.0  0.45554  0.11868  0.78531  1.0000
  C  Sn47      1.0  0.44711  0.08668  0.82377  1.0000
  C   C276      1.0  0.47113  0.08120  0.82038  1.0000
  C  Sn48      1.0  0.50340  0.10702  0.77940  1.0000
  O  Te45      1.0  0.54391  0.16522  0.69967  1.0000
  O  Te46      1.0  0.43195  0.12478  0.78783  1.0000
  O  Te47      1.0  0.41499  0.06048  0.86506  1.0000
  O  Te48      1.0  0.52698  0.10094  0.77690  1.0000
  Mg  Mg23      1.0  0.39157  0.08110  0.85163  1.0000
  Mg  Mg24      1.0  0.56736  0.14459  0.71322  1.0000
  C  Sn49      1.0  0.56777  0.66624  0.27937  1.0000
  C   C277      1.0  0.54699  0.67464  0.25099  1.0000
  C  Sn50      1.0  0.51633  0.65116  0.26098  1.0000
  C  Sn51      1.0  0.50621  0.61859  0.30026  1.0000
  C   C278      1.0  0.52698  0.61020  0.32864  1.0000
  C  Sn52      1.0  0.55766  0.63368  0.31865  1.0000
  O  Te49      1.0  0.59832  0.69012  0.26874  1.0000
  O  Te50      1.0  0.49598  0.66014  0.23203  1.0000
  O  Te51      1.0  0.47563  0.59471  0.31086  1.0000
  O  Te52      1.0  0.57799  0.62470  0.34760  1.0000
  Mg  Mg25      1.0  0.45664  0.61888  0.26105  1.0000
  Mg  Mg26      1.0  0.61732  0.66594  0.31871  1.0000
  C  Sn53      1.0  0.38229  0.50113  0.85438  1.0000
  C   C279      1.0  0.38817  0.47855  0.82104  1.0000
  C  Sn54      1.0  0.37063  0.45783  0.74466  1.0000
  C  Sn55      1.0  0.34673  0.45973  0.70056  1.0000
  C   C280      1.0  0.34086  0.48231  0.73386  1.0000
  C  Sn56      1.0  0.35839  0.50303  0.81027  1.0000
  O  Te53      1.0  0.40011  0.52161  0.93082  1.0000
  O  Te54      1.0  0.37693  0.43544  0.71265  1.0000
  O  Te55      1.0  0.32890  0.43923  0.62406  1.0000
  O  Te56      1.0  0.35210  0.52541  0.84225  1.0000
  Mg  Mg27      1.0  0.34632  0.41279  0.60613  1.0000
  Mg  Mg28      1.0  0.38271  0.54808  0.94867  1.0000
  C  Sn57      1.0  0.11730  0.65953  0.75775  1.0000
  C   C281      1.0  0.14076  0.65918  0.81022  1.0000
  C  Sn58      1.0  0.14102  0.63168  0.84389  1.0000
  C  Sn59      1.0  0.11734  0.60397  0.82459  1.0000
  C   C282      1.0  0.09390  0.60434  0.77211  1.0000
  C  Sn60      1.0  0.09362  0.63182  0.73845  1.0000
  O  Te57      1.0  0.11751  0.68729  0.72478  1.0000
  O  Te58      1.0  0.16471  0.63189  0.89626  1.0000
  O  Te59      1.0  0.11714  0.57620  0.85761  1.0000
  O  Te60      1.0  0.06996  0.63162  0.68608  1.0000
  Mg  Mg29      1.0  0.15438  0.58826  0.92573  1.0000
  Mg  Mg30      1.0  0.08027  0.67524  0.65648  1.0000
  C  Sn61      1.0  0.08752  0.42667  0.34604  1.0000
  C   C283      1.0  0.12202  0.45144  0.25941  1.0000
  C  Sn62      1.0  0.13435  0.48445  0.18931  1.0000
  C  Sn63      1.0  0.11174  0.49290  0.20625  1.0000
  C   C284      1.0  0.07726  0.46814  0.29286  1.0000
  C  Sn64      1.0  0.06490  0.43511  0.36298  1.0000
  O  Te61      1.0  0.07575  0.39382  0.41511  1.0000
  O  Te62      1.0  0.16895  0.50878  0.10322  1.0000
  O  Te63      1.0  0.12354  0.52577  0.13708  1.0000
  O  Te64      1.0  0.03033  0.41080  0.44906  1.0000
  Mg  Mg31      1.0  0.17280  0.55003  0.03134  1.0000
  Mg  Mg32      1.0  0.02645  0.36954  0.52107  1.0000
  C  Sn65      1.0  0.74347  0.49927  0.79158  1.0000
  C   C285      1.0  0.73912  0.52272  0.82499  1.0000
  C  Sn66      1.0  0.76634  0.55287  0.79856  1.0000
  C  Sn67      1.0  0.79857  0.55973  0.73734  1.0000
  C   C286      1.0  0.80291  0.53629  0.70393  1.0000
  C  Sn68      1.0  0.77570  0.50613  0.73036  1.0000
  O  Te65      1.0  0.71590  0.46930  0.81891  1.0000
  O  Te66      1.0  0.76138  0.57592  0.83294  1.0000
  O  Te67      1.0  0.82614  0.58973  0.71002  1.0000
  O  Te68      1.0  0.78065  0.48308  0.69598  1.0000
  Mg  Mg33      1.0  0.80672  0.61321  0.77542  1.0000
  Mg  Mg34      1.0  0.73533  0.44580  0.75336  1.0000
  C  Sn69      1.0  0.63378  0.11736  0.65881  1.0000
  C   C287      1.0  0.62119  0.08427  0.73131  1.0000
  C  Sn70      1.0  0.63283  0.07331  0.84447  1.0000
  C  Sn71      1.0  0.65756  0.09589  0.88615  1.0000
  C   C288      1.0  0.67013  0.12896  0.81370  1.0000
  C  Sn72      1.0  0.65851  0.13994  0.70049  1.0000
  O  Te69      1.0  0.62178  0.12777  0.54601  1.0000
  O  Te70      1.0  0.61987  0.04011  0.91528  1.0000
  O  Te71      1.0  0.66955  0.08545  0.99905  1.0000
  O  Te72      1.0  0.67145  0.17312  0.62973  1.0000
  Mg  Mg35      1.0  0.72390  0.10895  0.06244  1.0000
  Mg  Mg36      1.0  0.64717  0.17545  0.48265  1.0000
