data_image0
_chemical_formula_structural       H72C144N24C2Sn2C2HTe2HMgC2Sn2C2HTe2HMgC2Sn2C2HTe2HMgC2Sn2C2HTe2HMgC2Sn2C2HTe2HMgC2Sn2C2HTe2HMgC2Sn2C2HTe2HMgC2Sn2C2HTe2HMgC2Sn2C2HTe2HMgC2Sn2C2HTe2HMgC2Sn2C2HTe2HMgC2Sn2C2HTe2HMgC2Sn2C2HTe2HMgC2Sn2C2HTe2HMgC2Sn2C2HTe2HMgC2Sn2C2HTe2HMgC2Sn2C2HTe2HMgC2Sn2C2HTe2HMgC2Sn2C2HTe2HMgC2Sn2C2HTe2HMgC2Sn2C2HTe2HMgC2Sn2C2HTe2HMgC2Sn2C2HTe2HMgC2Sn2C2HTe2HMgC2Sn2C2HTe2HMgC2Sn2C2HTe2HMgC2Sn2C2HTe2HMgC2Sn2C2HTe2HMgC2Sn2C2HTe2HMgC2Sn2C2HTe2HMgC2Sn2C2HTe2HMgC2Sn2C2HTe2HMgC2Sn2C2HTe2HMgC2Sn2C2HTe2HMgC2Sn2C2HTe2HMgC2Sn2C2HTe2HMg
_chemical_formula_sum              "H144 C288 N24 Sn72 Te72 Mg36"
_cell_length_a       51.5988
_cell_length_b       51.5807
_cell_length_c       8.04182
_cell_angle_alpha    78.4204
_cell_angle_beta     73.5188
_cell_angle_gamma    119.972

_symmetry_space_group_name_H-M    'P1'
_space_group_IT_number       1

loop_
  _space_group_symop_operation_xyz
  'x, y, z'

loop_
  _atom_site_type_symbol
  _atom_site_label
  _atom_site_symmetry_multiplicity
  _atom_site_fract_x
  _atom_site_fract_y
  _atom_site_fract_z
  _atom_site_occupancy
  H   H1        1.0  0.48361  0.56005  0.30243  1.0000
  H   H2        1.0  0.43977  0.92940  0.24869  1.0000
  H   H3        1.0  0.07160  0.51289  0.28846  1.0000
  H   H4        1.0  0.51320  0.44170  0.28667  1.0000
  H   H5        1.0  0.55565  0.07361  0.29746  1.0000
  H   H6        1.0  0.92457  0.48488  0.27455  1.0000
  H   H7        1.0  0.58213  0.60444  0.26730  1.0000
  H   H8        1.0  0.39907  0.98430  0.24296  1.0000
  H   H9        1.0  0.02091  0.42039  0.24835  1.0000
  H   H10       1.0  0.41639  0.39904  0.30442  1.0000
  H   H11       1.0  0.59678  0.01913  0.29853  1.0000
  H   H12       1.0  0.97662  0.57955  0.29147  1.0000
  H   H13       1.0  0.60576  0.57411  0.27077  1.0000
  H   H14       1.0  0.42743  0.03611  0.26007  1.0000
  H   H15       1.0  0.96715  0.39664  0.24708  1.0000
  H   H16       1.0  0.39299  0.42936  0.30176  1.0000
  H   H17       1.0  0.56638  0.96505  0.30349  1.0000
  H   H18       1.0  0.02893  0.60257  0.30481  1.0000
  H   H19       1.0  0.55204  0.47774  0.28190  1.0000
  H   H20       1.0  0.52202  0.07803  0.27675  1.0000
  H   H21       1.0  0.92410  0.44930  0.24594  1.0000
  H   H22       1.0  0.45049  0.52921  0.24049  1.0000
  H   H23       1.0  0.47370  0.92457  0.26861  1.0000
  H   H24       1.0  0.07381  0.55148  0.29203  1.0000
  H   H25       1.0  0.71275  0.55375  0.30622  1.0000
  H   H26       1.0  0.45549  0.17450  0.15222  1.0000
  H   H27       1.0  0.83416  0.27846  0.31849  1.0000
  H   H28       1.0  0.28538  0.44861  0.20849  1.0000
  H   H29       1.0  0.55472  0.84149  0.28370  1.0000
  H   H30       1.0  0.15980  0.72032  0.25514  1.0000
  H   H31       1.0  0.50506  0.69393  0.20518  1.0000
  H   H32       1.0  0.31017  0.81279  0.29898  1.0000
  H   H33       1.0  0.18070  0.49777  0.31931  1.0000
  H   H34       1.0  0.49962  0.31740  0.28460  1.0000
  H   H35       1.0  0.68533  0.18910  0.25495  1.0000
  H   H36       1.0  0.81717  0.50405  0.18194  1.0000
  H   H37       1.0  0.48503  0.55583  0.80627  1.0000
  H   H38       1.0  0.44514  0.92688  0.74628  1.0000
  H   H39       1.0  0.07483  0.51102  0.79509  1.0000
  H   H40       1.0  0.51615  0.43871  0.77721  1.0000
  H   H41       1.0  0.55837  0.07155  0.80300  1.0000
  H   H42       1.0  0.93084  0.48730  0.75459  1.0000
  H   H43       1.0  0.58372  0.60106  0.76972  1.0000
  H   H44       1.0  0.40373  0.98101  0.72734  1.0000
  H   H45       1.0  0.02337  0.41858  0.75625  1.0000
  H   H46       1.0  0.41842  0.39549  0.80728  1.0000
  H   H47       1.0  0.60121  0.01860  0.80039  1.0000
  H   H48       1.0  0.98169  0.57932  0.80407  1.0000
  H   H49       1.0  0.60792  0.57142  0.77011  1.0000
  H   H50       1.0  0.43105  0.03285  0.74465  1.0000
  H   H51       1.0  0.97023  0.39589  0.74764  1.0000
  H   H52       1.0  0.39510  0.42589  0.80385  1.0000
  H   H53       1.0  0.57254  0.96523  0.79271  1.0000
  H   H54       1.0  0.03386  0.60137  0.81749  1.0000
  H   H55       1.0  0.55429  0.47429  0.79064  1.0000
  H   H56       1.0  0.52266  0.07388  0.79681  1.0000
  H   H57       1.0  0.92849  0.44978  0.74087  1.0000
  H   H58       1.0  0.45295  0.52579  0.74068  1.0000
  H   H59       1.0  0.47879  0.92271  0.77051  1.0000
  H   H60       1.0  0.07742  0.54911  0.79955  1.0000
  H   H61       1.0  0.71774  0.55622  0.80730  1.0000
  H   H62       1.0  0.45043  0.16602  0.67460  1.0000
  H   H63       1.0  0.83801  0.27894  0.81108  1.0000
  H   H64       1.0  0.28910  0.44792  0.70056  1.0000
  H   H65       1.0  0.55489  0.83660  0.80427  1.0000
  H   H66       1.0  0.16574  0.71641  0.76011  1.0000
  H   H67       1.0  0.51333  0.69507  0.65805  1.0000
  H   H68       1.0  0.31619  0.80905  0.79984  1.0000
  H   H69       1.0  0.18368  0.49621  0.82706  1.0000
  H   H70       1.0  0.50041  0.31324  0.76264  1.0000
  H   H71       1.0  0.68821  0.18831  0.75914  1.0000
  H   H72       1.0  0.82512  0.50991  0.67225  1.0000
  C   C1        1.0  0.47222  0.00457  0.26184  1.0000
  C   C2        1.0  0.99731  0.47190  0.26455  1.0000
  C   C3        1.0  0.52886  0.52926  0.27354  1.0000
  C   C4        1.0  0.52344  0.99857  0.28182  1.0000
  C   C5        1.0  0.99963  0.52765  0.28423  1.0000
  C   C6        1.0  0.47049  0.47528  0.28642  1.0000
  C   C7        1.0  0.47288  0.50442  0.27613  1.0000
  C   C8        1.0  0.49568  0.97240  0.27324  1.0000
  C   C9        1.0  0.02644  0.52612  0.28605  1.0000
  C   C10       1.0  0.52679  0.50047  0.27811  1.0000
  C   C11       1.0  0.49981  0.03065  0.27153  1.0000
  C   C12       1.0  0.97049  0.47344  0.26366  1.0000
  C   C13       1.0  0.50237  0.53169  0.27659  1.0000
  C   C14       1.0  0.46966  0.97580  0.25910  1.0000
  C   C15       1.0  0.02534  0.49749  0.27465  1.0000
  C   C16       1.0  0.49683  0.47273  0.28508  1.0000
  C   C17       1.0  0.52625  0.02760  0.28145  1.0000
  C   C18       1.0  0.97163  0.50203  0.27504  1.0000
  C   C19       1.0  0.50476  0.55932  0.28727  1.0000
  C   C20       1.0  0.44197  0.95142  0.24954  1.0000
  C   C21       1.0  0.05061  0.49427  0.27448  1.0000
  C   C22       1.0  0.49338  0.44406  0.28840  1.0000
  C   C23       1.0  0.55396  0.05206  0.29043  1.0000
  C   C24       1.0  0.94604  0.50478  0.27789  1.0000
  C   C25       1.0  0.53313  0.58614  0.28473  1.0000
  C   C26       1.0  0.41548  0.95320  0.24879  1.0000
  C   C27       1.0  0.04929  0.46643  0.26790  1.0000
  C   C28       1.0  0.46443  0.41701  0.29815  1.0000
  C   C29       1.0  0.58019  0.05007  0.29418  1.0000
  C   C30       1.0  0.94693  0.53253  0.28159  1.0000
  C   C31       1.0  0.55960  0.58432  0.27223  1.0000
  C   C32       1.0  0.41832  0.98143  0.24908  1.0000
  C   C33       1.0  0.02202  0.44161  0.25841  1.0000
  C   C34       1.0  0.43847  0.41915  0.30336  1.0000
  C   C35       1.0  0.57714  0.02165  0.29699  1.0000
  C   C36       1.0  0.97450  0.55761  0.28880  1.0000
  C   C37       1.0  0.55794  0.55619  0.26964  1.0000
  C   C38       1.0  0.44620  0.00730  0.25542  1.0000
  C   C39       1.0  0.99589  0.44377  0.25517  1.0000
  C   C40       1.0  0.44110  0.44811  0.29465  1.0000
  C   C41       1.0  0.54924  0.99569  0.29188  1.0000
  C   C42       1.0  0.00080  0.55572  0.29196  1.0000
  C   C43       1.0  0.58427  0.55393  0.26792  1.0000
  C   C44       1.0  0.44803  0.03535  0.26158  1.0000
  C   C45       1.0  0.96796  0.41808  0.24825  1.0000
  C   C46       1.0  0.41527  0.45072  0.29079  1.0000
  C   C47       1.0  0.54690  0.96713  0.29261  1.0000
  C   C48       1.0  0.02878  0.58168  0.29726  1.0000
  C   C49       1.0  0.58199  0.52572  0.27424  1.0000
  C   C50       1.0  0.47488  0.06100  0.27042  1.0000
  C   C51       1.0  0.94156  0.41928  0.25051  1.0000
  C   C52       1.0  0.41812  0.47957  0.27156  1.0000
  C   C53       1.0  0.51966  0.94148  0.28782  1.0000
  C   C54       1.0  0.05532  0.58072  0.29478  1.0000
  C   C55       1.0  0.55308  0.49936  0.27949  1.0000
  C   C56       1.0  0.50076  0.05812  0.27177  1.0000
  C   C57       1.0  0.94394  0.44769  0.25376  1.0000
  C   C58       1.0  0.44749  0.50623  0.26235  1.0000
  C   C59       1.0  0.49420  0.94448  0.27916  1.0000
  C   C60       1.0  0.05311  0.55224  0.29321  1.0000
  C   C61       1.0  0.70958  0.53175  0.29116  1.0000
  C   C62       1.0  0.46914  0.18583  0.22973  1.0000
  C   C63       1.0  0.81741  0.28458  0.29735  1.0000
  C   C64       1.0  0.28652  0.46783  0.25229  1.0000
  C   C65       1.0  0.53216  0.82273  0.27851  1.0000
  C   C66       1.0  0.17877  0.71599  0.25149  1.0000
  C   C67       1.0  0.52311  0.70839  0.25347  1.0000
  C   C68       1.0  0.29281  0.81843  0.28353  1.0000
  C   C69       1.0  0.17792  0.47590  0.30435  1.0000
  C   C70       1.0  0.47745  0.29910  0.27420  1.0000
  C   C71       1.0  0.70376  0.18417  0.25568  1.0000
  C   C72       1.0  0.81794  0.52296  0.22823  1.0000
  C   C73       1.0  0.47579  0.00168  0.76271  1.0000
  C   C74       1.0  0.00106  0.47119  0.76492  1.0000
  C   C75       1.0  0.53099  0.52582  0.77500  1.0000
  C   C76       1.0  0.52750  0.99677  0.78521  1.0000
  C   C77       1.0  0.00399  0.52708  0.78738  1.0000
  C   C78       1.0  0.47269  0.47168  0.78858  1.0000
  C   C79       1.0  0.47500  0.50079  0.77839  1.0000
  C   C80       1.0  0.50008  0.97041  0.77592  1.0000
  C   C81       1.0  0.03032  0.52486  0.79067  1.0000
  C   C82       1.0  0.52909  0.49705  0.78004  1.0000
  C   C83       1.0  0.50268  0.02773  0.77743  1.0000
  C   C84       1.0  0.97470  0.47341  0.76092  1.0000
  C   C85       1.0  0.50438  0.52809  0.77891  1.0000
  C   C86       1.0  0.47387  0.97322  0.76026  1.0000
  C   C87       1.0  0.02899  0.49628  0.77744  1.0000
  C   C88       1.0  0.49922  0.46929  0.78536  1.0000
  C   C89       1.0  0.52953  0.02537  0.78734  1.0000
  C   C90       1.0  0.97627  0.50224  0.77213  1.0000
  C   C91       1.0  0.50642  0.55553  0.79058  1.0000
  C   C92       1.0  0.44685  0.94870  0.74682  1.0000
  C   C93       1.0  0.05392  0.49266  0.77954  1.0000
  C   C94       1.0  0.49602  0.44086  0.78375  1.0000
  C   C95       1.0  0.55704  0.05013  0.79644  1.0000
  C   C96       1.0  0.95154  0.50608  0.76906  1.0000
  C   C97       1.0  0.53463  0.58261  0.78749  1.0000
  C   C98       1.0  0.42060  0.95032  0.73959  1.0000
  C   C99       1.0  0.05223  0.46465  0.77449  1.0000
  C   C100      1.0  0.46687  0.41375  0.79501  1.0000
  C   C101      1.0  0.58358  0.04864  0.80015  1.0000
  C   C102      1.0  0.95249  0.53366  0.77922  1.0000
  C   C103      1.0  0.56128  0.58099  0.77369  1.0000
  C   C104      1.0  0.42281  0.97831  0.73892  1.0000
  C   C105      1.0  0.02490  0.44006  0.76423  1.0000
  C   C106      1.0  0.44064  0.41570  0.80458  1.0000
  C   C107      1.0  0.58124  0.02062  0.79991  1.0000
  C   C108      1.0  0.97960  0.55770  0.79457  1.0000
  C   C109      1.0  0.55991  0.55296  0.77079  1.0000
  C   C110      1.0  0.44988  0.00412  0.75078  1.0000
  C   C111      1.0  0.99927  0.44284  0.75707  1.0000
  C   C112      1.0  0.44322  0.44459  0.79687  1.0000
  C   C113      1.0  0.55380  0.99453  0.79226  1.0000
  C   C114      1.0  0.00553  0.55516  0.79823  1.0000
  C   C115      1.0  0.58642  0.55100  0.76870  1.0000
  C   C116      1.0  0.45111  0.03193  0.75560  1.0000
  C   C117      1.0  0.97142  0.41754  0.74782  1.0000
  C   C118      1.0  0.41736  0.44722  0.79326  1.0000
  C   C119      1.0  0.55239  0.96656  0.78730  1.0000
  C   C120      1.0  0.03339  0.58042  0.80794  1.0000
  C   C121      1.0  0.58435  0.52280  0.77719  1.0000
  C   C122      1.0  0.47682  0.05717  0.77347  1.0000
  C   C123      1.0  0.94549  0.41934  0.74675  1.0000
  C   C124      1.0  0.42033  0.47616  0.77295  1.0000
  C   C125      1.0  0.52520  0.94054  0.78403  1.0000
  C   C126      1.0  0.05949  0.57870  0.80628  1.0000
  C   C127      1.0  0.55538  0.49607  0.78446  1.0000
  C   C128      1.0  0.50253  0.05449  0.78192  1.0000
  C   C129      1.0  0.94815  0.44792  0.74965  1.0000
  C   C130      1.0  0.44975  0.50271  0.76373  1.0000
  C   C131      1.0  0.49922  0.94286  0.77996  1.0000
  C   C132      1.0  0.05698  0.55034  0.80101  1.0000
  C   C133      1.0  0.71502  0.53432  0.79320  1.0000
  C   C134      1.0  0.46628  0.17918  0.73774  1.0000
  C   C135      1.0  0.82111  0.28500  0.79191  1.0000
  C   C136      1.0  0.28988  0.46657  0.74917  1.0000
  C   C137      1.0  0.53364  0.81926  0.78376  1.0000
  C   C138      1.0  0.18452  0.71190  0.75783  1.0000
  C   C139      1.0  0.52657  0.70651  0.73641  1.0000
  C   C140      1.0  0.29907  0.81465  0.77919  1.0000
  C   C141      1.0  0.18078  0.47425  0.81293  1.0000
  C   C142      1.0  0.47724  0.29447  0.76243  1.0000
  C   C143      1.0  0.70675  0.18356  0.75967  1.0000
  C   C144      1.0  0.82501  0.52771  0.72744  1.0000
  N   N1        1.0  0.68288  0.50945  0.28786  1.0000
  N   N2        1.0  0.48277  0.17471  0.30322  1.0000
  N   N3        1.0  0.82277  0.31233  0.28645  1.0000
  N   N4        1.0  0.31009  0.48670  0.29070  1.0000
  N   N5        1.0  0.50834  0.82564  0.28809  1.0000
  N   N6        1.0  0.17445  0.68901  0.25222  1.0000
  N   N7        1.0  0.54057  0.70007  0.30310  1.0000
  N   N8        1.0  0.29754  0.84574  0.27842  1.0000
  N   N9        1.0  0.15178  0.45361  0.29645  1.0000
  N   N10       1.0  0.45399  0.30235  0.28117  1.0000
  N   N11       1.0  0.69907  0.15699  0.25824  1.0000
  N   N12       1.0  0.84075  0.54124  0.27335  1.0000
  N   N13       1.0  0.68831  0.51140  0.79255  1.0000
  N   N14       1.0  0.48248  0.17013  0.79773  1.0000
  N   N15       1.0  0.82664  0.31284  0.78034  1.0000
  N   N16       1.0  0.31316  0.48477  0.79157  1.0000
  N   N17       1.0  0.51164  0.82403  0.77574  1.0000
  N   N18       1.0  0.17988  0.68468  0.76178  1.0000
  N   N19       1.0  0.54071  0.69598  0.80860  1.0000
  N   N20       1.0  0.30420  0.84243  0.76412  1.0000
  N   N21       1.0  0.15438  0.45171  0.80839  1.0000
  N   N22       1.0  0.45360  0.29781  0.77702  1.0000
  N   N23       1.0  0.70216  0.15636  0.76319  1.0000
  N   N24       1.0  0.84719  0.54489  0.77964  1.0000
  C   C145      1.0  0.61575  0.48449  0.41247  1.0000
  C   C146      1.0  0.65050  0.50680  0.30189  1.0000
  C  Sn1       1.0  0.66476  0.53877  0.17983  1.0000
  C  Sn2       1.0  0.64378  0.54851  0.16861  1.0000
  C   C147      1.0  0.60905  0.52600  0.27992  1.0000
  C   C148      1.0  0.59504  0.49407  0.40155  1.0000
  H   H73       1.0  0.60492  0.45979  0.50665  1.0000
  O  Te1       1.0  0.69953  0.56075  0.07030  1.0000
  O  Te2       1.0  0.65737  0.58031  0.04786  1.0000
  H   H74       1.0  0.56814  0.47681  0.48724  1.0000
  Mg  Mg1       1.0  0.62643  0.53022  0.92699  1.0000
  C   C149      1.0  0.50579  0.13647  0.32702  1.0000
  C   C150      1.0  0.48660  0.14659  0.29137  1.0000
  C  Sn3       1.0  0.45983  0.12670  0.25694  1.0000
  C  Sn4       1.0  0.45219  0.09611  0.25838  1.0000
  C   C151      1.0  0.47152  0.08620  0.29433  1.0000
  C   C152      1.0  0.49826  0.10630  0.32854  1.0000
  H   H75       1.0  0.52646  0.15201  0.35360  1.0000
  O  Te3       1.0  0.44092  0.13719  0.22150  1.0000
  O  Te4       1.0  0.42557  0.07574  0.22448  1.0000
  H   H76       1.0  0.51310  0.09844  0.35626  1.0000
  Mg  Mg2       1.0  0.40714  0.10081  0.18318  1.0000
  C   C153      1.0  0.85516  0.36716  0.36097  1.0000
  C   C154      1.0  0.85186  0.34414  0.28552  1.0000
  C  Sn5       1.0  0.87935  0.34388  0.20039  1.0000
  C  Sn6       1.0  0.91068  0.36712  0.19088  1.0000
  C   C155      1.0  0.91371  0.39004  0.26690  1.0000
  C   C156      1.0  0.88605  0.39009  0.35172  1.0000
  H   H77       1.0  0.83376  0.36719  0.42669  1.0000
  O  Te5       1.0  0.87562  0.32072  0.12565  1.0000
  O  Te6       1.0  0.93855  0.36740  0.10665  1.0000
  H   H78       1.0  0.88861  0.40790  0.41023  1.0000
  Mg  Mg3       1.0  0.92094  0.33095  0.02495  1.0000
  C   C157      1.0  0.38497  0.51130  0.30055  1.0000
  C   C158      1.0  0.39022  0.48765  0.28438  1.0000
  C  Sn7       1.0  0.36816  0.46142  0.25294  1.0000
  C  Sn8       1.0  0.34035  0.45890  0.23742  1.0000
  C   C159      1.0  0.33532  0.48270  0.25367  1.0000
  C   C160      1.0  0.35755  0.50884  0.28519  1.0000
  H   H79       1.0  0.40217  0.53154  0.32483  1.0000
  O  Te7       1.0  0.37378  0.43800  0.23720  1.0000
  O  Te8       1.0  0.31792  0.43294  0.20594  1.0000
  H   H80       1.0  0.35348  0.52715  0.29758  1.0000
  Mg  Mg4       1.0  0.33620  0.40715  0.19455  1.0000
  C   C161      1.0  0.54811  0.89516  0.15398  1.0000
  C   C162      1.0  0.52106  0.86213  0.26454  1.0000
  C  Sn9       1.0  0.49024  0.85356  0.39028  1.0000
  C  Sn10      1.0  0.48652  0.87857  0.40525  1.0000
  C   C163      1.0  0.51372  0.91154  0.29391  1.0000
  C   C164      1.0  0.54445  0.91984  0.16860  1.0000
  H   H81       1.0  0.57188  0.90158  0.05694  1.0000
  O  Te9       1.0  0.46348  0.82044  0.49974  1.0000
  O  Te10      1.0  0.45599  0.87069  0.52971  1.0000
  H   H82       1.0  0.56538  0.94542  0.08292  1.0000
  Mg  Mg5       1.0  0.42689  0.82206  0.64891  1.0000
  C   C165      1.0  0.11521  0.60848  0.34898  1.0000
  C   C166      1.0  0.08989  0.60711  0.31061  1.0000
  C  Sn11      1.0  0.09328  0.63596  0.23036  1.0000
  C  Sn12      1.0  0.12260  0.66672  0.18783  1.0000
  C   C167      1.0  0.14780  0.66783  0.22663  1.0000
  C   C168      1.0  0.14414  0.63880  0.30701  1.0000
  H   H83       1.0  0.11239  0.58603  0.41108  1.0000
  O  Te11      1.0  0.06773  0.63415  0.19301  1.0000
  O  Te12      1.0  0.12664  0.69593  0.10751  1.0000
  H   H84       1.0  0.16377  0.63987  0.33659  1.0000
  Mg  Mg6       1.0  0.08485  0.68076  0.08283  1.0000
  C   C169      1.0  0.50863  0.63974  0.25692  1.0000
  C   C170      1.0  0.52828  0.66410  0.30845  1.0000
  C  Sn13      1.0  0.55327  0.66485  0.34788  1.0000
  C  Sn14      1.0  0.55863  0.64073  0.33533  1.0000
  C   C171      1.0  0.53886  0.61648  0.28353  1.0000
  C   C172      1.0  0.51392  0.61595  0.24443  1.0000
  H   H85       1.0  0.48934  0.63934  0.22656  1.0000
  O  Te13      1.0  0.57266  0.68935  0.39923  1.0000
  O  Te14      1.0  0.58345  0.64091  0.37391  1.0000
  H   H86       1.0  0.49872  0.59710  0.20442  1.0000
  Mg  Mg7       1.0  0.60340  0.67928  0.43818  1.0000
  C   C173      1.0  0.38229  0.89423  0.18521  1.0000
  C   C174      1.0  0.38631  0.92011  0.23340  1.0000
  C  Sn15      1.0  0.35871  0.92041  0.31447  1.0000
  C  Sn16      1.0  0.32653  0.89427  0.34781  1.0000
  C   C175      1.0  0.32276  0.86847  0.29923  1.0000
  C   C176      1.0  0.35055  0.86842  0.21811  1.0000
  H   H87       1.0  0.40378  0.89418  0.12255  1.0000
  O  Te15      1.0  0.36318  0.94647  0.36169  1.0000
  O  Te16      1.0  0.29852  0.89394  0.42872  1.0000
  H   H88       1.0  0.34743  0.84837  0.18094  1.0000
  Mg  Mg8       1.0  0.31734  0.93497  0.46864  1.0000
  C   C177      1.0  0.08459  0.42672  0.40451  1.0000
  C   C178      1.0  0.11936  0.45024  0.30380  1.0000
  C  Sn17      1.0  0.13300  0.48241  0.18863  1.0000
  C  Sn18      1.0  0.11138  0.49112  0.17435  1.0000
  C   C179      1.0  0.07663  0.46741  0.27578  1.0000
  C   C180      1.0  0.06324  0.43530  0.39056  1.0000
  H   H89       1.0  0.07422  0.40188  0.49340  1.0000
  O  Te17      1.0  0.16780  0.50560  0.08893  1.0000
  O  Te18      1.0  0.12435  0.52309  0.06034  1.0000
  H   H90       1.0  0.03632  0.41710  0.46861  1.0000
  Mg  Mg9       1.0  0.09372  0.47482  0.95205  1.0000
  C   C181      1.0  0.42622  0.33153  0.43358  1.0000
  C   C182      1.0  0.44966  0.32961  0.30870  1.0000
  C  Sn19      1.0  0.48150  0.35813  0.17812  1.0000
  C  Sn20      1.0  0.48994  0.38912  0.17283  1.0000
  C   C183      1.0  0.46632  0.39079  0.29846  1.0000
  C   C184      1.0  0.43453  0.36209  0.42851  1.0000
  H   H91       1.0  0.40163  0.30933  0.53428  1.0000
  O  Te19      1.0  0.50462  0.35577  0.05432  1.0000
  O  Te20      1.0  0.52159  0.41802  0.04380  1.0000
  H   H92       1.0  0.41639  0.36358  0.52526  1.0000
  Mg  Mg10      1.0  0.46476  0.33096  0.90405  1.0000
  C   C185      1.0  0.62504  0.11911  0.20275  1.0000
  C   C186      1.0  0.61342  0.08632  0.25749  1.0000
  C  Sn21      1.0  0.62998  0.07581  0.32733  1.0000
  C  Sn22      1.0  0.65869  0.09862  0.34254  1.0000
  C   C187      1.0  0.67010  0.13137  0.28754  1.0000
  C   C188      1.0  0.65335  0.14162  0.21778  1.0000
  H   H93       1.0  0.61207  0.12705  0.14888  1.0000
  O  Te21      1.0  0.61804  0.04296  0.38131  1.0000
  O  Te22      1.0  0.67571  0.08878  0.41194  1.0000
  H   H94       1.0  0.66234  0.16701  0.17553  1.0000
  Mg  Mg11      1.0  0.64980  0.04139  0.46733  1.0000
  C   C189      1.0  0.91385  0.56435  0.30275  1.0000
  C   C190      1.0  0.91849  0.54006  0.29520  1.0000
  C  Sn23      1.0  0.89659  0.51373  0.26371  1.0000
  C  Sn24      1.0  0.86958  0.51176  0.23933  1.0000
  C   C191      1.0  0.86517  0.53620  0.24699  1.0000
  C   C192      1.0  0.88722  0.56243  0.27864  1.0000
  H   H95       1.0  0.93093  0.58465  0.32713  1.0000
  O  Te23      1.0  0.90158  0.48967  0.25666  1.0000
  O  Te24      1.0  0.84733  0.48572  0.20759  1.0000
  H   H96       1.0  0.88364  0.58125  0.28436  1.0000
  Mg  Mg12      1.0  0.86455  0.45896  0.20993  1.0000
  C   C193      1.0  0.74064  0.49913  0.23115  1.0000
  C   C194      1.0  0.73492  0.52086  0.28146  1.0000
  C  Sn25      1.0  0.75919  0.54689  0.30413  1.0000
  C  Sn26      1.0  0.78974  0.55118  0.27577  1.0000
  C   C195      1.0  0.79524  0.52932  0.22534  1.0000
  C   C196      1.0  0.77078  0.50335  0.20308  1.0000
  H   H97       1.0  0.72173  0.47905  0.21383  1.0000
  O  Te25      1.0  0.75306  0.56837  0.35449  1.0000
  O  Te26      1.0  0.81443  0.57699  0.29742  1.0000
  H   H98       1.0  0.77523  0.48654  0.16401  1.0000
  Mg  Mg13      1.0  0.79439  0.59979  0.36730  1.0000
  C   C197      1.0  0.50213  0.26051  0.28781  1.0000
  C   C198      1.0  0.48366  0.27145  0.24995  1.0000
  C  Sn27      1.0  0.45691  0.25217  0.21373  1.0000
  C  Sn28      1.0  0.44855  0.22136  0.21560  1.0000
  C   C199      1.0  0.46717  0.21062  0.25375  1.0000
  C   C200      1.0  0.49389  0.23012  0.28975  1.0000
  H   H99       1.0  0.52279  0.27559  0.31576  1.0000
  O  Te27      1.0  0.43872  0.26348  0.17610  1.0000
  O  Te28      1.0  0.42193  0.20159  0.17994  1.0000
  H   H100      1.0  0.50818  0.22164  0.31918  1.0000
  Mg  Mg14      1.0  0.40464  0.22768  0.13594  1.0000
  C   C201      1.0  0.75767  0.26162  0.25018  1.0000
  C   C202      1.0  0.78210  0.26065  0.28754  1.0000
  C  Sn29      1.0  0.78232  0.23327  0.30541  1.0000
  C  Sn30      1.0  0.75761  0.20639  0.28539  1.0000
  C   C203      1.0  0.73330  0.20761  0.24789  1.0000
  C   C204      1.0  0.73330  0.23513  0.23034  1.0000
  H   H101      1.0  0.75768  0.28292  0.23650  1.0000
  O  Te29      1.0  0.80690  0.23270  0.34282  1.0000
  O  Te30      1.0  0.75727  0.17872  0.30250  1.0000
  H   H102      1.0  0.71440  0.23588  0.20129  1.0000
  Mg  Mg15      1.0  0.79597  0.18951  0.35397  1.0000
  C   C205      1.0  0.20950  0.44360  0.25103  1.0000
  C   C206      1.0  0.20331  0.46514  0.30039  1.0000
  C  Sn31      1.0  0.22706  0.49110  0.32609  1.0000
  C  Sn32      1.0  0.25754  0.49552  0.30177  1.0000
  C   C207      1.0  0.26350  0.47386  0.25224  1.0000
  C   C208      1.0  0.23957  0.44796  0.22693  1.0000
  H   H103      1.0  0.19100  0.42357  0.23134  1.0000
  O  Te31      1.0  0.22046  0.51238  0.37547  1.0000
  O  Te32      1.0  0.28170  0.52126  0.32651  1.0000
  H   H104      1.0  0.24438  0.43130  0.18859  1.0000
  Mg  Mg16      1.0  0.26116  0.54378  0.39354  1.0000
  C   C209      1.0  0.49884  0.76135  0.24436  1.0000
  C   C210      1.0  0.52168  0.78692  0.27658  1.0000
  C  Sn33      1.0  0.54870  0.78837  0.29086  1.0000
  C  Sn34      1.0  0.55286  0.76374  0.27241  1.0000
  C   C211      1.0  0.52989  0.73827  0.24006  1.0000
  C   C212      1.0  0.50294  0.73705  0.22607  1.0000
  H   H105      1.0  0.47800  0.76041  0.23343  1.0000
  O  Te33      1.0  0.57128  0.81408  0.32315  1.0000
  O  Te34      1.0  0.57965  0.76460  0.28600  1.0000
  H   H106      1.0  0.48527  0.71726  0.20100  1.0000
  Mg  Mg17      1.0  0.60376  0.80457  0.33094  1.0000
  C   C213      1.0  0.24113  0.74182  0.27256  1.0000
  C   C214      1.0  0.21350  0.74007  0.26700  1.0000
  C  Sn35      1.0  0.21215  0.76673  0.25542  1.0000
  C  Sn36      1.0  0.23901  0.79564  0.24927  1.0000
  C   C215      1.0  0.26655  0.79715  0.25478  1.0000
  C   C216      1.0  0.26764  0.77033  0.26643  1.0000
  H   H107      1.0  0.24199  0.72107  0.28147  1.0000
  O  Te35      1.0  0.18435  0.76457  0.25006  1.0000
  O  Te36      1.0  0.23831  0.82265  0.23762  1.0000
  H   H108      1.0  0.28905  0.77169  0.27061  1.0000
  Mg  Mg18      1.0  0.19499  0.80786  0.23414  1.0000
  C   C217      1.0  0.65447  0.55169  0.65833  1.0000
  C   C218      1.0  0.61997  0.52696  0.74450  1.0000
  C  Sn37      1.0  0.60669  0.49540  0.86745  1.0000
  C  Sn38      1.0  0.62841  0.48855  0.90457  1.0000
  C   C219      1.0  0.66288  0.51347  0.81775  1.0000
  C   C220      1.0  0.67591  0.54496  0.69492  1.0000
  H   H109      1.0  0.66456  0.57607  0.56337  1.0000
  O  Te37      1.0  0.57216  0.47097  0.95230  1.0000
  O  Te38      1.0  0.69554  0.52837  0.02691  1.0000
  H   H110      1.0  0.70262  0.56411  0.62832  1.0000
  Mg  Mg19      1.0  0.64669  0.50327  0.10837  1.0000
  C   C221      1.0  0.50859  0.13465  0.80403  1.0000
  C   C222      1.0  0.48670  0.14226  0.78786  1.0000
  C  Sn39      1.0  0.45787  0.11986  0.77704  1.0000
  C  Sn40      1.0  0.45089  0.08929  0.78260  1.0000
  C   C223      1.0  0.47294  0.08190  0.79893  1.0000
  C   C224      1.0  0.50172  0.10450  0.80960  1.0000
  H   H111      1.0  0.53085  0.15213  0.81238  1.0000
  O  Te39      1.0  0.43627  0.12786  0.76085  1.0000
  O  Te40      1.0  0.42225  0.06644  0.77212  1.0000
  H   H112      1.0  0.51866  0.09860  0.82224  1.0000
  Mg  Mg20      1.0  0.40045  0.08864  0.75114  1.0000
  C   C225      1.0  0.85928  0.36767  0.85397  1.0000
  C   C226      1.0  0.85595  0.34467  0.77828  1.0000
  C  Sn41      1.0  0.88339  0.34434  0.69338  1.0000
  C  Sn42      1.0  0.91471  0.36748  0.68435  1.0000
  C   C227      1.0  0.91778  0.39038  0.76060  1.0000
  C   C228      1.0  0.89016  0.39050  0.84519  1.0000
  H   H113      1.0  0.83790  0.36776  0.91951  1.0000
  O  Te41      1.0  0.87963  0.32120  0.61840  1.0000
  O  Te42      1.0  0.94254  0.36769  0.60035  1.0000
  H   H114      1.0  0.89274  0.40829  0.90389  1.0000
  Mg  Mg21      1.0  0.92489  0.33130  0.51817  1.0000
  C   C229      1.0  0.38843  0.50916  0.79479  1.0000
  C   C230      1.0  0.39311  0.48507  0.78137  1.0000
  C  Sn43      1.0  0.37038  0.45851  0.75486  1.0000
  C  Sn44      1.0  0.34248  0.45609  0.74155  1.0000
  C   C231      1.0  0.33803  0.48033  0.75502  1.0000
  C   C232      1.0  0.36092  0.50680  0.78160  1.0000
  H   H115      1.0  0.40615  0.52966  0.81526  1.0000
  O  Te43      1.0  0.37542  0.43465  0.74182  1.0000
  O  Te44      1.0  0.31938  0.42980  0.71499  1.0000
  H   H116      1.0  0.35731  0.52546  0.79186  1.0000
  Mg  Mg22      1.0  0.33705  0.40347  0.70574  1.0000
  C   C233      1.0  0.55425  0.90888  0.64788  1.0000
  C   C234      1.0  0.52955  0.91197  0.74569  1.0000
  C  Sn45      1.0  0.49703  0.88401  0.87151  1.0000
  C  Sn46      1.0  0.48917  0.85240  0.89966  1.0000
  C   C235      1.0  0.51406  0.84957  0.80123  1.0000
  C   C236      1.0  0.54652  0.87771  0.67562  1.0000
  H   H117      1.0  0.57936  0.93065  0.55077  1.0000
  O  Te45      1.0  0.47266  0.88755  0.96803  1.0000
  O  Te46      1.0  0.53663  0.89520  0.02463  1.0000
  H   H118      1.0  0.56564  0.87530  0.60000  1.0000
  Mg  Mg23      1.0  0.51202  0.91271  0.12330  1.0000
  C   C237      1.0  0.11933  0.60455  0.85953  1.0000
  C   C238      1.0  0.09411  0.60396  0.82385  1.0000
  C  Sn47      1.0  0.09815  0.63324  0.74495  1.0000
  C  Sn48      1.0  0.12803  0.66363  0.70105  1.0000
  C   C239      1.0  0.15312  0.66396  0.73716  1.0000
  C   C240      1.0  0.14882  0.63452  0.81621  1.0000
  H   H119      1.0  0.11601  0.58178  0.92059  1.0000
  O  Te47      1.0  0.07269  0.63220  0.71029  1.0000
  O  Te48      1.0  0.13272  0.69325  0.62204  1.0000
  H   H120      1.0  0.16836  0.63499  0.84370  1.0000
  Mg  Mg24      1.0  0.09080  0.67912  0.60102  1.0000
  C   C241      1.0  0.50509  0.61792  0.79917  1.0000
  C   C242      1.0  0.52918  0.61222  0.78850  1.0000
  C  Sn49      1.0  0.55823  0.63465  0.79737  1.0000
  C  Sn50      1.0  0.56319  0.66328  0.81735  1.0000
  C   C243      1.0  0.53893  0.66874  0.82804  1.0000
  C   C244      1.0  0.50995  0.64614  0.81896  1.0000
  H   H121      1.0  0.48266  0.60043  0.79225  1.0000
  O  Te49      1.0  0.58205  0.62858  0.78642  1.0000
  O  Te50      1.0  0.59200  0.68609  0.82665  1.0000
  H   H122      1.0  0.49130  0.65055  0.82735  1.0000
  Mg  Mg25      1.0  0.61721  0.66695  0.80554  1.0000
  C   C245      1.0  0.37387  0.87786  0.66799  1.0000
  C   C246      1.0  0.34055  0.86703  0.75004  1.0000
  C  Sn51      1.0  0.33222  0.88528  0.82804  1.0000
  C  Sn52      1.0  0.35778  0.91490  0.82355  1.0000
  C   C247      1.0  0.39105  0.92553  0.74102  1.0000
  C   C248      1.0  0.39910  0.90708  0.66344  1.0000
  H   H123      1.0  0.38011  0.86359  0.60786  1.0000
  O  Te51      1.0  0.29880  0.87410  0.90953  1.0000
  O  Te52      1.0  0.35016  0.93362  0.90041  1.0000
  H   H124      1.0  0.42491  0.91548  0.59981  1.0000
  Mg  Mg26      1.0  0.30094  0.90819  0.99581  1.0000
  C   C249      1.0  0.13565  0.49165  0.67198  1.0000
  C   C250      1.0  0.13270  0.46482  0.78314  1.0000
  C  Sn53      1.0  0.10126  0.43460  0.89419  1.0000
  C  Sn54      1.0  0.07227  0.43124  0.89362  1.0000
  C   C251      1.0  0.07548  0.45822  0.78183  1.0000
  C   C252      1.0  0.10707  0.48835  0.67128  1.0000
  H   H125      1.0  0.16009  0.51496  0.58636  1.0000
  O  Te53      1.0  0.17852  0.47921  0.00447  1.0000
  O  Te54      1.0  0.12028  0.47247  0.00323  1.0000
  H   H126      1.0  0.10934  0.50911  0.58514  1.0000
  Mg  Mg27      1.0  0.12977  0.44346  0.12998  1.0000
  C   C253      1.0  0.49524  0.38275  0.64186  1.0000
  C   C254      1.0  0.47108  0.38535  0.75289  1.0000
  C  Sn55      1.0  0.43954  0.35710  0.88946  1.0000
  C  Sn56      1.0  0.43212  0.32571  0.91506  1.0000
  C   C255      1.0  0.45648  0.32338  0.80335  1.0000
  C   C256      1.0  0.48796  0.35180  0.66706  1.0000
  H   H127      1.0  0.51961  0.40474  0.53647  1.0000
  O  Te55      1.0  0.41568  0.36014  0.99913  1.0000
  O  Te56      1.0  0.48055  0.36823  0.05058  1.0000
  H   H128      1.0  0.50667  0.34978  0.58120  1.0000
  Mg  Mg28      1.0  0.45635  0.38508  0.16542  1.0000
  C   C257      1.0  0.64452  0.13249  0.69344  1.0000
  C   C258      1.0  0.66657  0.13302  0.76357  1.0000
  C  Sn57      1.0  0.66288  0.10406  0.84572  1.0000
  C  Sn58      1.0  0.63660  0.07405  0.85764  1.0000
  C   C259      1.0  0.61468  0.07378  0.78695  1.0000
  C   C260      1.0  0.61860  0.10290  0.70508  1.0000
  H   H129      1.0  0.64756  0.15502  0.63000  1.0000
  O  Te57      1.0  0.68513  0.10503  0.91514  1.0000
  O  Te58      1.0  0.63235  0.04475  0.93899  1.0000
  H   H130      1.0  0.60153  0.10249  0.65069  1.0000
  Mg  Mg29      1.0  0.74879  0.12979  0.01357  1.0000
  C   C261      1.0  0.88903  0.50751  0.76574  1.0000
  C   C262      1.0  0.91925  0.53059  0.76190  1.0000
  C  Sn59      1.0  0.92547  0.55953  0.77573  1.0000
  C  Sn60      1.0  0.90092  0.56539  0.79378  1.0000
  C   C263      1.0  0.87076  0.54214  0.79762  1.0000
  C   C264      1.0  0.86480  0.51327  0.78361  1.0000
  H   H131      1.0  0.88441  0.48516  0.75501  1.0000
  O  Te59      1.0  0.95580  0.58233  0.77159  1.0000
  O  Te60      1.0  0.90648  0.59411  0.80794  1.0000
  H   H132      1.0  0.84139  0.49539  0.78671  1.0000
  Mg  Mg30      1.0  0.95172  0.61776  0.79546  1.0000
  C   C265      1.0  0.77817  0.56014  0.79798  1.0000
  C   C266      1.0  0.75067  0.54048  0.76812  1.0000
  C  Sn61      1.0  0.74600  0.51359  0.73025  1.0000
  C  Sn62      1.0  0.76933  0.50630  0.72226  1.0000
  C   C267      1.0  0.79675  0.52611  0.75246  1.0000
  C   C268      1.0  0.80119  0.55296  0.79020  1.0000
  H   H133      1.0  0.78160  0.58091  0.82728  1.0000
  O  Te61      1.0  0.71839  0.49422  0.70069  1.0000
  O  Te62      1.0  0.76526  0.47957  0.68474  1.0000
  H   H134      1.0  0.82247  0.56816  0.81343  1.0000
  Mg  Mg31      1.0  0.72367  0.46046  0.65420  1.0000
  C   C269      1.0  0.44076  0.21720  0.73472  1.0000
  C   C270      1.0  0.46350  0.20977  0.72941  1.0000
  C  Sn63      1.0  0.49214  0.23051  0.74732  1.0000
  C  Sn64      1.0  0.49805  0.25918  0.77103  1.0000
  C   C271      1.0  0.47513  0.26638  0.77630  1.0000
  C   C272      1.0  0.44656  0.24547  0.75817  1.0000
  H   H135      1.0  0.41864  0.20101  0.72080  1.0000
  O  Te63      1.0  0.51461  0.22273  0.74163  1.0000
  O  Te64      1.0  0.52647  0.28033  0.78935  1.0000
  H   H136      1.0  0.42894  0.25122  0.76242  1.0000
  Mg  Mg32      1.0  0.54972  0.25920  0.77269  1.0000
  C   C273      1.0  0.74511  0.24731  0.75424  1.0000
  C   C274      1.0  0.73744  0.21731  0.75242  1.0000
  C  Sn65      1.0  0.75754  0.20759  0.77543  1.0000
  C  Sn66      1.0  0.78583  0.22836  0.80075  1.0000
  C   C275      1.0  0.79328  0.25832  0.80250  1.0000
  C   C276      1.0  0.77300  0.26780  0.77928  1.0000
  H   H137      1.0  0.72941  0.25465  0.73639  1.0000
  O  Te65      1.0  0.74952  0.17754  0.77318  1.0000
  O  Te66      1.0  0.80633  0.21925  0.82414  1.0000
  H   H138      1.0  0.77893  0.29103  0.78082  1.0000
  Mg  Mg33      1.0  0.78510  0.17594  0.81073  1.0000
  C   C277      1.0  0.24378  0.49958  0.81845  1.0000
  C   C278      1.0  0.21596  0.47976  0.79144  1.0000
  C  Sn67      1.0  0.21068  0.45237  0.75804  1.0000
  C  Sn68      1.0  0.23373  0.44474  0.75171  1.0000
  C   C279      1.0  0.26147  0.46471  0.77904  1.0000
  C   C280      1.0  0.26651  0.49206  0.81230  1.0000
  H   H139      1.0  0.24767  0.52074  0.84429  1.0000
  O  Te67      1.0  0.18276  0.43284  0.73128  1.0000
  O  Te68      1.0  0.22906  0.41750  0.71865  1.0000
  H   H140      1.0  0.28804  0.50739  0.83334  1.0000
  Mg  Mg34      1.0  0.18723  0.39836  0.69061  1.0000
  C   C281      1.0  0.50251  0.75993  0.72504  1.0000
  C   C282      1.0  0.52310  0.78350  0.77740  1.0000
  C  Sn69      1.0  0.54826  0.78330  0.80914  1.0000
  C  Sn70      1.0  0.55285  0.75901  0.78791  1.0000
  C   C283      1.0  0.53214  0.73555  0.73536  1.0000
  C   C284      1.0  0.50703  0.73597  0.70401  1.0000
  H   H141      1.0  0.48309  0.76026  0.70068  1.0000
  O  Te69      1.0  0.56860  0.80702  0.86143  1.0000
  O  Te70      1.0  0.57782  0.75825  0.81869  1.0000
  H   H142      1.0  0.49111  0.71773  0.66335  1.0000
  Mg  Mg35      1.0  0.59918  0.79580  0.88774  1.0000
  C   C285      1.0  0.23814  0.78995  0.74462  1.0000
  C   C286      1.0  0.26338  0.78985  0.77606  1.0000
  C  Sn71      1.0  0.26433  0.76292  0.79115  1.0000
  C  Sn72      1.0  0.23954  0.73561  0.77435  1.0000
  C   C287      1.0  0.21440  0.73596  0.74277  1.0000
  C   C288      1.0  0.21367  0.76303  0.72795  1.0000
  H   H143      1.0  0.23758  0.81091  0.73305  1.0000
  O  Te71      1.0  0.28972  0.76322  0.82264  1.0000
  O  Te72      1.0  0.23991  0.70837  0.78879  1.0000
  H   H144      1.0  0.19414  0.76311  0.70349  1.0000
  Mg  Mg36      1.0  0.27958  0.72035  0.83210  1.0000
