data_image0
_chemical_formula_structural       H192C336N24C2Sn2C2HTe2HMgC2Sn2C2HTe2HMgC2Sn2C2HTe2HMgC2Sn2C2HTe2HMgC2Sn2C2HTe2HMgC2Sn2C2HTe2HMgC2Sn2C2HTe2HMgC2Sn2C2HTe2HMgC2Sn2C2HTe2HMgC2Sn2C2HTe2HMgC2Sn2C2HTe2HMgC2Sn2C2HTe2HMg
_chemical_formula_sum              "H216 C384 N24 Sn24 Te24 Mg12"
_cell_length_a       55.6524
_cell_length_b       55.6279
_cell_length_c       8.07095
_cell_angle_alpha    75.6632
_cell_angle_beta     120.793
_cell_angle_gamma    119.959

_symmetry_space_group_name_H-M    'P1'
_space_group_IT_number       1

loop_
  _space_group_symop_operation_xyz
  'x, y, z'

loop_
  _atom_site_type_symbol
  _atom_site_label
  _atom_site_symmetry_multiplicity
  _atom_site_fract_x
  _atom_site_fract_y
  _atom_site_fract_z
  _atom_site_occupancy
  H   H1        1.0  0.44809  0.51810  0.29581  1.0000
  H   H2        1.0  0.48103  0.93064  0.26368  1.0000
  H   H3        1.0  0.06933  0.55078  0.27651  1.0000
  H   H4        1.0  0.54835  0.48214  0.24483  1.0000
  H   H5        1.0  0.51678  0.07026  0.28546  1.0000
  H   H6        1.0  0.92882  0.44700  0.27593  1.0000
  H   H7        1.0  0.40592  0.42920  0.31163  1.0000
  H   H8        1.0  0.57188  0.97665  0.28754  1.0000
  H   H9        1.0  0.02517  0.59470  0.28536  1.0000
  H   H10       1.0  0.59310  0.57094  0.24987  1.0000
  H   H11       1.0  0.42580  0.02441  0.25342  1.0000
  H   H12       1.0  0.97140  0.40233  0.24856  1.0000
  H   H13       1.0  0.43081  0.40466  0.31106  1.0000
  H   H14       1.0  0.59610  0.02629  0.28544  1.0000
  H   H15       1.0  0.97539  0.56963  0.29133  1.0000
  H   H16       1.0  0.56904  0.59637  0.26175  1.0000
  H   H17       1.0  0.40198  0.97421  0.26157  1.0000
  H   H18       1.0  0.02055  0.42661  0.24655  1.0000
  H   H19       1.0  0.51815  0.44870  0.28723  1.0000
  H   H20       1.0  0.55014  0.07053  0.26400  1.0000
  H   H21       1.0  0.93235  0.48085  0.31830  1.0000
  H   H22       1.0  0.48244  0.55329  0.28798  1.0000
  H   H23       1.0  0.45094  0.93041  0.31495  1.0000
  H   H24       1.0  0.06855  0.51545  0.27266  1.0000
  H   H25       1.0  0.61736  0.56655  0.13607  1.0000
  H   H26       1.0  0.56849  0.94231  0.23875  1.0000
  H   H27       1.0  0.66164  0.56538  0.14844  1.0000
  H   H28       1.0  0.56905  0.89906  0.23507  1.0000
  H   H29       1.0  0.63696  0.48404  0.39419  1.0000
  H   H30       1.0  0.48350  0.85299  0.28008  1.0000
  H   H31       1.0  0.59210  0.48504  0.38258  1.0000
  H   H32       1.0  0.48317  0.89668  0.28923  1.0000
  H   H33       1.0  0.51655  0.41519  0.26015  1.0000
  H   H34       1.0  0.89073  0.48325  0.18641  1.0000
  H   H35       1.0  0.51648  0.37186  0.25192  1.0000
  H   H36       1.0  0.84575  0.48332  0.17282  1.0000
  H   H37       1.0  0.43236  0.32610  0.31209  1.0000
  H   H38       1.0  0.90212  0.56779  0.37756  1.0000
  H   H39       1.0  0.43211  0.36980  0.32179  1.0000
  H   H40       1.0  0.94812  0.56729  0.40352  1.0000
  H   H41       1.0  0.70398  0.56400  0.26519  1.0000
  H   H42       1.0  0.42896  0.14167  0.17043  1.0000
  H   H43       1.0  0.84731  0.29225  0.16518  1.0000
  H   H44       1.0  0.28759  0.43306  0.19611  1.0000
  H   H45       1.0  0.55761  0.85992  0.16224  1.0000
  H   H46       1.0  0.13643  0.70273  0.21637  1.0000
  H   H47       1.0  0.49150  0.66810  0.31740  1.0000
  H   H48       1.0  0.33707  0.81924  0.33372  1.0000
  H   H49       1.0  0.18064  0.50765  0.33238  1.0000
  H   H50       1.0  0.51885  0.33335  0.35098  1.0000
  H   H51       1.0  0.66220  0.17801  0.26462  1.0000
  H   H52       1.0  0.82194  0.48587  0.30719  1.0000
  H   H53       1.0  0.74860  0.58383  0.21946  1.0000
  H   H54       1.0  0.40716  0.17022  0.15746  1.0000
  H   H55       1.0  0.82085  0.24321  0.18698  1.0000
  H   H56       1.0  0.23567  0.41156  0.16113  1.0000
  H   H57       1.0  0.58237  0.83217  0.20226  1.0000
  H   H58       1.0  0.16205  0.75143  0.18439  1.0000
  H   H59       1.0  0.79044  0.58069  0.20450  1.0000
  H   H60       1.0  0.41165  0.21626  0.18100  1.0000
  H   H61       1.0  0.77521  0.20043  0.19833  1.0000
  H   H62       1.0  0.19358  0.41331  0.18223  1.0000
  H   H63       1.0  0.58300  0.78670  0.24768  1.0000
  H   H64       1.0  0.20778  0.79468  0.18458  1.0000
  H   H65       1.0  0.70595  0.49579  0.30513  1.0000
  H   H66       1.0  0.50154  0.20864  0.23928  1.0000
  H   H67       1.0  0.78853  0.29396  0.25701  1.0000
  H   H68       1.0  0.29083  0.49960  0.25587  1.0000
  H   H69       1.0  0.49664  0.79367  0.24068  1.0000
  H   H70       1.0  0.20798  0.70277  0.26847  1.0000
  H   H71       1.0  0.73096  0.46741  0.32613  1.0000
  H   H72       1.0  0.53334  0.26010  0.28544  1.0000
  H   H73       1.0  0.73817  0.27152  0.27613  1.0000
  H   H74       1.0  0.27051  0.52695  0.30090  1.0000
  H   H75       1.0  0.47015  0.74216  0.27003  1.0000
  H   H76       1.0  0.26205  0.72659  0.30136  1.0000
  H   H77       1.0  0.77394  0.46474  0.32442  1.0000
  H   H78       1.0  0.53868  0.30558  0.32583  1.0000
  H   H79       1.0  0.69219  0.22871  0.28006  1.0000
  H   H80       1.0  0.22943  0.52883  0.33292  1.0000
  H   H81       1.0  0.46967  0.69658  0.30362  1.0000
  H   H82       1.0  0.30887  0.77014  0.32142  1.0000
  H   H83       1.0  0.81580  0.55257  0.23166  1.0000
  H   H84       1.0  0.44386  0.26744  0.23629  1.0000
  H   H85       1.0  0.72599  0.17844  0.22098  1.0000
  H   H86       1.0  0.17405  0.44058  0.24210  1.0000
  H   H87       1.0  0.55761  0.73544  0.29102  1.0000
  H   H88       1.0  0.26207  0.81859  0.22183  1.0000
  H   H89       1.0  0.44947  0.51720  0.79424  1.0000
  H   H90       1.0  0.48255  0.93165  0.75295  1.0000
  H   H91       1.0  0.07105  0.55379  0.77177  1.0000
  H   H92       1.0  0.55168  0.48448  0.74084  1.0000
  H   H93       1.0  0.52009  0.07142  0.78364  1.0000
  H   H94       1.0  0.93287  0.44649  0.78250  1.0000
  H   H95       1.0  0.40852  0.42833  0.80698  1.0000
  H   H96       1.0  0.57514  0.97665  0.80306  1.0000
  H   H97       1.0  0.02414  0.59510  0.77853  1.0000
  H   H98       1.0  0.59468  0.57338  0.75054  1.0000
  H   H99       1.0  0.42957  0.02622  0.75747  1.0000
  H   H100      1.0  0.97785  0.40500  0.74683  1.0000
  H   H101      1.0  0.43419  0.40473  0.80320  1.0000
  H   H102      1.0  0.59981  0.02638  0.80026  1.0000
  H   H103      1.0  0.97576  0.56897  0.79408  1.0000
  H   H104      1.0  0.56981  0.59755  0.76406  1.0000
  H   H105      1.0  0.40569  0.97635  0.76900  1.0000
  H   H106      1.0  0.02601  0.43056  0.73703  1.0000
  H   H107      1.0  0.52232  0.45042  0.78933  1.0000
  H   H108      1.0  0.55347  0.07154  0.76073  1.0000
  H   H109      1.0  0.93414  0.48019  0.81649  1.0000
  H   H110      1.0  0.48390  0.55263  0.79832  1.0000
  H   H111      1.0  0.45261  0.93144  0.80767  1.0000
  H   H112      1.0  0.07155  0.51963  0.76482  1.0000
  H   H113      1.0  0.61927  0.57050  0.63328  1.0000
  H   H114      1.0  0.42909  0.06751  0.51587  1.0000
  H   H115      1.0  0.57006  0.94178  0.74167  1.0000
  H   H116      1.0  0.66467  0.57112  0.64693  1.0000
  H   H117      1.0  0.42986  0.11281  0.50399  1.0000
  H   H118      1.0  0.56941  0.89792  0.73711  1.0000
  H   H119      1.0  0.64185  0.48940  0.88723  1.0000
  H   H120      1.0  0.52158  0.14188  0.98830  1.0000
  H   H121      1.0  0.48336  0.85347  0.77770  1.0000
  H   H122      1.0  0.59658  0.48896  0.88102  1.0000
  H   H123      1.0  0.52088  0.09631  0.00047  1.0000
  H   H124      1.0  0.48477  0.89772  0.79284  1.0000
  H   H125      1.0  0.41298  0.89665  0.74737  1.0000
  H   H126      1.0  0.09564  0.51637  0.64229  1.0000
  H   H127      1.0  0.52069  0.41655  0.75797  1.0000
  H   H128      1.0  0.57861  0.09742  0.55619  1.0000
  H   H129      1.0  0.89162  0.48216  0.69714  1.0000
  H   H130      1.0  0.36753  0.85369  0.73197  1.0000
  H   H131      1.0  0.14145  0.51645  0.66456  1.0000
  H   H132      1.0  0.52103  0.37321  0.75332  1.0000
  H   H133      1.0  0.62402  0.14024  0.54852  1.0000
  H   H134      1.0  0.84691  0.48338  0.67680  1.0000
  H   H135      1.0  0.33130  0.89906  0.82103  1.0000
  H   H136      1.0  0.11749  0.43498  0.90903  1.0000
  H   H137      1.0  0.43731  0.32737  0.81841  1.0000
  H   H138      1.0  0.68648  0.10845  0.99900  1.0000
  H   H139      1.0  0.90384  0.56850  0.86874  1.0000
  H   H140      1.0  0.37779  0.94262  0.84504  1.0000
  H   H141      1.0  0.07219  0.43528  0.89626  1.0000
  H   H142      1.0  0.43717  0.37102  0.82969  1.0000
  H   H143      1.0  0.64092  0.06561  0.00950  1.0000
  H   H144      1.0  0.94971  0.56681  0.90422  1.0000
  H   H145      1.0  0.70685  0.56993  0.74211  1.0000
  H   H146      1.0  0.43135  0.14228  0.67768  1.0000
  H   H147      1.0  0.85453  0.29178  0.65930  1.0000
  H   H148      1.0  0.28943  0.43372  0.69928  1.0000
  H   H149      1.0  0.55732  0.85890  0.66549  1.0000
  H   H150      1.0  0.13423  0.70569  0.69593  1.0000
  H   H151      1.0  0.48844  0.66656  0.80487  1.0000
  H   H152      1.0  0.33666  0.82140  0.83825  1.0000
  H   H153      1.0  0.18782  0.51527  0.83071  1.0000
  H   H154      1.0  0.52337  0.33451  0.85335  1.0000
  H   H155      1.0  0.66953  0.17883  0.76152  1.0000
  H   H156      1.0  0.82274  0.48776  0.80707  1.0000
  H   H157      1.0  0.75244  0.58909  0.70352  1.0000
  H   H158      1.0  0.41014  0.17156  0.67014  1.0000
  H   H159      1.0  0.82823  0.24190  0.68495  1.0000
  H   H160      1.0  0.23797  0.41394  0.67197  1.0000
  H   H161      1.0  0.58133  0.83067  0.70272  1.0000
  H   H162      1.0  0.16001  0.75463  0.66136  1.0000
  H   H163      1.0  0.79426  0.58500  0.69569  1.0000
  H   H164      1.0  0.41548  0.21769  0.69403  1.0000
  H   H165      1.0  0.78253  0.19935  0.69318  1.0000
  H   H166      1.0  0.19761  0.41800  0.69941  1.0000
  H   H167      1.0  0.58081  0.78469  0.74293  1.0000
  H   H168      1.0  0.20622  0.79790  0.66635  1.0000
  H   H169      1.0  0.70832  0.50139  0.79216  1.0000
  H   H170      1.0  0.50402  0.20875  0.74345  1.0000
  H   H171      1.0  0.79609  0.29269  0.75698  1.0000
  H   H172      1.0  0.29612  0.50174  0.76225  1.0000
  H   H173      1.0  0.49611  0.79331  0.74627  1.0000
  H   H174      1.0  0.20641  0.70582  0.75777  1.0000
  H   H175      1.0  0.73228  0.47210  0.81526  1.0000
  H   H176      1.0  0.53644  0.26013  0.78939  1.0000
  H   H177      1.0  0.74597  0.27064  0.77299  1.0000
  H   H178      1.0  0.27800  0.53101  0.81038  1.0000
  H   H179      1.0  0.46865  0.74165  0.77105  1.0000
  H   H180      1.0  0.26071  0.72944  0.79606  1.0000
  H   H181      1.0  0.77471  0.46812  0.81489  1.0000
  H   H182      1.0  0.54261  0.30605  0.82855  1.0000
  H   H183      1.0  0.69996  0.22813  0.77767  1.0000
  H   H184      1.0  0.23771  0.53521  0.83731  1.0000
  H   H185      1.0  0.46699  0.69552  0.79671  1.0000
  H   H186      1.0  0.30799  0.77269  0.82204  1.0000
  H   H187      1.0  0.81873  0.55582  0.72531  1.0000
  H   H188      1.0  0.44837  0.26898  0.74762  1.0000
  H   H189      1.0  0.73311  0.17708  0.72028  1.0000
  H   H190      1.0  0.17942  0.44733  0.74753  1.0000
  H   H191      1.0  0.55441  0.73346  0.77946  1.0000
  H   H192      1.0  0.26136  0.82172  0.71535  1.0000
  C   C1        1.0  0.47329  0.99995  0.27493  1.0000
  C   C2        1.0  0.99818  0.47267  0.27037  1.0000
  C   C3        1.0  0.52417  0.52602  0.26970  1.0000
  C   C4        1.0  0.52572  0.00059  0.28650  1.0000
  C   C5        1.0  0.99997  0.52422  0.28759  1.0000
  C   C6        1.0  0.47464  0.47481  0.29220  1.0000
  C   C7        1.0  0.47403  0.50021  0.29135  1.0000
  C   C8        1.0  0.50040  0.97457  0.28475  1.0000
  C   C9        1.0  0.02532  0.52448  0.28185  1.0000
  C   C10       1.0  0.52452  0.50058  0.26864  1.0000
  C   C11       1.0  0.49870  0.02596  0.27768  1.0000
  C   C12       1.0  0.97308  0.47236  0.27901  1.0000
  C   C13       1.0  0.49946  0.52659  0.27857  1.0000
  C   C14       1.0  0.47383  0.97426  0.28401  1.0000
  C   C15       1.0  0.02440  0.49792  0.27259  1.0000
  C   C16       1.0  0.49936  0.47431  0.28381  1.0000
  C   C17       1.0  0.52541  0.02628  0.28069  1.0000
  C   C18       1.0  0.97433  0.49889  0.29185  1.0000
  C   C19       1.0  0.44894  0.49893  0.29817  1.0000
  C   C20       1.0  0.50111  0.95031  0.27574  1.0000
  C   C21       1.0  0.05002  0.55000  0.28396  1.0000
  C   C22       1.0  0.54882  0.50145  0.25498  1.0000
  C   C23       1.0  0.49733  0.05024  0.27826  1.0000
  C   C24       1.0  0.94800  0.44693  0.27250  1.0000
  C   C25       1.0  0.42342  0.47361  0.29874  1.0000
  C   C26       1.0  0.52643  0.95001  0.27607  1.0000
  C   C27       1.0  0.05028  0.57559  0.28360  1.0000
  C   C28       1.0  0.57429  0.52648  0.25127  1.0000
  C   C29       1.0  0.47102  0.05022  0.26473  1.0000
  C   C30       1.0  0.94656  0.42101  0.26471  1.0000
  C   C31       1.0  0.42459  0.44903  0.30483  1.0000
  C   C32       1.0  0.55167  0.97546  0.28615  1.0000
  C   C33       1.0  0.02522  0.57525  0.28378  1.0000
  C   C34       1.0  0.57386  0.55122  0.25149  1.0000
  C   C35       1.0  0.44587  0.02492  0.25701  1.0000
  C   C36       1.0  0.97123  0.42148  0.25700  1.0000
  C   C37       1.0  0.44982  0.44899  0.30242  1.0000
  C   C38       1.0  0.55170  0.00078  0.28893  1.0000
  C   C39       1.0  0.00020  0.55000  0.29047  1.0000
  C   C40       1.0  0.54937  0.55163  0.26097  1.0000
  C   C41       1.0  0.44676  0.99954  0.26680  1.0000
  C   C42       1.0  0.99699  0.44673  0.25927  1.0000
  C   C43       1.0  0.45024  0.42371  0.30406  1.0000
  C   C44       1.0  0.57683  0.02637  0.28846  1.0000
  C   C45       1.0  0.97519  0.54982  0.29668  1.0000
  C   C46       1.0  0.54988  0.57702  0.26811  1.0000
  C   C47       1.0  0.42195  0.97383  0.27044  1.0000
  C   C48       1.0  0.02210  0.44653  0.25655  1.0000
  C   C49       1.0  0.47443  0.42305  0.29757  1.0000
  C   C50       1.0  0.57621  0.05128  0.27922  1.0000
  C   C51       1.0  0.95039  0.52524  0.30307  1.0000
  C   C52       1.0  0.52587  0.57766  0.27580  1.0000
  C   C53       1.0  0.42305  0.94879  0.28802  1.0000
  C   C54       1.0  0.04814  0.47093  0.26507  1.0000
  C   C55       1.0  0.49897  0.44886  0.29059  1.0000
  C   C56       1.0  0.55020  0.05078  0.27286  1.0000
  C   C57       1.0  0.95093  0.50003  0.30451  1.0000
  C   C58       1.0  0.50058  0.55224  0.27726  1.0000
  C   C59       1.0  0.44948  0.94972  0.29597  1.0000
  C   C60       1.0  0.04831  0.49639  0.26815  1.0000
  C   C61       1.0  0.47461  0.39661  0.29483  1.0000
  C   C62       1.0  0.92353  0.52512  0.29982  1.0000
  C   C63       1.0  0.52576  0.92352  0.26435  1.0000
  C   C64       1.0  0.60091  0.52584  0.25714  1.0000
  C   C65       1.0  0.62184  0.54860  0.19795  1.0000
  C   C66       1.0  0.54973  0.92299  0.25003  1.0000
  C   C67       1.0  0.64721  0.54812  0.20689  1.0000
  C   C68       1.0  0.54997  0.89830  0.24583  1.0000
  C   C69       1.0  0.65297  0.52465  0.27737  1.0000
  C   C70       1.0  0.52577  0.87250  0.25410  1.0000
  C   C71       1.0  0.63228  0.50196  0.33770  1.0000
  C   C72       1.0  0.50183  0.87277  0.26896  1.0000
  C   C73       1.0  0.60694  0.50257  0.32828  1.0000
  C   C74       1.0  0.50182  0.89761  0.27316  1.0000
  C   C75       1.0  0.49831  0.39601  0.27783  1.0000
  C   C76       1.0  0.89403  0.50162  0.23644  1.0000
  C   C77       1.0  0.49850  0.37124  0.27434  1.0000
  C   C78       1.0  0.86832  0.50166  0.22645  1.0000
  C   C79       1.0  0.47479  0.34554  0.28840  1.0000
  C   C80       1.0  0.87086  0.52562  0.27716  1.0000
  C   C81       1.0  0.45081  0.34590  0.30257  1.0000
  C   C82       1.0  0.90007  0.54930  0.33720  1.0000
  C   C83       1.0  0.45088  0.37072  0.30704  1.0000
  C   C84       1.0  0.92576  0.54886  0.35076  1.0000
  C   C85       1.0  0.70048  0.54257  0.27033  1.0000
  C   C86       1.0  0.45200  0.15939  0.19949  1.0000
  C   C87       1.0  0.83420  0.29588  0.21427  1.0000
  C   C88       1.0  0.29126  0.45404  0.20711  1.0000
  C   C89       1.0  0.54086  0.84290  0.20894  1.0000
  C   C90       1.0  0.15560  0.69944  0.23551  1.0000
  C   C91       1.0  0.72446  0.53967  0.26246  1.0000
  C   C92       1.0  0.45456  0.18682  0.19975  1.0000
  C   C93       1.0  0.80732  0.27132  0.22239  1.0000
  C   C94       1.0  0.26613  0.45577  0.20904  1.0000
  C   C95       1.0  0.53935  0.81562  0.22137  1.0000
  C   C96       1.0  0.18239  0.72425  0.22761  1.0000
  C   C97       1.0  0.51247  0.68591  0.31387  1.0000
  C   C98       1.0  0.31659  0.82235  0.29163  1.0000
  C   C99       1.0  0.17556  0.48660  0.30919  1.0000
  C   C100      1.0  0.49507  0.31617  0.30583  1.0000
  C   C101      1.0  0.68038  0.17565  0.26091  1.0000
  C   C102      1.0  0.82320  0.50673  0.28282  1.0000
  C   C103      1.0  0.74881  0.56387  0.23517  1.0000
  C   C104      1.0  0.42880  0.18905  0.18026  1.0000
  C   C105      1.0  0.80358  0.24458  0.20611  1.0000
  C   C106      1.0  0.23828  0.43119  0.18788  1.0000
  C   C107      1.0  0.56375  0.81346  0.22098  1.0000
  C   C108      1.0  0.18233  0.75054  0.20163  1.0000
  C   C109      1.0  0.77220  0.56226  0.22901  1.0000
  C   C110      1.0  0.43117  0.21446  0.19341  1.0000
  C   C111      1.0  0.77840  0.22093  0.21153  1.0000
  C   C112      1.0  0.21485  0.43209  0.19877  1.0000
  C   C113      1.0  0.56412  0.78821  0.24589  1.0000
  C   C114      1.0  0.20770  0.77462  0.20190  1.0000
  C   C115      1.0  0.77292  0.53635  0.25254  1.0000
  C   C116      1.0  0.45956  0.23913  0.22638  1.0000
  C   C117      1.0  0.75525  0.22270  0.23001  1.0000
  C   C118      1.0  0.21809  0.45761  0.23425  1.0000
  C   C119      1.0  0.53946  0.76349  0.26569  1.0000
  C   C120      1.0  0.23472  0.77391  0.22945  1.0000
  C   C121      1.0  0.74831  0.51174  0.27870  1.0000
  C   C122      1.0  0.48546  0.23705  0.24168  1.0000
  C   C123      1.0  0.75876  0.24958  0.24616  1.0000
  C   C124      1.0  0.24601  0.48260  0.25297  1.0000
  C   C125      1.0  0.51419  0.76541  0.25945  1.0000
  C   C126      1.0  0.23473  0.74734  0.25280  1.0000
  C   C127      1.0  0.72445  0.51407  0.28220  1.0000
  C   C128      1.0  0.48219  0.21076  0.22628  1.0000
  C   C129      1.0  0.78511  0.27339  0.24328  1.0000
  C   C130      1.0  0.26936  0.48101  0.23904  1.0000
  C   C131      1.0  0.51510  0.79170  0.24050  1.0000
  C   C132      1.0  0.20830  0.72301  0.25031  1.0000
  C   C133      1.0  0.74932  0.48593  0.30333  1.0000
  C   C134      1.0  0.51391  0.26166  0.27599  1.0000
  C   C135      1.0  0.73529  0.25114  0.26243  1.0000
  C   C136      1.0  0.24940  0.50819  0.28790  1.0000
  C   C137      1.0  0.48913  0.74063  0.27356  1.0000
  C   C138      1.0  0.26195  0.74661  0.28353  1.0000
  C   C139      1.0  0.77337  0.48458  0.30335  1.0000
  C   C140      1.0  0.51676  0.28689  0.29776  1.0000
  C   C141      1.0  0.70976  0.22743  0.26380  1.0000
  C   C142      1.0  0.22656  0.50915  0.30482  1.0000
  C   C143      1.0  0.48897  0.71530  0.29227  1.0000
  C   C144      1.0  0.28796  0.77083  0.29508  1.0000
  C   C145      1.0  0.79773  0.50886  0.27713  1.0000
  C   C146      1.0  0.49125  0.28911  0.28282  1.0000
  C   C147      1.0  0.70660  0.20088  0.25120  1.0000
  C   C148      1.0  0.19903  0.48452  0.28938  1.0000
  C   C149      1.0  0.51392  0.71321  0.29932  1.0000
  C   C150      1.0  0.28818  0.79718  0.27306  1.0000
  C   C151      1.0  0.79709  0.53423  0.25209  1.0000
  C   C152      1.0  0.46306  0.26536  0.24634  1.0000
  C   C153      1.0  0.72911  0.19892  0.23344  1.0000
  C   C154      1.0  0.19516  0.45925  0.25360  1.0000
  C   C155      1.0  0.53875  0.73725  0.28687  1.0000
  C   C156      1.0  0.26153  0.79831  0.23833  1.0000
  C   C157      1.0  0.47607  0.00120  0.77260  1.0000
  C   C158      1.0  0.00198  0.47465  0.76865  1.0000
  C   C159      1.0  0.52616  0.52698  0.76969  1.0000
  C   C160      1.0  0.52845  0.00142  0.78615  1.0000
  C   C161      1.0  0.00177  0.52507  0.78797  1.0000
  C   C162      1.0  0.47728  0.47508  0.79011  1.0000
  C   C163      1.0  0.47609  0.50010  0.79056  1.0000
  C   C164      1.0  0.50263  0.97555  0.78066  1.0000
  C   C165      1.0  0.02747  0.52638  0.78027  1.0000
  C   C166      1.0  0.52714  0.50192  0.76690  1.0000
  C   C167      1.0  0.50160  0.02711  0.77462  1.0000
  C   C168      1.0  0.97651  0.47329  0.77979  1.0000
  C   C169      1.0  0.50132  0.52686  0.78096  1.0000
  C   C170      1.0  0.47610  0.97533  0.77973  1.0000
  C   C171      1.0  0.02756  0.50042  0.76941  1.0000
  C   C172      1.0  0.50239  0.47525  0.78225  1.0000
  C   C173      1.0  0.52830  0.02725  0.77819  1.0000
  C   C174      1.0  0.97656  0.49928  0.79243  1.0000
  C   C175      1.0  0.45069  0.49825  0.79624  1.0000
  C   C176      1.0  0.50306  0.95119  0.77133  1.0000
  C   C177      1.0  0.05148  0.55233  0.78003  1.0000
  C   C178      1.0  0.55169  0.50352  0.75208  1.0000
  C   C179      1.0  0.50060  0.05153  0.77734  1.0000
  C   C180      1.0  0.95225  0.44735  0.77570  1.0000
  C   C181      1.0  0.42533  0.47268  0.79588  1.0000
  C   C182      1.0  0.52866  0.95057  0.77843  1.0000
  C   C183      1.0  0.05070  0.57746  0.77776  1.0000
  C   C184      1.0  0.57676  0.52899  0.74803  1.0000
  C   C185      1.0  0.47453  0.05171  0.76604  1.0000
  C   C186      1.0  0.95180  0.42201  0.76545  1.0000
  C   C187      1.0  0.42693  0.44841  0.80035  1.0000
  C   C188      1.0  0.55458  0.97579  0.79491  1.0000
  C   C189      1.0  0.02529  0.57613  0.77945  1.0000
  C   C190      1.0  0.57574  0.55331  0.75075  1.0000
  C   C191      1.0  0.44942  0.02650  0.75967  1.0000
  C   C192      1.0  0.97679  0.42360  0.75564  1.0000
  C   C193      1.0  0.45256  0.44901  0.79852  1.0000
  C   C194      1.0  0.55475  0.00130  0.79478  1.0000
  C   C195      1.0  0.00109  0.55039  0.78995  1.0000
  C   C196      1.0  0.55099  0.55293  0.76160  1.0000
  C   C197      1.0  0.44990  0.00101  0.76763  1.0000
  C   C198      1.0  0.00185  0.44935  0.75624  1.0000
  C   C199      1.0  0.45359  0.42409  0.79942  1.0000
  C   C200      1.0  0.58029  0.02681  0.79777  1.0000
  C   C201      1.0  0.97586  0.54938  0.79787  1.0000
  C   C202      1.0  0.55096  0.57794  0.77082  1.0000
  C   C203      1.0  0.42506  0.97546  0.77323  1.0000
  C   C204      1.0  0.02714  0.45020  0.74915  1.0000
  C   C205      1.0  0.47834  0.42407  0.79591  1.0000
  C   C206      1.0  0.57976  0.05193  0.78447  1.0000
  C   C207      1.0  0.95145  0.52448  0.80492  1.0000
  C   C208      1.0  0.52684  0.57789  0.78131  1.0000
  C   C209      1.0  0.42550  0.95017  0.78825  1.0000
  C   C210      1.0  0.05257  0.47518  0.75551  1.0000
  C   C211      1.0  0.50274  0.45011  0.79035  1.0000
  C   C212      1.0  0.55333  0.05164  0.77117  1.0000
  C   C213      1.0  0.95264  0.49964  0.80453  1.0000
  C   C214      1.0  0.50204  0.55216  0.78391  1.0000
  C   C215      1.0  0.45153  0.95086  0.79138  1.0000
  C   C216      1.0  0.05183  0.50007  0.76157  1.0000
  C   C217      1.0  0.39943  0.92363  0.79622  1.0000
  C   C218      1.0  0.08002  0.47566  0.76513  1.0000
  C   C219      1.0  0.47898  0.39782  0.79492  1.0000
  C   C220      1.0  0.60640  0.07829  0.78337  1.0000
  C   C221      1.0  0.92468  0.52441  0.80275  1.0000
  C   C222      1.0  0.52730  0.92379  0.76595  1.0000
  C   C223      1.0  0.60375  0.52939  0.75186  1.0000
  C   C224      1.0  0.47457  0.07839  0.76245  1.0000
  C   C225      1.0  0.62429  0.55277  0.69305  1.0000
  C   C226      1.0  0.44891  0.08342  0.62406  1.0000
  C   C227      1.0  0.55094  0.92265  0.75154  1.0000
  C   C228      1.0  0.65014  0.55326  0.70164  1.0000
  C   C229      1.0  0.44929  0.10884  0.61750  1.0000
  C   C230      1.0  0.55047  0.89762  0.74686  1.0000
  C   C231      1.0  0.65662  0.53012  0.76936  1.0000
  C   C232      1.0  0.47545  0.13014  0.75013  1.0000
  C   C233      1.0  0.52578  0.87209  0.75350  1.0000
  C   C234      1.0  0.63643  0.50694  0.83091  1.0000
  C   C235      1.0  0.50141  0.12534  0.88642  1.0000
  C   C236      1.0  0.50212  0.87300  0.76777  1.0000
  C   C237      1.0  0.61080  0.50668  0.82353  1.0000
  C   C238      1.0  0.50085  0.09991  0.89250  1.0000
  C   C239      1.0  0.50300  0.89817  0.77451  1.0000
  C   C240      1.0  0.39590  0.89764  0.77069  1.0000
  C   C241      1.0  0.10073  0.49876  0.70663  1.0000
  C   C242      1.0  0.50266  0.39731  0.77721  1.0000
  C   C243      1.0  0.60223  0.09995  0.65703  1.0000
  C   C244      1.0  0.89513  0.50104  0.74219  1.0000
  C   C245      1.0  0.36994  0.87299  0.76193  1.0000
  C   C246      1.0  0.12680  0.49893  0.72002  1.0000
  C   C247      1.0  0.50305  0.37257  0.77567  1.0000
  C   C248      1.0  0.62771  0.12424  0.65373  1.0000
  C   C249      1.0  0.86949  0.50170  0.72895  1.0000
  C   C250      1.0  0.34580  0.87306  0.77631  1.0000
  C   C251      1.0  0.13308  0.47576  0.79189  1.0000
  C   C252      1.0  0.47941  0.34690  0.79082  1.0000
  C   C253      1.0  0.65845  0.12753  0.77760  1.0000
  C   C254      1.0  0.87214  0.52617  0.77335  1.0000
  C   C255      1.0  0.34943  0.89888  0.80485  1.0000
  C   C256      1.0  0.11246  0.45269  0.85087  1.0000
  C   C257      1.0  0.45552  0.34717  0.80644  1.0000
  C   C258      1.0  0.66272  0.10580  0.90316  1.0000
  C   C259      1.0  0.90159  0.54961  0.83287  1.0000
  C   C260      1.0  0.37566  0.92333  0.81717  1.0000
  C   C261      1.0  0.08679  0.45279  0.84008  1.0000
  C   C262      1.0  0.45562  0.37196  0.81121  1.0000
  C   C263      1.0  0.63724  0.08189  0.90743  1.0000
  C   C264      1.0  0.92718  0.54855  0.85049  1.0000
  C   C265      1.0  0.70385  0.54851  0.75521  1.0000
  C   C266      1.0  0.45442  0.15993  0.70792  1.0000
  C   C267      1.0  0.84175  0.29482  0.71439  1.0000
  C   C268      1.0  0.29393  0.45510  0.70873  1.0000
  C   C269      1.0  0.54028  0.84194  0.71057  1.0000
  C   C270      1.0  0.15376  0.70252  0.71911  1.0000
  C   C271      1.0  0.72790  0.54526  0.75058  1.0000
  C   C272      1.0  0.45721  0.18746  0.70780  1.0000
  C   C273      1.0  0.81504  0.27006  0.72264  1.0000
  C   C274      1.0  0.26974  0.45795  0.71477  1.0000
  C   C275      1.0  0.53848  0.81455  0.72335  1.0000
  C   C276      1.0  0.18064  0.72738  0.71200  1.0000
  C   C277      1.0  0.50947  0.68452  0.80425  1.0000
  C   C278      1.0  0.31632  0.82508  0.79137  1.0000
  C   C279      1.0  0.18251  0.49420  0.80777  1.0000
  C   C280      1.0  0.49958  0.31736  0.81002  1.0000
  C   C281      1.0  0.68728  0.17528  0.76131  1.0000
  C   C282      1.0  0.82453  0.50884  0.77786  1.0000
  C   C283      1.0  0.75247  0.56901  0.72309  1.0000
  C   C284      1.0  0.43186  0.19013  0.69103  1.0000
  C   C285      1.0  0.81105  0.24334  0.70442  1.0000
  C   C286      1.0  0.24161  0.43405  0.69802  1.0000
  C   C287      1.0  0.56252  0.81207  0.72077  1.0000
  C   C288      1.0  0.18057  0.75373  0.68275  1.0000
  C   C289      1.0  0.77580  0.56686  0.71979  1.0000
  C   C290      1.0  0.43473  0.21573  0.70429  1.0000
  C   C291      1.0  0.78564  0.21974  0.70836  1.0000
  C   C292      1.0  0.21913  0.43618  0.71227  1.0000
  C   C293      1.0  0.56230  0.78664  0.74265  1.0000
  C   C294      1.0  0.20624  0.77779  0.68628  1.0000
  C   C295      1.0  0.77588  0.54065  0.74398  1.0000
  C   C296      1.0  0.46313  0.24017  0.73452  1.0000
  C   C297      1.0  0.76257  0.22147  0.72795  1.0000
  C   C298      1.0  0.22354  0.46235  0.74557  1.0000
  C   C299      1.0  0.53741  0.76211  0.76173  1.0000
  C   C300      1.0  0.23359  0.77701  0.71973  1.0000
  C   C301      1.0  0.75084  0.51646  0.76915  1.0000
  C   C302      1.0  0.48863  0.23767  0.74740  1.0000
  C   C303      1.0  0.76634  0.24846  0.74467  1.0000
  C   C304      1.0  0.25194  0.48662  0.76312  1.0000
  C   C305      1.0  0.51261  0.76439  0.75927  1.0000
  C   C306      1.0  0.23342  0.75034  0.74395  1.0000
  C   C307      1.0  0.72726  0.51938  0.77116  1.0000
  C   C308      1.0  0.48491  0.21117  0.73208  1.0000
  C   C309      1.0  0.79281  0.27218  0.74311  1.0000
  C   C310      1.0  0.27433  0.48372  0.74651  1.0000
  C   C311      1.0  0.51409  0.79086  0.74322  1.0000
  C   C312      1.0  0.20678  0.72606  0.73878  1.0000
  C   C313      1.0  0.75098  0.49030  0.79353  1.0000
  C   C314      1.0  0.51723  0.26206  0.78040  1.0000
  C   C315      1.0  0.74290  0.25020  0.75985  1.0000
  C   C316      1.0  0.25652  0.51280  0.79741  1.0000
  C   C317      1.0  0.48730  0.73978  0.77264  1.0000
  C   C318      1.0  0.26079  0.74953  0.77816  1.0000
  C   C319      1.0  0.77459  0.48816  0.79399  1.0000
  C   C320      1.0  0.52058  0.28752  0.80198  1.0000
  C   C321      1.0  0.71739  0.22659  0.76150  1.0000
  C   C322      1.0  0.23406  0.51510  0.81131  1.0000
  C   C323      1.0  0.48653  0.71423  0.78769  1.0000
  C   C324      1.0  0.28705  0.77363  0.79279  1.0000
  C   C325      1.0  0.79946  0.51199  0.76948  1.0000
  C   C326      1.0  0.49543  0.29014  0.78822  1.0000
  C   C327      1.0  0.71393  0.19983  0.74987  1.0000
  C   C328      1.0  0.20590  0.49117  0.79371  1.0000
  C   C329      1.0  0.51114  0.71188  0.79220  1.0000
  C   C330      1.0  0.28754  0.80013  0.77045  1.0000
  C   C331      1.0  0.79965  0.53776  0.74395  1.0000
  C   C332      1.0  0.46717  0.26659  0.75456  1.0000
  C   C333      1.0  0.73634  0.19766  0.73216  1.0000
  C   C334      1.0  0.20117  0.46534  0.76181  1.0000
  C   C335      1.0  0.53604  0.73567  0.77908  1.0000
  C   C336      1.0  0.26074  0.80139  0.73223  1.0000
  N   N1        1.0  0.67668  0.52139  0.28289  1.0000
  N   N2        1.0  0.47574  0.15594  0.24118  1.0000
  N   N3        1.0  0.84155  0.32017  0.26097  1.0000
  N   N4        1.0  0.31689  0.47598  0.22598  1.0000
  N   N5        1.0  0.52353  0.84632  0.25433  1.0000
  N   N6        1.0  0.15480  0.67510  0.26982  1.0000
  N   N7        1.0  0.53443  0.68272  0.32104  1.0000
  N   N8        1.0  0.31767  0.84671  0.26355  1.0000
  N   N9        1.0  0.15035  0.46516  0.30149  1.0000
  N   N10       1.0  0.47169  0.31946  0.27587  1.0000
  N   N11       1.0  0.67921  0.15164  0.27030  1.0000
  N   N12       1.0  0.84656  0.52830  0.26774  1.0000
  N   N13       1.0  0.68061  0.52744  0.77382  1.0000
  N   N14       1.0  0.47826  0.15649  0.75050  1.0000
  N   N15       1.0  0.84912  0.31880  0.76582  1.0000
  N   N16       1.0  0.31960  0.47650  0.72354  1.0000
  N   N17       1.0  0.52297  0.84566  0.75371  1.0000
  N   N18       1.0  0.15331  0.67839  0.75728  1.0000
  N   N19       1.0  0.53197  0.68169  0.81519  1.0000
  N   N20       1.0  0.31805  0.84969  0.76017  1.0000
  N   N21       1.0  0.15678  0.47287  0.79504  1.0000
  N   N22       1.0  0.47637  0.32082  0.78030  1.0000
  N   N23       1.0  0.68507  0.15067  0.77694  1.0000
  N   N24       1.0  0.84806  0.52968  0.76014  1.0000
  C   C337      1.0  0.35911  0.44654  0.67871  1.0000
  C   C338      1.0  0.39005  0.46720  0.75116  1.0000
  C  Sn1       1.0  0.39850  0.49172  0.82849  1.0000
  C  Sn2       1.0  0.37550  0.49557  0.83324  1.0000
  C   C339      1.0  0.34462  0.47477  0.76053  1.0000
  C   C340      1.0  0.33641  0.45031  0.68341  1.0000
  H   H193      1.0  0.35276  0.42761  0.61914  1.0000
  O  Te1       1.0  0.42951  0.51215  0.90019  1.0000
  O  Te2       1.0  0.38331  0.51987  0.90979  1.0000
  H   H194      1.0  0.31246  0.43431  0.62744  1.0000
  Mg  Mg1       1.0  0.42867  0.54167  0.98995  1.0000
  C   C341      1.0  0.56066  0.63356  0.42182  1.0000
  C   C342      1.0  0.53438  0.60922  0.32605  1.0000
  C  Sn3       1.0  0.50513  0.60900  0.20957  1.0000
  C  Sn4       1.0  0.50222  0.63364  0.18882  1.0000
  C   C343      1.0  0.52865  0.65788  0.28512  1.0000
  C   C344      1.0  0.55781  0.65787  0.40137  1.0000
  H   H195      1.0  0.58322  0.63356  0.51168  1.0000
  O  Te3       1.0  0.47912  0.58450  0.11497  1.0000
  O  Te4       1.0  0.47327  0.63399  0.07324  1.0000
  H   H196      1.0  0.57815  0.67673  0.47540  1.0000
  Mg  Mg2       1.0  0.51969  0.59695  0.97363  1.0000
  C   C345      1.0  0.91339  0.36101  0.24638  1.0000
  C   C346      1.0  0.91872  0.38823  0.25144  1.0000
  C  Sn5       1.0  0.89827  0.39334  0.27269  1.0000
  C  Sn6       1.0  0.87203  0.37074  0.28918  1.0000
  C   C347      1.0  0.86693  0.34358  0.28409  1.0000
  C   C348      1.0  0.88753  0.33870  0.26272  1.0000
  H   H197      1.0  0.92934  0.35723  0.22995  1.0000
  O  Te5       1.0  0.90393  0.42067  0.27740  1.0000
  O  Te6       1.0  0.85123  0.37525  0.31062  1.0000
  H   H198      1.0  0.88341  0.31762  0.25892  1.0000
  Mg  Mg3       1.0  0.86889  0.41622  0.30895  1.0000
  C   C349      1.0  0.37617  0.87524  0.25133  1.0000
  C   C350      1.0  0.35194  0.86974  0.28815  1.0000
  C  Sn7       1.0  0.34955  0.89151  0.32498  1.0000
  C  Sn8       1.0  0.37187  0.91928  0.32479  1.0000
  C   C351      1.0  0.39600  0.92457  0.28765  1.0000
  C   C352      1.0  0.39817  0.90263  0.25104  1.0000
  H   H199      1.0  0.37784  0.85827  0.22289  1.0000
  O  Te7       1.0  0.32521  0.88565  0.36157  1.0000
  O  Te8       1.0  0.37003  0.94144  0.36109  1.0000
  H   H200      1.0  0.41692  0.90689  0.22240  1.0000
  Mg  Mg4       1.0  0.33261  0.92288  0.40318  1.0000
  C   C353      1.0  0.12995  0.62658  0.90952  1.0000
  C   C354      1.0  0.12895  0.64887  0.78427  1.0000
  C  Sn9       1.0  0.10032  0.64922  0.65337  1.0000
  C  Sn10      1.0  0.07222  0.62681  0.64815  1.0000
  C   C355      1.0  0.07347  0.60462  0.77415  1.0000
  C   C356      1.0  0.10224  0.60448  0.90452  1.0000
  H   H201      1.0  0.07719  0.62492  0.01047  1.0000
  O  Te9       1.0  0.09975  0.67164  0.52920  1.0000
  O  Te10      1.0  0.04329  0.62664  0.51881  1.0000
  H   H202      1.0  0.02799  0.58567  0.00156  1.0000
  Mg  Mg5       1.0  0.05460  0.66190  0.37861  1.0000
  C   C357      1.0  0.13028  0.62340  0.42069  1.0000
  C   C358      1.0  0.12995  0.64576  0.29514  1.0000
  C  Sn11      1.0  0.10167  0.64665  0.16259  1.0000
  C  Sn12      1.0  0.07323  0.62473  0.15599  1.0000
  C   C359      1.0  0.07381  0.60247  0.28231  1.0000
  C   C360      1.0  0.10224  0.60178  0.41433  1.0000
  H   H203      1.0  0.15228  0.62288  0.52292  1.0000
  O  Te11      1.0  0.10176  0.66913  0.03814  1.0000
  O  Te12      1.0  0.04463  0.62510  0.02499  1.0000
  H   H204      1.0  0.10249  0.58448  0.51161  1.0000
  Mg  Mg6       1.0  0.13186  0.66177  0.88505  1.0000
  C   C361      1.0  0.92015  0.36194  0.74144  1.0000
  C   C362      1.0  0.92469  0.38876  0.75023  1.0000
  C  Sn13      1.0  0.90406  0.39278  0.77716  1.0000
  C  Sn14      1.0  0.87843  0.36947  0.79564  1.0000
  C   C363      1.0  0.87410  0.34272  0.78679  1.0000
  C   C364      1.0  0.89489  0.33893  0.75973  1.0000
  H   H205      1.0  0.93624  0.35901  0.72061  1.0000
  O  Te13      1.0  0.90893  0.41972  0.78553  1.0000
  O  Te14      1.0  0.85745  0.37289  0.82274  1.0000
  H   H206      1.0  0.89138  0.31816  0.75306  1.0000
  Mg  Mg7       1.0  0.87396  0.41371  0.82443  1.0000
  C   C365      1.0  0.34264  0.44819  0.15589  1.0000
  C   C366      1.0  0.34059  0.46687  0.23038  1.0000
  C  Sn15      1.0  0.36735  0.49078  0.32888  1.0000
  C  Sn16      1.0  0.39667  0.49603  0.35298  1.0000
  C   C367      1.0  0.39847  0.47723  0.27780  1.0000
  C   C368      1.0  0.37155  0.45336  0.17953  1.0000
  H   H207      1.0  0.32181  0.42973  0.07977  1.0000
  O  Te15      1.0  0.36488  0.50923  0.40245  1.0000
  O  Te16      1.0  0.42378  0.51978  0.45076  1.0000
  H   H208      1.0  0.37315  0.43891  0.12176  1.0000
  Mg  Mg8       1.0  0.40846  0.53869  0.52490  1.0000
  C   C369      1.0  0.61356  0.11934  0.12442  1.0000
  C   C370      1.0  0.64562  0.12792  0.24246  1.0000
  C  Sn17      1.0  0.65634  0.11001  0.38044  1.0000
  C  Sn18      1.0  0.63450  0.08303  0.40024  1.0000
  C   C371      1.0  0.60248  0.07464  0.28136  1.0000
  C   C372      1.0  0.59201  0.09273  0.14380  1.0000
  H   H209      1.0  0.60545  0.13333  0.01791  1.0000
  O  Te17      1.0  0.68845  0.11892  0.49724  1.0000
  O  Te18      1.0  0.64458  0.06472  0.53693  1.0000
  H   H210      1.0  0.56719  0.08608  0.05235  1.0000
  Mg  Mg9       1.0  0.69070  0.08642  0.66247  1.0000
  C   C373      1.0  0.10053  0.44335  0.38266  1.0000
  C   C374      1.0  0.12088  0.46170  0.30631  1.0000
  C  Sn19      1.0  0.11910  0.48620  0.21899  1.0000
  C  Sn20      1.0  0.09651  0.49240  0.20816  1.0000
  C   C375      1.0  0.07627  0.47392  0.28510  1.0000
  C   C376      1.0  0.07825  0.44945  0.37211  1.0000
  H   H211      1.0  0.10207  0.42443  0.45007  1.0000
  O  Te19      1.0  0.13961  0.50430  0.14338  1.0000
  O  Te20      1.0  0.09423  0.51674  0.12174  1.0000
  H   H212      1.0  0.06250  0.43526  0.43132  1.0000
  Mg  Mg10      1.0  0.12736  0.53485  0.03960  1.0000
  C   C377      1.0  0.44253  0.10122  0.08494  1.0000
  C   C378      1.0  0.46498  0.12392  0.21128  1.0000
  C  Sn21      1.0  0.49236  0.12344  0.36517  1.0000
  C  Sn22      1.0  0.49730  0.09977  0.39269  1.0000
  C   C379      1.0  0.47471  0.07717  0.26543  1.0000
  C   C380      1.0  0.44739  0.07787  0.11194  1.0000
  H   H213      1.0  0.49641  0.10331  0.96612  1.0000
  O  Te21      1.0  0.51454  0.14629  0.49007  1.0000
  O  Te22      1.0  0.52446  0.09874  0.54528  1.0000
  H   H214      1.0  0.43002  0.06029  0.01408  1.0000
  Mg  Mg11      1.0  0.54779  0.13503  0.67682  1.0000
  C   C381      1.0  0.56022  0.64691  0.93743  1.0000
  C   C382      1.0  0.53676  0.65557  0.82825  1.0000
  C  Sn23      1.0  0.50679  0.63713  0.70041  1.0000
  C  Sn24      1.0  0.50026  0.60952  0.68187  1.0000
  C   C383      1.0  0.52388  0.60106  0.79185  1.0000
  C   C384      1.0  0.55379  0.61968  0.91929  1.0000
  H   H215      1.0  0.50834  0.65976  0.03612  1.0000
  O  Te23      1.0  0.48363  0.64612  0.59237  1.0000
  O  Te24      1.0  0.47050  0.59066  0.55524  1.0000
  H   H216      1.0  0.49693  0.61142  0.00390  1.0000
  Mg  Mg12      1.0  0.44672  0.61274  0.43920  1.0000
