data_image0
_chemical_formula_structural       H192C336N24SnCSn2CSnTe4Mg2SnCSn2CSnTe4Mg2SnCSn2CSnTe4Mg2SnCSn2CSnTe4Mg2SnCSn2CSnTe4Mg2SnCSn2CSnTe4Mg2SnCSn2CSnTe4Mg2SnCSn2CSnTe4Mg2SnCSn2CSnTe4Mg2SnCSn2CSnTe4Mg2SnCSn2CSnTe4Mg2SnCSn2CSnTe4Mg2
_chemical_formula_sum              "H192 C360 N24 Sn48 Te48 Mg24"
_cell_length_a       55.6524
_cell_length_b       55.6279
_cell_length_c       8.07095
_cell_angle_alpha    75.6632
_cell_angle_beta     120.793
_cell_angle_gamma    119.959

_symmetry_space_group_name_H-M    'P1'
_space_group_IT_number       1

loop_
  _space_group_symop_operation_xyz
  'x, y, z'

loop_
  _atom_site_type_symbol
  _atom_site_label
  _atom_site_symmetry_multiplicity
  _atom_site_fract_x
  _atom_site_fract_y
  _atom_site_fract_z
  _atom_site_occupancy
  H   H1        1.0  0.44809  0.51810  0.29581  1.0000
  H   H2        1.0  0.48103  0.93064  0.26368  1.0000
  H   H3        1.0  0.06933  0.55078  0.27651  1.0000
  H   H4        1.0  0.54835  0.48214  0.24483  1.0000
  H   H5        1.0  0.51678  0.07026  0.28546  1.0000
  H   H6        1.0  0.92882  0.44700  0.27593  1.0000
  H   H7        1.0  0.40592  0.42920  0.31163  1.0000
  H   H8        1.0  0.57188  0.97665  0.28754  1.0000
  H   H9        1.0  0.02517  0.59470  0.28536  1.0000
  H   H10       1.0  0.59310  0.57094  0.24987  1.0000
  H   H11       1.0  0.42580  0.02441  0.25342  1.0000
  H   H12       1.0  0.97140  0.40233  0.24856  1.0000
  H   H13       1.0  0.43081  0.40466  0.31106  1.0000
  H   H14       1.0  0.59610  0.02629  0.28544  1.0000
  H   H15       1.0  0.97539  0.56963  0.29133  1.0000
  H   H16       1.0  0.56904  0.59637  0.26175  1.0000
  H   H17       1.0  0.40198  0.97421  0.26157  1.0000
  H   H18       1.0  0.02055  0.42661  0.24655  1.0000
  H   H19       1.0  0.51815  0.44870  0.28723  1.0000
  H   H20       1.0  0.55014  0.07053  0.26400  1.0000
  H   H21       1.0  0.93235  0.48085  0.31830  1.0000
  H   H22       1.0  0.48244  0.55329  0.28798  1.0000
  H   H23       1.0  0.45094  0.93041  0.31495  1.0000
  H   H24       1.0  0.06855  0.51545  0.27266  1.0000
  H   H25       1.0  0.61736  0.56655  0.13607  1.0000
  H   H26       1.0  0.42593  0.06648  0.00943  1.0000
  H   H27       1.0  0.93463  0.36804  0.22646  1.0000
  H   H28       1.0  0.36311  0.43454  0.12786  1.0000
  H   H29       1.0  0.04857  0.62096  0.06243  1.0000
  H   H30       1.0  0.66164  0.56538  0.14844  1.0000
  H   H31       1.0  0.42737  0.11229  0.99215  1.0000
  H   H32       1.0  0.89085  0.32469  0.22449  1.0000
  H   H33       1.0  0.31647  0.43432  0.09259  1.0000
  H   H34       1.0  0.09302  0.66406  0.04674  1.0000
  H   H35       1.0  0.63696  0.48404  0.39419  1.0000
  H   H36       1.0  0.51836  0.14069  0.48430  1.0000
  H   H37       1.0  0.85244  0.36911  0.30085  1.0000
  H   H38       1.0  0.37331  0.51357  0.37874  1.0000
  H   H39       1.0  0.15698  0.63300  0.48819  1.0000
  H   H40       1.0  0.59210  0.48504  0.38258  1.0000
  H   H41       1.0  0.51708  0.09476  0.49971  1.0000
  H   H42       1.0  0.89718  0.41327  0.30799  1.0000
  H   H43       1.0  0.42091  0.51331  0.42376  1.0000
  H   H44       1.0  0.11218  0.58953  0.50150  1.0000
  H   H45       1.0  0.41172  0.89613  0.24159  1.0000
  H   H46       1.0  0.36739  0.85240  0.22929  1.0000
  H   H47       1.0  0.32921  0.89532  0.32485  1.0000
  H   H48       1.0  0.37505  0.93967  0.34902  1.0000
  H   H49       1.0  0.70398  0.56400  0.26519  1.0000
  H   H50       1.0  0.42896  0.14167  0.17043  1.0000
  H   H51       1.0  0.84731  0.29225  0.16518  1.0000
  H   H52       1.0  0.28759  0.43306  0.19611  1.0000
  H   H53       1.0  0.55761  0.85992  0.16224  1.0000
  H   H54       1.0  0.13643  0.70273  0.21637  1.0000
  H   H55       1.0  0.49150  0.66810  0.31740  1.0000
  H   H56       1.0  0.33707  0.81924  0.33372  1.0000
  H   H57       1.0  0.18064  0.50765  0.33238  1.0000
  H   H58       1.0  0.51885  0.33335  0.35098  1.0000
  H   H59       1.0  0.66220  0.17801  0.26462  1.0000
  H   H60       1.0  0.82194  0.48587  0.30719  1.0000
  H   H61       1.0  0.74860  0.58383  0.21946  1.0000
  H   H62       1.0  0.40716  0.17022  0.15746  1.0000
  H   H63       1.0  0.82085  0.24321  0.18698  1.0000
  H   H64       1.0  0.23567  0.41156  0.16113  1.0000
  H   H65       1.0  0.58237  0.83217  0.20226  1.0000
  H   H66       1.0  0.16205  0.75143  0.18439  1.0000
  H   H67       1.0  0.79044  0.58069  0.20450  1.0000
  H   H68       1.0  0.41165  0.21626  0.18100  1.0000
  H   H69       1.0  0.77521  0.20043  0.19833  1.0000
  H   H70       1.0  0.19358  0.41331  0.18223  1.0000
  H   H71       1.0  0.58300  0.78670  0.24768  1.0000
  H   H72       1.0  0.20778  0.79468  0.18458  1.0000
  H   H73       1.0  0.70595  0.49579  0.30513  1.0000
  H   H74       1.0  0.50154  0.20864  0.23928  1.0000
  H   H75       1.0  0.78853  0.29396  0.25701  1.0000
  H   H76       1.0  0.29083  0.49960  0.25587  1.0000
  H   H77       1.0  0.49664  0.79367  0.24068  1.0000
  H   H78       1.0  0.20798  0.70277  0.26847  1.0000
  H   H79       1.0  0.73096  0.46741  0.32613  1.0000
  H   H80       1.0  0.53334  0.26010  0.28544  1.0000
  H   H81       1.0  0.73817  0.27152  0.27613  1.0000
  H   H82       1.0  0.27051  0.52695  0.30090  1.0000
  H   H83       1.0  0.47015  0.74216  0.27003  1.0000
  H   H84       1.0  0.26205  0.72659  0.30136  1.0000
  H   H85       1.0  0.77394  0.46474  0.32442  1.0000
  H   H86       1.0  0.53868  0.30558  0.32583  1.0000
  H   H87       1.0  0.69219  0.22871  0.28006  1.0000
  H   H88       1.0  0.22943  0.52883  0.33292  1.0000
  H   H89       1.0  0.46967  0.69658  0.30362  1.0000
  H   H90       1.0  0.30887  0.77014  0.32142  1.0000
  H   H91       1.0  0.81580  0.55257  0.23166  1.0000
  H   H92       1.0  0.44386  0.26744  0.23629  1.0000
  H   H93       1.0  0.72599  0.17844  0.22098  1.0000
  H   H94       1.0  0.17405  0.44058  0.24210  1.0000
  H   H95       1.0  0.55761  0.73544  0.29102  1.0000
  H   H96       1.0  0.26207  0.81859  0.22183  1.0000
  H   H97       1.0  0.44947  0.51720  0.79424  1.0000
  H   H98       1.0  0.48255  0.93165  0.75295  1.0000
  H   H99       1.0  0.07105  0.55379  0.77177  1.0000
  H   H100      1.0  0.55168  0.48448  0.74084  1.0000
  H   H101      1.0  0.52009  0.07142  0.78364  1.0000
  H   H102      1.0  0.93287  0.44649  0.78250  1.0000
  H   H103      1.0  0.40852  0.42833  0.80698  1.0000
  H   H104      1.0  0.57514  0.97665  0.80306  1.0000
  H   H105      1.0  0.02414  0.59510  0.77853  1.0000
  H   H106      1.0  0.59468  0.57338  0.75054  1.0000
  H   H107      1.0  0.42957  0.02622  0.75747  1.0000
  H   H108      1.0  0.97785  0.40500  0.74683  1.0000
  H   H109      1.0  0.43419  0.40473  0.80320  1.0000
  H   H110      1.0  0.59981  0.02638  0.80026  1.0000
  H   H111      1.0  0.97576  0.56897  0.79408  1.0000
  H   H112      1.0  0.56981  0.59755  0.76406  1.0000
  H   H113      1.0  0.40569  0.97635  0.76900  1.0000
  H   H114      1.0  0.02601  0.43056  0.73703  1.0000
  H   H115      1.0  0.52232  0.45042  0.78933  1.0000
  H   H116      1.0  0.55347  0.07154  0.76073  1.0000
  H   H117      1.0  0.93414  0.48019  0.81649  1.0000
  H   H118      1.0  0.48390  0.55263  0.79832  1.0000
  H   H119      1.0  0.45261  0.93144  0.80767  1.0000
  H   H120      1.0  0.07155  0.51963  0.76482  1.0000
  H   H121      1.0  0.61927  0.57050  0.63328  1.0000
  H   H122      1.0  0.36476  0.43309  0.63192  1.0000
  H   H123      1.0  0.04730  0.62265  0.55583  1.0000
  H   H124      1.0  0.66467  0.57112  0.64693  1.0000
  H   H125      1.0  0.31837  0.43392  0.59263  1.0000
  H   H126      1.0  0.09094  0.66630  0.53727  1.0000
  H   H127      1.0  0.64185  0.48940  0.88723  1.0000
  H   H128      1.0  0.37602  0.51333  0.87616  1.0000
  H   H129      1.0  0.15670  0.63673  0.97600  1.0000
  H   H130      1.0  0.59658  0.48896  0.88102  1.0000
  H   H131      1.0  0.42319  0.51249  0.92082  1.0000
  H   H132      1.0  0.11261  0.59247  0.99141  1.0000
  H   H133      1.0  0.47862  0.59174  0.58782  1.0000
  H   H134      1.0  0.52069  0.41655  0.75797  1.0000
  H   H135      1.0  0.89162  0.48216  0.69714  1.0000
  H   H136      1.0  0.48016  0.63655  0.60204  1.0000
  H   H137      1.0  0.52103  0.37321  0.75332  1.0000
  H   H138      1.0  0.84691  0.48338  0.67680  1.0000
  H   H139      1.0  0.57772  0.66841  0.00758  1.0000
  H   H140      1.0  0.43731  0.32737  0.81841  1.0000
  H   H141      1.0  0.90384  0.56850  0.86874  1.0000
  H   H142      1.0  0.57627  0.62336  0.99516  1.0000
  H   H143      1.0  0.43717  0.37102  0.82969  1.0000
  H   H144      1.0  0.94971  0.56681  0.90422  1.0000
  H   H145      1.0  0.70685  0.56993  0.74211  1.0000
  H   H146      1.0  0.43135  0.14228  0.67768  1.0000
  H   H147      1.0  0.85453  0.29178  0.65930  1.0000
  H   H148      1.0  0.28943  0.43372  0.69928  1.0000
  H   H149      1.0  0.55732  0.85890  0.66549  1.0000
  H   H150      1.0  0.13423  0.70569  0.69593  1.0000
  H   H151      1.0  0.48844  0.66656  0.80487  1.0000
  H   H152      1.0  0.33666  0.82140  0.83825  1.0000
  H   H153      1.0  0.18782  0.51527  0.83071  1.0000
  H   H154      1.0  0.52337  0.33451  0.85335  1.0000
  H   H155      1.0  0.66953  0.17883  0.76152  1.0000
  H   H156      1.0  0.82274  0.48776  0.80707  1.0000
  H   H157      1.0  0.75244  0.58909  0.70352  1.0000
  H   H158      1.0  0.41014  0.17156  0.67014  1.0000
  H   H159      1.0  0.82823  0.24190  0.68495  1.0000
  H   H160      1.0  0.23797  0.41394  0.67197  1.0000
  H   H161      1.0  0.58133  0.83067  0.70272  1.0000
  H   H162      1.0  0.16001  0.75463  0.66136  1.0000
  H   H163      1.0  0.79426  0.58500  0.69569  1.0000
  H   H164      1.0  0.41548  0.21769  0.69403  1.0000
  H   H165      1.0  0.78253  0.19935  0.69318  1.0000
  H   H166      1.0  0.19761  0.41800  0.69941  1.0000
  H   H167      1.0  0.58081  0.78469  0.74293  1.0000
  H   H168      1.0  0.20622  0.79790  0.66635  1.0000
  H   H169      1.0  0.70832  0.50139  0.79216  1.0000
  H   H170      1.0  0.50402  0.20875  0.74345  1.0000
  H   H171      1.0  0.79609  0.29269  0.75698  1.0000
  H   H172      1.0  0.29612  0.50174  0.76225  1.0000
  H   H173      1.0  0.49611  0.79331  0.74627  1.0000
  H   H174      1.0  0.20641  0.70582  0.75777  1.0000
  H   H175      1.0  0.73228  0.47210  0.81526  1.0000
  H   H176      1.0  0.53644  0.26013  0.78939  1.0000
  H   H177      1.0  0.74597  0.27064  0.77299  1.0000
  H   H178      1.0  0.27800  0.53101  0.81038  1.0000
  H   H179      1.0  0.46865  0.74165  0.77105  1.0000
  H   H180      1.0  0.26071  0.72944  0.79606  1.0000
  H   H181      1.0  0.77471  0.46812  0.81489  1.0000
  H   H182      1.0  0.54261  0.30605  0.82855  1.0000
  H   H183      1.0  0.69996  0.22813  0.77767  1.0000
  H   H184      1.0  0.23771  0.53521  0.83731  1.0000
  H   H185      1.0  0.46699  0.69552  0.79671  1.0000
  H   H186      1.0  0.30799  0.77269  0.82204  1.0000
  H   H187      1.0  0.81873  0.55582  0.72531  1.0000
  H   H188      1.0  0.44837  0.26898  0.74762  1.0000
  H   H189      1.0  0.73311  0.17708  0.72028  1.0000
  H   H190      1.0  0.17942  0.44733  0.74753  1.0000
  H   H191      1.0  0.55441  0.73346  0.77946  1.0000
  H   H192      1.0  0.26136  0.82172  0.71535  1.0000
  C   C1        1.0  0.47329  0.99995  0.27493  1.0000
  C   C2        1.0  0.99818  0.47267  0.27037  1.0000
  C   C3        1.0  0.52417  0.52602  0.26970  1.0000
  C   C4        1.0  0.52572  0.00059  0.28650  1.0000
  C   C5        1.0  0.99997  0.52422  0.28759  1.0000
  C   C6        1.0  0.47464  0.47481  0.29220  1.0000
  C   C7        1.0  0.47403  0.50021  0.29135  1.0000
  C   C8        1.0  0.50040  0.97457  0.28475  1.0000
  C   C9        1.0  0.02532  0.52448  0.28185  1.0000
  C   C10       1.0  0.52452  0.50058  0.26864  1.0000
  C   C11       1.0  0.49870  0.02596  0.27768  1.0000
  C   C12       1.0  0.97308  0.47236  0.27901  1.0000
  C   C13       1.0  0.49946  0.52659  0.27857  1.0000
  C   C14       1.0  0.47383  0.97426  0.28401  1.0000
  C   C15       1.0  0.02440  0.49792  0.27259  1.0000
  C   C16       1.0  0.49936  0.47431  0.28381  1.0000
  C   C17       1.0  0.52541  0.02628  0.28069  1.0000
  C   C18       1.0  0.97433  0.49889  0.29185  1.0000
  C   C19       1.0  0.44894  0.49893  0.29817  1.0000
  C   C20       1.0  0.50111  0.95031  0.27574  1.0000
  C   C21       1.0  0.05002  0.55000  0.28396  1.0000
  C   C22       1.0  0.54882  0.50145  0.25498  1.0000
  C   C23       1.0  0.49733  0.05024  0.27826  1.0000
  C   C24       1.0  0.94800  0.44693  0.27250  1.0000
  C   C25       1.0  0.42342  0.47361  0.29874  1.0000
  C   C26       1.0  0.52643  0.95001  0.27607  1.0000
  C   C27       1.0  0.05028  0.57559  0.28360  1.0000
  C   C28       1.0  0.57429  0.52648  0.25127  1.0000
  C   C29       1.0  0.47102  0.05022  0.26473  1.0000
  C   C30       1.0  0.94656  0.42101  0.26471  1.0000
  C   C31       1.0  0.42459  0.44903  0.30483  1.0000
  C   C32       1.0  0.55167  0.97546  0.28615  1.0000
  C   C33       1.0  0.02522  0.57525  0.28378  1.0000
  C   C34       1.0  0.57386  0.55122  0.25149  1.0000
  C   C35       1.0  0.44587  0.02492  0.25701  1.0000
  C   C36       1.0  0.97123  0.42148  0.25700  1.0000
  C   C37       1.0  0.44982  0.44899  0.30242  1.0000
  C   C38       1.0  0.55170  0.00078  0.28893  1.0000
  C   C39       1.0  0.00020  0.55000  0.29047  1.0000
  C   C40       1.0  0.54937  0.55163  0.26097  1.0000
  C   C41       1.0  0.44676  0.99954  0.26680  1.0000
  C   C42       1.0  0.99699  0.44673  0.25927  1.0000
  C   C43       1.0  0.45024  0.42371  0.30406  1.0000
  C   C44       1.0  0.57683  0.02637  0.28846  1.0000
  C   C45       1.0  0.97519  0.54982  0.29668  1.0000
  C   C46       1.0  0.54988  0.57702  0.26811  1.0000
  C   C47       1.0  0.42195  0.97383  0.27044  1.0000
  C   C48       1.0  0.02210  0.44653  0.25655  1.0000
  C   C49       1.0  0.47443  0.42305  0.29757  1.0000
  C   C50       1.0  0.57621  0.05128  0.27922  1.0000
  C   C51       1.0  0.95039  0.52524  0.30307  1.0000
  C   C52       1.0  0.52587  0.57766  0.27580  1.0000
  C   C53       1.0  0.42305  0.94879  0.28802  1.0000
  C   C54       1.0  0.04814  0.47093  0.26507  1.0000
  C   C55       1.0  0.49897  0.44886  0.29059  1.0000
  C   C56       1.0  0.55020  0.05078  0.27286  1.0000
  C   C57       1.0  0.95093  0.50003  0.30451  1.0000
  C   C58       1.0  0.50058  0.55224  0.27726  1.0000
  C   C59       1.0  0.44948  0.94972  0.29597  1.0000
  C   C60       1.0  0.04831  0.49639  0.26815  1.0000
  C   C61       1.0  0.39730  0.92197  0.29477  1.0000
  C   C62       1.0  0.39584  0.47361  0.28381  1.0000
  C   C63       1.0  0.07691  0.60195  0.28219  1.0000
  C   C64       1.0  0.60091  0.52584  0.25714  1.0000
  C   C65       1.0  0.47110  0.07707  0.25862  1.0000
  C   C66       1.0  0.91982  0.39468  0.26546  1.0000
  C   C67       1.0  0.62184  0.54860  0.19795  1.0000
  C   C68       1.0  0.44579  0.08242  0.11746  1.0000
  C   C69       1.0  0.91702  0.36877  0.24498  1.0000
  C   C70       1.0  0.36581  0.45141  0.19138  1.0000
  C   C71       1.0  0.07235  0.62376  0.15874  1.0000
  C   C72       1.0  0.64721  0.54812  0.20689  1.0000
  C   C73       1.0  0.44652  0.10813  0.10821  1.0000
  C   C74       1.0  0.89189  0.34395  0.24281  1.0000
  C   C75       1.0  0.33932  0.45139  0.16923  1.0000
  C   C76       1.0  0.09735  0.64817  0.15140  1.0000
  C   C77       1.0  0.65297  0.52465  0.27737  1.0000
  C   C78       1.0  0.47269  0.12942  0.24146  1.0000
  C   C79       1.0  0.86772  0.34374  0.25823  1.0000
  C   C80       1.0  0.34168  0.47387  0.23727  1.0000
  C   C81       1.0  0.12831  0.65181  0.27163  1.0000
  C   C82       1.0  0.63228  0.50196  0.33770  1.0000
  C   C83       1.0  0.49825  0.12424  0.38122  1.0000
  C   C84       1.0  0.87047  0.36934  0.28132  1.0000
  C   C85       1.0  0.37149  0.49641  0.32438  1.0000
  C   C86       1.0  0.13304  0.63006  0.39542  1.0000
  C   C87       1.0  0.60694  0.50257  0.32828  1.0000
  C   C88       1.0  0.49734  0.09858  0.38911  1.0000
  C   C89       1.0  0.89582  0.39414  0.28489  1.0000
  C   C90       1.0  0.39799  0.49613  0.34907  1.0000
  C   C91       1.0  0.10790  0.60576  0.40127  1.0000
  C   C92       1.0  0.39452  0.89643  0.26738  1.0000
  C   C93       1.0  0.36911  0.87135  0.25956  1.0000
  C   C94       1.0  0.34482  0.87057  0.27708  1.0000
  C   C95       1.0  0.34752  0.89592  0.30623  1.0000
  C   C96       1.0  0.37333  0.92080  0.31794  1.0000
  C   C97       1.0  0.70048  0.54257  0.27033  1.0000
  C   C98       1.0  0.45200  0.15939  0.19949  1.0000
  C   C99       1.0  0.83420  0.29588  0.21427  1.0000
  C   C100      1.0  0.29126  0.45404  0.20711  1.0000
  C   C101      1.0  0.54086  0.84290  0.20894  1.0000
  C   C102      1.0  0.15560  0.69944  0.23551  1.0000
  C   C103      1.0  0.72446  0.53967  0.26246  1.0000
  C   C104      1.0  0.45456  0.18682  0.19975  1.0000
  C   C105      1.0  0.80732  0.27132  0.22239  1.0000
  C   C106      1.0  0.26613  0.45577  0.20904  1.0000
  C   C107      1.0  0.53935  0.81562  0.22137  1.0000
  C   C108      1.0  0.18239  0.72425  0.22761  1.0000
  C   C109      1.0  0.51247  0.68591  0.31387  1.0000
  C   C110      1.0  0.31659  0.82235  0.29163  1.0000
  C   C111      1.0  0.17556  0.48660  0.30919  1.0000
  C   C112      1.0  0.49507  0.31617  0.30583  1.0000
  C   C113      1.0  0.68038  0.17565  0.26091  1.0000
  C   C114      1.0  0.82320  0.50673  0.28282  1.0000
  C   C115      1.0  0.74881  0.56387  0.23517  1.0000
  C   C116      1.0  0.42880  0.18905  0.18026  1.0000
  C   C117      1.0  0.80358  0.24458  0.20611  1.0000
  C   C118      1.0  0.23828  0.43119  0.18788  1.0000
  C   C119      1.0  0.56375  0.81346  0.22098  1.0000
  C   C120      1.0  0.18233  0.75054  0.20163  1.0000
  C   C121      1.0  0.77220  0.56226  0.22901  1.0000
  C   C122      1.0  0.43117  0.21446  0.19341  1.0000
  C   C123      1.0  0.77840  0.22093  0.21153  1.0000
  C   C124      1.0  0.21485  0.43209  0.19877  1.0000
  C   C125      1.0  0.56412  0.78821  0.24589  1.0000
  C   C126      1.0  0.20770  0.77462  0.20190  1.0000
  C   C127      1.0  0.77292  0.53635  0.25254  1.0000
  C   C128      1.0  0.45956  0.23913  0.22638  1.0000
  C   C129      1.0  0.75525  0.22270  0.23001  1.0000
  C   C130      1.0  0.21809  0.45761  0.23425  1.0000
  C   C131      1.0  0.53946  0.76349  0.26569  1.0000
  C   C132      1.0  0.23472  0.77391  0.22945  1.0000
  C   C133      1.0  0.74831  0.51174  0.27870  1.0000
  C   C134      1.0  0.48546  0.23705  0.24168  1.0000
  C   C135      1.0  0.75876  0.24958  0.24616  1.0000
  C   C136      1.0  0.24601  0.48260  0.25297  1.0000
  C   C137      1.0  0.51419  0.76541  0.25945  1.0000
  C   C138      1.0  0.23473  0.74734  0.25280  1.0000
  C   C139      1.0  0.72445  0.51407  0.28220  1.0000
  C   C140      1.0  0.48219  0.21076  0.22628  1.0000
  C   C141      1.0  0.78511  0.27339  0.24328  1.0000
  C   C142      1.0  0.26936  0.48101  0.23904  1.0000
  C   C143      1.0  0.51510  0.79170  0.24050  1.0000
  C   C144      1.0  0.20830  0.72301  0.25031  1.0000
  C   C145      1.0  0.74932  0.48593  0.30333  1.0000
  C   C146      1.0  0.51391  0.26166  0.27599  1.0000
  C   C147      1.0  0.73529  0.25114  0.26243  1.0000
  C   C148      1.0  0.24940  0.50819  0.28790  1.0000
  C   C149      1.0  0.48913  0.74063  0.27356  1.0000
  C   C150      1.0  0.26195  0.74661  0.28353  1.0000
  C   C151      1.0  0.77337  0.48458  0.30335  1.0000
  C   C152      1.0  0.51676  0.28689  0.29776  1.0000
  C   C153      1.0  0.70976  0.22743  0.26380  1.0000
  C   C154      1.0  0.22656  0.50915  0.30482  1.0000
  C   C155      1.0  0.48897  0.71530  0.29227  1.0000
  C   C156      1.0  0.28796  0.77083  0.29508  1.0000
  C   C157      1.0  0.79773  0.50886  0.27713  1.0000
  C   C158      1.0  0.49125  0.28911  0.28282  1.0000
  C   C159      1.0  0.70660  0.20088  0.25120  1.0000
  C   C160      1.0  0.19903  0.48452  0.28938  1.0000
  C   C161      1.0  0.51392  0.71321  0.29932  1.0000
  C   C162      1.0  0.28818  0.79718  0.27306  1.0000
  C   C163      1.0  0.79709  0.53423  0.25209  1.0000
  C   C164      1.0  0.46306  0.26536  0.24634  1.0000
  C   C165      1.0  0.72911  0.19892  0.23344  1.0000
  C   C166      1.0  0.19516  0.45925  0.25360  1.0000
  C   C167      1.0  0.53875  0.73725  0.28687  1.0000
  C   C168      1.0  0.26153  0.79831  0.23833  1.0000
  C   C169      1.0  0.47607  0.00120  0.77260  1.0000
  C   C170      1.0  0.00198  0.47465  0.76865  1.0000
  C   C171      1.0  0.52616  0.52698  0.76969  1.0000
  C   C172      1.0  0.52845  0.00142  0.78615  1.0000
  C   C173      1.0  0.00177  0.52507  0.78797  1.0000
  C   C174      1.0  0.47728  0.47508  0.79011  1.0000
  C   C175      1.0  0.47609  0.50010  0.79056  1.0000
  C   C176      1.0  0.50263  0.97555  0.78066  1.0000
  C   C177      1.0  0.02747  0.52638  0.78027  1.0000
  C   C178      1.0  0.52714  0.50192  0.76690  1.0000
  C   C179      1.0  0.50160  0.02711  0.77462  1.0000
  C   C180      1.0  0.97651  0.47329  0.77979  1.0000
  C   C181      1.0  0.50132  0.52686  0.78096  1.0000
  C   C182      1.0  0.47610  0.97533  0.77973  1.0000
  C   C183      1.0  0.02756  0.50042  0.76941  1.0000
  C   C184      1.0  0.50239  0.47525  0.78225  1.0000
  C   C185      1.0  0.52830  0.02725  0.77819  1.0000
  C   C186      1.0  0.97656  0.49928  0.79243  1.0000
  C   C187      1.0  0.45069  0.49825  0.79624  1.0000
  C   C188      1.0  0.50306  0.95119  0.77133  1.0000
  C   C189      1.0  0.05148  0.55233  0.78003  1.0000
  C   C190      1.0  0.55169  0.50352  0.75208  1.0000
  C   C191      1.0  0.50060  0.05153  0.77734  1.0000
  C   C192      1.0  0.95225  0.44735  0.77570  1.0000
  C   C193      1.0  0.42533  0.47268  0.79588  1.0000
  C   C194      1.0  0.52866  0.95057  0.77843  1.0000
  C   C195      1.0  0.05070  0.57746  0.77776  1.0000
  C   C196      1.0  0.57676  0.52899  0.74803  1.0000
  C   C197      1.0  0.47453  0.05171  0.76604  1.0000
  C   C198      1.0  0.95180  0.42201  0.76545  1.0000
  C   C199      1.0  0.42693  0.44841  0.80035  1.0000
  C   C200      1.0  0.55458  0.97579  0.79491  1.0000
  C   C201      1.0  0.02529  0.57613  0.77945  1.0000
  C   C202      1.0  0.57574  0.55331  0.75075  1.0000
  C   C203      1.0  0.44942  0.02650  0.75967  1.0000
  C   C204      1.0  0.97679  0.42360  0.75564  1.0000
  C   C205      1.0  0.45256  0.44901  0.79852  1.0000
  C   C206      1.0  0.55475  0.00130  0.79478  1.0000
  C   C207      1.0  0.00109  0.55039  0.78995  1.0000
  C   C208      1.0  0.55099  0.55293  0.76160  1.0000
  C   C209      1.0  0.44990  0.00101  0.76763  1.0000
  C   C210      1.0  0.00185  0.44935  0.75624  1.0000
  C   C211      1.0  0.45359  0.42409  0.79942  1.0000
  C   C212      1.0  0.58029  0.02681  0.79777  1.0000
  C   C213      1.0  0.97586  0.54938  0.79787  1.0000
  C   C214      1.0  0.55096  0.57794  0.77082  1.0000
  C   C215      1.0  0.42506  0.97546  0.77323  1.0000
  C   C216      1.0  0.02714  0.45020  0.74915  1.0000
  C   C217      1.0  0.47834  0.42407  0.79591  1.0000
  C   C218      1.0  0.57976  0.05193  0.78447  1.0000
  C   C219      1.0  0.95145  0.52448  0.80492  1.0000
  C   C220      1.0  0.52684  0.57789  0.78131  1.0000
  C   C221      1.0  0.42550  0.95017  0.78825  1.0000
  C   C222      1.0  0.05257  0.47518  0.75551  1.0000
  C   C223      1.0  0.50274  0.45011  0.79035  1.0000
  C   C224      1.0  0.55333  0.05164  0.77117  1.0000
  C   C225      1.0  0.95264  0.49964  0.80453  1.0000
  C   C226      1.0  0.50204  0.55216  0.78391  1.0000
  C   C227      1.0  0.45153  0.95086  0.79138  1.0000
  C   C228      1.0  0.05183  0.50007  0.76157  1.0000
  C   C229      1.0  0.52729  0.60422  0.79212  1.0000
  C   C230      1.0  0.47898  0.39782  0.79492  1.0000
  C   C231      1.0  0.92468  0.52441  0.80275  1.0000
  C   C232      1.0  0.39778  0.47255  0.78242  1.0000
  C   C233      1.0  0.07666  0.60424  0.77338  1.0000
  C   C234      1.0  0.60375  0.52939  0.75186  1.0000
  C   C235      1.0  0.62429  0.55277  0.69305  1.0000
  C   C236      1.0  0.36764  0.45038  0.69219  1.0000
  C   C237      1.0  0.07129  0.62580  0.65007  1.0000
  C   C238      1.0  0.65014  0.55326  0.70164  1.0000
  C   C239      1.0  0.34133  0.45086  0.66914  1.0000
  C   C240      1.0  0.09588  0.65053  0.64105  1.0000
  C   C241      1.0  0.65662  0.53012  0.76936  1.0000
  C   C242      1.0  0.34400  0.47371  0.73492  1.0000
  C   C243      1.0  0.12709  0.65473  0.75954  1.0000
  C   C244      1.0  0.63643  0.50694  0.83091  1.0000
  C   C245      1.0  0.37399  0.49600  0.82226  1.0000
  C   C246      1.0  0.13254  0.63327  0.88417  1.0000
  C   C247      1.0  0.61080  0.50668  0.82353  1.0000
  C   C248      1.0  0.40023  0.49533  0.84677  1.0000
  C   C249      1.0  0.10788  0.60861  0.89139  1.0000
  C   C250      1.0  0.50022  0.60824  0.68432  1.0000
  C   C251      1.0  0.50266  0.39731  0.77721  1.0000
  C   C252      1.0  0.89513  0.50104  0.74219  1.0000
  C   C253      1.0  0.50098  0.63338  0.69200  1.0000
  C   C254      1.0  0.50305  0.37257  0.77567  1.0000
  C   C255      1.0  0.86949  0.50170  0.72895  1.0000
  C   C256      1.0  0.52897  0.65544  0.80936  1.0000
  C   C257      1.0  0.47941  0.34690  0.79082  1.0000
  C   C258      1.0  0.87214  0.52617  0.77335  1.0000
  C   C259      1.0  0.55616  0.65145  0.91662  1.0000
  C   C260      1.0  0.45552  0.34717  0.80644  1.0000
  C   C261      1.0  0.90159  0.54961  0.83287  1.0000
  C   C262      1.0  0.55519  0.62629  0.90925  1.0000
  C   C263      1.0  0.45562  0.37196  0.81121  1.0000
  C   C264      1.0  0.92718  0.54855  0.85049  1.0000
  C   C265      1.0  0.70385  0.54851  0.75521  1.0000
  C   C266      1.0  0.45442  0.15993  0.70792  1.0000
  C   C267      1.0  0.84175  0.29482  0.71439  1.0000
  C   C268      1.0  0.29393  0.45510  0.70873  1.0000
  C   C269      1.0  0.54028  0.84194  0.71057  1.0000
  C   C270      1.0  0.15376  0.70252  0.71911  1.0000
  C   C271      1.0  0.72790  0.54526  0.75058  1.0000
  C   C272      1.0  0.45721  0.18746  0.70780  1.0000
  C   C273      1.0  0.81504  0.27006  0.72264  1.0000
  C   C274      1.0  0.26974  0.45795  0.71477  1.0000
  C   C275      1.0  0.53848  0.81455  0.72335  1.0000
  C   C276      1.0  0.18064  0.72738  0.71200  1.0000
  C   C277      1.0  0.50947  0.68452  0.80425  1.0000
  C   C278      1.0  0.31632  0.82508  0.79137  1.0000
  C   C279      1.0  0.18251  0.49420  0.80777  1.0000
  C   C280      1.0  0.49958  0.31736  0.81002  1.0000
  C   C281      1.0  0.68728  0.17528  0.76131  1.0000
  C   C282      1.0  0.82453  0.50884  0.77786  1.0000
  C   C283      1.0  0.75247  0.56901  0.72309  1.0000
  C   C284      1.0  0.43186  0.19013  0.69103  1.0000
  C   C285      1.0  0.81105  0.24334  0.70442  1.0000
  C   C286      1.0  0.24161  0.43405  0.69802  1.0000
  C   C287      1.0  0.56252  0.81207  0.72077  1.0000
  C   C288      1.0  0.18057  0.75373  0.68275  1.0000
  C   C289      1.0  0.77580  0.56686  0.71979  1.0000
  C   C290      1.0  0.43473  0.21573  0.70429  1.0000
  C   C291      1.0  0.78564  0.21974  0.70836  1.0000
  C   C292      1.0  0.21913  0.43618  0.71227  1.0000
  C   C293      1.0  0.56230  0.78664  0.74265  1.0000
  C   C294      1.0  0.20624  0.77779  0.68628  1.0000
  C   C295      1.0  0.77588  0.54065  0.74398  1.0000
  C   C296      1.0  0.46313  0.24017  0.73452  1.0000
  C   C297      1.0  0.76257  0.22147  0.72795  1.0000
  C   C298      1.0  0.22354  0.46235  0.74557  1.0000
  C   C299      1.0  0.53741  0.76211  0.76173  1.0000
  C   C300      1.0  0.23359  0.77701  0.71973  1.0000
  C   C301      1.0  0.75084  0.51646  0.76915  1.0000
  C   C302      1.0  0.48863  0.23767  0.74740  1.0000
  C   C303      1.0  0.76634  0.24846  0.74467  1.0000
  C   C304      1.0  0.25194  0.48662  0.76312  1.0000
  C   C305      1.0  0.51261  0.76439  0.75927  1.0000
  C   C306      1.0  0.23342  0.75034  0.74395  1.0000
  C   C307      1.0  0.72726  0.51938  0.77116  1.0000
  C   C308      1.0  0.48491  0.21117  0.73208  1.0000
  C   C309      1.0  0.79281  0.27218  0.74311  1.0000
  C   C310      1.0  0.27433  0.48372  0.74651  1.0000
  C   C311      1.0  0.51409  0.79086  0.74322  1.0000
  C   C312      1.0  0.20678  0.72606  0.73878  1.0000
  C   C313      1.0  0.75098  0.49030  0.79353  1.0000
  C   C314      1.0  0.51723  0.26206  0.78040  1.0000
  C   C315      1.0  0.74290  0.25020  0.75985  1.0000
  C   C316      1.0  0.25652  0.51280  0.79741  1.0000
  C   C317      1.0  0.48730  0.73978  0.77264  1.0000
  C   C318      1.0  0.26079  0.74953  0.77816  1.0000
  C   C319      1.0  0.77459  0.48816  0.79399  1.0000
  C   C320      1.0  0.52058  0.28752  0.80198  1.0000
  C   C321      1.0  0.71739  0.22659  0.76150  1.0000
  C   C322      1.0  0.23406  0.51510  0.81131  1.0000
  C   C323      1.0  0.48653  0.71423  0.78769  1.0000
  C   C324      1.0  0.28705  0.77363  0.79279  1.0000
  C   C325      1.0  0.79946  0.51199  0.76948  1.0000
  C   C326      1.0  0.49543  0.29014  0.78822  1.0000
  C   C327      1.0  0.71393  0.19983  0.74987  1.0000
  C   C328      1.0  0.20590  0.49117  0.79371  1.0000
  C   C329      1.0  0.51114  0.71188  0.79220  1.0000
  C   C330      1.0  0.28754  0.80013  0.77045  1.0000
  C   C331      1.0  0.79965  0.53776  0.74395  1.0000
  C   C332      1.0  0.46717  0.26659  0.75456  1.0000
  C   C333      1.0  0.73634  0.19766  0.73216  1.0000
  C   C334      1.0  0.20117  0.46534  0.76181  1.0000
  C   C335      1.0  0.53604  0.73567  0.77908  1.0000
  C   C336      1.0  0.26074  0.80139  0.73223  1.0000
  N   N1        1.0  0.67668  0.52139  0.28289  1.0000
  N   N2        1.0  0.47574  0.15594  0.24118  1.0000
  N   N3        1.0  0.84155  0.32017  0.26097  1.0000
  N   N4        1.0  0.31689  0.47598  0.22598  1.0000
  N   N5        1.0  0.52353  0.84632  0.25433  1.0000
  N   N6        1.0  0.15480  0.67510  0.26982  1.0000
  N   N7        1.0  0.53443  0.68272  0.32104  1.0000
  N   N8        1.0  0.31767  0.84671  0.26355  1.0000
  N   N9        1.0  0.15035  0.46516  0.30149  1.0000
  N   N10       1.0  0.47169  0.31946  0.27587  1.0000
  N   N11       1.0  0.67921  0.15164  0.27030  1.0000
  N   N12       1.0  0.84656  0.52830  0.26774  1.0000
  N   N13       1.0  0.68061  0.52744  0.77382  1.0000
  N   N14       1.0  0.47826  0.15649  0.75050  1.0000
  N   N15       1.0  0.84912  0.31880  0.76582  1.0000
  N   N16       1.0  0.31960  0.47650  0.72354  1.0000
  N   N17       1.0  0.52297  0.84566  0.75371  1.0000
  N   N18       1.0  0.15331  0.67839  0.75728  1.0000
  N   N19       1.0  0.53197  0.68169  0.81519  1.0000
  N   N20       1.0  0.31805  0.84969  0.76017  1.0000
  N   N21       1.0  0.15678  0.47287  0.79504  1.0000
  N   N22       1.0  0.47637  0.32082  0.78030  1.0000
  N   N23       1.0  0.68507  0.15067  0.77694  1.0000
  N   N24       1.0  0.84806  0.52968  0.76014  1.0000
  C  Sn1       1.0  0.12711  0.50424  0.76495  1.0000
  C   C337      1.0  0.13683  0.48334  0.83263  1.0000
  C  Sn2       1.0  0.11650  0.45642  0.85705  1.0000
  C  Sn3       1.0  0.08582  0.45025  0.81278  1.0000
  C   C338      1.0  0.07612  0.47114  0.74512  1.0000
  C  Sn4       1.0  0.09643  0.49807  0.72069  1.0000
  O  Te1       1.0  0.14782  0.53101  0.74162  1.0000
  O  Te2       1.0  0.12675  0.43588  0.92497  1.0000
  O  Te3       1.0  0.06512  0.42346  0.83618  1.0000
  O  Te4       1.0  0.08620  0.51861  0.65278  1.0000
  Mg  Mg1       1.0  0.08992  0.40256  0.93275  1.0000
  Mg  Mg2       1.0  0.12300  0.55193  0.64485  1.0000
  C  Sn5       1.0  0.60071  0.10169  0.09951  1.0000
  C   C339      1.0  0.60176  0.07901  0.22043  1.0000
  C  Sn6       1.0  0.62966  0.08144  0.38388  1.0000
  C  Sn7       1.0  0.65708  0.10708  0.42747  1.0000
  C   C340      1.0  0.65602  0.12974  0.30661  1.0000
  C  Sn8       1.0  0.62813  0.12733  0.14310  1.0000
  O  Te5       1.0  0.64757  0.10034  0.93688  1.0000
  O  Te6       1.0  0.63014  0.05848  0.50256  1.0000
  O  Te7       1.0  0.68525  0.10996  0.59025  1.0000
  O  Te8       1.0  0.62764  0.15028  0.02448  1.0000
  Mg  Mg3       1.0  0.67410  0.07274  0.70762  1.0000
  Mg  Mg4       1.0  0.65871  0.13760  0.81945  1.0000
  C  Sn9       1.0  0.91422  0.36388  0.68073  1.0000
  C   C341      1.0  0.91997  0.39037  0.70978  1.0000
  C  Sn10      1.0  0.90435  0.39363  0.78738  1.0000
  C  Sn11      1.0  0.88254  0.36991  0.83710  1.0000
  C   C342      1.0  0.87681  0.34344  0.80808  1.0000
  C  Sn12      1.0  0.89241  0.34016  0.73045  1.0000
  O  Te9       1.0  0.93010  0.36111  0.60296  1.0000
  O  Te10      1.0  0.91048  0.42033  0.81503  1.0000
  O  Te11      1.0  0.86666  0.37270  0.91491  1.0000
  O  Te12      1.0  0.88630  0.31348  0.70282  1.0000
  Mg  Mg5       1.0  0.88298  0.41338  0.92546  1.0000
  Mg  Mg6       1.0  0.91379  0.32040  0.59251  1.0000
  C  Sn13      1.0  0.90471  0.55394  0.29045  1.0000
  C   C343      1.0  0.87428  0.53254  0.23116  1.0000
  C  Sn14      1.0  0.86813  0.50523  0.21949  1.0000
  C  Sn15      1.0  0.89291  0.49920  0.26822  1.0000
  C   C344      1.0  0.92332  0.52059  0.32750  1.0000
  C  Sn16      1.0  0.92949  0.54790  0.33918  1.0000
  O  Te13      1.0  0.91032  0.58108  0.30107  1.0000
  O  Te14      1.0  0.83752  0.48419  0.15976  1.0000
  O  Te15      1.0  0.88728  0.47203  0.25754  1.0000
  O  Te16      1.0  0.96008  0.56894  0.39890  1.0000
  Mg  Mg7       1.0  0.84166  0.45050  0.16845  1.0000
  Mg  Mg8       1.0  0.95597  0.60263  0.39035  1.0000
  C  Sn17      1.0  0.50083  0.61671  0.13250  1.0000
  C   C345      1.0  0.52467  0.60844  0.23103  1.0000
  C  Sn18      1.0  0.55224  0.62356  0.39121  1.0000
  C  Sn19      1.0  0.55604  0.64743  0.45432  1.0000
  C   C346      1.0  0.53220  0.65568  0.35584  1.0000
  C  Sn20      1.0  0.50463  0.64058  0.19561  1.0000
  O  Te17      1.0  0.54849  0.60283  0.97274  1.0000
  O  Te18      1.0  0.57575  0.61490  0.48733  1.0000
  O  Te19      1.0  0.58343  0.66286  0.61422  1.0000
  O  Te20      1.0  0.48112  0.64923  0.09954  1.0000
  Mg  Mg9       1.0  0.60873  0.64276  0.69743  1.0000
  Mg  Mg10      1.0  0.52315  0.62293  0.88949  1.0000
  C  Sn21      1.0  0.49488  0.87676  0.21291  1.0000
  C   C347      1.0  0.51702  0.87293  0.20210  1.0000
  C  Sn22      1.0  0.54644  0.89504  0.23936  1.0000
  C  Sn23      1.0  0.55389  0.92153  0.28857  1.0000
  C   C348      1.0  0.53176  0.92535  0.29939  1.0000
  C  Sn24      1.0  0.50233  0.90325  0.26212  1.0000
  O  Te21      1.0  0.46562  0.85437  0.17509  1.0000
  O  Te22      1.0  0.56818  0.89070  0.22758  1.0000
  O  Te23      1.0  0.58318  0.94393  0.32639  1.0000
  O  Te24      1.0  0.48060  0.90758  0.27391  1.0000
  Mg  Mg11      1.0  0.60491  0.92767  0.29201  1.0000
  Mg  Mg12      1.0  0.44387  0.87063  0.20961  1.0000
  C  Sn25      1.0  0.45077  0.09105  0.57531  1.0000
  C   C349      1.0  0.47369  0.08246  0.70693  1.0000
  C  Sn26      1.0  0.49751  0.09729  0.87862  1.0000
  C  Sn27      1.0  0.49844  0.12119  0.91968  1.0000
  C   C350      1.0  0.47553  0.12976  0.78813  1.0000
  C  Sn28      1.0  0.45169  0.11494  0.61638  1.0000
  O  Te25      1.0  0.42716  0.07590  0.40457  1.0000
  O  Te26      1.0  0.44516  0.08677  0.00794  1.0000
  O  Te27      1.0  0.44705  0.13478  0.09059  1.0000
  O  Te28      1.0  0.42904  0.12390  0.48712  1.0000
  Mg  Mg13      1.0  0.47260  0.11431  0.22121  1.0000
  Mg  Mg14      1.0  0.40158  0.09637  0.27387  1.0000
  C  Sn29      1.0  0.49537  0.87724  0.71250  1.0000
  C   C351      1.0  0.51691  0.87275  0.69937  1.0000
  C  Sn30      1.0  0.54663  0.89435  0.73755  1.0000
  C  Sn31      1.0  0.55501  0.92099  0.79009  1.0000
  C   C352      1.0  0.53347  0.92546  0.80323  1.0000
  C  Sn32      1.0  0.50374  0.90388  0.76503  1.0000
  O  Te29      1.0  0.46578  0.85534  0.67370  1.0000
  O  Te30      1.0  0.56777  0.88937  0.72341  1.0000
  O  Te31      1.0  0.58462  0.94289  0.82889  1.0000
  O  Te32      1.0  0.48262  0.90885  0.77918  1.0000
  Mg  Mg15      1.0  0.60526  0.92582  0.79038  1.0000
  Mg  Mg16      1.0  0.44513  0.87241  0.71235  1.0000
  C  Sn33      1.0  0.38659  0.89226  0.70903  1.0000
  C   C353      1.0  0.39406  0.91919  0.74244  1.0000
  C  Sn34      1.0  0.37859  0.92356  0.81570  1.0000
  C  Sn35      1.0  0.35517  0.90053  0.85654  1.0000
  C   C354      1.0  0.34771  0.87361  0.82317  1.0000
  C  Sn36      1.0  0.36317  0.86923  0.74987  1.0000
  O  Te33      1.0  0.40236  0.88838  0.63574  1.0000
  O  Te34      1.0  0.38646  0.95067  0.84784  1.0000
  O  Te35      1.0  0.33940  0.90442  0.92988  1.0000
  O  Te36      1.0  0.35531  0.84213  0.71776  1.0000
  Mg  Mg17      1.0  0.35840  0.94530  0.94936  1.0000
  Mg  Mg18      1.0  0.38336  0.84748  0.61636  1.0000
  C  Sn37      1.0  0.09583  0.49030  0.15585  1.0000
  C   C355      1.0  0.07486  0.47100  0.22560  1.0000
  C  Sn38      1.0  0.08149  0.45052  0.35392  1.0000
  C  Sn39      1.0  0.10967  0.44930  0.41389  1.0000
  C   C356      1.0  0.13062  0.46859  0.34419  1.0000
  C  Sn40      1.0  0.12401  0.48908  0.21583  1.0000
  O  Te37      1.0  0.08872  0.51060  0.02768  1.0000
  O  Te38      1.0  0.06016  0.43145  0.42162  1.0000
  O  Te39      1.0  0.11676  0.42898  0.54216  1.0000
  O  Te40      1.0  0.14533  0.50814  0.14816  1.0000
  Mg  Mg19      1.0  0.08033  0.40767  0.59418  1.0000
  Mg  Mg20      1.0  0.20021  0.53349  0.97568  1.0000
  C  Sn41      1.0  0.62126  0.12342  0.68429  1.0000
  C   C357      1.0  0.65298  0.12989  0.79398  1.0000
  C  Sn42      1.0  0.66221  0.10918  0.89432  1.0000
  C  Sn43      1.0  0.63926  0.08140  0.88475  1.0000
  C   C358      1.0  0.60756  0.07494  0.77510  1.0000
  C  Sn44      1.0  0.59830  0.09565  0.67472  1.0000
  O  Te41      1.0  0.61257  0.14447  0.58514  1.0000
  O  Te42      1.0  0.61905  0.11460  0.00307  1.0000
  O  Te43      1.0  0.64798  0.06035  0.98403  1.0000
  O  Te44      1.0  0.56647  0.08868  0.56600  1.0000
  Mg  Mg21      1.0  0.61923  0.07863  0.11258  1.0000
  Mg  Mg22      1.0  0.56627  0.12463  0.45636  1.0000
  C  Sn45      1.0  0.45421  0.36476  0.36538  1.0000
  C   C359      1.0  0.47514  0.39183  0.34827  1.0000
  C  Sn46      1.0  0.49549  0.39659  0.27839  1.0000
  C  Sn47      1.0  0.49490  0.37382  0.22438  1.0000
  C   C360      1.0  0.47397  0.34678  0.24147  1.0000
  C  Sn48      1.0  0.45362  0.34200  0.31137  1.0000
  O  Te45      1.0  0.43408  0.36049  0.43558  1.0000
  O  Te46      1.0  0.51622  0.42383  0.26264  1.0000
  O  Te47      1.0  0.51506  0.37812  0.15415  1.0000
  O  Te48      1.0  0.43290  0.31477  0.32710  1.0000
  Mg  Mg23      1.0  0.53904  0.41902  0.15905  1.0000
  Mg  Mg24      1.0  0.41006  0.31956  0.43057  1.0000
