data_image0
_chemical_formula_structural       H144C264N24C2Sn2C2HTe2HMgC2Sn2C2HTe2HMgC2Sn2C2HTe2HMgC2Sn2C2HTe2HMgC2Sn2C2HTe2HMgC2Sn2C2HTe2HMgC2Sn2C2HTe2HMgC2Sn2C2HTe2HMgC2Sn2C2HTe2HMgC2Sn2C2HTe2HMgC2Sn2C2HTe2HMgC2Sn2C2HTe2HMgC2Sn2C2HTe2HMgC2Sn2C2HTe2HMgC2Sn2C2HTe2HMgC2Sn2C2HTe2HMgC2Sn2C2HTe2HMgC2Sn2C2HTe2HMgC2Sn2C2HTe2HMgC2Sn2C2HTe2HMgC2Sn2C2HTe2HMgC2Sn2C2HTe2HMgC2Sn2C2HTe2HMgC2Sn2C2HTe2HMg
_chemical_formula_sum              "H192 C360 N24 Sn48 Te48 Mg24"
_cell_length_a       55.6524
_cell_length_b       55.6279
_cell_length_c       8.07095
_cell_angle_alpha    75.6632
_cell_angle_beta     120.793
_cell_angle_gamma    119.959

_symmetry_space_group_name_H-M    'P1'
_space_group_IT_number       1

loop_
  _space_group_symop_operation_xyz
  'x, y, z'

loop_
  _atom_site_type_symbol
  _atom_site_label
  _atom_site_symmetry_multiplicity
  _atom_site_fract_x
  _atom_site_fract_y
  _atom_site_fract_z
  _atom_site_occupancy
  H   H1        1.0  0.44809  0.51810  0.29581  1.0000
  H   H2        1.0  0.48103  0.93064  0.26368  1.0000
  H   H3        1.0  0.06933  0.55078  0.27651  1.0000
  H   H4        1.0  0.54835  0.48214  0.24483  1.0000
  H   H5        1.0  0.51678  0.07026  0.28546  1.0000
  H   H6        1.0  0.92882  0.44700  0.27593  1.0000
  H   H7        1.0  0.40592  0.42920  0.31163  1.0000
  H   H8        1.0  0.57188  0.97665  0.28754  1.0000
  H   H9        1.0  0.02517  0.59470  0.28536  1.0000
  H   H10       1.0  0.59310  0.57094  0.24987  1.0000
  H   H11       1.0  0.42580  0.02441  0.25342  1.0000
  H   H12       1.0  0.97140  0.40233  0.24856  1.0000
  H   H13       1.0  0.43081  0.40466  0.31106  1.0000
  H   H14       1.0  0.59610  0.02629  0.28544  1.0000
  H   H15       1.0  0.97539  0.56963  0.29133  1.0000
  H   H16       1.0  0.56904  0.59637  0.26175  1.0000
  H   H17       1.0  0.40198  0.97421  0.26157  1.0000
  H   H18       1.0  0.02055  0.42661  0.24655  1.0000
  H   H19       1.0  0.51815  0.44870  0.28723  1.0000
  H   H20       1.0  0.55014  0.07053  0.26400  1.0000
  H   H21       1.0  0.93235  0.48085  0.31830  1.0000
  H   H22       1.0  0.48244  0.55329  0.28798  1.0000
  H   H23       1.0  0.45094  0.93041  0.31495  1.0000
  H   H24       1.0  0.06855  0.51545  0.27266  1.0000
  H   H25       1.0  0.70398  0.56400  0.26519  1.0000
  H   H26       1.0  0.42896  0.14167  0.17043  1.0000
  H   H27       1.0  0.84731  0.29225  0.16518  1.0000
  H   H28       1.0  0.28759  0.43306  0.19611  1.0000
  H   H29       1.0  0.55761  0.85992  0.16224  1.0000
  H   H30       1.0  0.13643  0.70273  0.21637  1.0000
  H   H31       1.0  0.49150  0.66810  0.31740  1.0000
  H   H32       1.0  0.33707  0.81924  0.33372  1.0000
  H   H33       1.0  0.18064  0.50765  0.33238  1.0000
  H   H34       1.0  0.51885  0.33335  0.35098  1.0000
  H   H35       1.0  0.66220  0.17801  0.26462  1.0000
  H   H36       1.0  0.82194  0.48587  0.30719  1.0000
  H   H37       1.0  0.74860  0.58383  0.21946  1.0000
  H   H38       1.0  0.40716  0.17022  0.15746  1.0000
  H   H39       1.0  0.82085  0.24321  0.18698  1.0000
  H   H40       1.0  0.23567  0.41156  0.16113  1.0000
  H   H41       1.0  0.58237  0.83217  0.20226  1.0000
  H   H42       1.0  0.16205  0.75143  0.18439  1.0000
  H   H43       1.0  0.79044  0.58069  0.20450  1.0000
  H   H44       1.0  0.41165  0.21626  0.18100  1.0000
  H   H45       1.0  0.77521  0.20043  0.19833  1.0000
  H   H46       1.0  0.19358  0.41331  0.18223  1.0000
  H   H47       1.0  0.58300  0.78670  0.24768  1.0000
  H   H48       1.0  0.20778  0.79468  0.18458  1.0000
  H   H49       1.0  0.70595  0.49579  0.30513  1.0000
  H   H50       1.0  0.50154  0.20864  0.23928  1.0000
  H   H51       1.0  0.78853  0.29396  0.25701  1.0000
  H   H52       1.0  0.29083  0.49960  0.25587  1.0000
  H   H53       1.0  0.49664  0.79367  0.24068  1.0000
  H   H54       1.0  0.20798  0.70277  0.26847  1.0000
  H   H55       1.0  0.73096  0.46741  0.32613  1.0000
  H   H56       1.0  0.53334  0.26010  0.28544  1.0000
  H   H57       1.0  0.73817  0.27152  0.27613  1.0000
  H   H58       1.0  0.27051  0.52695  0.30090  1.0000
  H   H59       1.0  0.47015  0.74216  0.27003  1.0000
  H   H60       1.0  0.26205  0.72659  0.30136  1.0000
  H   H61       1.0  0.77394  0.46474  0.32442  1.0000
  H   H62       1.0  0.53868  0.30558  0.32583  1.0000
  H   H63       1.0  0.69219  0.22871  0.28006  1.0000
  H   H64       1.0  0.22943  0.52883  0.33292  1.0000
  H   H65       1.0  0.46967  0.69658  0.30362  1.0000
  H   H66       1.0  0.30887  0.77014  0.32142  1.0000
  H   H67       1.0  0.81580  0.55257  0.23166  1.0000
  H   H68       1.0  0.44386  0.26744  0.23629  1.0000
  H   H69       1.0  0.72599  0.17844  0.22098  1.0000
  H   H70       1.0  0.17405  0.44058  0.24210  1.0000
  H   H71       1.0  0.55761  0.73544  0.29102  1.0000
  H   H72       1.0  0.26207  0.81859  0.22183  1.0000
  H   H73       1.0  0.44947  0.51720  0.79424  1.0000
  H   H74       1.0  0.48255  0.93165  0.75295  1.0000
  H   H75       1.0  0.07105  0.55379  0.77177  1.0000
  H   H76       1.0  0.55168  0.48448  0.74084  1.0000
  H   H77       1.0  0.52009  0.07142  0.78364  1.0000
  H   H78       1.0  0.93287  0.44649  0.78250  1.0000
  H   H79       1.0  0.40852  0.42833  0.80698  1.0000
  H   H80       1.0  0.57514  0.97665  0.80306  1.0000
  H   H81       1.0  0.02414  0.59510  0.77853  1.0000
  H   H82       1.0  0.59468  0.57338  0.75054  1.0000
  H   H83       1.0  0.42957  0.02622  0.75747  1.0000
  H   H84       1.0  0.97785  0.40500  0.74683  1.0000
  H   H85       1.0  0.43419  0.40473  0.80320  1.0000
  H   H86       1.0  0.59981  0.02638  0.80026  1.0000
  H   H87       1.0  0.97576  0.56897  0.79408  1.0000
  H   H88       1.0  0.56981  0.59755  0.76406  1.0000
  H   H89       1.0  0.40569  0.97635  0.76900  1.0000
  H   H90       1.0  0.02601  0.43056  0.73703  1.0000
  H   H91       1.0  0.52232  0.45042  0.78933  1.0000
  H   H92       1.0  0.55347  0.07154  0.76073  1.0000
  H   H93       1.0  0.93414  0.48019  0.81649  1.0000
  H   H94       1.0  0.48390  0.55263  0.79832  1.0000
  H   H95       1.0  0.45261  0.93144  0.80767  1.0000
  H   H96       1.0  0.07155  0.51963  0.76482  1.0000
  H   H97       1.0  0.70685  0.56993  0.74211  1.0000
  H   H98       1.0  0.43135  0.14228  0.67768  1.0000
  H   H99       1.0  0.85453  0.29178  0.65930  1.0000
  H   H100      1.0  0.28943  0.43372  0.69928  1.0000
  H   H101      1.0  0.55732  0.85890  0.66549  1.0000
  H   H102      1.0  0.13423  0.70569  0.69593  1.0000
  H   H103      1.0  0.48844  0.66656  0.80487  1.0000
  H   H104      1.0  0.33666  0.82140  0.83825  1.0000
  H   H105      1.0  0.18782  0.51527  0.83071  1.0000
  H   H106      1.0  0.52337  0.33451  0.85335  1.0000
  H   H107      1.0  0.66953  0.17883  0.76152  1.0000
  H   H108      1.0  0.82274  0.48776  0.80707  1.0000
  H   H109      1.0  0.75244  0.58909  0.70352  1.0000
  H   H110      1.0  0.41014  0.17156  0.67014  1.0000
  H   H111      1.0  0.82823  0.24190  0.68495  1.0000
  H   H112      1.0  0.23797  0.41394  0.67197  1.0000
  H   H113      1.0  0.58133  0.83067  0.70272  1.0000
  H   H114      1.0  0.16001  0.75463  0.66136  1.0000
  H   H115      1.0  0.79426  0.58500  0.69569  1.0000
  H   H116      1.0  0.41548  0.21769  0.69403  1.0000
  H   H117      1.0  0.78253  0.19935  0.69318  1.0000
  H   H118      1.0  0.19761  0.41800  0.69941  1.0000
  H   H119      1.0  0.58081  0.78469  0.74293  1.0000
  H   H120      1.0  0.20622  0.79790  0.66635  1.0000
  H   H121      1.0  0.70832  0.50139  0.79216  1.0000
  H   H122      1.0  0.50402  0.20875  0.74345  1.0000
  H   H123      1.0  0.79609  0.29269  0.75698  1.0000
  H   H124      1.0  0.29612  0.50174  0.76225  1.0000
  H   H125      1.0  0.49611  0.79331  0.74627  1.0000
  H   H126      1.0  0.20641  0.70582  0.75777  1.0000
  H   H127      1.0  0.73228  0.47210  0.81526  1.0000
  H   H128      1.0  0.53644  0.26013  0.78939  1.0000
  H   H129      1.0  0.74597  0.27064  0.77299  1.0000
  H   H130      1.0  0.27800  0.53101  0.81038  1.0000
  H   H131      1.0  0.46865  0.74165  0.77105  1.0000
  H   H132      1.0  0.26071  0.72944  0.79606  1.0000
  H   H133      1.0  0.77471  0.46812  0.81489  1.0000
  H   H134      1.0  0.54261  0.30605  0.82855  1.0000
  H   H135      1.0  0.69996  0.22813  0.77767  1.0000
  H   H136      1.0  0.23771  0.53521  0.83731  1.0000
  H   H137      1.0  0.46699  0.69552  0.79671  1.0000
  H   H138      1.0  0.30799  0.77269  0.82204  1.0000
  H   H139      1.0  0.81873  0.55582  0.72531  1.0000
  H   H140      1.0  0.44837  0.26898  0.74762  1.0000
  H   H141      1.0  0.73311  0.17708  0.72028  1.0000
  H   H142      1.0  0.17942  0.44733  0.74753  1.0000
  H   H143      1.0  0.55441  0.73346  0.77946  1.0000
  H   H144      1.0  0.26136  0.82172  0.71535  1.0000
  C   C1        1.0  0.47329  0.99995  0.27493  1.0000
  C   C2        1.0  0.99818  0.47267  0.27037  1.0000
  C   C3        1.0  0.52417  0.52602  0.26970  1.0000
  C   C4        1.0  0.52572  0.00059  0.28650  1.0000
  C   C5        1.0  0.99997  0.52422  0.28759  1.0000
  C   C6        1.0  0.47464  0.47481  0.29220  1.0000
  C   C7        1.0  0.47403  0.50021  0.29135  1.0000
  C   C8        1.0  0.50040  0.97457  0.28475  1.0000
  C   C9        1.0  0.02532  0.52448  0.28185  1.0000
  C   C10       1.0  0.52452  0.50058  0.26864  1.0000
  C   C11       1.0  0.49870  0.02596  0.27768  1.0000
  C   C12       1.0  0.97308  0.47236  0.27901  1.0000
  C   C13       1.0  0.49946  0.52659  0.27857  1.0000
  C   C14       1.0  0.47383  0.97426  0.28401  1.0000
  C   C15       1.0  0.02440  0.49792  0.27259  1.0000
  C   C16       1.0  0.49936  0.47431  0.28381  1.0000
  C   C17       1.0  0.52541  0.02628  0.28069  1.0000
  C   C18       1.0  0.97433  0.49889  0.29185  1.0000
  C   C19       1.0  0.44894  0.49893  0.29817  1.0000
  C   C20       1.0  0.50111  0.95031  0.27574  1.0000
  C   C21       1.0  0.05002  0.55000  0.28396  1.0000
  C   C22       1.0  0.54882  0.50145  0.25498  1.0000
  C   C23       1.0  0.49733  0.05024  0.27826  1.0000
  C   C24       1.0  0.94800  0.44693  0.27250  1.0000
  C   C25       1.0  0.42342  0.47361  0.29874  1.0000
  C   C26       1.0  0.52643  0.95001  0.27607  1.0000
  C   C27       1.0  0.05028  0.57559  0.28360  1.0000
  C   C28       1.0  0.57429  0.52648  0.25127  1.0000
  C   C29       1.0  0.47102  0.05022  0.26473  1.0000
  C   C30       1.0  0.94656  0.42101  0.26471  1.0000
  C   C31       1.0  0.42459  0.44903  0.30483  1.0000
  C   C32       1.0  0.55167  0.97546  0.28615  1.0000
  C   C33       1.0  0.02522  0.57525  0.28378  1.0000
  C   C34       1.0  0.57386  0.55122  0.25149  1.0000
  C   C35       1.0  0.44587  0.02492  0.25701  1.0000
  C   C36       1.0  0.97123  0.42148  0.25700  1.0000
  C   C37       1.0  0.44982  0.44899  0.30242  1.0000
  C   C38       1.0  0.55170  0.00078  0.28893  1.0000
  C   C39       1.0  0.00020  0.55000  0.29047  1.0000
  C   C40       1.0  0.54937  0.55163  0.26097  1.0000
  C   C41       1.0  0.44676  0.99954  0.26680  1.0000
  C   C42       1.0  0.99699  0.44673  0.25927  1.0000
  C   C43       1.0  0.45024  0.42371  0.30406  1.0000
  C   C44       1.0  0.57683  0.02637  0.28846  1.0000
  C   C45       1.0  0.97519  0.54982  0.29668  1.0000
  C   C46       1.0  0.54988  0.57702  0.26811  1.0000
  C   C47       1.0  0.42195  0.97383  0.27044  1.0000
  C   C48       1.0  0.02210  0.44653  0.25655  1.0000
  C   C49       1.0  0.47443  0.42305  0.29757  1.0000
  C   C50       1.0  0.57621  0.05128  0.27922  1.0000
  C   C51       1.0  0.95039  0.52524  0.30307  1.0000
  C   C52       1.0  0.52587  0.57766  0.27580  1.0000
  C   C53       1.0  0.42305  0.94879  0.28802  1.0000
  C   C54       1.0  0.04814  0.47093  0.26507  1.0000
  C   C55       1.0  0.49897  0.44886  0.29059  1.0000
  C   C56       1.0  0.55020  0.05078  0.27286  1.0000
  C   C57       1.0  0.95093  0.50003  0.30451  1.0000
  C   C58       1.0  0.50058  0.55224  0.27726  1.0000
  C   C59       1.0  0.44948  0.94972  0.29597  1.0000
  C   C60       1.0  0.04831  0.49639  0.26815  1.0000
  C   C61       1.0  0.70048  0.54257  0.27033  1.0000
  C   C62       1.0  0.45200  0.15939  0.19949  1.0000
  C   C63       1.0  0.83420  0.29588  0.21427  1.0000
  C   C64       1.0  0.29126  0.45404  0.20711  1.0000
  C   C65       1.0  0.54086  0.84290  0.20894  1.0000
  C   C66       1.0  0.15560  0.69944  0.23551  1.0000
  C   C67       1.0  0.72446  0.53967  0.26246  1.0000
  C   C68       1.0  0.45456  0.18682  0.19975  1.0000
  C   C69       1.0  0.80732  0.27132  0.22239  1.0000
  C   C70       1.0  0.26613  0.45577  0.20904  1.0000
  C   C71       1.0  0.53935  0.81562  0.22137  1.0000
  C   C72       1.0  0.18239  0.72425  0.22761  1.0000
  C   C73       1.0  0.51247  0.68591  0.31387  1.0000
  C   C74       1.0  0.31659  0.82235  0.29163  1.0000
  C   C75       1.0  0.17556  0.48660  0.30919  1.0000
  C   C76       1.0  0.49507  0.31617  0.30583  1.0000
  C   C77       1.0  0.68038  0.17565  0.26091  1.0000
  C   C78       1.0  0.82320  0.50673  0.28282  1.0000
  C   C79       1.0  0.74881  0.56387  0.23517  1.0000
  C   C80       1.0  0.42880  0.18905  0.18026  1.0000
  C   C81       1.0  0.80358  0.24458  0.20611  1.0000
  C   C82       1.0  0.23828  0.43119  0.18788  1.0000
  C   C83       1.0  0.56375  0.81346  0.22098  1.0000
  C   C84       1.0  0.18233  0.75054  0.20163  1.0000
  C   C85       1.0  0.77220  0.56226  0.22901  1.0000
  C   C86       1.0  0.43117  0.21446  0.19341  1.0000
  C   C87       1.0  0.77840  0.22093  0.21153  1.0000
  C   C88       1.0  0.21485  0.43209  0.19877  1.0000
  C   C89       1.0  0.56412  0.78821  0.24589  1.0000
  C   C90       1.0  0.20770  0.77462  0.20190  1.0000
  C   C91       1.0  0.77292  0.53635  0.25254  1.0000
  C   C92       1.0  0.45956  0.23913  0.22638  1.0000
  C   C93       1.0  0.75525  0.22270  0.23001  1.0000
  C   C94       1.0  0.21809  0.45761  0.23425  1.0000
  C   C95       1.0  0.53946  0.76349  0.26569  1.0000
  C   C96       1.0  0.23472  0.77391  0.22945  1.0000
  C   C97       1.0  0.74831  0.51174  0.27870  1.0000
  C   C98       1.0  0.48546  0.23705  0.24168  1.0000
  C   C99       1.0  0.75876  0.24958  0.24616  1.0000
  C   C100      1.0  0.24601  0.48260  0.25297  1.0000
  C   C101      1.0  0.51419  0.76541  0.25945  1.0000
  C   C102      1.0  0.23473  0.74734  0.25280  1.0000
  C   C103      1.0  0.72445  0.51407  0.28220  1.0000
  C   C104      1.0  0.48219  0.21076  0.22628  1.0000
  C   C105      1.0  0.78511  0.27339  0.24328  1.0000
  C   C106      1.0  0.26936  0.48101  0.23904  1.0000
  C   C107      1.0  0.51510  0.79170  0.24050  1.0000
  C   C108      1.0  0.20830  0.72301  0.25031  1.0000
  C   C109      1.0  0.74932  0.48593  0.30333  1.0000
  C   C110      1.0  0.51391  0.26166  0.27599  1.0000
  C   C111      1.0  0.73529  0.25114  0.26243  1.0000
  C   C112      1.0  0.24940  0.50819  0.28790  1.0000
  C   C113      1.0  0.48913  0.74063  0.27356  1.0000
  C   C114      1.0  0.26195  0.74661  0.28353  1.0000
  C   C115      1.0  0.77337  0.48458  0.30335  1.0000
  C   C116      1.0  0.51676  0.28689  0.29776  1.0000
  C   C117      1.0  0.70976  0.22743  0.26380  1.0000
  C   C118      1.0  0.22656  0.50915  0.30482  1.0000
  C   C119      1.0  0.48897  0.71530  0.29227  1.0000
  C   C120      1.0  0.28796  0.77083  0.29508  1.0000
  C   C121      1.0  0.79773  0.50886  0.27713  1.0000
  C   C122      1.0  0.49125  0.28911  0.28282  1.0000
  C   C123      1.0  0.70660  0.20088  0.25120  1.0000
  C   C124      1.0  0.19903  0.48452  0.28938  1.0000
  C   C125      1.0  0.51392  0.71321  0.29932  1.0000
  C   C126      1.0  0.28818  0.79718  0.27306  1.0000
  C   C127      1.0  0.79709  0.53423  0.25209  1.0000
  C   C128      1.0  0.46306  0.26536  0.24634  1.0000
  C   C129      1.0  0.72911  0.19892  0.23344  1.0000
  C   C130      1.0  0.19516  0.45925  0.25360  1.0000
  C   C131      1.0  0.53875  0.73725  0.28687  1.0000
  C   C132      1.0  0.26153  0.79831  0.23833  1.0000
  C   C133      1.0  0.47607  0.00120  0.77260  1.0000
  C   C134      1.0  0.00198  0.47465  0.76865  1.0000
  C   C135      1.0  0.52616  0.52698  0.76969  1.0000
  C   C136      1.0  0.52845  0.00142  0.78615  1.0000
  C   C137      1.0  0.00177  0.52507  0.78797  1.0000
  C   C138      1.0  0.47728  0.47508  0.79011  1.0000
  C   C139      1.0  0.47609  0.50010  0.79056  1.0000
  C   C140      1.0  0.50263  0.97555  0.78066  1.0000
  C   C141      1.0  0.02747  0.52638  0.78027  1.0000
  C   C142      1.0  0.52714  0.50192  0.76690  1.0000
  C   C143      1.0  0.50160  0.02711  0.77462  1.0000
  C   C144      1.0  0.97651  0.47329  0.77979  1.0000
  C   C145      1.0  0.50132  0.52686  0.78096  1.0000
  C   C146      1.0  0.47610  0.97533  0.77973  1.0000
  C   C147      1.0  0.02756  0.50042  0.76941  1.0000
  C   C148      1.0  0.50239  0.47525  0.78225  1.0000
  C   C149      1.0  0.52830  0.02725  0.77819  1.0000
  C   C150      1.0  0.97656  0.49928  0.79243  1.0000
  C   C151      1.0  0.45069  0.49825  0.79624  1.0000
  C   C152      1.0  0.50306  0.95119  0.77133  1.0000
  C   C153      1.0  0.05148  0.55233  0.78003  1.0000
  C   C154      1.0  0.55169  0.50352  0.75208  1.0000
  C   C155      1.0  0.50060  0.05153  0.77734  1.0000
  C   C156      1.0  0.95225  0.44735  0.77570  1.0000
  C   C157      1.0  0.42533  0.47268  0.79588  1.0000
  C   C158      1.0  0.52866  0.95057  0.77843  1.0000
  C   C159      1.0  0.05070  0.57746  0.77776  1.0000
  C   C160      1.0  0.57676  0.52899  0.74803  1.0000
  C   C161      1.0  0.47453  0.05171  0.76604  1.0000
  C   C162      1.0  0.95180  0.42201  0.76545  1.0000
  C   C163      1.0  0.42693  0.44841  0.80035  1.0000
  C   C164      1.0  0.55458  0.97579  0.79491  1.0000
  C   C165      1.0  0.02529  0.57613  0.77945  1.0000
  C   C166      1.0  0.57574  0.55331  0.75075  1.0000
  C   C167      1.0  0.44942  0.02650  0.75967  1.0000
  C   C168      1.0  0.97679  0.42360  0.75564  1.0000
  C   C169      1.0  0.45256  0.44901  0.79852  1.0000
  C   C170      1.0  0.55475  0.00130  0.79478  1.0000
  C   C171      1.0  0.00109  0.55039  0.78995  1.0000
  C   C172      1.0  0.55099  0.55293  0.76160  1.0000
  C   C173      1.0  0.44990  0.00101  0.76763  1.0000
  C   C174      1.0  0.00185  0.44935  0.75624  1.0000
  C   C175      1.0  0.45359  0.42409  0.79942  1.0000
  C   C176      1.0  0.58029  0.02681  0.79777  1.0000
  C   C177      1.0  0.97586  0.54938  0.79787  1.0000
  C   C178      1.0  0.55096  0.57794  0.77082  1.0000
  C   C179      1.0  0.42506  0.97546  0.77323  1.0000
  C   C180      1.0  0.02714  0.45020  0.74915  1.0000
  C   C181      1.0  0.47834  0.42407  0.79591  1.0000
  C   C182      1.0  0.57976  0.05193  0.78447  1.0000
  C   C183      1.0  0.95145  0.52448  0.80492  1.0000
  C   C184      1.0  0.52684  0.57789  0.78131  1.0000
  C   C185      1.0  0.42550  0.95017  0.78825  1.0000
  C   C186      1.0  0.05257  0.47518  0.75551  1.0000
  C   C187      1.0  0.50274  0.45011  0.79035  1.0000
  C   C188      1.0  0.55333  0.05164  0.77117  1.0000
  C   C189      1.0  0.95264  0.49964  0.80453  1.0000
  C   C190      1.0  0.50204  0.55216  0.78391  1.0000
  C   C191      1.0  0.45153  0.95086  0.79138  1.0000
  C   C192      1.0  0.05183  0.50007  0.76157  1.0000
  C   C193      1.0  0.70385  0.54851  0.75521  1.0000
  C   C194      1.0  0.45442  0.15993  0.70792  1.0000
  C   C195      1.0  0.84175  0.29482  0.71439  1.0000
  C   C196      1.0  0.29393  0.45510  0.70873  1.0000
  C   C197      1.0  0.54028  0.84194  0.71057  1.0000
  C   C198      1.0  0.15376  0.70252  0.71911  1.0000
  C   C199      1.0  0.72790  0.54526  0.75058  1.0000
  C   C200      1.0  0.45721  0.18746  0.70780  1.0000
  C   C201      1.0  0.81504  0.27006  0.72264  1.0000
  C   C202      1.0  0.26974  0.45795  0.71477  1.0000
  C   C203      1.0  0.53848  0.81455  0.72335  1.0000
  C   C204      1.0  0.18064  0.72738  0.71200  1.0000
  C   C205      1.0  0.50947  0.68452  0.80425  1.0000
  C   C206      1.0  0.31632  0.82508  0.79137  1.0000
  C   C207      1.0  0.18251  0.49420  0.80777  1.0000
  C   C208      1.0  0.49958  0.31736  0.81002  1.0000
  C   C209      1.0  0.68728  0.17528  0.76131  1.0000
  C   C210      1.0  0.82453  0.50884  0.77786  1.0000
  C   C211      1.0  0.75247  0.56901  0.72309  1.0000
  C   C212      1.0  0.43186  0.19013  0.69103  1.0000
  C   C213      1.0  0.81105  0.24334  0.70442  1.0000
  C   C214      1.0  0.24161  0.43405  0.69802  1.0000
  C   C215      1.0  0.56252  0.81207  0.72077  1.0000
  C   C216      1.0  0.18057  0.75373  0.68275  1.0000
  C   C217      1.0  0.77580  0.56686  0.71979  1.0000
  C   C218      1.0  0.43473  0.21573  0.70429  1.0000
  C   C219      1.0  0.78564  0.21974  0.70836  1.0000
  C   C220      1.0  0.21913  0.43618  0.71227  1.0000
  C   C221      1.0  0.56230  0.78664  0.74265  1.0000
  C   C222      1.0  0.20624  0.77779  0.68628  1.0000
  C   C223      1.0  0.77588  0.54065  0.74398  1.0000
  C   C224      1.0  0.46313  0.24017  0.73452  1.0000
  C   C225      1.0  0.76257  0.22147  0.72795  1.0000
  C   C226      1.0  0.22354  0.46235  0.74557  1.0000
  C   C227      1.0  0.53741  0.76211  0.76173  1.0000
  C   C228      1.0  0.23359  0.77701  0.71973  1.0000
  C   C229      1.0  0.75084  0.51646  0.76915  1.0000
  C   C230      1.0  0.48863  0.23767  0.74740  1.0000
  C   C231      1.0  0.76634  0.24846  0.74467  1.0000
  C   C232      1.0  0.25194  0.48662  0.76312  1.0000
  C   C233      1.0  0.51261  0.76439  0.75927  1.0000
  C   C234      1.0  0.23342  0.75034  0.74395  1.0000
  C   C235      1.0  0.72726  0.51938  0.77116  1.0000
  C   C236      1.0  0.48491  0.21117  0.73208  1.0000
  C   C237      1.0  0.79281  0.27218  0.74311  1.0000
  C   C238      1.0  0.27433  0.48372  0.74651  1.0000
  C   C239      1.0  0.51409  0.79086  0.74322  1.0000
  C   C240      1.0  0.20678  0.72606  0.73878  1.0000
  C   C241      1.0  0.75098  0.49030  0.79353  1.0000
  C   C242      1.0  0.51723  0.26206  0.78040  1.0000
  C   C243      1.0  0.74290  0.25020  0.75985  1.0000
  C   C244      1.0  0.25652  0.51280  0.79741  1.0000
  C   C245      1.0  0.48730  0.73978  0.77264  1.0000
  C   C246      1.0  0.26079  0.74953  0.77816  1.0000
  C   C247      1.0  0.77459  0.48816  0.79399  1.0000
  C   C248      1.0  0.52058  0.28752  0.80198  1.0000
  C   C249      1.0  0.71739  0.22659  0.76150  1.0000
  C   C250      1.0  0.23406  0.51510  0.81131  1.0000
  C   C251      1.0  0.48653  0.71423  0.78769  1.0000
  C   C252      1.0  0.28705  0.77363  0.79279  1.0000
  C   C253      1.0  0.79946  0.51199  0.76948  1.0000
  C   C254      1.0  0.49543  0.29014  0.78822  1.0000
  C   C255      1.0  0.71393  0.19983  0.74987  1.0000
  C   C256      1.0  0.20590  0.49117  0.79371  1.0000
  C   C257      1.0  0.51114  0.71188  0.79220  1.0000
  C   C258      1.0  0.28754  0.80013  0.77045  1.0000
  C   C259      1.0  0.79965  0.53776  0.74395  1.0000
  C   C260      1.0  0.46717  0.26659  0.75456  1.0000
  C   C261      1.0  0.73634  0.19766  0.73216  1.0000
  C   C262      1.0  0.20117  0.46534  0.76181  1.0000
  C   C263      1.0  0.53604  0.73567  0.77908  1.0000
  C   C264      1.0  0.26074  0.80139  0.73223  1.0000
  N   N1        1.0  0.67668  0.52139  0.28289  1.0000
  N   N2        1.0  0.47574  0.15594  0.24118  1.0000
  N   N3        1.0  0.84155  0.32017  0.26097  1.0000
  N   N4        1.0  0.31689  0.47598  0.22598  1.0000
  N   N5        1.0  0.52353  0.84632  0.25433  1.0000
  N   N6        1.0  0.15480  0.67510  0.26982  1.0000
  N   N7        1.0  0.53443  0.68272  0.32104  1.0000
  N   N8        1.0  0.31767  0.84671  0.26355  1.0000
  N   N9        1.0  0.15035  0.46516  0.30149  1.0000
  N   N10       1.0  0.47169  0.31946  0.27587  1.0000
  N   N11       1.0  0.67921  0.15164  0.27030  1.0000
  N   N12       1.0  0.84656  0.52830  0.26774  1.0000
  N   N13       1.0  0.68061  0.52744  0.77382  1.0000
  N   N14       1.0  0.47826  0.15649  0.75050  1.0000
  N   N15       1.0  0.84912  0.31880  0.76582  1.0000
  N   N16       1.0  0.31960  0.47650  0.72354  1.0000
  N   N17       1.0  0.52297  0.84566  0.75371  1.0000
  N   N18       1.0  0.15331  0.67839  0.75728  1.0000
  N   N19       1.0  0.53197  0.68169  0.81519  1.0000
  N   N20       1.0  0.31805  0.84969  0.76017  1.0000
  N   N21       1.0  0.15678  0.47287  0.79504  1.0000
  N   N22       1.0  0.47637  0.32082  0.78030  1.0000
  N   N23       1.0  0.68507  0.15067  0.77694  1.0000
  N   N24       1.0  0.84806  0.52968  0.76014  1.0000
  C   C265      1.0  0.61108  0.49845  0.33622  1.0000
  C   C266      1.0  0.60273  0.52011  0.28398  1.0000
  C  Sn1       1.0  0.61927  0.54482  0.21290  1.0000
  C  Sn2       1.0  0.64461  0.54784  0.19388  1.0000
  C   C267      1.0  0.65276  0.52603  0.24642  1.0000
  C   C268      1.0  0.63606  0.50139  0.31744  1.0000
  H   H145      1.0  0.59815  0.47938  0.39108  1.0000
  O  Te1       1.0  0.61063  0.56627  0.16144  1.0000
  O  Te2       1.0  0.66152  0.57231  0.12317  1.0000
  H   H146      1.0  0.64251  0.48462  0.35776  1.0000
  Mg  Mg1       1.0  0.64082  0.59562  0.07230  1.0000
  C   C269      1.0  0.50190  0.11945  0.40870  1.0000
  C   C270      1.0  0.48040  0.12921  0.27068  1.0000
  C  Sn3       1.0  0.45249  0.11162  0.12329  1.0000
  C  Sn4       1.0  0.44605  0.08374  0.11432  1.0000
  C   C271      1.0  0.46771  0.07416  0.25316  1.0000
  C   C272      1.0  0.49557  0.09195  0.39999  1.0000
  H   H147      1.0  0.52345  0.13320  0.52237  1.0000
  O  Te3       1.0  0.50628  0.12327  0.98653  1.0000
  O  Te4       1.0  0.49335  0.06726  0.96859  1.0000
  H   H148      1.0  0.51220  0.08438  0.50691  1.0000
  Mg  Mg2       1.0  0.47176  0.09071  0.81555  1.0000
  C   C273      1.0  0.89892  0.34770  0.23433  1.0000
  C   C274      1.0  0.87465  0.34280  0.26863  1.0000
  C  Sn5       1.0  0.87191  0.36501  0.29557  1.0000
  C  Sn6       1.0  0.89391  0.39261  0.28789  1.0000
  C   C275      1.0  0.91809  0.39729  0.25335  1.0000
  C   C276      1.0  0.92062  0.37492  0.22666  1.0000
  H   H149      1.0  0.90087  0.33039  0.21358  1.0000
  O  Te5       1.0  0.84753  0.35974  0.32976  1.0000
  O  Te6       1.0  0.89171  0.41519  0.31424  1.0000
  H   H150      1.0  0.93940  0.37872  0.19998  1.0000
  Mg  Mg3       1.0  0.85438  0.39740  0.35676  1.0000
  C   C277      1.0  0.34264  0.44819  0.15589  1.0000
  C   C278      1.0  0.34059  0.46687  0.23038  1.0000
  C  Sn7       1.0  0.36735  0.49078  0.32888  1.0000
  C  Sn8       1.0  0.39667  0.49603  0.35298  1.0000
  C   C279      1.0  0.39847  0.47723  0.27780  1.0000
  C   C280      1.0  0.37155  0.45336  0.17953  1.0000
  H   H151      1.0  0.32181  0.42973  0.07977  1.0000
  O  Te7       1.0  0.36488  0.50923  0.40245  1.0000
  O  Te8       1.0  0.42378  0.51978  0.45076  1.0000
  H   H152      1.0  0.37315  0.43891  0.12176  1.0000
  Mg  Mg4       1.0  0.40846  0.53869  0.52490  1.0000
  C   C281      1.0  0.55409  0.91940  0.25264  1.0000
  C   C282      1.0  0.53124  0.92370  0.25041  1.0000
  C  Sn9       1.0  0.50511  0.90119  0.26170  1.0000
  C  Sn10      1.0  0.50186  0.87390  0.27553  1.0000
  C   C283      1.0  0.52486  0.86982  0.27778  1.0000
  C   C284      1.0  0.55091  0.89249  0.26635  1.0000
  H   H153      1.0  0.57426  0.93695  0.24390  1.0000
  O  Te9       1.0  0.48249  0.90586  0.25922  1.0000
  O  Te10      1.0  0.47598  0.85103  0.28707  1.0000
  H   H154      1.0  0.56861  0.88916  0.26820  1.0000
  Mg  Mg5       1.0  0.45142  0.86800  0.27829  1.0000
  C   C285      1.0  0.13028  0.62340  0.42069  1.0000
  C   C286      1.0  0.12995  0.64576  0.29514  1.0000
  C  Sn11      1.0  0.10167  0.64665  0.16259  1.0000
  C  Sn12      1.0  0.07323  0.62473  0.15599  1.0000
  C   C287      1.0  0.07381  0.60247  0.28231  1.0000
  C   C288      1.0  0.10224  0.60178  0.41433  1.0000
  H   H155      1.0  0.15228  0.62288  0.52292  1.0000
  O  Te11      1.0  0.10176  0.66913  0.03814  1.0000
  O  Te12      1.0  0.04463  0.62510  0.02499  1.0000
  H   H156      1.0  0.10249  0.58448  0.51161  1.0000
  Mg  Mg6       1.0  0.13186  0.66177  0.88505  1.0000
  C   C289      1.0  0.56140  0.64691  0.43626  1.0000
  C   C290      1.0  0.53848  0.65623  0.33044  1.0000
  C  Sn13      1.0  0.50815  0.63828  0.20289  1.0000
  C  Sn14      1.0  0.50072  0.61049  0.18123  1.0000
  C   C291      1.0  0.52382  0.60135  0.28786  1.0000
  C   C292      1.0  0.55409  0.61949  0.41504  1.0000
  H   H157      1.0  0.58482  0.66093  0.53475  1.0000
  O  Te13      1.0  0.48553  0.64795  0.09822  1.0000
  O  Te14      1.0  0.47059  0.59211  0.05481  1.0000
  H   H158      1.0  0.57183  0.61226  0.49705  1.0000
  Mg  Mg7       1.0  0.52284  0.61658  0.94397  1.0000
  C   C293      1.0  0.36530  0.91711  0.31408  1.0000
  C   C294      1.0  0.39245  0.92200  0.31347  1.0000
  C  Sn15      1.0  0.39520  0.90016  0.28127  1.0000
  C  Sn16      1.0  0.37028  0.87293  0.24907  1.0000
  C   C295      1.0  0.34321  0.86825  0.24982  1.0000
  C   C296      1.0  0.34070  0.89026  0.28226  1.0000
  H   H159      1.0  0.36335  0.93414  0.33907  1.0000
  O  Te15      1.0  0.42250  0.90541  0.28121  1.0000
  O  Te16      1.0  0.37242  0.85071  0.21644  1.0000
  H   H160      1.0  0.31967  0.88647  0.28259  1.0000
  Mg  Mg8       1.0  0.41433  0.86833  0.23013  1.0000
  C   C297      1.0  0.10053  0.44335  0.38266  1.0000
  C   C298      1.0  0.12088  0.46170  0.30631  1.0000
  C  Sn17      1.0  0.11910  0.48620  0.21899  1.0000
  C  Sn18      1.0  0.09651  0.49240  0.20816  1.0000
  C   C299      1.0  0.07627  0.47392  0.28510  1.0000
  C   C300      1.0  0.07825  0.44945  0.37211  1.0000
  H   H161      1.0  0.10207  0.42443  0.45007  1.0000
  O  Te17      1.0  0.13961  0.50430  0.14338  1.0000
  O  Te18      1.0  0.09423  0.51674  0.12174  1.0000
  H   H162      1.0  0.06250  0.43526  0.43132  1.0000
  Mg  Mg9       1.0  0.12736  0.53485  0.03960  1.0000
  C   C301      1.0  0.44665  0.36296  0.30340  1.0000
  C   C302      1.0  0.46897  0.39026  0.30660  1.0000
  C  Sn19      1.0  0.49484  0.39565  0.28805  1.0000
  C  Sn20      1.0  0.49835  0.37324  0.26586  1.0000
  C   C303      1.0  0.47587  0.34601  0.26270  1.0000
  C   C304      1.0  0.45009  0.34085  0.28144  1.0000
  H   H163      1.0  0.42669  0.35897  0.31779  1.0000
  O  Te19      1.0  0.51693  0.42305  0.29162  1.0000
  O  Te20      1.0  0.52397  0.37804  0.24695  1.0000
  H   H164      1.0  0.43279  0.31971  0.27884  1.0000
  Mg  Mg10      1.0  0.54782  0.41900  0.26054  1.0000
  C   C305      1.0  0.60006  0.10648  0.13367  1.0000
  C   C306      1.0  0.60035  0.08244  0.23865  1.0000
  C  Sn21      1.0  0.62872  0.08166  0.37021  1.0000
  C  Sn22      1.0  0.65729  0.10541  0.39688  1.0000
  C   C307      1.0  0.65675  0.12937  0.29126  1.0000
  C   C308      1.0  0.62823  0.12993  0.15995  1.0000
  H   H165      1.0  0.57799  0.10692  0.03214  1.0000
  O  Te21      1.0  0.62858  0.05747  0.47386  1.0000
  O  Te22      1.0  0.68598  0.10520  0.52748  1.0000
  H   H166      1.0  0.62801  0.14855  0.07878  1.0000
  Mg  Mg11      1.0  0.67366  0.06734  0.63496  1.0000
  C   C309      1.0  0.88586  0.49758  0.23027  1.0000
  C   C310      1.0  0.91563  0.51939  0.27244  1.0000
  C  Sn23      1.0  0.92393  0.54525  0.33060  1.0000
  C  Sn24      1.0  0.90197  0.54928  0.34677  1.0000
  C   C311      1.0  0.87224  0.52732  0.30438  1.0000
  C   C312      1.0  0.86418  0.50153  0.24625  1.0000
  H   H167      1.0  0.87962  0.47762  0.18539  1.0000
  O  Te23      1.0  0.95377  0.56682  0.37211  1.0000
  O  Te24      1.0  0.90965  0.57491  0.40465  1.0000
  H   H168      1.0  0.84113  0.48464  0.21373  1.0000
  Mg  Mg12      1.0  0.95323  0.59794  0.44533  1.0000
  C   C313      1.0  0.63011  0.50352  0.84597  1.0000
  C   C314      1.0  0.65042  0.52316  0.77268  1.0000
  C  Sn25      1.0  0.64825  0.54781  0.69442  1.0000
  C  Sn26      1.0  0.62529  0.55283  0.68970  1.0000
  C   C315      1.0  0.60509  0.53305  0.76351  1.0000
  C   C316      1.0  0.60747  0.50846  0.84144  1.0000
  H   H169      1.0  0.63196  0.48449  0.90636  1.0000
  O  Te25      1.0  0.66872  0.56720  0.62176  1.0000
  O  Te26      1.0  0.62261  0.57729  0.61237  1.0000
  H   H170      1.0  0.59175  0.49326  0.89828  1.0000
  Mg  Mg13      1.0  0.65586  0.59739  0.53100  1.0000
  C   C317      1.0  0.50547  0.10728  0.90988  1.0000
  C   C318      1.0  0.48113  0.08318  0.80135  1.0000
  C  Sn27      1.0  0.45319  0.08323  0.65236  1.0000
  C  Sn28      1.0  0.44962  0.10790  0.61158  1.0000
  C   C319      1.0  0.47412  0.13192  0.72090  1.0000
  C   C320      1.0  0.50197  0.13163  0.86970  1.0000
  H   H171      1.0  0.45201  0.10552  0.02494  1.0000
  O  Te27      1.0  0.42910  0.05896  0.54540  1.0000
  O  Te28      1.0  0.42195  0.10854  0.46344  1.0000
  H   H172      1.0  0.52082  0.15030  0.95362  1.0000
  Mg  Mg14      1.0  0.39584  0.07020  0.35817  1.0000
  C   C321      1.0  0.89370  0.38951  0.78855  1.0000
  C   C322      1.0  0.92063  0.39518  0.78170  1.0000
  C  Sn29      1.0  0.92432  0.37367  0.75371  1.0000
  C  Sn30      1.0  0.90056  0.34599  0.73217  1.0000
  C   C323      1.0  0.87370  0.34054  0.73911  1.0000
  C   C324      1.0  0.87025  0.36222  0.76724  1.0000
  H   H173      1.0  0.89103  0.40629  0.81022  1.0000
  O  Te29      1.0  0.95138  0.37969  0.74731  1.0000
  O  Te30      1.0  0.90364  0.32409  0.70396  1.0000
  H   H174      1.0  0.84939  0.35783  0.77242  1.0000
  Mg  Mg15      1.0  0.94479  0.34279  0.70583  1.0000
  C   C325      1.0  0.38273  0.49912  0.84544  1.0000
  C   C326      1.0  0.35118  0.48058  0.74449  1.0000
  C  Sn31      1.0  0.34266  0.45631  0.66370  1.0000
  C  Sn32      1.0  0.36620  0.45056  0.68466  1.0000
  C   C327      1.0  0.39769  0.46923  0.78604  1.0000
  C   C328      1.0  0.40596  0.49346  0.86625  1.0000
  H   H175      1.0  0.38913  0.51786  0.90760  1.0000
  O  Te31      1.0  0.31103  0.43801  0.56322  1.0000
  O  Te32      1.0  0.35833  0.42645  0.60543  1.0000
  H   H176      1.0  0.43039  0.50780  0.94451  1.0000
  Mg  Mg16      1.0  0.31204  0.40792  0.48124  1.0000
  C   C329      1.0  0.55391  0.90532  0.74006  1.0000
  C   C330      1.0  0.53379  0.87836  0.76591  1.0000
  C  Sn33      1.0  0.50807  0.87352  0.78411  1.0000
  C  Sn34      1.0  0.50246  0.89611  0.77618  1.0000
  C   C331      1.0  0.52272  0.92299  0.75014  1.0000
  C   C332      1.0  0.54838  0.92761  0.73215  1.0000
  H   H177      1.0  0.57376  0.90889  0.72604  1.0000
  O  Te33      1.0  0.48821  0.84646  0.80993  1.0000
  O  Te34      1.0  0.47693  0.89185  0.79389  1.0000
  H   H178      1.0  0.56395  0.94848  0.71201  1.0000
  Mg  Mg17      1.0  0.45654  0.85120  0.82692  1.0000
  C   C333      1.0  0.07397  0.63305  0.63146  1.0000
  C   C334      1.0  0.07473  0.60918  0.73751  1.0000
  C  Sn35      1.0  0.10333  0.60866  0.86629  1.0000
  C  Sn36      1.0  0.13165  0.63250  0.88906  1.0000
  C   C335      1.0  0.13063  0.65628  0.78239  1.0000
  C   C336      1.0  0.10189  0.65657  0.65388  1.0000
  H   H179      1.0  0.05173  0.63328  0.53210  1.0000
  O  Te35      1.0  0.10367  0.58464  0.97106  1.0000
  O  Te36      1.0  0.08554  0.63099  0.01682  1.0000
  H   H180      1.0  0.10130  0.67506  0.57189  1.0000
  Mg  Mg18      1.0  0.07387  0.59329  0.12724  1.0000
  C   C337      1.0  0.49576  0.61227  0.67146  1.0000
  C   C338      1.0  0.52039  0.60511  0.75750  1.0000
  C  Sn37      1.0  0.55049  0.62372  0.88261  1.0000
  C  Sn38      1.0  0.55597  0.64997  0.92208  1.0000
  C   C339      1.0  0.53117  0.65693  0.83539  1.0000
  C   C340      1.0  0.50114  0.63815  0.71037  1.0000
  H   H181      1.0  0.47252  0.59773  0.57481  1.0000
  O  Te37      1.0  0.57483  0.61624  0.96729  1.0000
  O  Te38      1.0  0.51081  0.66742  0.04662  1.0000
  H   H182      1.0  0.48208  0.64369  0.64388  1.0000
  Mg  Mg19      1.0  0.53639  0.64766  0.12689  1.0000
  C   C341      1.0  0.36762  0.91985  0.81304  1.0000
  C   C342      1.0  0.39456  0.92385  0.81398  1.0000
  C  Sn39      1.0  0.39660  0.90141  0.78378  1.0000
  C  Sn40      1.0  0.37117  0.87449  0.75204  1.0000
  C   C343      1.0  0.34431  0.87071  0.75124  1.0000
  C   C344      1.0  0.34252  0.89331  0.78168  1.0000
  H   H183      1.0  0.36622  0.93734  0.83648  1.0000
  O  Te39      1.0  0.42369  0.90576  0.78524  1.0000
  O  Te40      1.0  0.37259  0.85170  0.72140  1.0000
  H   H184      1.0  0.32165  0.89021  0.78082  1.0000
  Mg  Mg20      1.0  0.41449  0.86816  0.73664  1.0000
  C   C345      1.0  0.10821  0.50278  0.70309  1.0000
  C   C346      1.0  0.08434  0.48139  0.74292  1.0000
  C  Sn41      1.0  0.08586  0.45648  0.82021  1.0000
  C  Sn42      1.0  0.11180  0.45297  0.85822  1.0000
  C   C347      1.0  0.13557  0.47450  0.81799  1.0000
  C   C348      1.0  0.13380  0.49934  0.74060  1.0000
  H   H185      1.0  0.10686  0.52201  0.64331  1.0000
  O  Te41      1.0  0.06180  0.43532  0.85908  1.0000
  O  Te42      1.0  0.11391  0.42829  0.93551  1.0000
  H   H186      1.0  0.15230  0.51591  0.70990  1.0000
  Mg  Mg21      1.0  0.07527  0.40552  0.96386  1.0000
  C   C349      1.0  0.45226  0.35084  0.81618  1.0000
  C   C350      1.0  0.47165  0.34628  0.77958  1.0000
  C  Sn43      1.0  0.49691  0.36871  0.75824  1.0000
  C  Sn44      1.0  0.50280  0.39619  0.77396  1.0000
  C   C351      1.0  0.48328  0.40053  0.81074  1.0000
  C   C352      1.0  0.45807  0.37794  0.83179  1.0000
  H   H187      1.0  0.43276  0.33336  0.83258  1.0000
  O  Te43      1.0  0.51604  0.36378  0.72164  1.0000
  O  Te44      1.0  0.52789  0.41899  0.75333  1.0000
  H   H188      1.0  0.44307  0.38147  0.86025  1.0000
  Mg  Mg22      1.0  0.54732  0.40163  0.70462  1.0000
  C   C353      1.0  0.64585  0.08558  0.92310  1.0000
  C   C354      1.0  0.61416  0.07937  0.82365  1.0000
  C  Sn45      1.0  0.60413  0.09761  0.68553  1.0000
  C  Sn46      1.0  0.62628  0.12250  0.64652  1.0000
  C   C355      1.0  0.65793  0.12851  0.74670  1.0000
  C   C356      1.0  0.66771  0.11012  0.88466  1.0000
  H   H189      1.0  0.57840  0.06979  0.02978  1.0000
  O  Te45      1.0  0.57239  0.09109  0.58754  1.0000
  O  Te46      1.0  0.61689  0.14109  0.50915  1.0000
  H   H190      1.0  0.69224  0.11493  0.96155  1.0000
  Mg  Mg23      1.0  0.57106  0.12302  0.41342  1.0000
  C   C357      1.0  0.88694  0.49714  0.73575  1.0000
  C   C358      1.0  0.91685  0.51863  0.77707  1.0000
  C  Sn47      1.0  0.92539  0.54490  0.82999  1.0000
  C  Sn48      1.0  0.90353  0.54969  0.84169  1.0000
  C   C359      1.0  0.87367  0.52804  0.80020  1.0000
  C   C360      1.0  0.86537  0.50184  0.74733  1.0000
  H   H191      1.0  0.88052  0.47686  0.69494  1.0000
  O  Te47      1.0  0.95537  0.56614  0.87071  1.0000
  O  Te48      1.0  0.91145  0.57574  0.89429  1.0000
  H   H192      1.0  0.84221  0.48520  0.71547  1.0000
  Mg  Mg24      1.0  0.95514  0.59806  0.93597  1.0000
