data_image0
_chemical_formula_structural       H24C60S12N24C2Sn2C2HTe2HMgC2Sn2C2HTe2HMgC2Sn2C2HTe2HMgC2Sn2C2HTe2HMgC2Sn2C2HTe2HMgC2Sn2C2HTe2HMgC2Sn2C2HTe2HMgC2Sn2C2HTe2HMgC2Sn2C2HTe2HMgC2Sn2C2HTe2HMgC2Sn2C2HTe2HMgC2Sn2C2HTe2HMg
_chemical_formula_sum              "H48 C108 S12 N24 Sn24 Te24 Mg12"
_cell_length_a       39.6927
_cell_length_b       40.029
_cell_length_c       7.97873
_cell_angle_alpha    108.226
_cell_angle_beta     62.2814
_cell_angle_gamma    120.377

_symmetry_space_group_name_H-M    'P1'
_space_group_IT_number       1

loop_
  _space_group_symop_operation_xyz
  'x, y, z'

loop_
  _atom_site_type_symbol
  _atom_site_label
  _atom_site_symmetry_multiplicity
  _atom_site_fract_x
  _atom_site_fract_y
  _atom_site_fract_z
  _atom_site_occupancy
  H   H1        1.0  0.88413  0.48217  0.26536  1.0000
  H   H2        1.0  0.52991  0.40797  0.14909  1.0000
  H   H3        1.0  0.59412  0.11980  0.27555  1.0000
  H   H4        1.0  0.11908  0.52001  0.25233  1.0000
  H   H5        1.0  0.47409  0.60245  0.36186  1.0000
  H   H6        1.0  0.40368  0.88556  0.22553  1.0000
  H   H7        1.0  0.95801  0.53779  0.26216  1.0000
  H   H8        1.0  0.47383  0.42537  0.15592  1.0000
  H   H9        1.0  0.57885  0.04735  0.26094  1.0000
  H   H10       1.0  0.04481  0.46255  0.24891  1.0000
  H   H11       1.0  0.53004  0.58490  0.36371  1.0000
  H   H12       1.0  0.41856  0.95843  0.23781  1.0000
  H   H13       1.0  0.88134  0.48169  0.75523  1.0000
  H   H14       1.0  0.52499  0.39756  0.64262  1.0000
  H   H15       1.0  0.58779  0.11641  0.83033  1.0000
  H   H16       1.0  0.11469  0.51781  0.75604  1.0000
  H   H17       1.0  0.47004  0.59363  0.86301  1.0000
  H   H18       1.0  0.41533  0.87804  0.65904  1.0000
  H   H19       1.0  0.95608  0.53831  0.75513  1.0000
  H   H20       1.0  0.46813  0.41567  0.64860  1.0000
  H   H21       1.0  0.57466  0.04388  0.82392  1.0000
  H   H22       1.0  0.04069  0.46212  0.75444  1.0000
  H   H23       1.0  0.52532  0.57500  0.86598  1.0000
  H   H24       1.0  0.42877  0.95007  0.66780  1.0000
  C   C1        1.0  0.35209  0.65082  0.27387  1.0000
  C   C2        1.0  0.35601  0.70886  0.26167  1.0000
  C   C3        1.0  0.29681  0.65302  0.26316  1.0000
  C   C4        1.0  0.65144  0.35643  0.22284  1.0000
  C   C5        1.0  0.64696  0.29747  0.22498  1.0000
  C   C6        1.0  0.70601  0.35283  0.23280  1.0000
  C   C7        1.0  0.89466  0.46008  0.24640  1.0000
  C   C8        1.0  0.54654  0.43811  0.20270  1.0000
  C   C9        1.0  0.56429  0.11015  0.26023  1.0000
  C   C10       1.0  0.10785  0.54120  0.26591  1.0000
  C   C11       1.0  0.45713  0.57190  0.31405  1.0000
  C   C12       1.0  0.43407  0.89588  0.23703  1.0000
  C   C13       1.0  0.93595  0.47502  0.24592  1.0000
  C   C14       1.0  0.53003  0.46431  0.22249  1.0000
  C   C15       1.0  0.53857  0.06906  0.25766  1.0000
  C   C16       1.0  0.06655  0.52530  0.26500  1.0000
  C   C17       1.0  0.47328  0.54589  0.30052  1.0000
  C   C18       1.0  0.45932  0.93706  0.23880  1.0000
  C   C19       1.0  0.96437  0.51406  0.25723  1.0000
  C   C20       1.0  0.49328  0.45476  0.19976  1.0000
  C   C21       1.0  0.54927  0.04057  0.25476  1.0000
  C   C22       1.0  0.03832  0.48617  0.25328  1.0000
  C   C23       1.0  0.50997  0.55542  0.32394  1.0000
  C   C24       1.0  0.44844  0.96544  0.24176  1.0000
  C   C25       1.0  0.00123  0.48199  0.24992  1.0000
  C   C26       1.0  0.51703  0.52234  0.28930  1.0000
  C   C27       1.0  0.48110  0.00304  0.24708  1.0000
  C   C28       1.0  0.00149  0.51806  0.25902  1.0000
  C   C29       1.0  0.48569  0.48767  0.23853  1.0000
  C   C30       1.0  0.51683  0.00302  0.24645  1.0000
  C   C31       1.0  0.34962  0.64357  0.77166  1.0000
  C   C32       1.0  0.35507  0.70245  0.76095  1.0000
  C   C33       1.0  0.29493  0.64742  0.76433  1.0000
  C   C34       1.0  0.64769  0.34899  0.72427  1.0000
  C   C35       1.0  0.64459  0.29082  0.72843  1.0000
  C   C36       1.0  0.70337  0.34689  0.73139  1.0000
  C   C37       1.0  0.89201  0.46013  0.74263  1.0000
  C   C38       1.0  0.54096  0.42779  0.69732  1.0000
  C   C39       1.0  0.56261  0.10465  0.77579  1.0000
  C   C40       1.0  0.10477  0.53983  0.76705  1.0000
  C   C41       1.0  0.45299  0.56315  0.81481  1.0000
  C   C42       1.0  0.44070  0.88912  0.71147  1.0000
  C   C43       1.0  0.93328  0.47551  0.74376  1.0000
  C   C44       1.0  0.52450  0.45390  0.71590  1.0000
  C   C45       1.0  0.53880  0.06317  0.76630  1.0000
  C   C46       1.0  0.06357  0.52493  0.76605  1.0000
  C   C47       1.0  0.46913  0.53687  0.79776  1.0000
  C   C48       1.0  0.46458  0.93054  0.72435  1.0000
  C   C49       1.0  0.96202  0.51451  0.75314  1.0000
  C   C50       1.0  0.48798  0.44489  0.69231  1.0000
  C   C51       1.0  0.54787  0.03588  0.78981  1.0000
  C   C52       1.0  0.03481  0.48596  0.75642  1.0000
  C   C53       1.0  0.50550  0.54581  0.82195  1.0000
  C   C54       1.0  0.45548  0.95795  0.70239  1.0000
  C   C55       1.0  0.99801  0.48216  0.75176  1.0000
  C   C56       1.0  0.51234  0.51246  0.78384  1.0000
  C   C57       1.0  0.48543  0.99612  0.72832  1.0000
  C   C58       1.0  0.99887  0.51834  0.75754  1.0000
  C   C59       1.0  0.48100  0.47816  0.73096  1.0000
  C   C60       1.0  0.51765  0.99764  0.76657  1.0000
  S   S1        1.0  0.95496  0.44306  0.23584  1.0000
  S   S2        1.0  0.55580  0.51392  0.28909  1.0000
  S   S3        1.0  0.48823  0.04984  0.25450  1.0000
  S   S4        1.0  0.04756  0.55709  0.27322  1.0000
  S   S5        1.0  0.44694  0.49609  0.23900  1.0000
  S   S6        1.0  0.50976  0.95639  0.24086  1.0000
  S   S7        1.0  0.95161  0.44340  0.73869  1.0000
  S   S8        1.0  0.55067  0.50341  0.78305  1.0000
  S   S9        1.0  0.49284  0.04208  0.71905  1.0000
  S   S10       1.0  0.04531  0.55708  0.77094  1.0000
  S   S11       1.0  0.44278  0.48736  0.73107  1.0000
  S   S12       1.0  0.51039  0.95150  0.77286  1.0000
  N   N1        1.0  0.69025  0.37543  0.22923  1.0000
  N   N2        1.0  0.62855  0.31747  0.21971  1.0000
  N   N3        1.0  0.68564  0.31375  0.23061  1.0000
  N   N4        1.0  0.31285  0.63126  0.27229  1.0000
  N   N5        1.0  0.37504  0.68966  0.26864  1.0000
  N   N6        1.0  0.31706  0.69195  0.25830  1.0000
  N   N7        1.0  0.87171  0.42285  0.22930  1.0000
  N   N8        1.0  0.57874  0.45021  0.24746  1.0000
  N   N9        1.0  0.55234  0.13323  0.24212  1.0000
  N   N10       1.0  0.13005  0.57866  0.27781  1.0000
  N   N11       1.0  0.42451  0.55904  0.27103  1.0000
  N   N12       1.0  0.44712  0.87333  0.25120  1.0000
  N   N13       1.0  0.68681  0.36868  0.72697  1.0000
  N   N14       1.0  0.62511  0.31008  0.72623  1.0000
  N   N15       1.0  0.68371  0.30779  0.73017  1.0000
  N   N16       1.0  0.31027  0.62481  0.77165  1.0000
  N   N17       1.0  0.37339  0.68232  0.76573  1.0000
  N   N18       1.0  0.31597  0.68637  0.76010  1.0000
  N   N19       1.0  0.86928  0.42274  0.73142  1.0000
  N   N20       1.0  0.57304  0.44025  0.74378  1.0000
  N   N21       1.0  0.55368  0.12606  0.72460  1.0000
  N   N22       1.0  0.12830  0.57706  0.77660  1.0000
  N   N23       1.0  0.42020  0.55046  0.77334  1.0000
  N   N24       1.0  0.44954  0.86693  0.75772  1.0000
  C   C61       1.0  0.79521  0.35957  0.26811  1.0000
  C   C62       1.0  0.82602  0.39734  0.22781  1.0000
  C  Sn1       1.0  0.81649  0.42369  0.19841  1.0000
  C  Sn2       1.0  0.77530  0.41193  0.20971  1.0000
  C   C63       1.0  0.74469  0.37409  0.25024  1.0000
  C   C64       1.0  0.75457  0.34796  0.27935  1.0000
  H   H25       1.0  0.80284  0.33936  0.29073  1.0000
  O  Te1       1.0  0.84766  0.46131  0.15822  1.0000
  O  Te2       1.0  0.76492  0.43768  0.18102  1.0000
  H   H26       1.0  0.73070  0.31873  0.31067  1.0000
  Mg  Mg1       1.0  0.81820  0.48583  0.13007  1.0000
  C   C65       1.0  0.58387  0.36206  0.20407  1.0000
  C   C66       1.0  0.62332  0.37466  0.20886  1.0000
  C  Sn3       1.0  0.64828  0.41435  0.23829  1.0000
  C  Sn4       1.0  0.63338  0.44186  0.26340  1.0000
  C   C67       1.0  0.59385  0.42895  0.25850  1.0000
  C   C68       1.0  0.56914  0.38917  0.22889  1.0000
  H   H27       1.0  0.56473  0.33128  0.18127  1.0000
  O  Te3       1.0  0.68763  0.42645  0.24261  1.0000
  O  Te4       1.0  0.65767  0.48170  0.29313  1.0000
  H   H28       1.0  0.53858  0.37942  0.22531  1.0000
  Mg  Mg2       1.0  0.70915  0.48386  0.28734  1.0000
  C   C69       1.0  0.57369  0.22638  0.21238  1.0000
  C   C70       1.0  0.61197  0.25129  0.23585  1.0000
  C  Sn5       1.0  0.63507  0.23613  0.25242  1.0000
  C  Sn6       1.0  0.61949  0.19526  0.24524  1.0000
  C   C71       1.0  0.58118  0.17059  0.22158  1.0000
  C   C72       1.0  0.55831  0.18607  0.20521  1.0000
  H   H29       1.0  0.55601  0.23835  0.19961  1.0000
  O  Te5       1.0  0.67324  0.26144  0.27587  1.0000
  O  Te6       1.0  0.64194  0.17934  0.26136  1.0000
  H   H30       1.0  0.52870  0.16677  0.18691  1.0000
  Mg  Mg3       1.0  0.69235  0.22576  0.29136  1.0000
  C   C73       1.0  0.21867  0.58491  0.30978  1.0000
  C   C74       1.0  0.24928  0.62212  0.25811  1.0000
  C  Sn7       1.0  0.23901  0.64710  0.22192  1.0000
  C  Sn8       1.0  0.19728  0.63452  0.23793  1.0000
  C   C75       1.0  0.16687  0.59724  0.28984  1.0000
  C   C76       1.0  0.17750  0.57248  0.32567  1.0000
  H   H31       1.0  0.22688  0.56576  0.33760  1.0000
  O  Te7       1.0  0.26999  0.68418  0.17038  1.0000
  O  Te8       1.0  0.18615  0.65889  0.20264  1.0000
  H   H32       1.0  0.15378  0.54368  0.36579  1.0000
  Mg  Mg4       1.0  0.23945  0.70677  0.13668  1.0000
  C   C77       1.0  0.35907  0.56567  0.26896  1.0000
  C   C78       1.0  0.39956  0.57850  0.26231  1.0000
  C  Sn9       1.0  0.42598  0.61828  0.27339  1.0000
  C  Sn10      1.0  0.41149  0.64565  0.29151  1.0000
  C   C79       1.0  0.37091  0.63252  0.29817  1.0000
  C   C80       1.0  0.34475  0.59265  0.28691  1.0000
  H   H33       1.0  0.33881  0.53483  0.26036  1.0000
  O  Te9       1.0  0.46635  0.63059  0.26646  1.0000
  O  Te10      1.0  0.43722  0.68557  0.30294  1.0000
  H   H34       1.0  0.31339  0.58273  0.29218  1.0000
  Mg  Mg5       1.0  0.48970  0.68804  0.28723  1.0000
  C   C81       1.0  0.36188  0.78165  0.23591  1.0000
  C   C82       1.0  0.37501  0.75586  0.24349  1.0000
  C  Sn11      1.0  0.41316  0.76998  0.26447  1.0000
  C  Sn12      1.0  0.43857  0.81069  0.27813  1.0000
  C   C83       1.0  0.42515  0.83625  0.27053  1.0000
  C   C84       1.0  0.38692  0.82180  0.24945  1.0000
  H   H35       1.0  0.33229  0.77048  0.21970  1.0000
  O  Te11      1.0  0.42581  0.74381  0.27171  1.0000
  O  Te12      1.0  0.47684  0.82559  0.29924  1.0000
  H   H36       1.0  0.37675  0.84178  0.24371  1.0000
  Mg  Mg6       1.0  0.48053  0.77824  0.30168  1.0000
  C   C85       1.0  0.80246  0.42651  0.69708  1.0000
  C   C86       1.0  0.82435  0.41300  0.73442  1.0000
  C  Sn13      1.0  0.80635  0.37421  0.76785  1.0000
  C  Sn14      1.0  0.76569  0.34855  0.76368  1.0000
  C   C87       1.0  0.74406  0.36234  0.72606  1.0000
  C   C88       1.0  0.76236  0.40121  0.69287  1.0000
  H   H37       1.0  0.81662  0.45658  0.67130  1.0000
  O  Te13      1.0  0.82865  0.36120  0.80500  1.0000
  O  Te14      1.0  0.74697  0.30964  0.79652  1.0000
  H   H38       1.0  0.74542  0.41166  0.66385  1.0000
  Mg  Mg7       1.0  0.78986  0.30564  0.84094  1.0000
  C   C89       1.0  0.57000  0.36458  0.69630  1.0000
  C   C90       1.0  0.58220  0.40471  0.73573  1.0000
  C  Sn15      1.0  0.62020  0.42944  0.76189  1.0000
  C  Sn16      1.0  0.64641  0.41361  0.74818  1.0000
  C   C91       1.0  0.63394  0.37342  0.70854  1.0000
  C   C92       1.0  0.59584  0.34894  0.68267  1.0000
  H   H39       1.0  0.54054  0.34563  0.67618  1.0000
  O  Te15      1.0  0.63190  0.46946  0.80126  1.0000
  O  Te16      1.0  0.68456  0.43766  0.77362  1.0000
  H   H40       1.0  0.58642  0.31787  0.65202  1.0000
  Mg  Mg8       1.0  0.68681  0.49030  0.82466  1.0000
  C   C93       1.0  0.64010  0.21702  0.73020  1.0000
  C   C94       1.0  0.62775  0.24315  0.71964  1.0000
  C  Sn17      1.0  0.58785  0.22993  0.71838  1.0000
  C  Sn18      1.0  0.55987  0.18980  0.72793  1.0000
  C   C95       1.0  0.57251  0.16390  0.73860  1.0000
  C   C96       1.0  0.61251  0.17744  0.73971  1.0000
  H   H41       1.0  0.67104  0.22749  0.73116  1.0000
  O  Te17      1.0  0.57602  0.25642  0.70769  1.0000
  O  Te18      1.0  0.51980  0.17581  0.72698  1.0000
  H   H42       1.0  0.62206  0.15721  0.74801  1.0000
  Mg  Mg9       1.0  0.51816  0.22328  0.71062  1.0000
  C   C97       1.0  0.21557  0.58047  0.81069  1.0000
  C   C98       1.0  0.24697  0.61751  0.75993  1.0000
  C  Sn19      1.0  0.23782  0.64330  0.72315  1.0000
  C  Sn20      1.0  0.19644  0.63172  0.73763  1.0000
  C   C99       1.0  0.16524  0.59460  0.78864  1.0000
  C   C100      1.0  0.17474  0.56902  0.82508  1.0000
  H   H43       1.0  0.22292  0.56068  0.83898  1.0000
  O  Te19      1.0  0.26957  0.68020  0.67253  1.0000
  O  Te20      1.0  0.18642  0.65692  0.70172  1.0000
  H   H44       1.0  0.15042  0.54035  0.86450  1.0000
  Mg  Mg10      1.0  0.24046  0.70416  0.63746  1.0000
  C   C101      1.0  0.35519  0.55765  0.76957  1.0000
  C   C102      1.0  0.39552  0.57014  0.76404  1.0000
  C  Sn21      1.0  0.42225  0.60984  0.77449  1.0000
  C  Sn22      1.0  0.40825  0.63747  0.79084  1.0000
  C   C103      1.0  0.36784  0.62468  0.79639  1.0000
  C   C104      1.0  0.34135  0.58488  0.78576  1.0000
  H   H45       1.0  0.33469  0.52686  0.76145  1.0000
  O  Te21      1.0  0.46245  0.62182  0.76870  1.0000
  O  Te22      1.0  0.43431  0.67732  0.80161  1.0000
  H   H46       1.0  0.31012  0.57522  0.79017  1.0000
  Mg  Mg11      1.0  0.48638  0.67930  0.78797  1.0000
  C   C105      1.0  0.44251  0.79450  0.75467  1.0000
  C   C106      1.0  0.43074  0.82118  0.74508  1.0000
  C  Sn23      1.0  0.39054  0.80882  0.74959  1.0000
  C  Sn24      1.0  0.36164  0.76899  0.76403  1.0000
  C   C107      1.0  0.37370  0.74253  0.77368  1.0000
  C   C108      1.0  0.41402  0.75522  0.76899  1.0000
  H   H47       1.0  0.47369  0.80432  0.75115  1.0000
  O  Te23      1.0  0.37930  0.83585  0.73980  1.0000
  O  Te24      1.0  0.32125  0.75585  0.76889  1.0000
  H   H48       1.0  0.42310  0.73456  0.77654  1.0000
  Mg  Mg12      1.0  0.32068  0.80382  0.75147  1.0000
