data_image0
_chemical_formula_structural       H72C144N24SnCSn2CSnTe4Mg2SnCSn2CSnTe4Mg2SnCSn2CSnTe4Mg2SnCSn2CSnTe4Mg2SnCSn2CSnTe4Mg2SnCSn2CSnTe4Mg2SnCSn2CSnTe4Mg2SnCSn2CSnTe4Mg2SnCSn2CSnTe4Mg2SnCSn2CSnTe4Mg2SnCSn2CSnTe4Mg2SnCSn2CSnTe4Mg2SnCSn2CSnTe4Mg2SnCSn2CSnTe4Mg2SnCSn2CSnTe4Mg2SnCSn2CSnTe4Mg2SnCSn2CSnTe4Mg2SnCSn2CSnTe4Mg2SnCSn2CSnTe4Mg2SnCSn2CSnTe4Mg2SnCSn2CSnTe4Mg2SnCSn2CSnTe4Mg2SnCSn2CSnTe4Mg2SnCSn2CSnTe4Mg2SnCSn2CSnTe4Mg2SnCSn2CSnTe4Mg2SnCSn2CSnTe4Mg2SnCSn2CSnTe4Mg2SnCSn2CSnTe4Mg2SnCSn2CSnTe4Mg2SnCSn2CSnTe4Mg2SnCSn2CSnTe4Mg2SnCSn2CSnTe4Mg2SnCSn2CSnTe4Mg2SnCSn2CSnTe4Mg2SnCSn2CSnTe4Mg2
_chemical_formula_sum              "H72 C216 N24 Sn144 Te144 Mg72"
_cell_length_a       51.5988
_cell_length_b       51.5807
_cell_length_c       8.04182
_cell_angle_alpha    78.4204
_cell_angle_beta     73.5188
_cell_angle_gamma    119.972

_symmetry_space_group_name_H-M    'P1'
_space_group_IT_number       1

loop_
  _space_group_symop_operation_xyz
  'x, y, z'

loop_
  _atom_site_type_symbol
  _atom_site_label
  _atom_site_symmetry_multiplicity
  _atom_site_fract_x
  _atom_site_fract_y
  _atom_site_fract_z
  _atom_site_occupancy
  H   H1        1.0  0.48361  0.56005  0.30243  1.0000
  H   H2        1.0  0.43977  0.92940  0.24869  1.0000
  H   H3        1.0  0.07160  0.51289  0.28846  1.0000
  H   H4        1.0  0.51320  0.44170  0.28667  1.0000
  H   H5        1.0  0.55565  0.07361  0.29746  1.0000
  H   H6        1.0  0.92457  0.48488  0.27455  1.0000
  H   H7        1.0  0.58213  0.60444  0.26730  1.0000
  H   H8        1.0  0.39907  0.98430  0.24296  1.0000
  H   H9        1.0  0.02091  0.42039  0.24835  1.0000
  H   H10       1.0  0.41639  0.39904  0.30442  1.0000
  H   H11       1.0  0.59678  0.01913  0.29853  1.0000
  H   H12       1.0  0.97662  0.57955  0.29147  1.0000
  H   H13       1.0  0.60576  0.57411  0.27077  1.0000
  H   H14       1.0  0.42743  0.03611  0.26007  1.0000
  H   H15       1.0  0.96715  0.39664  0.24708  1.0000
  H   H16       1.0  0.39299  0.42936  0.30176  1.0000
  H   H17       1.0  0.56638  0.96505  0.30349  1.0000
  H   H18       1.0  0.02893  0.60257  0.30481  1.0000
  H   H19       1.0  0.55204  0.47774  0.28190  1.0000
  H   H20       1.0  0.52202  0.07803  0.27675  1.0000
  H   H21       1.0  0.92410  0.44930  0.24594  1.0000
  H   H22       1.0  0.45049  0.52921  0.24049  1.0000
  H   H23       1.0  0.47370  0.92457  0.26861  1.0000
  H   H24       1.0  0.07381  0.55148  0.29203  1.0000
  H   H25       1.0  0.71275  0.55375  0.30622  1.0000
  H   H26       1.0  0.45549  0.17450  0.15222  1.0000
  H   H27       1.0  0.83416  0.27846  0.31849  1.0000
  H   H28       1.0  0.28538  0.44861  0.20849  1.0000
  H   H29       1.0  0.55472  0.84149  0.28370  1.0000
  H   H30       1.0  0.15980  0.72032  0.25514  1.0000
  H   H31       1.0  0.50506  0.69393  0.20518  1.0000
  H   H32       1.0  0.31017  0.81279  0.29898  1.0000
  H   H33       1.0  0.18070  0.49777  0.31931  1.0000
  H   H34       1.0  0.49962  0.31740  0.28460  1.0000
  H   H35       1.0  0.68533  0.18910  0.25495  1.0000
  H   H36       1.0  0.81717  0.50405  0.18194  1.0000
  H   H37       1.0  0.48503  0.55583  0.80627  1.0000
  H   H38       1.0  0.44514  0.92688  0.74628  1.0000
  H   H39       1.0  0.07483  0.51102  0.79509  1.0000
  H   H40       1.0  0.51615  0.43871  0.77721  1.0000
  H   H41       1.0  0.55837  0.07155  0.80300  1.0000
  H   H42       1.0  0.93084  0.48730  0.75459  1.0000
  H   H43       1.0  0.58372  0.60106  0.76972  1.0000
  H   H44       1.0  0.40373  0.98101  0.72734  1.0000
  H   H45       1.0  0.02337  0.41858  0.75625  1.0000
  H   H46       1.0  0.41842  0.39549  0.80728  1.0000
  H   H47       1.0  0.60121  0.01860  0.80039  1.0000
  H   H48       1.0  0.98169  0.57932  0.80407  1.0000
  H   H49       1.0  0.60792  0.57142  0.77011  1.0000
  H   H50       1.0  0.43105  0.03285  0.74465  1.0000
  H   H51       1.0  0.97023  0.39589  0.74764  1.0000
  H   H52       1.0  0.39510  0.42589  0.80385  1.0000
  H   H53       1.0  0.57254  0.96523  0.79271  1.0000
  H   H54       1.0  0.03386  0.60137  0.81749  1.0000
  H   H55       1.0  0.55429  0.47429  0.79064  1.0000
  H   H56       1.0  0.52266  0.07388  0.79681  1.0000
  H   H57       1.0  0.92849  0.44978  0.74087  1.0000
  H   H58       1.0  0.45295  0.52579  0.74068  1.0000
  H   H59       1.0  0.47879  0.92271  0.77051  1.0000
  H   H60       1.0  0.07742  0.54911  0.79955  1.0000
  H   H61       1.0  0.71774  0.55622  0.80730  1.0000
  H   H62       1.0  0.45043  0.16602  0.67460  1.0000
  H   H63       1.0  0.83801  0.27894  0.81108  1.0000
  H   H64       1.0  0.28910  0.44792  0.70056  1.0000
  H   H65       1.0  0.55489  0.83660  0.80427  1.0000
  H   H66       1.0  0.16574  0.71641  0.76011  1.0000
  H   H67       1.0  0.51333  0.69507  0.65805  1.0000
  H   H68       1.0  0.31619  0.80905  0.79984  1.0000
  H   H69       1.0  0.18368  0.49621  0.82706  1.0000
  H   H70       1.0  0.50041  0.31324  0.76264  1.0000
  H   H71       1.0  0.68821  0.18831  0.75914  1.0000
  H   H72       1.0  0.82512  0.50991  0.67225  1.0000
  C   C1        1.0  0.47222  0.00457  0.26184  1.0000
  C   C2        1.0  0.99731  0.47190  0.26455  1.0000
  C   C3        1.0  0.52886  0.52926  0.27354  1.0000
  C   C4        1.0  0.52344  0.99857  0.28182  1.0000
  C   C5        1.0  0.99963  0.52765  0.28423  1.0000
  C   C6        1.0  0.47049  0.47528  0.28642  1.0000
  C   C7        1.0  0.47288  0.50442  0.27613  1.0000
  C   C8        1.0  0.49568  0.97240  0.27324  1.0000
  C   C9        1.0  0.02644  0.52612  0.28605  1.0000
  C   C10       1.0  0.52679  0.50047  0.27811  1.0000
  C   C11       1.0  0.49981  0.03065  0.27153  1.0000
  C   C12       1.0  0.97049  0.47344  0.26366  1.0000
  C   C13       1.0  0.50237  0.53169  0.27659  1.0000
  C   C14       1.0  0.46966  0.97580  0.25910  1.0000
  C   C15       1.0  0.02534  0.49749  0.27465  1.0000
  C   C16       1.0  0.49683  0.47273  0.28508  1.0000
  C   C17       1.0  0.52625  0.02760  0.28145  1.0000
  C   C18       1.0  0.97163  0.50203  0.27504  1.0000
  C   C19       1.0  0.50476  0.55932  0.28727  1.0000
  C   C20       1.0  0.44197  0.95142  0.24954  1.0000
  C   C21       1.0  0.05061  0.49427  0.27448  1.0000
  C   C22       1.0  0.49338  0.44406  0.28840  1.0000
  C   C23       1.0  0.55396  0.05206  0.29043  1.0000
  C   C24       1.0  0.94604  0.50478  0.27789  1.0000
  C   C25       1.0  0.53313  0.58614  0.28473  1.0000
  C   C26       1.0  0.41548  0.95320  0.24879  1.0000
  C   C27       1.0  0.04929  0.46643  0.26790  1.0000
  C   C28       1.0  0.46443  0.41701  0.29815  1.0000
  C   C29       1.0  0.58019  0.05007  0.29418  1.0000
  C   C30       1.0  0.94693  0.53253  0.28159  1.0000
  C   C31       1.0  0.55960  0.58432  0.27223  1.0000
  C   C32       1.0  0.41832  0.98143  0.24908  1.0000
  C   C33       1.0  0.02202  0.44161  0.25841  1.0000
  C   C34       1.0  0.43847  0.41915  0.30336  1.0000
  C   C35       1.0  0.57714  0.02165  0.29699  1.0000
  C   C36       1.0  0.97450  0.55761  0.28880  1.0000
  C   C37       1.0  0.55794  0.55619  0.26964  1.0000
  C   C38       1.0  0.44620  0.00730  0.25542  1.0000
  C   C39       1.0  0.99589  0.44377  0.25517  1.0000
  C   C40       1.0  0.44110  0.44811  0.29465  1.0000
  C   C41       1.0  0.54924  0.99569  0.29188  1.0000
  C   C42       1.0  0.00080  0.55572  0.29196  1.0000
  C   C43       1.0  0.58427  0.55393  0.26792  1.0000
  C   C44       1.0  0.44803  0.03535  0.26158  1.0000
  C   C45       1.0  0.96796  0.41808  0.24825  1.0000
  C   C46       1.0  0.41527  0.45072  0.29079  1.0000
  C   C47       1.0  0.54690  0.96713  0.29261  1.0000
  C   C48       1.0  0.02878  0.58168  0.29726  1.0000
  C   C49       1.0  0.58199  0.52572  0.27424  1.0000
  C   C50       1.0  0.47488  0.06100  0.27042  1.0000
  C   C51       1.0  0.94156  0.41928  0.25051  1.0000
  C   C52       1.0  0.41812  0.47957  0.27156  1.0000
  C   C53       1.0  0.51966  0.94148  0.28782  1.0000
  C   C54       1.0  0.05532  0.58072  0.29478  1.0000
  C   C55       1.0  0.55308  0.49936  0.27949  1.0000
  C   C56       1.0  0.50076  0.05812  0.27177  1.0000
  C   C57       1.0  0.94394  0.44769  0.25376  1.0000
  C   C58       1.0  0.44749  0.50623  0.26235  1.0000
  C   C59       1.0  0.49420  0.94448  0.27916  1.0000
  C   C60       1.0  0.05311  0.55224  0.29321  1.0000
  C   C61       1.0  0.70958  0.53175  0.29116  1.0000
  C   C62       1.0  0.46914  0.18583  0.22973  1.0000
  C   C63       1.0  0.81741  0.28458  0.29735  1.0000
  C   C64       1.0  0.28652  0.46783  0.25229  1.0000
  C   C65       1.0  0.53216  0.82273  0.27851  1.0000
  C   C66       1.0  0.17877  0.71599  0.25149  1.0000
  C   C67       1.0  0.52311  0.70839  0.25347  1.0000
  C   C68       1.0  0.29281  0.81843  0.28353  1.0000
  C   C69       1.0  0.17792  0.47590  0.30435  1.0000
  C   C70       1.0  0.47745  0.29910  0.27420  1.0000
  C   C71       1.0  0.70376  0.18417  0.25568  1.0000
  C   C72       1.0  0.81794  0.52296  0.22823  1.0000
  C   C73       1.0  0.47579  0.00168  0.76271  1.0000
  C   C74       1.0  0.00106  0.47119  0.76492  1.0000
  C   C75       1.0  0.53099  0.52582  0.77500  1.0000
  C   C76       1.0  0.52750  0.99677  0.78521  1.0000
  C   C77       1.0  0.00399  0.52708  0.78738  1.0000
  C   C78       1.0  0.47269  0.47168  0.78858  1.0000
  C   C79       1.0  0.47500  0.50079  0.77839  1.0000
  C   C80       1.0  0.50008  0.97041  0.77592  1.0000
  C   C81       1.0  0.03032  0.52486  0.79067  1.0000
  C   C82       1.0  0.52909  0.49705  0.78004  1.0000
  C   C83       1.0  0.50268  0.02773  0.77743  1.0000
  C   C84       1.0  0.97470  0.47341  0.76092  1.0000
  C   C85       1.0  0.50438  0.52809  0.77891  1.0000
  C   C86       1.0  0.47387  0.97322  0.76026  1.0000
  C   C87       1.0  0.02899  0.49628  0.77744  1.0000
  C   C88       1.0  0.49922  0.46929  0.78536  1.0000
  C   C89       1.0  0.52953  0.02537  0.78734  1.0000
  C   C90       1.0  0.97627  0.50224  0.77213  1.0000
  C   C91       1.0  0.50642  0.55553  0.79058  1.0000
  C   C92       1.0  0.44685  0.94870  0.74682  1.0000
  C   C93       1.0  0.05392  0.49266  0.77954  1.0000
  C   C94       1.0  0.49602  0.44086  0.78375  1.0000
  C   C95       1.0  0.55704  0.05013  0.79644  1.0000
  C   C96       1.0  0.95154  0.50608  0.76906  1.0000
  C   C97       1.0  0.53463  0.58261  0.78749  1.0000
  C   C98       1.0  0.42060  0.95032  0.73959  1.0000
  C   C99       1.0  0.05223  0.46465  0.77449  1.0000
  C   C100      1.0  0.46687  0.41375  0.79501  1.0000
  C   C101      1.0  0.58358  0.04864  0.80015  1.0000
  C   C102      1.0  0.95249  0.53366  0.77922  1.0000
  C   C103      1.0  0.56128  0.58099  0.77369  1.0000
  C   C104      1.0  0.42281  0.97831  0.73892  1.0000
  C   C105      1.0  0.02490  0.44006  0.76423  1.0000
  C   C106      1.0  0.44064  0.41570  0.80458  1.0000
  C   C107      1.0  0.58124  0.02062  0.79991  1.0000
  C   C108      1.0  0.97960  0.55770  0.79457  1.0000
  C   C109      1.0  0.55991  0.55296  0.77079  1.0000
  C   C110      1.0  0.44988  0.00412  0.75078  1.0000
  C   C111      1.0  0.99927  0.44284  0.75707  1.0000
  C   C112      1.0  0.44322  0.44459  0.79687  1.0000
  C   C113      1.0  0.55380  0.99453  0.79226  1.0000
  C   C114      1.0  0.00553  0.55516  0.79823  1.0000
  C   C115      1.0  0.58642  0.55100  0.76870  1.0000
  C   C116      1.0  0.45111  0.03193  0.75560  1.0000
  C   C117      1.0  0.97142  0.41754  0.74782  1.0000
  C   C118      1.0  0.41736  0.44722  0.79326  1.0000
  C   C119      1.0  0.55239  0.96656  0.78730  1.0000
  C   C120      1.0  0.03339  0.58042  0.80794  1.0000
  C   C121      1.0  0.58435  0.52280  0.77719  1.0000
  C   C122      1.0  0.47682  0.05717  0.77347  1.0000
  C   C123      1.0  0.94549  0.41934  0.74675  1.0000
  C   C124      1.0  0.42033  0.47616  0.77295  1.0000
  C   C125      1.0  0.52520  0.94054  0.78403  1.0000
  C   C126      1.0  0.05949  0.57870  0.80628  1.0000
  C   C127      1.0  0.55538  0.49607  0.78446  1.0000
  C   C128      1.0  0.50253  0.05449  0.78192  1.0000
  C   C129      1.0  0.94815  0.44792  0.74965  1.0000
  C   C130      1.0  0.44975  0.50271  0.76373  1.0000
  C   C131      1.0  0.49922  0.94286  0.77996  1.0000
  C   C132      1.0  0.05698  0.55034  0.80101  1.0000
  C   C133      1.0  0.71502  0.53432  0.79320  1.0000
  C   C134      1.0  0.46628  0.17918  0.73774  1.0000
  C   C135      1.0  0.82111  0.28500  0.79191  1.0000
  C   C136      1.0  0.28988  0.46657  0.74917  1.0000
  C   C137      1.0  0.53364  0.81926  0.78376  1.0000
  C   C138      1.0  0.18452  0.71190  0.75783  1.0000
  C   C139      1.0  0.52657  0.70651  0.73641  1.0000
  C   C140      1.0  0.29907  0.81465  0.77919  1.0000
  C   C141      1.0  0.18078  0.47425  0.81293  1.0000
  C   C142      1.0  0.47724  0.29447  0.76243  1.0000
  C   C143      1.0  0.70675  0.18356  0.75967  1.0000
  C   C144      1.0  0.82501  0.52771  0.72744  1.0000
  N   N1        1.0  0.68288  0.50945  0.28786  1.0000
  N   N2        1.0  0.48277  0.17471  0.30322  1.0000
  N   N3        1.0  0.82277  0.31233  0.28645  1.0000
  N   N4        1.0  0.31009  0.48670  0.29070  1.0000
  N   N5        1.0  0.50834  0.82564  0.28809  1.0000
  N   N6        1.0  0.17445  0.68901  0.25222  1.0000
  N   N7        1.0  0.54057  0.70007  0.30310  1.0000
  N   N8        1.0  0.29754  0.84574  0.27842  1.0000
  N   N9        1.0  0.15178  0.45361  0.29645  1.0000
  N   N10       1.0  0.45399  0.30235  0.28117  1.0000
  N   N11       1.0  0.69907  0.15699  0.25824  1.0000
  N   N12       1.0  0.84075  0.54124  0.27335  1.0000
  N   N13       1.0  0.68831  0.51140  0.79255  1.0000
  N   N14       1.0  0.48248  0.17013  0.79773  1.0000
  N   N15       1.0  0.82664  0.31284  0.78034  1.0000
  N   N16       1.0  0.31316  0.48477  0.79157  1.0000
  N   N17       1.0  0.51164  0.82403  0.77574  1.0000
  N   N18       1.0  0.17988  0.68468  0.76178  1.0000
  N   N19       1.0  0.54071  0.69598  0.80860  1.0000
  N   N20       1.0  0.30420  0.84243  0.76412  1.0000
  N   N21       1.0  0.15438  0.45171  0.80839  1.0000
  N   N22       1.0  0.45360  0.29781  0.77702  1.0000
  N   N23       1.0  0.70216  0.15636  0.76319  1.0000
  N   N24       1.0  0.84719  0.54489  0.77964  1.0000
  C  Sn1       1.0  0.60370  0.49143  0.44218  1.0000
  C   C145      1.0  0.60763  0.51943  0.33816  1.0000
  C  Sn2       1.0  0.63854  0.54568  0.18511  1.0000
  C  Sn3       1.0  0.66609  0.54390  0.13489  1.0000
  C   C146      1.0  0.66215  0.51591  0.23886  1.0000
  C  Sn4       1.0  0.63125  0.48965  0.39196  1.0000
  O  Te1       1.0  0.57258  0.46547  0.59463  1.0000
  O  Te2       1.0  0.64186  0.57342  0.08329  1.0000
  O  Te3       1.0  0.61749  0.49874  0.98230  1.0000
  O  Te4       1.0  0.62792  0.46192  0.49373  1.0000
  Mg  Mg1       1.0  0.60954  0.53126  0.88706  1.0000
  Mg  Mg2       1.0  0.58051  0.43291  0.68991  1.0000
  C  Sn5       1.0  0.51040  0.14152  0.26295  1.0000
  C   C147      1.0  0.48872  0.14942  0.24628  1.0000
  C  Sn6       1.0  0.45747  0.12561  0.26378  1.0000
  C  Sn7       1.0  0.44767  0.09322  0.29879  1.0000
  C   C148      1.0  0.46934  0.08534  0.31547  1.0000
  C  Sn8       1.0  0.50060  0.10914  0.29796  1.0000
  O  Te5       1.0  0.54152  0.16572  0.24497  1.0000
  O  Te6       1.0  0.43623  0.13409  0.24650  1.0000
  O  Te7       1.0  0.41652  0.06903  0.31676  1.0000
  O  Te8       1.0  0.52183  0.10067  0.31525  1.0000
  Mg  Mg3       1.0  0.39638  0.09254  0.28214  1.0000
  Mg  Mg4       1.0  0.56168  0.14219  0.27975  1.0000
  C  Sn9       1.0  0.87060  0.37613  0.39541  1.0000
  C   C149      1.0  0.90316  0.38479  0.31964  1.0000
  C  Sn10      1.0  0.91207  0.37137  0.19995  1.0000
  C  Sn11      1.0  0.88793  0.34883  0.15495  1.0000
  C   C150      1.0  0.85540  0.34018  0.23067  1.0000
  C  Sn12      1.0  0.84647  0.35359  0.35041  1.0000
  O  Te9       1.0  0.86226  0.38985  0.51474  1.0000
  O  Te10      1.0  0.94477  0.38040  0.12598  1.0000
  O  Te11      1.0  0.89630  0.33510  0.03552  1.0000
  O  Te12      1.0  0.81379  0.34457  0.42433  1.0000
  Mg  Mg5       1.0  0.86430  0.28392  0.96993  1.0000
  Mg  Mg6       1.0  0.81449  0.36990  0.58031  1.0000
  C  Sn13      1.0  0.37384  0.51507  0.25117  1.0000
  C   C151      1.0  0.34638  0.49346  0.22694  1.0000
  C  Sn14      1.0  0.33883  0.46294  0.23776  1.0000
  C  Sn15      1.0  0.35912  0.45380  0.27367  1.0000
  C   C152      1.0  0.38655  0.47539  0.29792  1.0000
  C  Sn16      1.0  0.39413  0.50593  0.28709  1.0000
  O  Te13      1.0  0.38092  0.54546  0.23978  1.0000
  O  Te14      1.0  0.31126  0.44176  0.21298  1.0000
  O  Te15      1.0  0.35201  0.42338  0.28505  1.0000
  O  Te16      1.0  0.42167  0.52710  0.31188  1.0000
  Mg  Mg7       1.0  0.31178  0.40302  0.24144  1.0000
  Mg  Mg8       1.0  0.42117  0.56584  0.28354  1.0000
  C  Sn17      1.0  0.47976  0.85729  0.36591  1.0000
  C   C153      1.0  0.50521  0.85538  0.26454  1.0000
  C  Sn18      1.0  0.53883  0.88230  0.18382  1.0000
  C  Sn19      1.0  0.54719  0.91174  0.20495  1.0000
  C   C154      1.0  0.52175  0.91364  0.30630  1.0000
  C  Sn20      1.0  0.48812  0.88673  0.38705  1.0000
  O  Te17      1.0  0.44632  0.83007  0.44542  1.0000
  O  Te18      1.0  0.56384  0.87981  0.08304  1.0000
  O  Te19      1.0  0.58066  0.93897  0.12533  1.0000
  O  Te20      1.0  0.46313  0.88921  0.48779  1.0000
  Mg  Mg9       1.0  0.60574  0.92356  0.00099  1.0000
  Mg  Mg10      1.0  0.42122  0.84547  0.56998  1.0000
  C  Sn21      1.0  0.11183  0.66251  0.24443  1.0000
  C   C155      1.0  0.13549  0.66294  0.29812  1.0000
  C  Sn22      1.0  0.13650  0.63590  0.33298  1.0000
  C  Sn23      1.0  0.11339  0.60784  0.31366  1.0000
  C   C156      1.0  0.08975  0.60742  0.25996  1.0000
  C  Sn24      1.0  0.08872  0.63446  0.22510  1.0000
  O  Te21      1.0  0.11129  0.68983  0.21028  1.0000
  O  Te22      1.0  0.16037  0.63690  0.38656  1.0000
  O  Te23      1.0  0.11395  0.58051  0.34786  1.0000
  O  Te24      1.0  0.06487  0.63347  0.17152  1.0000
  Mg  Mg11      1.0  0.15115  0.59362  0.41738  1.0000
  Mg  Mg12      1.0  0.07408  0.67673  0.14058  1.0000
  C  Sn25      1.0  0.56777  0.66624  0.27937  1.0000
  C   C157      1.0  0.54699  0.67464  0.25099  1.0000
  C  Sn26      1.0  0.51633  0.65116  0.26098  1.0000
  C  Sn27      1.0  0.50621  0.61859  0.30026  1.0000
  C   C158      1.0  0.52698  0.61020  0.32864  1.0000
  C  Sn28      1.0  0.55766  0.63368  0.31865  1.0000
  O  Te25      1.0  0.59832  0.69012  0.26874  1.0000
  O  Te26      1.0  0.49598  0.66014  0.23203  1.0000
  O  Te27      1.0  0.47563  0.59471  0.31086  1.0000
  O  Te28      1.0  0.57799  0.62470  0.34760  1.0000
  Mg  Mg13      1.0  0.45664  0.61888  0.26105  1.0000
  Mg  Mg14      1.0  0.61732  0.66594  0.31871  1.0000
  C  Sn29      1.0  0.36311  0.87485  0.24379  1.0000
  C   C159      1.0  0.33072  0.86665  0.31122  1.0000
  C  Sn30      1.0  0.32512  0.88950  0.34204  1.0000
  C  Sn31      1.0  0.35245  0.92121  0.30457  1.0000
  C   C160      1.0  0.38481  0.92940  0.23716  1.0000
  C  Sn32      1.0  0.39044  0.90657  0.20632  1.0000
  O  Te29      1.0  0.36813  0.85163  0.21399  1.0000
  O  Te30      1.0  0.29251  0.88073  0.40957  1.0000
  O  Te31      1.0  0.34740  0.94444  0.33444  1.0000
  O  Te32      1.0  0.42302  0.91532  0.13880  1.0000
  Mg  Mg15      1.0  0.29841  0.92089  0.42767  1.0000
  Mg  Mg16      1.0  0.41715  0.87519  0.12056  1.0000
  C  Sn33      1.0  0.11799  0.49090  0.12374  1.0000
  C   C161      1.0  0.08338  0.46641  0.21646  1.0000
  C  Sn34      1.0  0.06961  0.43708  0.36607  1.0000
  C  Sn35      1.0  0.09087  0.43213  0.42431  1.0000
  C   C162      1.0  0.12545  0.45660  0.33163  1.0000
  C  Sn36      1.0  0.13925  0.48594  0.18198  1.0000
  O  Te33      1.0  0.05147  0.44888  0.97453  1.0000
  O  Te34      1.0  0.03494  0.41296  0.45656  1.0000
  O  Te35      1.0  0.07762  0.40297  0.57365  1.0000
  O  Te36      1.0  0.17390  0.51006  0.09154  1.0000
  Mg  Mg17      1.0  0.02884  0.37746  0.65249  1.0000
  Mg  Mg18      1.0  0.10027  0.47442  0.89567  1.0000
  C  Sn37      1.0  0.49402  0.36946  0.20052  1.0000
  C   C163      1.0  0.46617  0.33658  0.30333  1.0000
  C  Sn38      1.0  0.43417  0.32845  0.39880  1.0000
  C  Sn39      1.0  0.42991  0.35371  0.39127  1.0000
  C   C164      1.0  0.45775  0.38657  0.28849  1.0000
  C  Sn40      1.0  0.48976  0.39472  0.19300  1.0000
  O  Te37      1.0  0.52578  0.37702  0.10616  1.0000
  O  Te38      1.0  0.40670  0.29540  0.50071  1.0000
  O  Te39      1.0  0.39812  0.34613  0.48576  1.0000
  O  Te40      1.0  0.51721  0.42775  0.09111  1.0000
  Mg  Mg19      1.0  0.36848  0.29751  0.60560  1.0000
  Mg  Mg20      1.0  0.47569  0.35452  0.98609  1.0000
  C  Sn41      1.0  0.63095  0.11867  0.15118  1.0000
  C   C165      1.0  0.61795  0.08547  0.22499  1.0000
  C  Sn42      1.0  0.62928  0.07428  0.33946  1.0000
  C  Sn43      1.0  0.65411  0.09674  0.38113  1.0000
  C   C166      1.0  0.66709  0.12991  0.30736  1.0000
  C  Sn44      1.0  0.65578  0.14113  0.19285  1.0000
  O  Te41      1.0  0.61926  0.12931  0.03708  1.0000
  O  Te42      1.0  0.61592  0.04098  0.41157  1.0000
  O  Te43      1.0  0.66580  0.08607  0.49533  1.0000
  O  Te44      1.0  0.66912  0.17441  0.12079  1.0000
  Mg  Mg21      1.0  0.63990  0.03836  0.56020  1.0000
  Mg  Mg22      1.0  0.56540  0.10591  0.97223  1.0000
  C  Sn45      1.0  0.90347  0.56838  0.24772  1.0000
  C   C167      1.0  0.87638  0.54696  0.22025  1.0000
  C  Sn46      1.0  0.86820  0.51601  0.23735  1.0000
  C  Sn47      1.0  0.88749  0.50625  0.28298  1.0000
  C   C168      1.0  0.91455  0.52766  0.31044  1.0000
  C  Sn48      1.0  0.92275  0.55862  0.29334  1.0000
  O  Te45      1.0  0.91119  0.59920  0.22992  1.0000
  O  Te46      1.0  0.84101  0.49503  0.20918  1.0000
  O  Te47      1.0  0.87974  0.47540  0.30076  1.0000
  O  Te48      1.0  0.94992  0.57959  0.32151  1.0000
  Mg  Mg23      1.0  0.84038  0.45553  0.24913  1.0000
  Mg  Mg24      1.0  0.95057  0.61908  0.28171  1.0000
  C  Sn49      1.0  0.73635  0.49519  0.29530  1.0000
  C   C169      1.0  0.73279  0.51919  0.32628  1.0000
  C  Sn50      1.0  0.76049  0.54922  0.29739  1.0000
  C  Sn51      1.0  0.79243  0.55540  0.23616  1.0000
  C   C170      1.0  0.79599  0.53142  0.20518  1.0000
  C  Sn52      1.0  0.76829  0.50138  0.23406  1.0000
  O  Te49      1.0  0.70831  0.46535  0.32506  1.0000
  O  Te50      1.0  0.75630  0.57282  0.32936  1.0000
  O  Te51      1.0  0.82048  0.58527  0.20641  1.0000
  O  Te52      1.0  0.77247  0.47778  0.20210  1.0000
  Mg  Mg25      1.0  0.80207  0.60967  0.26905  1.0000
  Mg  Mg26      1.0  0.72673  0.44093  0.26227  1.0000
  C  Sn53      1.0  0.49367  0.23989  0.33410  1.0000
  C   C171      1.0  0.47033  0.21470  0.30199  1.0000
  C  Sn54      1.0  0.45066  0.21898  0.22760  1.0000
  C  Sn55      1.0  0.45441  0.24906  0.18428  1.0000
  C   C172      1.0  0.47774  0.27423  0.21636  1.0000
  C  Sn56      1.0  0.49742  0.26998  0.29078  1.0000
  O  Te53      1.0  0.51307  0.23509  0.40856  1.0000
  O  Te54      1.0  0.42749  0.19343  0.19679  1.0000
  O  Te55      1.0  0.43499  0.25385  0.10977  1.0000
  O  Te56      1.0  0.52058  0.29551  0.32156  1.0000
  Mg  Mg27      1.0  0.40686  0.21178  0.09288  1.0000
  Mg  Mg28      1.0  0.54123  0.27719  0.42537  1.0000
  C  Sn57      1.0  0.75302  0.25638  0.31415  1.0000
  C   C173      1.0  0.77907  0.25614  0.33200  1.0000
  C  Sn58      1.0  0.78392  0.23300  0.29805  1.0000
  C  Sn59      1.0  0.76230  0.20964  0.24503  1.0000
  C   C174      1.0  0.73627  0.20990  0.22718  1.0000
  C  Sn60      1.0  0.73140  0.23302  0.26114  1.0000
  O  Te57      1.0  0.74864  0.27973  0.34877  1.0000
  O  Te58      1.0  0.81012  0.23324  0.31686  1.0000
  O  Te59      1.0  0.76670  0.18628  0.21042  1.0000
  O  Te60      1.0  0.70521  0.23280  0.24231  1.0000
  Mg  Mg29      1.0  0.80594  0.19651  0.25448  1.0000
  Mg  Mg30      1.0  0.70939  0.26951  0.30456  1.0000
  C  Sn61      1.0  0.22992  0.45003  0.19285  1.0000
  C   C175      1.0  0.25835  0.47131  0.21086  1.0000
  C  Sn62      1.0  0.25907  0.49305  0.29205  1.0000
  C  Sn63      1.0  0.23079  0.49353  0.35669  1.0000
  C   C176      1.0  0.20238  0.47226  0.33869  1.0000
  C  Sn64      1.0  0.20163  0.45051  0.25749  1.0000
  O  Te61      1.0  0.22974  0.42850  0.11125  1.0000
  O  Te62      1.0  0.28778  0.51409  0.30848  1.0000
  O  Te63      1.0  0.23098  0.51508  0.43833  1.0000
  O  Te64      1.0  0.17294  0.42947  0.24108  1.0000
  Mg  Mg31      1.0  0.27591  0.53897  0.42966  1.0000
  Mg  Mg32      1.0  0.18478  0.40458  0.12001  1.0000
  C  Sn65      1.0  0.56226  0.79010  0.21756  1.0000
  C   C177      1.0  0.53977  0.79740  0.21141  1.0000
  C  Sn66      1.0  0.50747  0.77280  0.24535  1.0000
  C  Sn67      1.0  0.49744  0.74023  0.28643  1.0000
  C   C178      1.0  0.51993  0.73294  0.29260  1.0000
  C  Sn68      1.0  0.55223  0.75752  0.25864  1.0000
  O  Te65      1.0  0.59442  0.81508  0.18318  1.0000
  O  Te66      1.0  0.48543  0.78069  0.23835  1.0000
  O  Te67      1.0  0.46525  0.71525  0.32082  1.0000
  O  Te68      1.0  0.57426  0.74964  0.26566  1.0000
  Mg  Mg33      1.0  0.44428  0.73817  0.29537  1.0000
  Mg  Mg34      1.0  0.61541  0.79214  0.20876  1.0000
  C  Sn69      1.0  0.26034  0.76088  0.22378  1.0000
  C   C179      1.0  0.26747  0.79091  0.22191  1.0000
  C  Sn70      1.0  0.24271  0.79608  0.25308  1.0000
  C  Sn71      1.0  0.21014  0.77070  0.28695  1.0000
  C   C180      1.0  0.20302  0.74069  0.28885  1.0000
  C  Sn72      1.0  0.22777  0.73550  0.25765  1.0000
  O  Te69      1.0  0.28548  0.75626  0.19228  1.0000
  O  Te70      1.0  0.25044  0.82632  0.25047  1.0000
  O  Te71      1.0  0.18500  0.77535  0.31846  1.0000
  O  Te72      1.0  0.22005  0.70529  0.26029  1.0000
  Mg  Mg35      1.0  0.20774  0.82079  0.30111  1.0000
  Mg  Mg36      1.0  0.26273  0.71078  0.20977  1.0000
  C  Sn73      1.0  0.62267  0.48345  0.86527  1.0000
  C   C181      1.0  0.65727  0.50789  0.76527  1.0000
  C  Sn74      1.0  0.66992  0.54084  0.68157  1.0000
  C  Sn75      1.0  0.64751  0.54955  0.69825  1.0000
  C   C182      1.0  0.61293  0.52512  0.79822  1.0000
  C  Sn76      1.0  0.60027  0.49216  0.88195  1.0000
  O  Te73      1.0  0.61059  0.45066  0.94781  1.0000
  O  Te74      1.0  0.70461  0.56484  0.58225  1.0000
  O  Te75      1.0  0.65962  0.58237  0.61559  1.0000
  O  Te76      1.0  0.56560  0.46817  0.98123  1.0000
  Mg  Mg37      1.0  0.70890  0.60614  0.49482  1.0000
  Mg  Mg38      1.0  0.64103  0.49801  0.06880  1.0000
  C  Sn77      1.0  0.45443  0.09739  0.72563  1.0000
  C   C183      1.0  0.47745  0.09099  0.73386  1.0000
  C  Sn78      1.0  0.50112  0.10904  0.79275  1.0000
  C  Sn79      1.0  0.50178  0.13399  0.84461  1.0000
  C   C184      1.0  0.47876  0.14038  0.83640  1.0000
  C  Sn80      1.0  0.45508  0.12235  0.77749  1.0000
  O  Te77      1.0  0.43099  0.07905  0.66635  1.0000
  O  Te78      1.0  0.52389  0.10219  0.79976  1.0000
  O  Te79      1.0  0.52525  0.15234  0.90391  1.0000
  O  Te80      1.0  0.43232  0.12917  0.77050  1.0000
  Mg  Mg39      1.0  0.55103  0.13385  0.88991  1.0000
  Mg  Mg40      1.0  0.40516  0.09752  0.68047  1.0000
  C  Sn81      1.0  0.87470  0.37654  0.88878  1.0000
  C   C185      1.0  0.90723  0.38512  0.81327  1.0000
  C  Sn82      1.0  0.91611  0.37171  0.69341  1.0000
  C  Sn83      1.0  0.89198  0.34927  0.64797  1.0000
  C   C186      1.0  0.85948  0.34070  0.72343  1.0000
  C  Sn84      1.0  0.85057  0.35410  0.84334  1.0000
  O  Te81      1.0  0.94612  0.46140  0.00829  1.0000
  O  Te82      1.0  0.94878  0.38066  0.61969  1.0000
  O  Te83      1.0  0.90033  0.33556  0.52835  1.0000
  O  Te84      1.0  0.81792  0.34517  0.91700  1.0000
  Mg  Mg41      1.0  0.94803  0.35538  0.46325  1.0000
  Mg  Mg42      1.0  0.89839  0.44159  0.07337  1.0000
  C  Sn85      1.0  0.33997  0.44826  0.80252  1.0000
  C   C187      1.0  0.33454  0.47134  0.83082  1.0000
  C  Sn86      1.0  0.36076  0.50162  0.80982  1.0000
  C  Sn87      1.0  0.39309  0.50900  0.75935  1.0000
  C   C188      1.0  0.39851  0.48593  0.73104  1.0000
  C  Sn88      1.0  0.37230  0.45564  0.75205  1.0000
  O  Te85      1.0  0.31340  0.41815  0.82427  1.0000
  O  Te86      1.0  0.35471  0.52429  0.83892  1.0000
  O  Te87      1.0  0.41967  0.53914  0.73761  1.0000
  O  Te88      1.0  0.37833  0.43298  0.72295  1.0000
  Mg  Mg43      1.0  0.39897  0.56196  0.79237  1.0000
  Mg  Mg44      1.0  0.33410  0.39531  0.76935  1.0000
  C  Sn89      1.0  0.49193  0.87142  0.94879  1.0000
  C   C189      1.0  0.52002  0.90409  0.84085  1.0000
  C  Sn90      1.0  0.54672  0.91235  0.67871  1.0000
  C  Sn91      1.0  0.54531  0.88743  0.62320  1.0000
  C   C190      1.0  0.51723  0.85478  0.73108  1.0000
  C  Sn92      1.0  0.49051  0.84650  0.89328  1.0000
  O  Te89      1.0  0.54527  0.93487  0.11036  1.0000
  O  Te90      1.0  0.57455  0.94519  0.57312  1.0000
  O  Te91      1.0  0.57174  0.89515  0.46149  1.0000
  O  Te92      1.0  0.46270  0.81369  0.99882  1.0000
  Mg  Mg45      1.0  0.60420  0.94338  0.36419  1.0000
  Mg  Mg46      1.0  0.51277  0.88662  0.20770  1.0000
  C  Sn93      1.0  0.13999  0.62152  0.79732  1.0000
  C   C191      1.0  0.15312  0.65477  0.72569  1.0000
  C  Sn94      1.0  0.13294  0.66435  0.70249  1.0000
  C  Sn95      1.0  0.09892  0.64019  0.75202  1.0000
  C   C192      1.0  0.08580  0.60697  0.82363  1.0000
  C  Sn96      1.0  0.10597  0.59736  0.84685  1.0000
  O  Te93      1.0  0.16063  0.61250  0.81934  1.0000
  O  Te94      1.0  0.14664  0.69774  0.63056  1.0000
  O  Te95      1.0  0.07828  0.64924  0.72994  1.0000
  O  Te96      1.0  0.09229  0.56400  0.91877  1.0000
  Mg  Mg47      1.0  0.10847  0.69777  0.62652  1.0000
  Mg  Mg48      1.0  0.13043  0.56393  0.92296  1.0000
  C  Sn97      1.0  0.57009  0.66454  0.75364  1.0000
  C   C193      1.0  0.54659  0.67061  0.75224  1.0000
  C  Sn98      1.0  0.51431  0.64510  0.79140  1.0000
  C  Sn99      1.0  0.50531  0.61285  0.83294  1.0000
  C   C194      1.0  0.52880  0.60680  0.83435  1.0000
  C  Sn100     1.0  0.56109  0.63229  0.79518  1.0000
  O  Te97      1.0  0.60222  0.69042  0.71409  1.0000
  O  Te98      1.0  0.49126  0.65177  0.78910  1.0000
  O  Te99      1.0  0.47315  0.58697  0.87250  1.0000
  O  Te100     1.0  0.58413  0.62564  0.79750  1.0000
  Mg  Mg49      1.0  0.45059  0.60836  0.85224  1.0000
  Mg  Mg50      1.0  0.62480  0.66903  0.73448  1.0000
  C  Sn101     1.0  0.36968  0.87205  0.73086  1.0000
  C   C195      1.0  0.33722  0.86363  0.79606  1.0000
  C  Sn102     1.0  0.33130  0.88639  0.82467  1.0000
  C  Sn103     1.0  0.35840  0.91824  0.78723  1.0000
  C   C196      1.0  0.39084  0.92664  0.72205  1.0000
  C  Sn104     1.0  0.39678  0.90389  0.69342  1.0000
  O  Te101     1.0  0.37502  0.84890  0.70325  1.0000
  O  Te102     1.0  0.29863  0.87741  0.89000  1.0000
  O  Te103     1.0  0.35304  0.94139  0.81491  1.0000
  O  Te104     1.0  0.42943  0.91287  0.62810  1.0000
  Mg  Mg51      1.0  0.30407  0.91752  0.90560  1.0000
  Mg  Mg52      1.0  0.42402  0.87278  0.61236  1.0000
  C  Sn105     1.0  0.07410  0.43081  0.94573  1.0000
  C   C197      1.0  0.07751  0.45859  0.84363  1.0000
  C  Sn106     1.0  0.10872  0.48598  0.69838  1.0000
  C  Sn107     1.0  0.13713  0.48559  0.65415  1.0000
  C   C198      1.0  0.13371  0.45782  0.75620  1.0000
  C  Sn108     1.0  0.10250  0.43041  0.90151  1.0000
  O  Te105     1.0  0.12240  0.47485  0.09036  1.0000
  O  Te106     1.0  0.11151  0.51348  0.59833  1.0000
  O  Te107     1.0  0.16859  0.51273  0.50939  1.0000
  O  Te108     1.0  0.17946  0.47408  0.00150  1.0000
  Mg  Mg53      1.0  0.15967  0.54438  0.41362  1.0000
  Mg  Mg54      1.0  0.13131  0.44316  0.18615  1.0000
  C  Sn109     1.0  0.49492  0.36553  0.68266  1.0000
  C   C199      1.0  0.46726  0.33273  0.79326  1.0000
  C  Sn110     1.0  0.43573  0.32480  0.89969  1.0000
  C  Sn111     1.0  0.43175  0.35018  0.89540  1.0000
  C   C200      1.0  0.45939  0.38295  0.78483  1.0000
  C  Sn112     1.0  0.49093  0.39091  0.67837  1.0000
  O  Te109     1.0  0.52621  0.37289  0.57739  1.0000
  O  Te110     1.0  0.48821  0.36298  0.00924  1.0000
  O  Te111     1.0  0.48017  0.41394  0.00081  1.0000
  O  Te112     1.0  0.51819  0.42385  0.56885  1.0000
  Mg  Mg55      1.0  0.45064  0.36537  0.12802  1.0000
  Mg  Mg56      1.0  0.55576  0.42150  0.44995  1.0000
  C  Sn113     1.0  0.66366  0.09337  0.79456  1.0000
  C   C201      1.0  0.67603  0.12641  0.72427  1.0000
  C  Sn114     1.0  0.65533  0.13526  0.70090  1.0000
  C  Sn115     1.0  0.62155  0.11058  0.74889  1.0000
  C   C202      1.0  0.60920  0.07756  0.81916  1.0000
  C  Sn116     1.0  0.62988  0.06868  0.84255  1.0000
  O  Te113     1.0  0.68480  0.08509  0.81678  1.0000
  O  Te114     1.0  0.66827  0.16846  0.63032  1.0000
  O  Te115     1.0  0.60041  0.11889  0.72661  1.0000
  O  Te116     1.0  0.61696  0.03551  0.91312  1.0000
  Mg  Mg57      1.0  0.62963  0.16743  0.62540  1.0000
  Mg  Mg58      1.0  0.65557  0.03651  0.91819  1.0000
  C  Sn117     1.0  0.91107  0.57170  0.73228  1.0000
  C   C203      1.0  0.88178  0.54896  0.72642  1.0000
  C  Sn118     1.0  0.87185  0.51698  0.76113  1.0000
  C  Sn119     1.0  0.89159  0.50751  0.80267  1.0000
  C   C204      1.0  0.92085  0.53024  0.80854  1.0000
  C  Sn120     1.0  0.93081  0.56223  0.77382  1.0000
  O  Te117     1.0  0.92052  0.60354  0.69713  1.0000
  O  Te118     1.0  0.84247  0.49469  0.75442  1.0000
  O  Te119     1.0  0.88211  0.47564  0.83782  1.0000
  O  Te120     1.0  0.96016  0.58451  0.78055  1.0000
  Mg  Mg59      1.0  0.84005  0.45415  0.81250  1.0000
  Mg  Mg60      1.0  0.96260  0.62505  0.72259  1.0000
  C  Sn121     1.0  0.76828  0.51001  0.66727  1.0000
  C   C205      1.0  0.79686  0.53151  0.68333  1.0000
  C  Sn122     1.0  0.79749  0.55299  0.76656  1.0000
  C  Sn123     1.0  0.76894  0.55297  0.83530  1.0000
  C   C206      1.0  0.74038  0.53148  0.81926  1.0000
  C  Sn124     1.0  0.73973  0.50999  0.73601  1.0000
  O  Te121     1.0  0.76822  0.48874  0.58357  1.0000
  O  Te122     1.0  0.82636  0.57427  0.78096  1.0000
  O  Te123     1.0  0.76903  0.57426  0.91904  1.0000
  O  Te124     1.0  0.71089  0.48872  0.72162  1.0000
  Mg  Mg61      1.0  0.81425  0.59863  0.90631  1.0000
  Mg  Mg62      1.0  0.72296  0.46434  0.59640  1.0000
  C  Sn125     1.0  0.49320  0.23504  0.82343  1.0000
  C   C207      1.0  0.46862  0.20896  0.80257  1.0000
  C  Sn126     1.0  0.44762  0.21230  0.73738  1.0000
  C  Sn127     1.0  0.45128  0.24235  0.69197  1.0000
  C   C208      1.0  0.47585  0.26841  0.71280  1.0000
  C  Sn128     1.0  0.49686  0.26508  0.77801  1.0000
  O  Te125     1.0  0.51392  0.23115  0.88882  1.0000
  O  Te126     1.0  0.42322  0.18588  0.71775  1.0000
  O  Te127     1.0  0.43054  0.24621  0.62654  1.0000
  O  Te128     1.0  0.52125  0.29149  0.79762  1.0000
  Mg  Mg63      1.0  0.40104  0.20315  0.62334  1.0000
  Mg  Mg64      1.0  0.54346  0.27425  0.89191  1.0000
  C  Sn129     1.0  0.75634  0.25643  0.81215  1.0000
  C   C209      1.0  0.78245  0.25634  0.83017  1.0000
  C  Sn130     1.0  0.78724  0.23307  0.79832  1.0000
  C  Sn131     1.0  0.76549  0.20940  0.74727  1.0000
  C   C210      1.0  0.73941  0.20951  0.72924  1.0000
  C  Sn132     1.0  0.73459  0.23277  0.76110  1.0000
  O  Te129     1.0  0.75202  0.27992  0.84465  1.0000
  O  Te130     1.0  0.81351  0.23346  0.81727  1.0000
  O  Te131     1.0  0.76983  0.18590  0.71478  1.0000
  O  Te132     1.0  0.70834  0.23238  0.74215  1.0000
  Mg  Mg65      1.0  0.80920  0.19645  0.75816  1.0000
  Mg  Mg66      1.0  0.71265  0.26939  0.80113  1.0000
  C  Sn133     1.0  0.20802  0.43817  0.82045  1.0000
  C   C211      1.0  0.20433  0.46221  0.84922  1.0000
  C  Sn134     1.0  0.23196  0.49240  0.81913  1.0000
  C  Sn135     1.0  0.26395  0.49871  0.75891  1.0000
  C   C212      1.0  0.26763  0.47468  0.73014  1.0000
  C  Sn136     1.0  0.24001  0.44448  0.76023  1.0000
  O  Te133     1.0  0.18005  0.40816  0.85138  1.0000
  O  Te134     1.0  0.22766  0.51605  0.84890  1.0000
  O  Te135     1.0  0.29193  0.52875  0.72799  1.0000
  O  Te136     1.0  0.24430  0.42084  0.73046  1.0000
  Mg  Mg67      1.0  0.27336  0.55314  0.78767  1.0000
  Mg  Mg68      1.0  0.19862  0.38375  0.79154  1.0000
  C  Sn137     1.0  0.50939  0.75034  0.66930  1.0000
  C   C213      1.0  0.53004  0.74140  0.69270  1.0000
  C  Sn138     1.0  0.55042  0.75566  0.77771  1.0000
  C  Sn139     1.0  0.55014  0.77935  0.84077  1.0000
  C   C214      1.0  0.52950  0.78827  0.81739  1.0000
  C  Sn140     1.0  0.50912  0.77402  0.73236  1.0000
  O  Te137     1.0  0.48923  0.73576  0.58394  1.0000
  O  Te138     1.0  0.57086  0.74634  0.79950  1.0000
  O  Te139     1.0  0.57034  0.79393  0.92617  1.0000
  O  Te140     1.0  0.48868  0.78333  0.71059  1.0000
  Mg  Mg69      1.0  0.59385  0.77314  0.92431  1.0000
  Mg  Mg70      1.0  0.46567  0.75654  0.58589  1.0000
  C  Sn141     1.0  0.23379  0.78477  0.80840  1.0000
  C   C215      1.0  0.26059  0.78540  0.82026  1.0000
  C  Sn142     1.0  0.26594  0.76269  0.78350  1.0000
  C  Sn143     1.0  0.24407  0.73888  0.73372  1.0000
  C   C216      1.0  0.21730  0.73826  0.72184  1.0000
  C  Sn144     1.0  0.21192  0.76095  0.75862  1.0000
  O  Te141     1.0  0.22891  0.80771  0.84574  1.0000
  O  Te142     1.0  0.29289  0.76380  0.79632  1.0000
  O  Te143     1.0  0.24897  0.71593  0.69638  1.0000
  O  Te144     1.0  0.18499  0.75986  0.74578  1.0000
  Mg  Mg71      1.0  0.28916  0.72736  0.73221  1.0000
  Mg  Mg72      1.0  0.18871  0.79630  0.80977  1.0000
