data_image0
_chemical_formula_structural       H24C60S12N24SnCSn2CSnTe4Mg2SnCSn2CSnTe4Mg2SnCSn2CSnTe4Mg2SnCSn2CSnTe4Mg2SnCSn2CSnTe4Mg2SnCSn2CSnTe4Mg2SnCSn2CSnTe4Mg2SnCSn2CSnTe4Mg2SnCSn2CSnTe4Mg2SnCSn2CSnTe4Mg2SnCSn2CSnTe4Mg2SnCSn2CSnTe4Mg2
_chemical_formula_sum              "H24 C84 S12 N24 Sn48 Te48 Mg24"
_cell_length_a       39.6927
_cell_length_b       40.029
_cell_length_c       7.97873
_cell_angle_alpha    108.226
_cell_angle_beta     62.2814
_cell_angle_gamma    120.377

_symmetry_space_group_name_H-M    'P1'
_space_group_IT_number       1

loop_
  _space_group_symop_operation_xyz
  'x, y, z'

loop_
  _atom_site_type_symbol
  _atom_site_label
  _atom_site_symmetry_multiplicity
  _atom_site_fract_x
  _atom_site_fract_y
  _atom_site_fract_z
  _atom_site_occupancy
  H   H1        1.0  0.88413  0.48217  0.26536  1.0000
  H   H2        1.0  0.52991  0.40797  0.14909  1.0000
  H   H3        1.0  0.59412  0.11980  0.27555  1.0000
  H   H4        1.0  0.11908  0.52001  0.25233  1.0000
  H   H5        1.0  0.47409  0.60245  0.36186  1.0000
  H   H6        1.0  0.40368  0.88556  0.22553  1.0000
  H   H7        1.0  0.95801  0.53779  0.26216  1.0000
  H   H8        1.0  0.47383  0.42537  0.15592  1.0000
  H   H9        1.0  0.57885  0.04735  0.26094  1.0000
  H   H10       1.0  0.04481  0.46255  0.24891  1.0000
  H   H11       1.0  0.53004  0.58490  0.36371  1.0000
  H   H12       1.0  0.41856  0.95843  0.23781  1.0000
  H   H13       1.0  0.88134  0.48169  0.75523  1.0000
  H   H14       1.0  0.52499  0.39756  0.64262  1.0000
  H   H15       1.0  0.58779  0.11641  0.83033  1.0000
  H   H16       1.0  0.11469  0.51781  0.75604  1.0000
  H   H17       1.0  0.47004  0.59363  0.86301  1.0000
  H   H18       1.0  0.41533  0.87804  0.65904  1.0000
  H   H19       1.0  0.95608  0.53831  0.75513  1.0000
  H   H20       1.0  0.46813  0.41567  0.64860  1.0000
  H   H21       1.0  0.57466  0.04388  0.82392  1.0000
  H   H22       1.0  0.04069  0.46212  0.75444  1.0000
  H   H23       1.0  0.52532  0.57500  0.86598  1.0000
  H   H24       1.0  0.42877  0.95007  0.66780  1.0000
  C   C1        1.0  0.35209  0.65082  0.27387  1.0000
  C   C2        1.0  0.35601  0.70886  0.26167  1.0000
  C   C3        1.0  0.29681  0.65302  0.26316  1.0000
  C   C4        1.0  0.65144  0.35643  0.22284  1.0000
  C   C5        1.0  0.64696  0.29747  0.22498  1.0000
  C   C6        1.0  0.70601  0.35283  0.23280  1.0000
  C   C7        1.0  0.89466  0.46008  0.24640  1.0000
  C   C8        1.0  0.54654  0.43811  0.20270  1.0000
  C   C9        1.0  0.56429  0.11015  0.26023  1.0000
  C   C10       1.0  0.10785  0.54120  0.26591  1.0000
  C   C11       1.0  0.45713  0.57190  0.31405  1.0000
  C   C12       1.0  0.43407  0.89588  0.23703  1.0000
  C   C13       1.0  0.93595  0.47502  0.24592  1.0000
  C   C14       1.0  0.53003  0.46431  0.22249  1.0000
  C   C15       1.0  0.53857  0.06906  0.25766  1.0000
  C   C16       1.0  0.06655  0.52530  0.26500  1.0000
  C   C17       1.0  0.47328  0.54589  0.30052  1.0000
  C   C18       1.0  0.45932  0.93706  0.23880  1.0000
  C   C19       1.0  0.96437  0.51406  0.25723  1.0000
  C   C20       1.0  0.49328  0.45476  0.19976  1.0000
  C   C21       1.0  0.54927  0.04057  0.25476  1.0000
  C   C22       1.0  0.03832  0.48617  0.25328  1.0000
  C   C23       1.0  0.50997  0.55542  0.32394  1.0000
  C   C24       1.0  0.44844  0.96544  0.24176  1.0000
  C   C25       1.0  0.00123  0.48199  0.24992  1.0000
  C   C26       1.0  0.51703  0.52234  0.28930  1.0000
  C   C27       1.0  0.48110  0.00304  0.24708  1.0000
  C   C28       1.0  0.00149  0.51806  0.25902  1.0000
  C   C29       1.0  0.48569  0.48767  0.23853  1.0000
  C   C30       1.0  0.51683  0.00302  0.24645  1.0000
  C   C31       1.0  0.34962  0.64357  0.77166  1.0000
  C   C32       1.0  0.35507  0.70245  0.76095  1.0000
  C   C33       1.0  0.29493  0.64742  0.76433  1.0000
  C   C34       1.0  0.64769  0.34899  0.72427  1.0000
  C   C35       1.0  0.64459  0.29082  0.72843  1.0000
  C   C36       1.0  0.70337  0.34689  0.73139  1.0000
  C   C37       1.0  0.89201  0.46013  0.74263  1.0000
  C   C38       1.0  0.54096  0.42779  0.69732  1.0000
  C   C39       1.0  0.56261  0.10465  0.77579  1.0000
  C   C40       1.0  0.10477  0.53983  0.76705  1.0000
  C   C41       1.0  0.45299  0.56315  0.81481  1.0000
  C   C42       1.0  0.44070  0.88912  0.71147  1.0000
  C   C43       1.0  0.93328  0.47551  0.74376  1.0000
  C   C44       1.0  0.52450  0.45390  0.71590  1.0000
  C   C45       1.0  0.53880  0.06317  0.76630  1.0000
  C   C46       1.0  0.06357  0.52493  0.76605  1.0000
  C   C47       1.0  0.46913  0.53687  0.79776  1.0000
  C   C48       1.0  0.46458  0.93054  0.72435  1.0000
  C   C49       1.0  0.96202  0.51451  0.75314  1.0000
  C   C50       1.0  0.48798  0.44489  0.69231  1.0000
  C   C51       1.0  0.54787  0.03588  0.78981  1.0000
  C   C52       1.0  0.03481  0.48596  0.75642  1.0000
  C   C53       1.0  0.50550  0.54581  0.82195  1.0000
  C   C54       1.0  0.45548  0.95795  0.70239  1.0000
  C   C55       1.0  0.99801  0.48216  0.75176  1.0000
  C   C56       1.0  0.51234  0.51246  0.78384  1.0000
  C   C57       1.0  0.48543  0.99612  0.72832  1.0000
  C   C58       1.0  0.99887  0.51834  0.75754  1.0000
  C   C59       1.0  0.48100  0.47816  0.73096  1.0000
  C   C60       1.0  0.51765  0.99764  0.76657  1.0000
  S   S1        1.0  0.95496  0.44306  0.23584  1.0000
  S   S2        1.0  0.55580  0.51392  0.28909  1.0000
  S   S3        1.0  0.48823  0.04984  0.25450  1.0000
  S   S4        1.0  0.04756  0.55709  0.27322  1.0000
  S   S5        1.0  0.44694  0.49609  0.23900  1.0000
  S   S6        1.0  0.50976  0.95639  0.24086  1.0000
  S   S7        1.0  0.95161  0.44340  0.73869  1.0000
  S   S8        1.0  0.55067  0.50341  0.78305  1.0000
  S   S9        1.0  0.49284  0.04208  0.71905  1.0000
  S   S10       1.0  0.04531  0.55708  0.77094  1.0000
  S   S11       1.0  0.44278  0.48736  0.73107  1.0000
  S   S12       1.0  0.51039  0.95150  0.77286  1.0000
  N   N1        1.0  0.69025  0.37543  0.22923  1.0000
  N   N2        1.0  0.62855  0.31747  0.21971  1.0000
  N   N3        1.0  0.68564  0.31375  0.23061  1.0000
  N   N4        1.0  0.31285  0.63126  0.27229  1.0000
  N   N5        1.0  0.37504  0.68966  0.26864  1.0000
  N   N6        1.0  0.31706  0.69195  0.25830  1.0000
  N   N7        1.0  0.87171  0.42285  0.22930  1.0000
  N   N8        1.0  0.57874  0.45021  0.24746  1.0000
  N   N9        1.0  0.55234  0.13323  0.24212  1.0000
  N   N10       1.0  0.13005  0.57866  0.27781  1.0000
  N   N11       1.0  0.42451  0.55904  0.27103  1.0000
  N   N12       1.0  0.44712  0.87333  0.25120  1.0000
  N   N13       1.0  0.68681  0.36868  0.72697  1.0000
  N   N14       1.0  0.62511  0.31008  0.72623  1.0000
  N   N15       1.0  0.68371  0.30779  0.73017  1.0000
  N   N16       1.0  0.31027  0.62481  0.77165  1.0000
  N   N17       1.0  0.37339  0.68232  0.76573  1.0000
  N   N18       1.0  0.31597  0.68637  0.76010  1.0000
  N   N19       1.0  0.86928  0.42274  0.73142  1.0000
  N   N20       1.0  0.57304  0.44025  0.74378  1.0000
  N   N21       1.0  0.55368  0.12606  0.72460  1.0000
  N   N22       1.0  0.12830  0.57706  0.77660  1.0000
  N   N23       1.0  0.42020  0.55046  0.77334  1.0000
  N   N24       1.0  0.44954  0.86693  0.75772  1.0000
  C  Sn1       1.0  0.80103  0.35919  0.20390  1.0000
  C   C61       1.0  0.82984  0.39819  0.18278  1.0000
  C  Sn2       1.0  0.81643  0.42610  0.20528  1.0000
  C  Sn3       1.0  0.77330  0.41480  0.24995  1.0000
  C   C62       1.0  0.74451  0.37582  0.27109  1.0000
  C  Sn4       1.0  0.75790  0.34789  0.24857  1.0000
  O  Te1       1.0  0.81514  0.33178  0.18078  1.0000
  O  Te2       1.0  0.84582  0.46491  0.18340  1.0000
  O  Te3       1.0  0.75921  0.44225  0.27307  1.0000
  O  Te4       1.0  0.72853  0.30910  0.27046  1.0000
  Mg  Mg1       1.0  0.81125  0.49151  0.22905  1.0000
  Mg  Mg2       1.0  0.76306  0.28248  0.22495  1.0000
  C  Sn5       1.0  0.64442  0.42717  0.31234  1.0000
  C   C63       1.0  0.63025  0.38678  0.27742  1.0000
  C  Sn6       1.0  0.59854  0.36420  0.20380  1.0000
  C  Sn7       1.0  0.58064  0.38239  0.16414  1.0000
  C   C64       1.0  0.59481  0.42276  0.19903  1.0000
  C  Sn8       1.0  0.62652  0.44536  0.27268  1.0000
  O  Te5       1.0  0.67616  0.44917  0.38596  1.0000
  O  Te6       1.0  0.58489  0.32386  0.17014  1.0000
  O  Te7       1.0  0.54887  0.36035  0.09047  1.0000
  O  Te8       1.0  0.64018  0.48567  0.30631  1.0000
  Mg  Mg3       1.0  0.54088  0.30641  0.06875  1.0000
  Mg  Mg4       1.0  0.68419  0.50316  0.40760  1.0000
  C  Sn9       1.0  0.57054  0.22852  0.27591  1.0000
  C   C65       1.0  0.61082  0.25237  0.27989  1.0000
  C  Sn10      1.0  0.63778  0.23619  0.24456  1.0000
  C  Sn11      1.0  0.62422  0.19531  0.20428  1.0000
  C   C66       1.0  0.58397  0.17148  0.20028  1.0000
  C  Sn12      1.0  0.55698  0.18764  0.23563  1.0000
  O  Te9       1.0  0.54411  0.24533  0.31165  1.0000
  O  Te10      1.0  0.67790  0.26063  0.24940  1.0000
  O  Te11      1.0  0.65069  0.17851  0.16853  1.0000
  O  Te12      1.0  0.51688  0.16323  0.23078  1.0000
  Mg  Mg5       1.0  0.70242  0.22392  0.19116  1.0000
  Mg  Mg6       1.0  0.49235  0.19990  0.28889  1.0000
  C  Sn13      1.0  0.22425  0.65488  0.28807  1.0000
  C   C67       1.0  0.24648  0.63959  0.31098  1.0000
  C  Sn14      1.0  0.23176  0.59937  0.30098  1.0000
  C  Sn15      1.0  0.19406  0.57390  0.26727  1.0000
  C   C68       1.0  0.17185  0.58919  0.24435  1.0000
  C  Sn16      1.0  0.18654  0.62941  0.25436  1.0000
  O  Te13      1.0  0.23954  0.69518  0.29861  1.0000
  O  Te14      1.0  0.25453  0.58477  0.32440  1.0000
  O  Te15      1.0  0.17877  0.53357  0.25676  1.0000
  O  Te16      1.0  0.16380  0.64401  0.23093  1.0000
  Mg  Mg7       1.0  0.22092  0.52771  0.29786  1.0000
  Mg  Mg8       1.0  0.19739  0.70106  0.25734  1.0000
  C  Sn17      1.0  0.34624  0.58068  0.32419  1.0000
  C   C69       1.0  0.36285  0.62107  0.33082  1.0000
  C  Sn18      1.0  0.40583  0.64414  0.29155  1.0000
  C  Sn19      1.0  0.43277  0.62646  0.24457  1.0000
  C   C70       1.0  0.41616  0.58608  0.23794  1.0000
  C  Sn20      1.0  0.37318  0.56299  0.27721  1.0000
  O  Te17      1.0  0.30318  0.55819  0.36396  1.0000
  O  Te18      1.0  0.42170  0.68447  0.29913  1.0000
  O  Te19      1.0  0.47586  0.64899  0.20480  1.0000
  O  Te20      1.0  0.35731  0.52269  0.26962  1.0000
  Mg  Mg9       1.0  0.48255  0.70270  0.23344  1.0000
  Mg  Mg10      1.0  0.29647  0.50442  0.33519  1.0000
  C  Sn21      1.0  0.44352  0.80200  0.21899  1.0000
  C   C71       1.0  0.43051  0.82703  0.20281  1.0000
  C  Sn22      1.0  0.38855  0.81428  0.23060  1.0000
  C  Sn23      1.0  0.35897  0.77572  0.27561  1.0000
  C   C72       1.0  0.37198  0.75072  0.29180  1.0000
  C  Sn24      1.0  0.41394  0.76344  0.26400  1.0000
  O  Te21      1.0  0.48563  0.81537  0.19063  1.0000
  O  Te22      1.0  0.37629  0.83983  0.21360  1.0000
  O  Te23      1.0  0.31684  0.76237  0.30397  1.0000
  O  Te24      1.0  0.42620  0.73792  0.28101  1.0000
  Mg  Mg11      1.0  0.31541  0.80807  0.26539  1.0000
  Mg  Mg12      1.0  0.48707  0.76965  0.22935  1.0000
  C  Sn25      1.0  0.76734  0.35210  0.82135  1.0000
  C   C73       1.0  0.74556  0.36670  0.79011  1.0000
  C  Sn26      1.0  0.76708  0.40177  0.70985  1.0000
  C  Sn27      1.0  0.81131  0.42268  0.65963  1.0000
  C   C74       1.0  0.83306  0.40808  0.69084  1.0000
  C  Sn28      1.0  0.81156  0.37301  0.77114  1.0000
  O  Te25      1.0  0.74518  0.31698  0.90177  1.0000
  O  Te26      1.0  0.74463  0.41578  0.68004  1.0000
  O  Te27      1.0  0.83346  0.45783  0.57916  1.0000
  O  Te28      1.0  0.83399  0.35900  0.80091  1.0000
  Mg  Mg13      1.0  0.78889  0.46495  0.56637  1.0000
  Mg  Mg14      1.0  0.78977  0.30983  0.91448  1.0000
  C  Sn29      1.0  0.63960  0.41895  0.80927  1.0000
  C   C75       1.0  0.62591  0.37860  0.77674  1.0000
  C  Sn30      1.0  0.59420  0.35529  0.70349  1.0000
  C  Sn31      1.0  0.57582  0.37267  0.66176  1.0000
  C   C76       1.0  0.58953  0.41300  0.69425  1.0000
  C  Sn32      1.0  0.62122  0.43634  0.76754  1.0000
  O  Te29      1.0  0.67134  0.44169  0.88257  1.0000
  O  Te30      1.0  0.58102  0.31501  0.67223  1.0000
  O  Te31      1.0  0.54406  0.34989  0.58840  1.0000
  O  Te32      1.0  0.63441  0.47659  0.79876  1.0000
  Mg  Mg15      1.0  0.53682  0.29635  0.57032  1.0000
  Mg  Mg16      1.0  0.67863  0.49527  0.90056  1.0000
  C  Sn33      1.0  0.62113  0.19551  0.78284  1.0000
  C   C77       1.0  0.58114  0.17139  0.77584  1.0000
  C  Sn34      1.0  0.56136  0.18561  0.72813  1.0000
  C  Sn35      1.0  0.58198  0.22476  0.68643  1.0000
  C   C78       1.0  0.62195  0.24886  0.69340  1.0000
  C  Sn36      1.0  0.64175  0.23466  0.74113  1.0000
  O  Te33      1.0  0.64031  0.18068  0.83086  1.0000
  O  Te34      1.0  0.52138  0.16095  0.72213  1.0000
  O  Te35      1.0  0.56276  0.23958  0.63839  1.0000
  O  Te36      1.0  0.68171  0.25930  0.74711  1.0000
  Mg  Mg17      1.0  0.50819  0.19464  0.64922  1.0000
  Mg  Mg18      1.0  0.69494  0.22563  0.81991  1.0000
  C  Sn37      1.0  0.22104  0.57935  0.74633  1.0000
  C   C79       1.0  0.25056  0.61783  0.71448  1.0000
  C  Sn38      1.0  0.23784  0.64577  0.72939  1.0000
  C  Sn39      1.0  0.19471  0.63502  0.77725  1.0000
  C   C80       1.0  0.16522  0.59656  0.80911  1.0000
  C  Sn40      1.0  0.17791  0.56860  0.79419  1.0000
  O  Te37      1.0  0.23446  0.55191  0.73066  1.0000
  O  Te38      1.0  0.26794  0.68406  0.69683  1.0000
  O  Te39      1.0  0.18131  0.66251  0.79290  1.0000
  O  Te40      1.0  0.14784  0.53034  0.82675  1.0000
  Mg  Mg19      1.0  0.23416  0.71094  0.73529  1.0000
  Mg  Mg20      1.0  0.18158  0.50344  0.78843  1.0000
  C  Sn41      1.0  0.34256  0.57283  0.82364  1.0000
  C   C81       1.0  0.35955  0.61325  0.82968  1.0000
  C  Sn42      1.0  0.40252  0.63603  0.79162  1.0000
  C  Sn43      1.0  0.42907  0.61803  0.74647  1.0000
  C   C82       1.0  0.41208  0.57764  0.74041  1.0000
  C  Sn44      1.0  0.36911  0.55483  0.77848  1.0000
  O  Te41      1.0  0.29951  0.55062  0.86217  1.0000
  O  Te42      1.0  0.41878  0.67639  0.79859  1.0000
  O  Te43      1.0  0.47215  0.64028  0.70793  1.0000
  O  Te44      1.0  0.35285  0.51450  0.77150  1.0000
  Mg  Mg21      1.0  0.47945  0.69416  0.73508  1.0000
  Mg  Mg22      1.0  0.29219  0.49669  0.83488  1.0000
  C  Sn45      1.0  0.42352  0.77325  0.80783  1.0000
  C   C83       1.0  0.38281  0.74990  0.80851  1.0000
  C  Sn46      1.0  0.36290  0.76472  0.76527  1.0000
  C  Sn47      1.0  0.38414  0.80369  0.72028  1.0000
  C   C84       1.0  0.42484  0.82702  0.71959  1.0000
  C  Sn48      1.0  0.44477  0.81222  0.76284  1.0000
  O  Te45      1.0  0.44282  0.75782  0.85149  1.0000
  O  Te46      1.0  0.32218  0.74082  0.76693  1.0000
  O  Te47      1.0  0.36481  0.81911  0.67661  1.0000
  O  Te48      1.0  0.48547  0.83610  0.76116  1.0000
  Mg  Mg23      1.0  0.30912  0.77512  0.69761  1.0000
  Mg  Mg24      1.0  0.49856  0.80183  0.83035  1.0000
