data_image0
_chemical_formula_structural       H144C252N24C2Sn2C2HTe2HMgC2Sn2C2HTe2HMgC2Sn2C2HTe2HMgC2Sn2C2HTe2HMgC2Sn2C2HTe2HMgC2Sn2C2HTe2HMgC2Sn2C2HTe2HMgC2Sn2C2HTe2HMgC2Sn2C2HTe2HMgC2Sn2C2HTe2HMgC2Sn2C2HTe2HMgC2Sn2C2HTe2HMgC2Sn2C2HTe2HMgC2Sn2C2HTe2HMgC2Sn2C2HTe2HMgC2Sn2C2HTe2HMgC2Sn2C2HTe2HMgC2Sn2C2HTe2HMg
_chemical_formula_sum              "H180 C324 N24 Sn36 Te36 Mg18"
_cell_length_a       51.5988
_cell_length_b       51.5807
_cell_length_c       8.04182
_cell_angle_alpha    78.4204
_cell_angle_beta     73.5188
_cell_angle_gamma    119.972

_symmetry_space_group_name_H-M    'P1'
_space_group_IT_number       1

loop_
  _space_group_symop_operation_xyz
  'x, y, z'

loop_
  _atom_site_type_symbol
  _atom_site_label
  _atom_site_symmetry_multiplicity
  _atom_site_fract_x
  _atom_site_fract_y
  _atom_site_fract_z
  _atom_site_occupancy
  H   H1        1.0  0.48361  0.56005  0.30243  1.0000
  H   H2        1.0  0.43977  0.92940  0.24869  1.0000
  H   H3        1.0  0.07160  0.51289  0.28846  1.0000
  H   H4        1.0  0.51320  0.44170  0.28667  1.0000
  H   H5        1.0  0.55565  0.07361  0.29746  1.0000
  H   H6        1.0  0.92457  0.48488  0.27455  1.0000
  H   H7        1.0  0.58213  0.60444  0.26730  1.0000
  H   H8        1.0  0.39907  0.98430  0.24296  1.0000
  H   H9        1.0  0.02091  0.42039  0.24835  1.0000
  H   H10       1.0  0.41639  0.39904  0.30442  1.0000
  H   H11       1.0  0.59678  0.01913  0.29853  1.0000
  H   H12       1.0  0.97662  0.57955  0.29147  1.0000
  H   H13       1.0  0.60576  0.57411  0.27077  1.0000
  H   H14       1.0  0.42743  0.03611  0.26007  1.0000
  H   H15       1.0  0.96715  0.39664  0.24708  1.0000
  H   H16       1.0  0.39299  0.42936  0.30176  1.0000
  H   H17       1.0  0.56638  0.96505  0.30349  1.0000
  H   H18       1.0  0.02893  0.60257  0.30481  1.0000
  H   H19       1.0  0.55204  0.47774  0.28190  1.0000
  H   H20       1.0  0.52202  0.07803  0.27675  1.0000
  H   H21       1.0  0.92410  0.44930  0.24594  1.0000
  H   H22       1.0  0.45049  0.52921  0.24049  1.0000
  H   H23       1.0  0.47370  0.92457  0.26861  1.0000
  H   H24       1.0  0.07381  0.55148  0.29203  1.0000
  H   H25       1.0  0.57391  0.47119  0.47474  1.0000
  H   H26       1.0  0.87841  0.40332  0.39385  1.0000
  H   H27       1.0  0.46470  0.87787  0.49120  1.0000
  H   H28       1.0  0.61844  0.46449  0.47536  1.0000
  H   H29       1.0  0.82759  0.35677  0.40596  1.0000
  H   H30       1.0  0.46059  0.82782  0.48631  1.0000
  H   H31       1.0  0.69383  0.56570  0.08542  1.0000
  H   H32       1.0  0.88474  0.32518  0.14450  1.0000
  H   H33       1.0  0.56461  0.88830  0.08044  1.0000
  H   H34       1.0  0.64955  0.57211  0.07850  1.0000
  H   H35       1.0  0.93551  0.37182  0.12744  1.0000
  H   H36       1.0  0.56883  0.93808  0.08660  1.0000
  H   H37       1.0  0.35207  0.93656  0.39035  1.0000
  H   H38       1.0  0.04265  0.41205  0.45646  1.0000
  H   H39       1.0  0.30164  0.88975  0.40013  1.0000
  H   H40       1.0  0.08786  0.40715  0.46604  1.0000
  H   H41       1.0  0.36011  0.85941  0.13733  1.0000
  H   H42       1.0  0.16147  0.50987  0.10243  1.0000
  H   H43       1.0  0.41018  0.90593  0.12493  1.0000
  H   H44       1.0  0.11663  0.51466  0.08913  1.0000
  H   H45       1.0  0.71275  0.55375  0.30622  1.0000
  H   H46       1.0  0.45549  0.17450  0.15222  1.0000
  H   H47       1.0  0.83416  0.27846  0.31849  1.0000
  H   H48       1.0  0.28538  0.44861  0.20849  1.0000
  H   H49       1.0  0.55472  0.84149  0.28370  1.0000
  H   H50       1.0  0.15980  0.72032  0.25514  1.0000
  H   H51       1.0  0.50506  0.69393  0.20518  1.0000
  H   H52       1.0  0.31017  0.81279  0.29898  1.0000
  H   H53       1.0  0.18070  0.49777  0.31931  1.0000
  H   H54       1.0  0.49962  0.31740  0.28460  1.0000
  H   H55       1.0  0.68533  0.18910  0.25495  1.0000
  H   H56       1.0  0.81717  0.50405  0.18194  1.0000
  H   H57       1.0  0.80191  0.22580  0.31938  1.0000
  H   H58       1.0  0.57621  0.80989  0.28662  1.0000
  H   H59       1.0  0.19331  0.77452  0.23141  1.0000
  H   H60       1.0  0.75272  0.18190  0.29744  1.0000
  H   H61       1.0  0.57219  0.75972  0.28188  1.0000
  H   H62       1.0  0.24284  0.81947  0.24503  1.0000
  H   H63       1.0  0.71936  0.24304  0.23244  1.0000
  H   H64       1.0  0.48070  0.72249  0.23147  1.0000
  H   H65       1.0  0.27852  0.76028  0.30014  1.0000
  H   H66       1.0  0.76893  0.28718  0.25061  1.0000
  H   H67       1.0  0.48390  0.77195  0.24541  1.0000
  H   H68       1.0  0.22941  0.71562  0.28242  1.0000
  H   H69       1.0  0.48503  0.55583  0.80627  1.0000
  H   H70       1.0  0.44514  0.92688  0.74628  1.0000
  H   H71       1.0  0.07483  0.51102  0.79509  1.0000
  H   H72       1.0  0.51615  0.43871  0.77721  1.0000
  H   H73       1.0  0.55837  0.07155  0.80300  1.0000
  H   H74       1.0  0.93084  0.48730  0.75459  1.0000
  H   H75       1.0  0.58372  0.60106  0.76972  1.0000
  H   H76       1.0  0.40373  0.98101  0.72734  1.0000
  H   H77       1.0  0.02337  0.41858  0.75625  1.0000
  H   H78       1.0  0.41842  0.39549  0.80728  1.0000
  H   H79       1.0  0.60121  0.01860  0.80039  1.0000
  H   H80       1.0  0.98169  0.57932  0.80407  1.0000
  H   H81       1.0  0.60792  0.57142  0.77011  1.0000
  H   H82       1.0  0.43105  0.03285  0.74465  1.0000
  H   H83       1.0  0.97023  0.39589  0.74764  1.0000
  H   H84       1.0  0.39510  0.42589  0.80385  1.0000
  H   H85       1.0  0.57254  0.96523  0.79271  1.0000
  H   H86       1.0  0.03386  0.60137  0.81749  1.0000
  H   H87       1.0  0.55429  0.47429  0.79064  1.0000
  H   H88       1.0  0.52266  0.07388  0.79681  1.0000
  H   H89       1.0  0.92849  0.44978  0.74087  1.0000
  H   H90       1.0  0.45295  0.52579  0.74068  1.0000
  H   H91       1.0  0.47879  0.92271  0.77051  1.0000
  H   H92       1.0  0.07742  0.54911  0.79955  1.0000
  H   H93       1.0  0.57822  0.46960  0.98511  1.0000
  H   H94       1.0  0.52455  0.11149  0.79984  1.0000
  H   H95       1.0  0.88252  0.40365  0.88836  1.0000
  H   H96       1.0  0.41130  0.52293  0.81959  1.0000
  H   H97       1.0  0.10414  0.57669  0.91919  1.0000
  H   H98       1.0  0.62402  0.46531  0.98737  1.0000
  H   H99       1.0  0.52531  0.15914  0.81118  1.0000
  H   H100      1.0  0.83169  0.35724  0.89966  1.0000
  H   H101      1.0  0.36415  0.52484  0.82870  1.0000
  H   H102      1.0  0.15712  0.62407  0.88573  1.0000
  H   H103      1.0  0.69707  0.56613  0.58637  1.0000
  H   H104      1.0  0.43135  0.11579  0.78627  1.0000
  H   H105      1.0  0.88869  0.32550  0.63807  1.0000
  H   H106      1.0  0.32045  0.43697  0.73034  1.0000
  H   H107      1.0  0.13660  0.68955  0.64349  1.0000
  H   H108      1.0  0.65151  0.56998  0.57600  1.0000
  H   H109      1.0  0.43000  0.06834  0.77725  1.0000
  H   H110      1.0  0.93947  0.37200  0.62217  1.0000
  H   H111      1.0  0.36755  0.43570  0.71288  1.0000
  H   H112      1.0  0.08529  0.64309  0.66507  1.0000
  H   H113      1.0  0.35745  0.93334  0.87456  1.0000
  H   H114      1.0  0.41428  0.35028  0.02331  1.0000
  H   H115      1.0  0.30763  0.88655  0.87933  1.0000
  H   H116      1.0  0.40874  0.30014  0.00701  1.0000
  H   H117      1.0  0.36683  0.85615  0.62765  1.0000
  H   H118      1.0  0.50851  0.36061  0.54630  1.0000
  H   H119      1.0  0.41669  0.90323  0.61624  1.0000
  H   H120      1.0  0.51382  0.41059  0.55972  1.0000
  H   H121      1.0  0.71774  0.55622  0.80730  1.0000
  H   H122      1.0  0.45043  0.16602  0.67460  1.0000
  H   H123      1.0  0.83801  0.27894  0.81108  1.0000
  H   H124      1.0  0.28910  0.44792  0.70056  1.0000
  H   H125      1.0  0.55489  0.83660  0.80427  1.0000
  H   H126      1.0  0.16574  0.71641  0.76011  1.0000
  H   H127      1.0  0.51333  0.69507  0.65805  1.0000
  H   H128      1.0  0.31619  0.80905  0.79984  1.0000
  H   H129      1.0  0.18368  0.49621  0.82706  1.0000
  H   H130      1.0  0.50041  0.31324  0.76264  1.0000
  H   H131      1.0  0.68821  0.18831  0.75914  1.0000
  H   H132      1.0  0.82512  0.50991  0.67225  1.0000
  H   H133      1.0  0.42435  0.19442  0.71226  1.0000
  H   H134      1.0  0.80552  0.22613  0.81709  1.0000
  H   H135      1.0  0.57411  0.80322  0.82466  1.0000
  H   H136      1.0  0.42857  0.24431  0.72571  1.0000
  H   H137      1.0  0.75593  0.18169  0.80070  1.0000
  H   H138      1.0  0.57085  0.75386  0.80882  1.0000
  H   H139      1.0  0.51939  0.27963  0.78141  1.0000
  H   H140      1.0  0.72259  0.24275  0.73077  1.0000
  H   H141      1.0  0.48598  0.72268  0.69349  1.0000
  H   H142      1.0  0.51432  0.22899  0.77721  1.0000
  H   H143      1.0  0.77228  0.28727  0.74569  1.0000
  H   H144      1.0  0.48826  0.77114  0.71884  1.0000
  C   C1        1.0  0.47222  0.00457  0.26184  1.0000
  C   C2        1.0  0.99731  0.47190  0.26455  1.0000
  C   C3        1.0  0.52886  0.52926  0.27354  1.0000
  C   C4        1.0  0.52344  0.99857  0.28182  1.0000
  C   C5        1.0  0.99963  0.52765  0.28423  1.0000
  C   C6        1.0  0.47049  0.47528  0.28642  1.0000
  C   C7        1.0  0.47288  0.50442  0.27613  1.0000
  C   C8        1.0  0.49568  0.97240  0.27324  1.0000
  C   C9        1.0  0.02644  0.52612  0.28605  1.0000
  C   C10       1.0  0.52679  0.50047  0.27811  1.0000
  C   C11       1.0  0.49981  0.03065  0.27153  1.0000
  C   C12       1.0  0.97049  0.47344  0.26366  1.0000
  C   C13       1.0  0.50237  0.53169  0.27659  1.0000
  C   C14       1.0  0.46966  0.97580  0.25910  1.0000
  C   C15       1.0  0.02534  0.49749  0.27465  1.0000
  C   C16       1.0  0.49683  0.47273  0.28508  1.0000
  C   C17       1.0  0.52625  0.02760  0.28145  1.0000
  C   C18       1.0  0.97163  0.50203  0.27504  1.0000
  C   C19       1.0  0.50476  0.55932  0.28727  1.0000
  C   C20       1.0  0.44197  0.95142  0.24954  1.0000
  C   C21       1.0  0.05061  0.49427  0.27448  1.0000
  C   C22       1.0  0.49338  0.44406  0.28840  1.0000
  C   C23       1.0  0.55396  0.05206  0.29043  1.0000
  C   C24       1.0  0.94604  0.50478  0.27789  1.0000
  C   C25       1.0  0.53313  0.58614  0.28473  1.0000
  C   C26       1.0  0.41548  0.95320  0.24879  1.0000
  C   C27       1.0  0.04929  0.46643  0.26790  1.0000
  C   C28       1.0  0.46443  0.41701  0.29815  1.0000
  C   C29       1.0  0.58019  0.05007  0.29418  1.0000
  C   C30       1.0  0.94693  0.53253  0.28159  1.0000
  C   C31       1.0  0.55960  0.58432  0.27223  1.0000
  C   C32       1.0  0.41832  0.98143  0.24908  1.0000
  C   C33       1.0  0.02202  0.44161  0.25841  1.0000
  C   C34       1.0  0.43847  0.41915  0.30336  1.0000
  C   C35       1.0  0.57714  0.02165  0.29699  1.0000
  C   C36       1.0  0.97450  0.55761  0.28880  1.0000
  C   C37       1.0  0.55794  0.55619  0.26964  1.0000
  C   C38       1.0  0.44620  0.00730  0.25542  1.0000
  C   C39       1.0  0.99589  0.44377  0.25517  1.0000
  C   C40       1.0  0.44110  0.44811  0.29465  1.0000
  C   C41       1.0  0.54924  0.99569  0.29188  1.0000
  C   C42       1.0  0.00080  0.55572  0.29196  1.0000
  C   C43       1.0  0.58427  0.55393  0.26792  1.0000
  C   C44       1.0  0.44803  0.03535  0.26158  1.0000
  C   C45       1.0  0.96796  0.41808  0.24825  1.0000
  C   C46       1.0  0.41527  0.45072  0.29079  1.0000
  C   C47       1.0  0.54690  0.96713  0.29261  1.0000
  C   C48       1.0  0.02878  0.58168  0.29726  1.0000
  C   C49       1.0  0.58199  0.52572  0.27424  1.0000
  C   C50       1.0  0.47488  0.06100  0.27042  1.0000
  C   C51       1.0  0.94156  0.41928  0.25051  1.0000
  C   C52       1.0  0.41812  0.47957  0.27156  1.0000
  C   C53       1.0  0.51966  0.94148  0.28782  1.0000
  C   C54       1.0  0.05532  0.58072  0.29478  1.0000
  C   C55       1.0  0.55308  0.49936  0.27949  1.0000
  C   C56       1.0  0.50076  0.05812  0.27177  1.0000
  C   C57       1.0  0.94394  0.44769  0.25376  1.0000
  C   C58       1.0  0.44749  0.50623  0.26235  1.0000
  C   C59       1.0  0.49420  0.94448  0.27916  1.0000
  C   C60       1.0  0.05311  0.55224  0.29321  1.0000
  C   C61       1.0  0.38533  0.92516  0.25604  1.0000
  C   C62       1.0  0.07620  0.46381  0.27460  1.0000
  C   C63       1.0  0.51719  0.91164  0.28991  1.0000
  C   C64       1.0  0.60850  0.52231  0.27889  1.0000
  C   C65       1.0  0.91120  0.39144  0.25862  1.0000
  C   C66       1.0  0.60022  0.49192  0.38887  1.0000
  C   C67       1.0  0.88017  0.38663  0.33597  1.0000
  C   C68       1.0  0.48661  0.88017  0.40100  1.0000
  C   C69       1.0  0.62487  0.48799  0.39065  1.0000
  C   C70       1.0  0.85140  0.36027  0.34597  1.0000
  C   C71       1.0  0.48415  0.85214  0.39945  1.0000
  C   C72       1.0  0.65900  0.51479  0.28532  1.0000
  C   C73       1.0  0.85213  0.33707  0.28227  1.0000
  C   C74       1.0  0.51243  0.85454  0.28818  1.0000
  C   C75       1.0  0.66750  0.54526  0.17425  1.0000
  C   C76       1.0  0.88304  0.34160  0.20544  1.0000
  C   C77       1.0  0.54305  0.88598  0.17541  1.0000
  C   C78       1.0  0.64262  0.54882  0.17075  1.0000
  C   C79       1.0  0.91178  0.36820  0.19427  1.0000
  C   C80       1.0  0.54527  0.91390  0.17765  1.0000
  C   C81       1.0  0.35411  0.91998  0.33242  1.0000
  C   C82       1.0  0.06872  0.43350  0.37859  1.0000
  C   C83       1.0  0.32561  0.89354  0.34055  1.0000
  C   C84       1.0  0.09378  0.43058  0.38496  1.0000
  C   C85       1.0  0.32679  0.87061  0.27536  1.0000
  C   C86       1.0  0.12760  0.45824  0.28979  1.0000
  C   C87       1.0  0.35791  0.87556  0.19926  1.0000
  C   C88       1.0  0.13533  0.48861  0.18391  1.0000
  C   C89       1.0  0.38634  0.90214  0.19093  1.0000
  C   C90       1.0  0.11007  0.49125  0.17672  1.0000
  C   C91       1.0  0.70958  0.53175  0.29116  1.0000
  C   C92       1.0  0.46914  0.18583  0.22973  1.0000
  C   C93       1.0  0.81741  0.28458  0.29735  1.0000
  C   C94       1.0  0.28652  0.46783  0.25229  1.0000
  C   C95       1.0  0.53216  0.82273  0.27851  1.0000
  C   C96       1.0  0.17877  0.71599  0.25149  1.0000
  C   C97       1.0  0.78859  0.25942  0.28477  1.0000
  C   C98       1.0  0.53010  0.79397  0.26714  1.0000
  C   C99       1.0  0.20830  0.74214  0.25478  1.0000
  C   C100      1.0  0.52311  0.70839  0.25347  1.0000
  C   C101      1.0  0.29281  0.81843  0.28353  1.0000
  C   C102      1.0  0.17792  0.47590  0.30435  1.0000
  C   C103      1.0  0.47745  0.29910  0.27420  1.0000
  C   C104      1.0  0.70376  0.18417  0.25568  1.0000
  C   C105      1.0  0.81794  0.52296  0.22823  1.0000
  C   C106      1.0  0.78399  0.22960  0.29716  1.0000
  C   C107      1.0  0.55533  0.79065  0.27447  1.0000
  C   C108      1.0  0.21216  0.77158  0.24591  1.0000
  C   C109      1.0  0.75682  0.20516  0.28555  1.0000
  C   C110      1.0  0.55324  0.76283  0.27216  1.0000
  C   C111      1.0  0.23957  0.79665  0.25299  1.0000
  C   C112      1.0  0.73315  0.20974  0.26205  1.0000
  C   C113      1.0  0.52609  0.73776  0.25872  1.0000
  C   C114      1.0  0.26394  0.79291  0.27248  1.0000
  C   C115      1.0  0.73763  0.23948  0.25097  1.0000
  C   C116      1.0  0.50127  0.74147  0.24687  1.0000
  C   C117      1.0  0.26000  0.76345  0.28213  1.0000
  C   C118      1.0  0.76500  0.26405  0.26050  1.0000
  C   C119      1.0  0.50297  0.76891  0.25348  1.0000
  C   C120      1.0  0.23280  0.73853  0.27282  1.0000
  C   C121      1.0  0.47579  0.00168  0.76271  1.0000
  C   C122      1.0  0.00106  0.47119  0.76492  1.0000
  C   C123      1.0  0.53099  0.52582  0.77500  1.0000
  C   C124      1.0  0.52750  0.99677  0.78521  1.0000
  C   C125      1.0  0.00399  0.52708  0.78738  1.0000
  C   C126      1.0  0.47269  0.47168  0.78858  1.0000
  C   C127      1.0  0.47500  0.50079  0.77839  1.0000
  C   C128      1.0  0.50008  0.97041  0.77592  1.0000
  C   C129      1.0  0.03032  0.52486  0.79067  1.0000
  C   C130      1.0  0.52909  0.49705  0.78004  1.0000
  C   C131      1.0  0.50268  0.02773  0.77743  1.0000
  C   C132      1.0  0.97470  0.47341  0.76092  1.0000
  C   C133      1.0  0.50438  0.52809  0.77891  1.0000
  C   C134      1.0  0.47387  0.97322  0.76026  1.0000
  C   C135      1.0  0.02899  0.49628  0.77744  1.0000
  C   C136      1.0  0.49922  0.46929  0.78536  1.0000
  C   C137      1.0  0.52953  0.02537  0.78734  1.0000
  C   C138      1.0  0.97627  0.50224  0.77213  1.0000
  C   C139      1.0  0.50642  0.55553  0.79058  1.0000
  C   C140      1.0  0.44685  0.94870  0.74682  1.0000
  C   C141      1.0  0.05392  0.49266  0.77954  1.0000
  C   C142      1.0  0.49602  0.44086  0.78375  1.0000
  C   C143      1.0  0.55704  0.05013  0.79644  1.0000
  C   C144      1.0  0.95154  0.50608  0.76906  1.0000
  C   C145      1.0  0.53463  0.58261  0.78749  1.0000
  C   C146      1.0  0.42060  0.95032  0.73959  1.0000
  C   C147      1.0  0.05223  0.46465  0.77449  1.0000
  C   C148      1.0  0.46687  0.41375  0.79501  1.0000
  C   C149      1.0  0.58358  0.04864  0.80015  1.0000
  C   C150      1.0  0.95249  0.53366  0.77922  1.0000
  C   C151      1.0  0.56128  0.58099  0.77369  1.0000
  C   C152      1.0  0.42281  0.97831  0.73892  1.0000
  C   C153      1.0  0.02490  0.44006  0.76423  1.0000
  C   C154      1.0  0.44064  0.41570  0.80458  1.0000
  C   C155      1.0  0.58124  0.02062  0.79991  1.0000
  C   C156      1.0  0.97960  0.55770  0.79457  1.0000
  C   C157      1.0  0.55991  0.55296  0.77079  1.0000
  C   C158      1.0  0.44988  0.00412  0.75078  1.0000
  C   C159      1.0  0.99927  0.44284  0.75707  1.0000
  C   C160      1.0  0.44322  0.44459  0.79687  1.0000
  C   C161      1.0  0.55380  0.99453  0.79226  1.0000
  C   C162      1.0  0.00553  0.55516  0.79823  1.0000
  C   C163      1.0  0.58642  0.55100  0.76870  1.0000
  C   C164      1.0  0.45111  0.03193  0.75560  1.0000
  C   C165      1.0  0.97142  0.41754  0.74782  1.0000
  C   C166      1.0  0.41736  0.44722  0.79326  1.0000
  C   C167      1.0  0.55239  0.96656  0.78730  1.0000
  C   C168      1.0  0.03339  0.58042  0.80794  1.0000
  C   C169      1.0  0.58435  0.52280  0.77719  1.0000
  C   C170      1.0  0.47682  0.05717  0.77347  1.0000
  C   C171      1.0  0.94549  0.41934  0.74675  1.0000
  C   C172      1.0  0.42033  0.47616  0.77295  1.0000
  C   C173      1.0  0.52520  0.94054  0.78403  1.0000
  C   C174      1.0  0.05949  0.57870  0.80628  1.0000
  C   C175      1.0  0.55538  0.49607  0.78446  1.0000
  C   C176      1.0  0.50253  0.05449  0.78192  1.0000
  C   C177      1.0  0.94815  0.44792  0.74965  1.0000
  C   C178      1.0  0.44975  0.50271  0.76373  1.0000
  C   C179      1.0  0.49922  0.94286  0.77996  1.0000
  C   C180      1.0  0.05698  0.55034  0.80101  1.0000
  C   C181      1.0  0.39116  0.92232  0.74205  1.0000
  C   C182      1.0  0.46446  0.38409  0.79232  1.0000
  C   C183      1.0  0.39347  0.47898  0.76634  1.0000
  C   C184      1.0  0.08997  0.60605  0.79970  1.0000
  C   C185      1.0  0.61144  0.52032  0.78231  1.0000
  C   C186      1.0  0.47751  0.08582  0.78348  1.0000
  C   C187      1.0  0.91525  0.39178  0.75230  1.0000
  C   C188      1.0  0.60427  0.49079  0.89641  1.0000
  C   C189      1.0  0.50415  0.11218  0.79347  1.0000
  C   C190      1.0  0.88429  0.38705  0.82943  1.0000
  C   C191      1.0  0.39209  0.50446  0.79417  1.0000
  C   C192      1.0  0.11119  0.60139  0.85740  1.0000
  C   C193      1.0  0.62971  0.48820  0.89921  1.0000
  C   C194      1.0  0.50493  0.13930  0.79943  1.0000
  C   C195      1.0  0.85551  0.36079  0.83888  1.0000
  C   C196      1.0  0.36542  0.50559  0.80141  1.0000
  C   C197      1.0  0.14085  0.62773  0.83993  1.0000
  C   C198      1.0  0.66361  0.51555  0.79096  1.0000
  C   C199      1.0  0.47937  0.14184  0.79149  1.0000
  C   C200      1.0  0.85618  0.33761  0.77475  1.0000
  C   C201      1.0  0.33882  0.48139  0.78005  1.0000
  C   C202      1.0  0.15020  0.65992  0.76824  1.0000
  C   C203      1.0  0.67097  0.54519  0.67650  1.0000
  C   C204      1.0  0.45215  0.11525  0.78650  1.0000
  C   C205      1.0  0.88706  0.34205  0.69810  1.0000
  C   C206      1.0  0.34019  0.45597  0.75026  1.0000
  C   C207      1.0  0.12922  0.66480  0.70845  1.0000
  C   C208      1.0  0.64534  0.54734  0.67146  1.0000
  C   C209      1.0  0.45138  0.08810  0.78271  1.0000
  C   C210      1.0  0.91579  0.36856  0.68762  1.0000
  C   C211      1.0  0.36693  0.45509  0.74228  1.0000
  C   C212      1.0  0.10001  0.63847  0.72246  1.0000
  C   C213      1.0  0.35988  0.91701  0.81567  1.0000
  C   C214      1.0  0.43479  0.35255  0.91737  1.0000
  C   C215      1.0  0.33175  0.89060  0.82143  1.0000
  C   C216      1.0  0.43159  0.32449  0.90956  1.0000
  C   C217      1.0  0.33339  0.86768  0.75857  1.0000
  C   C218      1.0  0.45841  0.32693  0.77944  1.0000
  C   C219      1.0  0.36456  0.87264  0.68572  1.0000
  C   C220      1.0  0.48823  0.35838  0.65396  1.0000
  C   C221      1.0  0.39274  0.89943  0.67811  1.0000
  C   C222      1.0  0.49105  0.38641  0.66124  1.0000
  C   C223      1.0  0.71502  0.53432  0.79320  1.0000
  C   C224      1.0  0.46628  0.17918  0.73774  1.0000
  C   C225      1.0  0.82111  0.28500  0.79191  1.0000
  C   C226      1.0  0.28988  0.46657  0.74917  1.0000
  C   C227      1.0  0.53364  0.81926  0.78376  1.0000
  C   C228      1.0  0.18452  0.71190  0.75783  1.0000
  C   C229      1.0  0.46901  0.20840  0.74597  1.0000
  C   C230      1.0  0.79203  0.25961  0.78222  1.0000
  C   C231      1.0  0.53135  0.79035  0.77199  1.0000
  C   C232      1.0  0.52657  0.70651  0.73641  1.0000
  C   C233      1.0  0.29907  0.81465  0.77919  1.0000
  C   C234      1.0  0.18078  0.47425  0.81293  1.0000
  C   C235      1.0  0.47724  0.29447  0.76243  1.0000
  C   C236      1.0  0.70675  0.18356  0.75967  1.0000
  C   C237      1.0  0.82501  0.52771  0.72744  1.0000
  C   C238      1.0  0.44484  0.21290  0.73051  1.0000
  C   C239      1.0  0.78740  0.22972  0.79626  1.0000
  C   C240      1.0  0.55486  0.78548  0.79578  1.0000
  C   C241      1.0  0.44712  0.24064  0.73690  1.0000
  C   C242      1.0  0.76004  0.20500  0.78737  1.0000
  C   C243      1.0  0.55315  0.75806  0.78738  1.0000
  C   C244      1.0  0.47423  0.26518  0.75329  1.0000
  C   C245      1.0  0.73625  0.20938  0.76413  1.0000
  C   C246      1.0  0.52825  0.73502  0.75116  1.0000
  C   C247      1.0  0.49864  0.26090  0.76592  1.0000
  C   C248      1.0  0.74081  0.23923  0.75058  1.0000
  C   C249      1.0  0.50493  0.74006  0.72537  1.0000
  C   C250      1.0  0.49594  0.23279  0.76421  1.0000
  C   C251      1.0  0.76830  0.26404  0.75826  1.0000
  C   C252      1.0  0.50613  0.76704  0.73850  1.0000
  N   N1        1.0  0.68288  0.50945  0.28786  1.0000
  N   N2        1.0  0.48277  0.17471  0.30322  1.0000
  N   N3        1.0  0.82277  0.31233  0.28645  1.0000
  N   N4        1.0  0.31009  0.48670  0.29070  1.0000
  N   N5        1.0  0.50834  0.82564  0.28809  1.0000
  N   N6        1.0  0.17445  0.68901  0.25222  1.0000
  N   N7        1.0  0.54057  0.70007  0.30310  1.0000
  N   N8        1.0  0.29754  0.84574  0.27842  1.0000
  N   N9        1.0  0.15178  0.45361  0.29645  1.0000
  N   N10       1.0  0.45399  0.30235  0.28117  1.0000
  N   N11       1.0  0.69907  0.15699  0.25824  1.0000
  N   N12       1.0  0.84075  0.54124  0.27335  1.0000
  N   N13       1.0  0.68831  0.51140  0.79255  1.0000
  N   N14       1.0  0.48248  0.17013  0.79773  1.0000
  N   N15       1.0  0.82664  0.31284  0.78034  1.0000
  N   N16       1.0  0.31316  0.48477  0.79157  1.0000
  N   N17       1.0  0.51164  0.82403  0.77574  1.0000
  N   N18       1.0  0.17988  0.68468  0.76178  1.0000
  N   N19       1.0  0.54071  0.69598  0.80860  1.0000
  N   N20       1.0  0.30420  0.84243  0.76412  1.0000
  N   N21       1.0  0.15438  0.45171  0.80839  1.0000
  N   N22       1.0  0.45360  0.29781  0.77702  1.0000
  N   N23       1.0  0.70216  0.15636  0.76319  1.0000
  N   N24       1.0  0.84719  0.54489  0.77964  1.0000
  C   C253      1.0  0.10012  0.65002  0.19923  1.0000
  C   C254      1.0  0.08870  0.61727  0.25584  1.0000
  C  Sn1       1.0  0.10547  0.60714  0.32607  1.0000
  C  Sn2       1.0  0.13421  0.63029  0.33976  1.0000
  C   C255      1.0  0.14543  0.66300  0.28288  1.0000
  C   C256      1.0  0.12846  0.67287  0.21276  1.0000
  H   H145      1.0  0.08698  0.65766  0.14507  1.0000
  O  Te1       1.0  0.09373  0.57433  0.38193  1.0000
  O  Te2       1.0  0.15145  0.62083  0.40950  1.0000
  H   H146      1.0  0.13730  0.69823  0.16905  1.0000
  Mg  Mg1       1.0  0.12574  0.57334  0.46770  1.0000
  C   C257      1.0  0.87210  0.50825  0.23501  1.0000
  C   C258      1.0  0.86397  0.52894  0.27887  1.0000
  C  Sn3       1.0  0.88542  0.55480  0.31503  1.0000
  C  Sn4       1.0  0.91555  0.55999  0.30697  1.0000
  C   C259      1.0  0.92347  0.53918  0.26284  1.0000
  C   C260      1.0  0.90182  0.51337  0.22696  1.0000
  H   H147      1.0  0.85536  0.48830  0.20715  1.0000
  O  Te3       1.0  0.87691  0.57522  0.35871  1.0000
  O  Te4       1.0  0.93745  0.58566  0.34242  1.0000
  H   H148      1.0  0.90813  0.49737  0.19289  1.0000
  Mg  Mg2       1.0  0.91485  0.60687  0.39599  1.0000
  C   C261      1.0  0.50607  0.12254  0.31223  1.0000
  C   C262      1.0  0.48182  0.09491  0.29983  1.0000
  C  Sn5       1.0  0.45541  0.09338  0.27543  1.0000
  C  Sn6       1.0  0.45332  0.12005  0.26321  1.0000
  C   C263      1.0  0.47772  0.14758  0.27564  1.0000
  C   C264      1.0  0.50404  0.14885  0.30012  1.0000
  H   H149      1.0  0.52644  0.12353  0.33107  1.0000
  O  Te5       1.0  0.43138  0.06559  0.26339  1.0000
  O  Te6       1.0  0.42720  0.11916  0.23876  1.0000
  H   H150      1.0  0.52282  0.17026  0.30959  1.0000
  Mg  Mg3       1.0  0.40053  0.07593  0.23019  1.0000
  C   C265      1.0  0.42622  0.33153  0.43358  1.0000
  C   C266      1.0  0.44966  0.32961  0.30870  1.0000
  C  Sn7       1.0  0.48150  0.35813  0.17812  1.0000
  C  Sn8       1.0  0.48994  0.38912  0.17283  1.0000
  C   C267      1.0  0.46632  0.39079  0.29846  1.0000
  C   C268      1.0  0.43453  0.36209  0.42851  1.0000
  H   H151      1.0  0.40163  0.30933  0.53428  1.0000
  O  Te7       1.0  0.50462  0.35577  0.05432  1.0000
  O  Te8       1.0  0.52159  0.41802  0.04380  1.0000
  H   H152      1.0  0.41639  0.36358  0.52526  1.0000
  Mg  Mg4       1.0  0.46476  0.33096  0.90405  1.0000
  C   C269      1.0  0.64452  0.13249  0.69344  1.0000
  C   C270      1.0  0.66657  0.13302  0.76357  1.0000
  C  Sn9       1.0  0.66288  0.10406  0.84572  1.0000
  C  Sn10      1.0  0.63660  0.07405  0.85764  1.0000
  C   C271      1.0  0.61468  0.07378  0.78695  1.0000
  C   C272      1.0  0.61860  0.10290  0.70508  1.0000
  H   H153      1.0  0.64756  0.15502  0.63000  1.0000
  O  Te9       1.0  0.68513  0.10503  0.91514  1.0000
  O  Te10      1.0  0.63235  0.04475  0.93899  1.0000
  H   H154      1.0  0.60153  0.10249  0.65069  1.0000
  Mg  Mg5       1.0  0.74879  0.12979  0.01357  1.0000
  C   C273      1.0  0.50509  0.61792  0.79917  1.0000
  C   C274      1.0  0.52918  0.61222  0.78850  1.0000
  C  Sn11      1.0  0.55823  0.63465  0.79737  1.0000
  C  Sn12      1.0  0.56319  0.66328  0.81735  1.0000
  C   C275      1.0  0.53893  0.66874  0.82804  1.0000
  C   C276      1.0  0.50995  0.64614  0.81896  1.0000
  H   H155      1.0  0.48266  0.60043  0.79225  1.0000
  O  Te11      1.0  0.58205  0.62858  0.78642  1.0000
  O  Te12      1.0  0.59200  0.68609  0.82665  1.0000
  H   H156      1.0  0.49130  0.65055  0.82735  1.0000
  Mg  Mg6       1.0  0.61721  0.66695  0.80554  1.0000
  C   C277      1.0  0.34281  0.45526  0.23371  1.0000
  C   C278      1.0  0.33426  0.47522  0.28589  1.0000
  C  Sn13      1.0  0.35590  0.50097  0.32195  1.0000
  C  Sn14      1.0  0.38666  0.50680  0.30529  1.0000
  C   C279      1.0  0.39499  0.48670  0.25286  1.0000
  C   C280      1.0  0.37315  0.46099  0.21717  1.0000
  H   H157      1.0  0.32592  0.43537  0.20598  1.0000
  O  Te13      1.0  0.34697  0.52067  0.37400  1.0000
  O  Te14      1.0  0.40875  0.53238  0.34044  1.0000
  H   H158      1.0  0.37978  0.44556  0.17665  1.0000
  Mg  Mg7       1.0  0.38540  0.55248  0.40728  1.0000
  C   C281      1.0  0.56309  0.64722  0.33138  1.0000
  C   C282      1.0  0.53936  0.61965  0.31601  1.0000
  C  Sn15      1.0  0.51385  0.61849  0.28123  1.0000
  C  Sn16      1.0  0.51212  0.64547  0.26148  1.0000
  C   C283      1.0  0.53599  0.67295  0.27696  1.0000
  C   C284      1.0  0.56141  0.67385  0.31185  1.0000
  H   H159      1.0  0.58277  0.64792  0.35827  1.0000
  O  Te15      1.0  0.49034  0.59075  0.26635  1.0000
  O  Te16      1.0  0.48690  0.64497  0.22660  1.0000
  H   H160      1.0  0.57979  0.69520  0.32361  1.0000
  Mg  Mg8       1.0  0.46067  0.60166  0.21799  1.0000
  C   C285      1.0  0.88903  0.50751  0.76574  1.0000
  C   C286      1.0  0.91925  0.53059  0.76190  1.0000
  C  Sn17      1.0  0.92547  0.55953  0.77573  1.0000
  C  Sn18      1.0  0.90092  0.56539  0.79378  1.0000
  C   C287      1.0  0.87076  0.54214  0.79762  1.0000
  C   C288      1.0  0.86480  0.51327  0.78361  1.0000
  H   H161      1.0  0.88441  0.48516  0.75501  1.0000
  O  Te17      1.0  0.95580  0.58233  0.77159  1.0000
  O  Te18      1.0  0.90648  0.59411  0.80794  1.0000
  H   H162      1.0  0.84139  0.49539  0.78671  1.0000
  Mg  Mg9       1.0  0.95172  0.61776  0.79546  1.0000
  C   C289      1.0  0.44609  0.23991  0.21608  1.0000
  C   C290      1.0  0.46707  0.26361  0.26622  1.0000
  C  Sn19      1.0  0.49241  0.26342  0.29554  1.0000
  C  Sn20      1.0  0.49677  0.23902  0.27411  1.0000
  C   C291      1.0  0.47566  0.21542  0.22378  1.0000
  C   C292      1.0  0.45038  0.21583  0.19484  1.0000
  H   H163      1.0  0.42654  0.24023  0.19358  1.0000
  O  Te19      1.0  0.51314  0.28729  0.34564  1.0000
  O  Te20      1.0  0.52190  0.23826  0.30250  1.0000
  H   H164      1.0  0.43415  0.19749  0.15590  1.0000
  Mg  Mg10      1.0  0.54381  0.27602  0.36913  1.0000
  C   C293      1.0  0.22619  0.44058  0.75657  1.0000
  C   C294      1.0  0.25671  0.46351  0.75049  1.0000
  C  Sn21      1.0  0.26231  0.49128  0.77980  1.0000
  C  Sn22      1.0  0.23684  0.49612  0.81587  1.0000
  C   C295      1.0  0.20640  0.47302  0.82180  1.0000
  C   C296      1.0  0.20106  0.44532  0.79222  1.0000
  H   H165      1.0  0.22205  0.41913  0.73379  1.0000
  O  Te21      1.0  0.29295  0.51396  0.77317  1.0000
  O  Te22      1.0  0.24178  0.52366  0.84573  1.0000
  H   H166      1.0  0.17742  0.42756  0.79705  1.0000
  Mg  Mg11      1.0  0.28776  0.54761  0.82272  1.0000
  C   C297      1.0  0.22235  0.77556  0.75176  1.0000
  C   C298      1.0  0.21526  0.74589  0.74653  1.0000
  C  Sn23      1.0  0.23619  0.73693  0.76304  1.0000
  C  Sn24      1.0  0.26472  0.75812  0.78523  1.0000
  C   C299      1.0  0.27158  0.78774  0.79043  1.0000
  C   C300      1.0  0.25047  0.79646  0.77372  1.0000
  H   H167      1.0  0.20601  0.78230  0.73894  1.0000
  O  Te23      1.0  0.22875  0.70721  0.75746  1.0000
  O  Te24      1.0  0.28605  0.74977  0.80213  1.0000
  H   H168      1.0  0.25596  0.81943  0.77790  1.0000
  Mg  Mg12      1.0  0.26537  0.70666  0.78623  1.0000
  C   C301      1.0  0.24008  0.50057  0.31971  1.0000
  C   C302      1.0  0.21276  0.48111  0.28800  1.0000
  C  Sn25      1.0  0.20785  0.45398  0.25239  1.0000
  C  Sn26      1.0  0.23076  0.44625  0.24859  1.0000
  C   C303      1.0  0.25800  0.46585  0.28062  1.0000
  C   C304      1.0  0.26268  0.49295  0.31607  1.0000
  H   H169      1.0  0.24369  0.52152  0.34724  1.0000
  O  Te25      1.0  0.18042  0.43481  0.22093  1.0000
  O  Te26      1.0  0.22644  0.41927  0.21340  1.0000
  H   H170      1.0  0.28383  0.50799  0.34073  1.0000
  Mg  Mg13      1.0  0.18524  0.40058  0.17890  1.0000
  C   C305      1.0  0.55425  0.90888  0.64788  1.0000
  C   C306      1.0  0.52955  0.91197  0.74569  1.0000
  C  Sn27      1.0  0.49703  0.88401  0.87151  1.0000
  C  Sn28      1.0  0.48917  0.85240  0.89966  1.0000
  C   C307      1.0  0.51406  0.84957  0.80123  1.0000
  C   C308      1.0  0.54652  0.87771  0.67562  1.0000
  H   H171      1.0  0.57936  0.93065  0.55077  1.0000
  O  Te27      1.0  0.47266  0.88755  0.96803  1.0000
  O  Te28      1.0  0.53663  0.89520  0.02463  1.0000
  H   H172      1.0  0.56564  0.87530  0.60000  1.0000
  Mg  Mg14      1.0  0.51202  0.91271  0.12330  1.0000
  C   C309      1.0  0.74064  0.49913  0.23115  1.0000
  C   C310      1.0  0.73492  0.52086  0.28146  1.0000
  C  Sn29      1.0  0.75919  0.54689  0.30413  1.0000
  C  Sn30      1.0  0.78974  0.55118  0.27577  1.0000
  C   C311      1.0  0.79524  0.52932  0.22534  1.0000
  C   C312      1.0  0.77078  0.50335  0.20308  1.0000
  H   H173      1.0  0.72173  0.47905  0.21383  1.0000
  O  Te29      1.0  0.75306  0.56837  0.35449  1.0000
  O  Te30      1.0  0.81443  0.57699  0.29742  1.0000
  H   H174      1.0  0.77523  0.48654  0.16401  1.0000
  Mg  Mg15      1.0  0.79439  0.59979  0.36730  1.0000
  C   C313      1.0  0.64176  0.13379  0.18588  1.0000
  C   C314      1.0  0.66365  0.13403  0.25664  1.0000
  C  Sn31      1.0  0.65959  0.10488  0.33961  1.0000
  C  Sn32      1.0  0.63311  0.07499  0.35171  1.0000
  C   C315      1.0  0.61136  0.07502  0.28038  1.0000
  C   C316      1.0  0.61564  0.10432  0.19769  1.0000
  H   H175      1.0  0.64508  0.15646  0.12181  1.0000
  O  Te31      1.0  0.68167  0.10556  0.40966  1.0000
  O  Te32      1.0  0.62848  0.04551  0.43386  1.0000
  H   H176      1.0  0.59871  0.10413  0.14281  1.0000
  Mg  Mg16      1.0  0.66508  0.05901  0.50908  1.0000
  C   C317      1.0  0.13565  0.49165  0.67198  1.0000
  C   C318      1.0  0.13270  0.46482  0.78314  1.0000
  C  Sn33      1.0  0.10126  0.43460  0.89419  1.0000
  C  Sn34      1.0  0.07227  0.43124  0.89362  1.0000
  C   C319      1.0  0.07548  0.45822  0.78183  1.0000
  C   C320      1.0  0.10707  0.48835  0.67128  1.0000
  H   H177      1.0  0.16009  0.51496  0.58636  1.0000
  O  Te33      1.0  0.17852  0.47921  0.00447  1.0000
  O  Te34      1.0  0.12028  0.47247  0.00323  1.0000
  H   H178      1.0  0.10934  0.50911  0.58514  1.0000
  Mg  Mg17      1.0  0.12977  0.44346  0.12998  1.0000
  C   C321      1.0  0.74783  0.50334  0.72738  1.0000
  C   C322      1.0  0.74132  0.52449  0.78005  1.0000
  C  Sn35      1.0  0.76508  0.55054  0.80513  1.0000
  C  Sn36      1.0  0.79589  0.55545  0.77682  1.0000
  C   C323      1.0  0.80217  0.53417  0.72401  1.0000
  C   C324      1.0  0.77822  0.50817  0.69936  1.0000
  H   H179      1.0  0.72931  0.48324  0.70820  1.0000
  O  Te35      1.0  0.75817  0.57144  0.85783  1.0000
  O  Te36      1.0  0.82007  0.58130  0.80086  1.0000
  H   H180      1.0  0.78327  0.49181  0.65846  1.0000
  Mg  Mg18      1.0  0.79902  0.60317  0.87340  1.0000
