data_image0
_chemical_formula_structural       H192C264N32SnCSn2CSnTe4Mg2SnCSn2CSnTe4Mg2SnCSn2CSnTe4Mg2SnCSn2CSnTe4Mg2SnCSn2CSnTe4Mg2SnCSn2CSnTe4Mg2SnCSn2CSnTe4Mg2SnCSn2CSnTe4Mg2SnCSn2CSnTe4Mg2SnCSn2CSnTe4Mg2SnCSn2CSnTe4Mg2SnCSn2CSnTe4Mg2SnCSn2CSnTe4Mg2SnCSn2CSnTe4Mg2SnCSn2CSnTe4Mg2SnCSn2CSnTe4Mg2
_chemical_formula_sum              "H192 C296 N32 Sn64 Te64 Mg32"
_cell_length_a       50.7288
_cell_length_b       26.7589
_cell_length_c       26.7813
_cell_angle_alpha    90.1562
_cell_angle_beta     89.9891
_cell_angle_gamma    89.8106

_symmetry_space_group_name_H-M    'P1'
_space_group_IT_number       1

loop_
  _space_group_symop_operation_xyz
  'x, y, z'

loop_
  _atom_site_type_symbol
  _atom_site_label
  _atom_site_symmetry_multiplicity
  _atom_site_fract_x
  _atom_site_fract_y
  _atom_site_fract_z
  _atom_site_occupancy
  H   H1        1.0  0.64000  0.41901  0.49126  1.0000
  H   H2        1.0  0.36073  0.59176  0.99754  1.0000
  H   H3        1.0  0.63972  0.57555  0.99408  1.0000
  H   H4        1.0  0.35704  0.36277  0.51955  1.0000
  H   H5        1.0  0.64231  0.43971  0.55435  1.0000
  H   H6        1.0  0.35695  0.54784  0.04646  1.0000
  H   H7        1.0  0.64251  0.57456  0.06037  1.0000
  H   H8        1.0  0.35984  0.42400  0.49598  1.0000
  H   H9        1.0  0.64266  0.37532  0.54074  1.0000
  H   H10       1.0  0.35686  0.61208  0.06052  1.0000
  H   H11       1.0  0.64139  0.63201  0.02841  1.0000
  H   H12       1.0  0.35832  0.41386  0.56171  1.0000
  H   H13       1.0  0.75280  0.45239  0.60915  1.0000
  H   H14       1.0  0.23969  0.58219  0.10486  1.0000
  H   H15       1.0  0.75236  0.55587  0.10860  1.0000
  H   H16       1.0  0.25122  0.45649  0.61164  1.0000
  H   H17       1.0  0.75149  0.38698  0.61463  1.0000
  H   H18       1.0  0.26672  0.60572  0.14024  1.0000
  H   H19       1.0  0.75150  0.62150  0.11153  1.0000
  H   H20       1.0  0.24611  0.39151  0.61264  1.0000
  H   H21       1.0  0.72716  0.42430  0.64471  1.0000
  H   H22       1.0  0.26338  0.54090  0.13111  1.0000
  H   H23       1.0  0.72696  0.58651  0.14319  1.0000
  H   H24       1.0  0.27355  0.41750  0.64494  1.0000
  H   H25       1.0  0.72471  0.38373  0.39903  1.0000
  H   H26       1.0  0.28074  0.59836  0.89460  1.0000
  H   H27       1.0  0.72253  0.61477  0.89517  1.0000
  H   H28       1.0  0.27995  0.40702  0.39222  1.0000
  H   H29       1.0  0.75407  0.40887  0.42568  1.0000
  H   H30       1.0  0.25241  0.62189  0.92617  1.0000
  H   H31       1.0  0.75318  0.60034  0.92474  1.0000
  H   H32       1.0  0.25332  0.37557  0.42144  1.0000
  H   H33       1.0  0.72906  0.44886  0.40209  1.0000
  H   H34       1.0  0.25590  0.55717  0.91657  1.0000
  H   H35       1.0  0.73217  0.55198  0.90365  1.0000
  H   H36       1.0  0.25341  0.44129  0.41935  1.0000
  H   H37       1.0  0.31756  0.32851  0.62109  1.0000
  H   H38       1.0  0.34132  0.32424  0.70236  1.0000
  H   H39       1.0  0.34723  0.48458  0.70521  1.0000
  H   H40       1.0  0.32322  0.48872  0.62378  1.0000
  H   H41       1.0  0.67742  0.48424  0.40901  1.0000
  H   H42       1.0  0.32246  0.47750  0.41011  1.0000
  H   H43       1.0  0.65108  0.47272  0.33102  1.0000
  H   H44       1.0  0.35006  0.46712  0.33319  1.0000
  H   H45       1.0  0.67115  0.32718  0.43992  1.0000
  H   H46       1.0  0.32976  0.32044  0.44021  1.0000
  H   H47       1.0  0.64546  0.31544  0.36176  1.0000
  H   H48       1.0  0.35710  0.30985  0.36389  1.0000
  H   H49       1.0  0.85855  0.42166  0.54487  1.0000
  H   H50       1.0  0.14159  0.57013  0.04025  1.0000
  H   H51       1.0  0.85624  0.54189  0.99783  1.0000
  H   H52       1.0  0.14437  0.45954  0.48853  1.0000
  H   H53       1.0  0.85646  0.45436  0.48772  1.0000
  H   H54       1.0  0.14446  0.54316  0.98023  1.0000
  H   H55       1.0  0.85721  0.60817  0.99182  1.0000
  H   H56       1.0  0.14434  0.39328  0.48178  1.0000
  H   H57       1.0  0.85666  0.38771  0.48849  1.0000
  H   H58       1.0  0.14305  0.60938  0.98742  1.0000
  H   H59       1.0  0.85689  0.58064  0.05148  1.0000
  H   H60       1.0  0.14112  0.42046  0.54146  1.0000
  H   H61       1.0  0.74480  0.32857  0.53811  1.0000
  H   H62       1.0  0.25576  0.67154  0.02503  1.0000
  H   H63       1.0  0.75246  0.68205  0.05184  1.0000
  H   H64       1.0  0.25226  0.32621  0.54617  1.0000
  H   H65       1.0  0.77593  0.29786  0.54479  1.0000
  H   H66       1.0  0.22674  0.69645  0.05330  1.0000
  H   H67       1.0  0.77800  0.71011  0.01634  1.0000
  H   H68       1.0  0.22204  0.29431  0.53421  1.0000
  H   H69       1.0  0.76204  0.30648  0.48503  1.0000
  H   H70       1.0  0.23066  0.69958  0.98814  1.0000
  H   H71       1.0  0.75031  0.68237  0.98633  1.0000
  H   H72       1.0  0.24300  0.31186  0.48441  1.0000
  H   H73       1.0  0.77248  0.54462  0.52376  1.0000
  H   H74       1.0  0.22820  0.45377  0.00523  1.0000
  H   H75       1.0  0.77109  0.45795  0.02168  1.0000
  H   H76       1.0  0.22950  0.54360  0.52661  1.0000
  H   H77       1.0  0.74303  0.50911  0.53135  1.0000
  H   H78       1.0  0.25134  0.48449  0.04443  1.0000
  H   H79       1.0  0.74173  0.49404  0.02995  1.0000
  H   H80       1.0  0.25876  0.50645  0.53087  1.0000
  H   H81       1.0  0.75510  0.52207  0.47107  1.0000
  H   H82       1.0  0.25485  0.48808  0.97918  1.0000
  H   H83       1.0  0.75411  0.48247  0.96942  1.0000
  H   H84       1.0  0.24544  0.52172  0.47201  1.0000
  H   H85       1.0  0.83656  0.50664  0.57902  1.0000
  H   H86       1.0  0.82596  0.48425  0.08817  1.0000
  H   H87       1.0  0.86160  0.58676  0.57450  1.0000
  H   H88       1.0  0.85255  0.40539  0.08400  1.0000
  H   H89       1.0  0.80467  0.53384  0.43299  1.0000
  H   H90       1.0  0.81302  0.47659  0.92976  1.0000
  H   H91       1.0  0.82902  0.61423  0.42907  1.0000
  H   H92       1.0  0.83995  0.39882  0.92547  1.0000
  H   H93       1.0  0.82934  0.33810  0.59856  1.0000
  H   H94       1.0  0.82649  0.66726  0.09965  1.0000
  H   H95       1.0  0.85532  0.25948  0.60662  1.0000
  H   H96       1.0  0.85393  0.74419  0.10643  1.0000
  H   H97       1.0  0.84429  0.22947  0.45023  1.0000
  H   H98       1.0  0.84959  0.76404  0.94756  1.0000
  H   H99       1.0  0.81702  0.30731  0.44286  1.0000
  H   H100      1.0  0.82184  0.68695  0.94072  1.0000
  H   H101      1.0  0.58423  0.36087  0.90413  1.0000
  H   H102      1.0  0.58780  0.63251  0.41093  1.0000
  H   H103      1.0  0.61949  0.36385  0.84007  1.0000
  H   H104      1.0  0.62250  0.63140  0.34611  1.0000
  H   H105      1.0  0.42602  0.50550  0.64900  1.0000
  H   H106      1.0  0.58240  0.49115  0.13482  1.0000
  H   H107      1.0  0.39310  0.50534  0.71849  1.0000
  H   H108      1.0  0.61397  0.49192  0.20678  1.0000
  H   H109      1.0  0.60005  0.55461  0.46489  1.0000
  H   H110      1.0  0.39885  0.42945  0.97139  1.0000
  H   H111      1.0  0.60047  0.43445  0.96599  1.0000
  H   H112      1.0  0.39897  0.56603  0.47318  1.0000
  H   H113      1.0  0.60104  0.56318  0.56531  1.0000
  H   H114      1.0  0.39975  0.42030  0.07212  1.0000
  H   H115      1.0  0.60146  0.42402  0.06603  1.0000
  H   H116      1.0  0.40008  0.57495  0.57368  1.0000
  H   H117      1.0  0.47096  0.56653  0.32905  1.0000
  H   H118      1.0  0.52495  0.43314  0.82715  1.0000
  H   H119      1.0  0.47173  0.43515  0.82905  1.0000
  H   H120      1.0  0.52407  0.56713  0.32551  1.0000
  H   H121      1.0  0.47599  0.59027  0.70967  1.0000
  H   H122      1.0  0.52831  0.41140  0.20823  1.0000
  H   H123      1.0  0.47505  0.41264  0.20962  1.0000
  H   H124      1.0  0.52938  0.58861  0.70689  1.0000
  H   H125      1.0  0.50048  0.56918  0.47765  1.0000
  H   H126      1.0  0.49968  0.43214  0.97854  1.0000
  H   H127      1.0  0.50036  0.58346  0.55806  1.0000
  H   H128      1.0  0.50069  0.41748  0.05853  1.0000
  H   H129      1.0  0.07914  0.79359  0.44498  1.0000
  H   H130      1.0  0.90962  0.19299  0.95706  1.0000
  H   H131      1.0  0.91917  0.79439  0.44453  1.0000
  H   H132      1.0  0.11020  0.72235  0.44664  1.0000
  H   H133      1.0  0.87668  0.26096  0.96408  1.0000
  H   H134      1.0  0.88800  0.72376  0.44724  1.0000
  H   H135      1.0  0.10101  0.97117  0.52227  1.0000
  H   H136      1.0  0.89928  0.02885  0.02549  1.0000
  H   H137      1.0  0.10057  0.03148  0.01734  1.0000
  H   H138      1.0  0.89901  0.96885  0.50966  1.0000
  H   H139      1.0  0.10097  0.87028  0.52583  1.0000
  H   H140      1.0  0.89869  0.12931  0.03208  1.0000
  H   H141      1.0  0.09986  0.13238  0.02259  1.0000
  H   H142      1.0  0.89903  0.86815  0.51537  1.0000
  H   H143      1.0  0.43414  0.66459  0.66457  1.0000
  H   H144      1.0  0.56258  0.33908  0.16870  1.0000
  H   H145      1.0  0.40135  0.66487  0.73278  1.0000
  H   H146      1.0  0.59414  0.33924  0.23913  1.0000
  H   H147      1.0  0.55566  0.49617  0.35207  1.0000
  H   H148      1.0  0.55874  0.50833  0.86293  1.0000
  H   H149      1.0  0.59123  0.49382  0.28811  1.0000
  H   H150      1.0  0.59443  0.51172  0.79878  1.0000
  H   H151      1.0  0.85808  0.67451  0.46424  1.0000
  H   H152      1.0  0.13808  0.32940  0.95620  1.0000
  H   H153      1.0  0.86955  0.34086  0.96206  1.0000
  H   H154      1.0  0.14445  0.67905  0.46739  1.0000
  H   H155      1.0  0.97844  0.91773  0.51270  1.0000
  H   H156      1.0  0.97772  0.08160  0.00951  1.0000
  H   H157      1.0  0.02173  0.92142  0.51415  1.0000
  H   H158      1.0  0.02104  0.08068  0.01094  1.0000
  H   H159      1.0  0.97452  0.72809  0.51842  1.0000
  H   H160      1.0  0.97204  0.27182  0.01179  1.0000
  H   H161      1.0  0.02515  0.27210  0.01064  1.0000
  H   H162      1.0  0.02765  0.72946  0.51929  1.0000
  H   H163      1.0  0.38815  0.64581  0.80712  1.0000
  H   H164      1.0  0.61251  0.63862  0.79877  1.0000
  H   H165      1.0  0.62973  0.63766  0.26229  1.0000
  H   H166      1.0  0.09434  0.70174  0.60307  1.0000
  H   H167      1.0  0.06261  0.77323  0.60091  1.0000
  H   H168      1.0  0.62882  0.36553  0.75968  1.0000
  H   H169      1.0  0.62474  0.34642  0.28964  1.0000
  H   H170      1.0  0.37812  0.34216  0.29165  1.0000
  H   H171      1.0  0.36470  0.63158  0.26865  1.0000
  H   H172      1.0  0.12478  0.18991  0.57467  1.0000
  H   H173      1.0  0.12471  0.81191  0.06835  1.0000
  H   H174      1.0  0.02670  0.89340  0.98125  1.0000
  H   H175      1.0  0.90854  0.69716  0.60067  1.0000
  H   H176      1.0  0.94043  0.76823  0.59754  1.0000
  H   H177      1.0  0.87509  0.81401  0.07088  1.0000
  H   H178      1.0  0.91647  0.83880  0.06394  1.0000
  H   H179      1.0  0.94800  0.90919  0.06865  1.0000
  H   H180      1.0  0.87937  0.90681  0.93654  1.0000
  H   H181      1.0  0.91126  0.97738  0.94130  1.0000
  H   H182      1.0  0.97367  0.89301  0.98217  1.0000
  H   H183      1.0  0.94051  0.07705  0.57960  1.0000
  H   H184      1.0  0.90904  0.14762  0.57686  1.0000
  H   H185      1.0  0.87278  0.18422  0.57271  1.0000
  H   H186      1.0  0.91812  0.03330  0.43122  1.0000
  H   H187      1.0  0.88656  0.10534  0.42780  1.0000
  H   H188      1.0  0.02563  0.11000  0.49619  1.0000
  H   H189      1.0  0.97253  0.10819  0.49428  1.0000
  H   H190      1.0  0.36509  0.36139  0.76753  1.0000
  H   H191      1.0  0.94539  0.24039  0.09462  1.0000
  H   H192      1.0  0.91212  0.30911  0.10177  1.0000
  C   C1        1.0  0.42056  0.54030  0.66746  1.0000
  C   C2        1.0  0.58537  0.45780  0.15732  1.0000
  C   C3        1.0  0.40216  0.54003  0.70606  1.0000
  C   C4        1.0  0.60310  0.45827  0.19697  1.0000
  C   C5        1.0  0.08289  0.77419  0.47993  1.0000
  C   C6        1.0  0.91031  0.21854  0.98871  1.0000
  C   C7        1.0  0.91654  0.77354  0.47901  1.0000
  C   C8        1.0  0.10055  0.73414  0.48101  1.0000
  C   C9        1.0  0.89191  0.25718  0.99244  1.0000
  C   C10       1.0  0.89891  0.73379  0.48073  1.0000
  C   C11       1.0  0.42530  0.62961  0.67654  1.0000
  C   C12       1.0  0.57411  0.37236  0.17683  1.0000
  C   C13       1.0  0.40690  0.62963  0.71527  1.0000
  C   C14       1.0  0.59197  0.37252  0.21625  1.0000
  C   C15       1.0  0.92829  0.08280  0.54670  1.0000
  C   C16       1.0  0.93264  0.90910  0.04031  1.0000
  C   C17       1.0  0.91040  0.12232  0.54510  1.0000
  C   C18       1.0  0.91479  0.86978  0.03788  1.0000
  C   C19       1.0  0.44421  0.57885  0.56182  1.0000
  C   C20       1.0  0.55703  0.42155  0.05764  1.0000
  C   C21       1.0  0.44400  0.42245  0.06098  1.0000
  C   C22       1.0  0.55695  0.57344  0.55624  1.0000
  C   C23       1.0  0.45273  0.58442  0.61161  1.0000
  C   C24       1.0  0.54950  0.41613  0.10800  1.0000
  C   C25       1.0  0.45245  0.41740  0.11082  1.0000
  C   C26       1.0  0.54966  0.58041  0.60655  1.0000
  C   C27       1.0  0.43254  0.58498  0.65226  1.0000
  C   C28       1.0  0.57030  0.41507  0.14711  1.0000
  C   C29       1.0  0.39531  0.58456  0.73116  1.0000
  C   C30       1.0  0.60664  0.41585  0.22732  1.0000
  C   C31       1.0  0.58418  0.56562  0.54063  1.0000
  C   C32       1.0  0.41624  0.42325  0.04662  1.0000
  C   C33       1.0  0.58444  0.42503  0.04168  1.0000
  C   C34       1.0  0.41651  0.57471  0.54790  1.0000
  C   C35       1.0  0.97735  0.18791  0.01794  1.0000
  C   C36       1.0  0.02185  0.81352  0.52029  1.0000
  C   C37       1.0  0.97884  0.81241  0.51961  1.0000
  C   C38       1.0  0.02039  0.18811  0.01677  1.0000
  C   C39       1.0  0.98529  0.24017  0.01453  1.0000
  C   C40       1.0  0.01420  0.76096  0.51988  1.0000
  C   C41       1.0  0.98738  0.76028  0.51958  1.0000
  C   C42       1.0  0.01212  0.24030  0.01388  1.0000
  C   C43       1.0  0.93022  0.21241  0.02482  1.0000
  C   C44       1.0  0.06894  0.78878  0.52294  1.0000
  C   C45       1.0  0.93192  0.78628  0.52082  1.0000
  C   C46       1.0  0.89288  0.29125  0.03267  1.0000
  C   C47       1.0  0.10501  0.70765  0.52572  1.0000
  C   C48       1.0  0.89586  0.70565  0.52482  1.0000
  C   C49       1.0  0.04715  0.17331  0.01700  1.0000
  C   C50       1.0  0.95202  0.82665  0.51802  1.0000
  C   C51       1.0  0.04843  0.82893  0.52065  1.0000
  C   C52       1.0  0.95068  0.17274  0.02004  1.0000
  C   C53       1.0  0.58625  0.39357  0.88037  1.0000
  C   C54       1.0  0.58819  0.60266  0.38327  1.0000
  C   C55       1.0  0.60597  0.39525  0.84419  1.0000
  C   C56       1.0  0.60767  0.60211  0.34657  1.0000
  C   C57       1.0  0.91189  0.94767  0.96892  1.0000
  C   C58       1.0  0.91566  0.05791  0.46333  1.0000
  C   C59       1.0  0.57003  0.52619  0.35024  1.0000
  C   C60       1.0  0.57174  0.47640  0.85720  1.0000
  C   C61       1.0  0.58979  0.52475  0.31428  1.0000
  C   C62       1.0  0.59164  0.47858  0.82147  1.0000
  C   C63       1.0  0.92869  0.75863  0.56491  1.0000
  C   C64       1.0  0.07347  0.76255  0.56748  1.0000
  C   C65       1.0  0.93049  0.24538  0.06584  1.0000
  C   C66       1.0  0.91098  0.71904  0.56683  1.0000
  C   C67       1.0  0.09111  0.72262  0.56880  1.0000
  C   C68       1.0  0.91200  0.28371  0.07000  1.0000
  C   C69       1.0  0.44337  0.57216  0.48067  1.0000
  C   C70       1.0  0.55623  0.42837  0.97652  1.0000
  C   C71       1.0  0.44324  0.42897  0.97994  1.0000
  C   C72       1.0  0.55621  0.56762  0.47496  1.0000
  C   C73       1.0  0.45071  0.56842  0.42999  1.0000
  C   C74       1.0  0.54787  0.43176  0.92633  1.0000
  C   C75       1.0  0.45071  0.43275  0.92945  1.0000
  C   C76       1.0  0.54794  0.56646  0.42450  1.0000
  C   C77       1.0  0.56863  0.43377  0.88712  1.0000
  C   C78       1.0  0.56870  0.56529  0.38533  1.0000
  C   C79       1.0  0.60860  0.43759  0.81342  1.0000
  C   C80       1.0  0.60841  0.56349  0.31067  1.0000
  C   C81       1.0  0.58371  0.56168  0.48995  1.0000
  C   C82       1.0  0.41577  0.42749  0.99600  1.0000
  C   C83       1.0  0.58394  0.42990  0.99111  1.0000
  C   C84       1.0  0.41596  0.57037  0.49725  1.0000
  C   C85       1.0  0.97849  0.97469  0.00314  1.0000
  C   C86       1.0  0.02137  0.02672  0.50910  1.0000
  C   C87       1.0  0.97836  0.02528  0.50724  1.0000
  C   C88       1.0  0.02154  0.97484  0.00241  1.0000
  C   C89       1.0  0.98668  0.92384  0.99073  1.0000
  C   C90       1.0  0.01279  0.07819  0.50124  1.0000
  C   C91       1.0  0.98598  0.07731  0.50032  1.0000
  C   C92       1.0  0.01351  0.92397  0.99028  1.0000
  C   C93       1.0  0.93161  0.94870  0.00589  1.0000
  C   C94       1.0  0.93130  0.05013  0.50586  1.0000
  C   C95       1.0  0.89515  0.86872  0.00063  1.0000
  C   C96       1.0  0.89488  0.13057  0.50217  1.0000
  C   C97       1.0  0.04829  0.98943  0.00554  1.0000
  C   C98       1.0  0.95173  0.01001  0.50735  1.0000
  C   C99       1.0  0.04823  0.01266  0.51180  1.0000
  C   C100      1.0  0.95170  0.98896  0.00745  1.0000
  C   C101      1.0  0.47916  0.58749  0.62681  1.0000
  C   C102      1.0  0.52341  0.41333  0.12546  1.0000
  C   C103      1.0  0.47879  0.41436  0.12667  1.0000
  C   C104      1.0  0.52378  0.58577  0.62440  1.0000
  C   C105      1.0  0.48868  0.58962  0.67718  1.0000
  C   C106      1.0  0.51501  0.41183  0.17661  1.0000
  C   C107      1.0  0.48790  0.41250  0.17735  1.0000
  C   C108      1.0  0.51580  0.58870  0.67573  1.0000
  C   C109      1.0  0.47669  0.56666  0.41165  1.0000
  C   C110      1.0  0.52148  0.43341  0.91023  1.0000
  C   C111      1.0  0.47677  0.43427  0.91173  1.0000
  C   C112      1.0  0.52143  0.56635  0.40871  1.0000
  C   C113      1.0  0.48456  0.56621  0.36020  1.0000
  C   C114      1.0  0.51222  0.43393  0.85961  1.0000
  C   C115      1.0  0.48509  0.43471  0.86054  1.0000
  C   C116      1.0  0.51169  0.56645  0.35841  1.0000
  C   C117      1.0  0.05736  0.87851  0.51900  1.0000
  C   C118      1.0  0.94198  0.12287  0.01860  1.0000
  C   C119      1.0  0.05637  0.12373  0.01501  1.0000
  C   C120      1.0  0.94280  0.87598  0.51390  1.0000
  C   C121      1.0  0.08418  0.89506  0.52202  1.0000
  C   C122      1.0  0.91551  0.10539  0.02489  1.0000
  C   C123      1.0  0.08327  0.10744  0.01808  1.0000
  C   C124      1.0  0.91591  0.89268  0.51328  1.0000
  C   C125      1.0  0.05741  0.96314  0.51537  1.0000
  C   C126      1.0  0.94247  0.03830  0.01307  1.0000
  C   C127      1.0  0.05699  0.03911  0.01017  1.0000
  C   C128      1.0  0.94276  0.96049  0.50909  1.0000
  C   C129      1.0  0.08419  0.94648  0.52013  1.0000
  C   C130      1.0  0.91580  0.05405  0.02154  1.0000
  C   C131      1.0  0.08363  0.05606  0.01536  1.0000
  C   C132      1.0  0.91589  0.94403  0.51041  1.0000
  C   C133      1.0  0.34623  0.40415  0.70876  1.0000
  C   C134      1.0  0.34061  0.45069  0.68651  1.0000
  C   C135      1.0  0.33733  0.36030  0.68510  1.0000
  C   C136      1.0  0.32405  0.36259  0.63958  1.0000
  C   C137      1.0  0.32725  0.45277  0.64117  1.0000
  C   C138      1.0  0.31910  0.40880  0.61667  1.0000
  C   C139      1.0  0.63536  0.40364  0.75050  1.0000
  C   C140      1.0  0.36082  0.59285  0.25679  1.0000
  C   C141      1.0  0.63561  0.59985  0.25020  1.0000
  C   C142      1.0  0.36225  0.39980  0.75384  1.0000
  C   C143      1.0  0.69471  0.41582  0.56709  1.0000
  C   C144      1.0  0.30481  0.58242  0.06951  1.0000
  C   C145      1.0  0.69439  0.59176  0.06578  1.0000
  C   C146      1.0  0.30571  0.41044  0.56709  1.0000
  C   C147      1.0  0.72235  0.41809  0.56436  1.0000
  C   C148      1.0  0.27713  0.58086  0.06597  1.0000
  C   C149      1.0  0.72204  0.58923  0.06281  1.0000
  C   C150      1.0  0.27804  0.41491  0.56454  1.0000
  C   C151      1.0  0.73467  0.41752  0.51705  1.0000
  C   C152      1.0  0.26531  0.58284  0.01848  1.0000
  C   C153      1.0  0.73419  0.58755  0.01543  1.0000
  C   C154      1.0  0.26560  0.41450  0.51755  1.0000
  C   C155      1.0  0.71962  0.41476  0.47308  1.0000
  C   C156      1.0  0.28082  0.58699  0.97500  1.0000
  C   C157      1.0  0.71903  0.58919  0.97149  1.0000
  C   C158      1.0  0.28041  0.40983  0.47331  1.0000
  C   C159      1.0  0.69185  0.41236  0.47652  1.0000
  C   C160      1.0  0.30858  0.58841  0.97905  1.0000
  C   C161      1.0  0.69126  0.59168  0.97505  1.0000
  C   C162      1.0  0.30805  0.40562  0.47644  1.0000
  C   C163      1.0  0.67920  0.41337  0.52328  1.0000
  C   C164      1.0  0.32076  0.58553  0.02651  1.0000
  C   C165      1.0  0.67877  0.59254  0.02213  1.0000
  C   C166      1.0  0.32091  0.40603  0.52319  1.0000
  C   C167      1.0  0.76408  0.41877  0.51459  1.0000
  C   C168      1.0  0.23597  0.58117  0.01391  1.0000
  C   C169      1.0  0.76359  0.58449  0.01322  1.0000
  C   C170      1.0  0.23624  0.41784  0.51488  1.0000
  C   C171      1.0  0.77713  0.46502  0.51069  1.0000
  C   C172      1.0  0.22348  0.53433  0.00931  1.0000
  C   C173      1.0  0.77618  0.53756  0.01093  1.0000
  C   C174      1.0  0.22374  0.46475  0.51156  1.0000
  C   C175      1.0  0.80492  0.46591  0.50890  1.0000
  C   C176      1.0  0.19578  0.53223  0.00634  1.0000
  C   C177      1.0  0.80397  0.53524  0.01116  1.0000
  C   C178      1.0  0.19594  0.46715  0.50944  1.0000
  C   C179      1.0  0.81961  0.42103  0.51114  1.0000
  C   C180      1.0  0.18056  0.57659  0.00755  1.0000
  C   C181      1.0  0.81912  0.57928  0.01357  1.0000
  C   C182      1.0  0.18078  0.42301  0.51052  1.0000
  C   C183      1.0  0.80617  0.37531  0.51579  1.0000
  C   C184      1.0  0.19340  0.62288  0.01247  1.0000
  C   C185      1.0  0.80611  0.62591  0.01587  1.0000
  C   C186      1.0  0.19368  0.37651  0.51515  1.0000
  C   C187      1.0  0.77844  0.37369  0.51742  1.0000
  C   C188      1.0  0.22112  0.62564  0.01543  1.0000
  C   C189      1.0  0.77841  0.62892  0.01542  1.0000
  C   C190      1.0  0.22135  0.37349  0.51699  1.0000
  C   C191      1.0  0.81909  0.51442  0.50605  1.0000
  C   C192      1.0  0.81793  0.48610  0.00913  1.0000
  C   C193      1.0  0.83515  0.53012  0.54602  1.0000
  C   C194      1.0  0.82889  0.46512  0.05267  1.0000
  C   C195      1.0  0.84903  0.57467  0.54388  1.0000
  C   C196      1.0  0.84372  0.42136  0.05060  1.0000
  C   C197      1.0  0.84712  0.60552  0.50149  1.0000
  C   C198      1.0  0.84827  0.39730  0.00453  1.0000
  C   C199      1.0  0.83069  0.59056  0.46193  1.0000
  C   C200      1.0  0.83671  0.41740  0.96121  1.0000
  C   C201      1.0  0.81701  0.54551  0.46409  1.0000
  C   C202      1.0  0.82160  0.46100  0.96355  1.0000
  C   C203      1.0  0.86230  0.65154  0.49735  1.0000
  C   C204      1.0  0.13708  0.34796  0.99290  1.0000
  C   C205      1.0  0.86546  0.35361  0.00041  1.0000
  C   C206      1.0  0.13941  0.65454  0.49889  1.0000
  C   C207      1.0  0.67612  0.40644  0.42982  1.0000
  C   C208      1.0  0.32419  0.39963  0.43025  1.0000
  C   C209      1.0  0.67043  0.44727  0.39848  1.0000
  C   C210      1.0  0.33007  0.44086  0.39965  1.0000
  C   C211      1.0  0.65580  0.44111  0.35497  1.0000
  C   C212      1.0  0.34537  0.43532  0.35686  1.0000
  C   C213      1.0  0.64660  0.39336  0.34114  1.0000
  C   C214      1.0  0.35527  0.38786  0.34330  1.0000
  C   C215      1.0  0.65246  0.35246  0.37216  1.0000
  C   C216      1.0  0.34943  0.34663  0.37384  1.0000
  C   C217      1.0  0.66690  0.35896  0.41596  1.0000
  C   C218      1.0  0.33416  0.35250  0.41676  1.0000
  C   C219      1.0  0.63062  0.38543  0.29652  1.0000
  C   C220      1.0  0.37544  0.61253  0.80572  1.0000
  C   C221      1.0  0.62665  0.60728  0.79791  1.0000
  C   C222      1.0  0.37178  0.38084  0.29917  1.0000
  C   C223      1.0  0.82163  0.32808  0.52011  1.0000
  C   C224      1.0  0.82222  0.67223  0.01979  1.0000
  C   C225      1.0  0.82568  0.29675  0.47851  1.0000
  C   C226      1.0  0.82884  0.69986  0.97693  1.0000
  C   C227      1.0  0.84070  0.25338  0.48245  1.0000
  C   C228      1.0  0.84419  0.74265  0.98049  1.0000
  C   C229      1.0  0.85170  0.23943  0.52868  1.0000
  C   C230      1.0  0.85330  0.75922  0.02734  1.0000
  C   C231      1.0  0.84703  0.27000  0.57063  1.0000
  C   C232      1.0  0.84671  0.73170  0.07020  1.0000
  C   C233      1.0  0.83247  0.31406  0.56624  1.0000
  C   C234      1.0  0.83143  0.68862  0.06644  1.0000
  C   C235      1.0  0.86828  0.19503  0.53398  1.0000
  C   C236      1.0  0.13047  0.80254  0.02978  1.0000
  C   C237      1.0  0.86976  0.80356  0.03239  1.0000
  C   C238      1.0  0.13024  0.19902  0.53597  1.0000
  C   C239      1.0  0.73914  0.42064  0.61088  1.0000
  C   C240      1.0  0.26071  0.57735  0.11285  1.0000
  C   C241      1.0  0.73892  0.58815  0.10922  1.0000
  C   C242      1.0  0.26152  0.42025  0.61114  1.0000
  C   C243      1.0  0.64948  0.41188  0.52731  1.0000
  C   C244      1.0  0.35041  0.58454  0.03263  1.0000
  C   C245      1.0  0.64904  0.59353  0.02634  1.0000
  C   C246      1.0  0.35060  0.40166  0.52549  1.0000
  C   C247      1.0  0.73271  0.41384  0.42242  1.0000
  C   C248      1.0  0.26698  0.59141  0.92524  1.0000
  C   C249      1.0  0.73248  0.58926  0.92113  1.0000
  C   C250      1.0  0.26624  0.40844  0.42375  1.0000
  C   C251      1.0  0.76451  0.32410  0.52193  1.0000
  C   C252      1.0  0.23440  0.67581  0.02083  1.0000
  C   C253      1.0  0.76426  0.67866  0.01751  1.0000
  C   C254      1.0  0.23526  0.32372  0.52100  1.0000
  C   C255      1.0  0.76118  0.51283  0.50943  1.0000
  C   C256      1.0  0.24017  0.48747  0.00939  1.0000
  C   C257      1.0  0.75998  0.49040  0.00821  1.0000
  C   C258      1.0  0.24019  0.51170  0.51059  1.0000
  C   C259      1.0  0.84937  0.42131  0.50764  1.0000
  C   C260      1.0  0.15086  0.57470  0.00339  1.0000
  C   C261      1.0  0.84891  0.57719  0.01341  1.0000
  C   C262      1.0  0.15110  0.42441  0.50520  1.0000
  C   C263      1.0  0.89801  0.09788  0.46129  1.0000
  C   C264      1.0  0.89414  0.90818  0.96595  1.0000
  N   N1        1.0  0.37705  0.57977  0.77031  1.0000
  N   N2        1.0  0.62367  0.42213  0.26814  1.0000
  N   N3        1.0  0.37856  0.41821  0.27165  1.0000
  N   N4        1.0  0.62726  0.57558  0.76149  1.0000
  N   N5        1.0  0.87597  0.33244  0.03893  1.0000
  N   N6        1.0  0.12106  0.66518  0.53066  1.0000
  N   N7        1.0  0.87982  0.66336  0.53029  1.0000
  N   N8        1.0  0.12196  0.33295  0.02867  1.0000
  N   N9        1.0  0.37136  0.55469  0.27860  1.0000
  N   N10       1.0  0.62693  0.44249  0.77450  1.0000
  N   N11       1.0  0.37310  0.43827  0.77448  1.0000
  N   N12       1.0  0.62644  0.56007  0.27110  1.0000
  N   N13       1.0  0.87758  0.82895  0.99423  1.0000
  N   N14       1.0  0.12248  0.17257  0.49836  1.0000
  N   N15       1.0  0.87730  0.17077  0.49582  1.0000
  N   N16       1.0  0.12313  0.82926  0.99211  1.0000
  N   N17       1.0  0.95760  0.08106  0.01174  1.0000
  N   N18       1.0  0.04189  0.92086  0.51510  1.0000
  N   N19       1.0  0.95831  0.91813  0.51082  1.0000
  N   N20       1.0  0.04119  0.08124  0.01035  1.0000
  N   N21       1.0  0.46025  0.57707  0.52044  1.0000
  N   N22       1.0  0.54015  0.42376  0.01753  1.0000
  N   N23       1.0  0.46012  0.42599  0.01996  1.0000
  N   N24       1.0  0.54017  0.57392  0.51584  1.0000
  N   N25       1.0  0.49959  0.56652  0.43959  1.0000
  N   N26       1.0  0.49940  0.43372  0.94041  1.0000
  N   N27       1.0  0.50104  0.58592  0.59614  1.0000
  N   N28       1.0  0.50089  0.41441  0.09659  1.0000
  N   N29       1.0  0.00007  0.84426  0.51977  1.0000
  N   N30       1.0  0.99897  0.15678  0.01838  1.0000
  N   N31       1.0  0.00015  0.99498  0.51213  1.0000
  N   N32       1.0  0.99996  0.00538  0.00913  1.0000
  C  Sn1       1.0  0.16211  0.29873  0.47294  1.0000
  C   C265      1.0  0.17040  0.33157  0.51039  1.0000
  C  Sn2       1.0  0.16871  0.31789  0.56059  1.0000
  C  Sn3       1.0  0.15852  0.27038  0.57363  1.0000
  C   C266      1.0  0.15024  0.23757  0.53619  1.0000
  C  Sn4       1.0  0.15193  0.25122  0.48598  1.0000
  O  Te1       1.0  0.16399  0.31319  0.42301  1.0000
  O  Te2       1.0  0.17711  0.35136  0.59737  1.0000
  O  Te3       1.0  0.15665  0.25594  0.62361  1.0000
  O  Te4       1.0  0.14353  0.21777  0.44922  1.0000
  Mg  Mg1       1.0  0.17063  0.31452  0.66017  1.0000
  Mg  Mg2       1.0  0.15002  0.25456  0.38641  1.0000
  C  Sn5       1.0  0.08825  0.93417  0.95460  1.0000
  C   C267      1.0  0.06813  0.94186  0.98945  1.0000
  C  Sn6       1.0  0.06772  0.91178  0.03379  1.0000
  C  Sn7       1.0  0.08776  0.87603  0.04353  1.0000
  C   C268      1.0  0.10788  0.86836  0.00870  1.0000
  C  Sn8       1.0  0.10829  0.89842  0.96434  1.0000
  O  Te5       1.0  0.08837  0.96194  0.91052  1.0000
  O  Te6       1.0  0.04740  0.92011  0.06806  1.0000
  O  Te7       1.0  0.08763  0.84826  0.08765  1.0000
  O  Te8       1.0  0.12861  0.89011  0.93009  1.0000
  Mg  Mg3       1.0  0.05582  0.87306  0.12275  1.0000
  Mg  Mg4       1.0  0.12021  0.93716  0.87540  1.0000
  C  Sn9       1.0  0.67076  0.54757  0.18422  1.0000
  C   C269      1.0  0.66123  0.58978  0.20931  1.0000
  C  Sn10      1.0  0.65965  0.63577  0.18492  1.0000
  C  Sn11      1.0  0.66776  0.63965  0.13440  1.0000
  C   C270      1.0  0.67728  0.59746  0.10934  1.0000
  C  Sn12      1.0  0.67887  0.55145  0.13370  1.0000
  O  Te9       1.0  0.67216  0.50197  0.20933  1.0000
  O  Te10      1.0  0.65006  0.67745  0.21079  1.0000
  O  Te11      1.0  0.66635  0.68531  0.10930  1.0000
  O  Te12      1.0  0.68844  0.50979  0.10786  1.0000
  Mg  Mg5       1.0  0.65190  0.73137  0.16045  1.0000
  Mg  Mg6       1.0  0.68660  0.45585  0.15815  1.0000
  C  Sn13      1.0  0.58876  0.62813  0.70719  1.0000
  C   C271      1.0  0.60223  0.58721  0.72725  1.0000
  C  Sn14      1.0  0.60184  0.54099  0.70290  1.0000
  C  Sn15      1.0  0.58771  0.53557  0.65752  1.0000
  C   C272      1.0  0.57426  0.57647  0.63748  1.0000
  C  Sn16      1.0  0.57462  0.62270  0.66182  1.0000
  O  Te13      1.0  0.58941  0.67399  0.73218  1.0000
  O  Te14      1.0  0.61546  0.50062  0.72368  1.0000
  O  Te15      1.0  0.58707  0.48966  0.63254  1.0000
  O  Te16      1.0  0.56103  0.66306  0.64105  1.0000
  Mg  Mg7       1.0  0.60869  0.44575  0.67568  1.0000
  Mg  Mg8       1.0  0.56779  0.71795  0.68901  1.0000
  C  Sn17      1.0  0.41964  0.46581  0.18158  1.0000
  C   C273      1.0  0.43449  0.42636  0.16183  1.0000
  C  Sn18      1.0  0.42841  0.37698  0.17393  1.0000
  C  Sn19      1.0  0.40702  0.36681  0.20643  1.0000
  C   C274      1.0  0.39218  0.40623  0.22615  1.0000
  C  Sn20      1.0  0.39825  0.45563  0.21408  1.0000
  O  Te17      1.0  0.42608  0.51488  0.16897  1.0000
  O  Te18      1.0  0.44355  0.33818  0.15374  1.0000
  O  Te19      1.0  0.40059  0.31768  0.21903  1.0000
  O  Te20      1.0  0.38312  0.49442  0.23424  1.0000
  Mg  Mg9       1.0  0.42705  0.27758  0.18203  1.0000
  Mg  Mg10      1.0  0.39960  0.55503  0.20596  1.0000
  C  Sn21      1.0  0.65622  0.45933  0.67079  1.0000
  C   C275      1.0  0.64842  0.41640  0.69638  1.0000
  C  Sn22      1.0  0.65939  0.36995  0.68433  1.0000
  C  Sn23      1.0  0.67857  0.36634  0.64593  1.0000
  C   C276      1.0  0.68636  0.40925  0.62038  1.0000
  C  Sn24      1.0  0.67540  0.45571  0.63239  1.0000
  O  Te21      1.0  0.64500  0.50537  0.68345  1.0000
  O  Te22      1.0  0.65127  0.32755  0.71043  1.0000
  O  Te23      1.0  0.68979  0.32024  0.63328  1.0000
  O  Te24      1.0  0.68351  0.49809  0.60633  1.0000
  Mg  Mg11      1.0  0.67233  0.27324  0.67955  1.0000
  Mg  Mg12      1.0  0.66248  0.55243  0.63719  1.0000
  C  Sn25      1.0  0.17052  0.44883  0.05264  1.0000
  C   C277      1.0  0.18539  0.47165  0.01521  1.0000
  C  Sn26      1.0  0.18252  0.45955  0.96544  1.0000
  C  Sn27      1.0  0.16450  0.42113  0.95281  1.0000
  C   C278      1.0  0.14963  0.39834  0.99023  1.0000
  C  Sn28      1.0  0.15250  0.41041  0.04001  1.0000
  O  Te25      1.0  0.17361  0.46425  0.10214  1.0000
  O  Te26      1.0  0.19761  0.48290  0.92867  1.0000
  O  Te27      1.0  0.16142  0.40571  0.90326  1.0000
  O  Te28      1.0  0.13742  0.38708  0.07676  1.0000
  Mg  Mg13      1.0  0.18638  0.44885  0.86654  1.0000
  Mg  Mg14      1.0  0.14863  0.42112  0.13890  1.0000
  C  Sn29      1.0  0.15561  0.53314  0.54171  1.0000
  C   C279      1.0  0.17391  0.51400  0.50758  1.0000
  C  Sn30      1.0  0.18495  0.54491  0.47125  1.0000
  C  Sn31      1.0  0.17756  0.59602  0.46901  1.0000
  C   C280      1.0  0.15928  0.61513  0.50313  1.0000
  C  Sn32      1.0  0.14823  0.58425  0.53946  1.0000
  O  Te29      1.0  0.14483  0.50156  0.57771  1.0000
  O  Te30      1.0  0.20319  0.52492  0.43752  1.0000
  O  Te31      1.0  0.18836  0.62760  0.43296  1.0000
  O  Te32      1.0  0.13000  0.60422  0.57318  1.0000
  Mg  Mg15      1.0  0.21241  0.58292  0.39531  1.0000
  Mg  Mg16      1.0  0.12078  0.54626  0.61542  1.0000
  C  Sn33      1.0  0.06633  0.10853  0.54130  1.0000
  C   C281      1.0  0.06411  0.06767  0.50898  1.0000
  C  Sn34      1.0  0.08434  0.05636  0.47535  1.0000
  C  Sn35      1.0  0.10727  0.08651  0.47401  1.0000
  C   C282      1.0  0.10948  0.12734  0.50632  1.0000
  C  Sn36      1.0  0.08927  0.13868  0.53996  1.0000
  O  Te33      1.0  0.04587  0.11914  0.57461  1.0000
  O  Te34      1.0  0.08166  0.01532  0.44340  1.0000
  O  Te35      1.0  0.12774  0.07586  0.44066  1.0000
  O  Te36      1.0  0.09193  0.17968  0.57190  1.0000
  Mg  Mg17      1.0  0.11490  0.01601  0.40466  1.0000
  Mg  Mg18      1.0  0.05872  0.17902  0.61067  1.0000
  C  Sn37      1.0  0.33290  0.56317  0.85517  1.0000
  C   C283      1.0  0.34855  0.60416  0.84264  1.0000
  C  Sn38      1.0  0.35451  0.64052  0.87839  1.0000
  C  Sn39      1.0  0.34463  0.63580  0.92770  1.0000
  C   C284      1.0  0.32900  0.59483  0.94020  1.0000
  C  Sn40      1.0  0.32303  0.55845  0.90447  1.0000
  O  Te37      1.0  0.32720  0.52728  0.81883  1.0000
  O  Te38      1.0  0.37018  0.68117  0.86498  1.0000
  O  Te39      1.0  0.35035  0.67174  0.96404  1.0000
  O  Te40      1.0  0.30736  0.51782  0.91786  1.0000
  Mg  Mg19      1.0  0.37252  0.72029  0.92767  1.0000
  Mg  Mg20      1.0  0.30503  0.47866  0.85522  1.0000
  C  Sn41      1.0  0.33104  0.63467  0.14612  1.0000
  C   C285      1.0  0.32433  0.59207  0.11870  1.0000
  C  Sn42      1.0  0.32532  0.54488  0.14082  1.0000
  C  Sn43      1.0  0.33318  0.54018  0.19142  1.0000
  C   C286      1.0  0.33988  0.58276  0.21882  1.0000
  C  Sn44      1.0  0.33890  0.62996  0.19672  1.0000
  O  Te41      1.0  0.32991  0.68146  0.12325  1.0000
  O  Te42      1.0  0.31853  0.50284  0.11264  1.0000
  O  Te43      1.0  0.33431  0.49333  0.21428  1.0000
  O  Te44      1.0  0.34568  0.67199  0.22487  1.0000
  Mg  Mg21      1.0  0.32317  0.44719  0.16045  1.0000
  Mg  Mg22      1.0  0.34104  0.72766  0.17711  1.0000
  C  Sn45      1.0  0.65504  0.54905  0.86782  1.0000
  C   C287      1.0  0.64099  0.59070  0.85087  1.0000
  C  Sn46      1.0  0.64590  0.63801  0.87092  1.0000
  C  Sn47      1.0  0.66526  0.64382  0.90867  1.0000
  C   C288      1.0  0.67930  0.60219  0.92560  1.0000
  C  Sn48      1.0  0.67440  0.55487  0.90558  1.0000
  O  Te45      1.0  0.64980  0.50211  0.84725  1.0000
  O  Te46      1.0  0.63161  0.67908  0.85338  1.0000
  O  Te47      1.0  0.67049  0.69081  0.92924  1.0000
  O  Te48      1.0  0.68868  0.51381  0.92309  1.0000
  Mg  Mg23      1.0  0.64587  0.73537  0.89305  1.0000
  Mg  Mg24      1.0  0.67445  0.45751  0.88343  1.0000
  C  Sn49      1.0  0.08880  0.26596  0.07246  1.0000
  C   C289      1.0  0.10656  0.28020  0.03528  1.0000
  C  Sn50      1.0  0.10325  0.26608  0.98625  1.0000
  C  Sn51      1.0  0.08184  0.23434  0.97412  1.0000
  C   C290      1.0  0.06419  0.21739  0.01129  1.0000
  C  Sn52      1.0  0.06738  0.23422  0.06034  1.0000
  O  Te49      1.0  0.09239  0.28326  0.12123  1.0000
  O  Te50      1.0  0.12127  0.28081  0.94972  1.0000
  O  Te51      1.0  0.07826  0.21705  0.92531  1.0000
  O  Te52      1.0  0.04938  0.21951  0.09685  1.0000
  Mg  Mg25      1.0  0.10802  0.24747  0.88864  1.0000
  Mg  Mg26      1.0  0.06260  0.25285  0.15793  1.0000
  C  Sn53      1.0  0.42597  0.52166  0.34671  1.0000
  C   C291      1.0  0.43283  0.56211  0.37710  1.0000
  C  Sn54      1.0  0.41565  0.60265  0.38268  1.0000
  C  Sn55      1.0  0.39110  0.60275  0.35736  1.0000
  C   C292      1.0  0.38425  0.56232  0.32700  1.0000
  C  Sn56      1.0  0.40142  0.52176  0.32139  1.0000
  O  Te53      1.0  0.44345  0.48153  0.34168  1.0000
  O  Te54      1.0  0.42295  0.64266  0.41326  1.0000
  O  Te55      1.0  0.37362  0.64293  0.36241  1.0000
  O  Te56      1.0  0.39413  0.48176  0.29084  1.0000
  Mg  Mg27      1.0  0.39244  0.68870  0.40824  1.0000
  Mg  Mg28      1.0  0.42462  0.43570  0.29585  1.0000
  C  Sn57      1.0  0.16190  0.72661  0.07204  1.0000
  C   C293      1.0  0.15444  0.75943  0.03403  1.0000
  C  Sn58      1.0  0.15638  0.74771  0.98402  1.0000
  C  Sn59      1.0  0.16607  0.69944  0.97173  1.0000
  C   C294      1.0  0.17363  0.66393  0.00972  1.0000
  C  Sn60      1.0  0.17160  0.67835  0.05975  1.0000
  O  Te57      1.0  0.15969  0.74185  0.12178  1.0000
  O  Te58      1.0  0.14880  0.78117  0.94668  1.0000
  O  Te59      1.0  0.16828  0.68423  0.92193  1.0000
  O  Te60      1.0  0.17917  0.64492  0.09707  1.0000
  Mg  Mg29      1.0  0.15546  0.74311  0.88442  1.0000
  Mg  Mg30      1.0  0.17250  0.68292  0.15934  1.0000
  C  Sn61      1.0  0.41213  0.48015  0.82826  1.0000
  C   C295      1.0  0.39783  0.43945  0.81005  1.0000
  C  Sn62      1.0  0.39745  0.39441  0.83628  1.0000
  C  Sn63      1.0  0.41165  0.38996  0.88168  1.0000
  C   C296      1.0  0.42594  0.43065  0.89987  1.0000
  C  Sn64      1.0  0.42633  0.47570  0.87366  1.0000
  O  Te61      1.0  0.41224  0.52482  0.80142  1.0000
  O  Te62      1.0  0.38301  0.35423  0.81732  1.0000
  O  Te63      1.0  0.41154  0.34524  0.90852  1.0000
  O  Te64      1.0  0.44075  0.51586  0.89260  1.0000
  Mg  Mg31      1.0  0.38894  0.30113  0.86746  1.0000
  Mg  Mg32      1.0  0.43483  0.56898  0.84251  1.0000
