data_image0
_chemical_formula_structural       H128C168N32SnCSn2CSnTe4Mg2SnCSn2CSnTe4Mg2SnCSn2CSnTe4Mg2SnCSn2CSnTe4Mg2SnCSn2CSnTe4Mg2SnCSn2CSnTe4Mg2SnCSn2CSnTe4Mg2SnCSn2CSnTe4Mg2SnCSn2CSnTe4Mg2SnCSn2CSnTe4Mg2SnCSn2CSnTe4Mg2SnCSn2CSnTe4Mg2SnCSn2CSnTe4Mg2SnCSn2CSnTe4Mg2SnCSn2CSnTe4Mg2SnCSn2CSnTe4Mg2SnCSn2CSnTe4Mg2SnCSn2CSnTe4Mg2SnCSn2CSnTe4Mg2SnCSn2CSnTe4Mg2SnCSn2CSnTe4Mg2SnCSn2CSnTe4Mg2SnCSn2CSnTe4Mg2SnCSn2CSnTe4Mg2SnCSn2CSnTe4Mg2SnCSn2CSnTe4Mg2SnCSn2CSnTe4Mg2SnCSn2CSnTe4Mg2SnCSn2CSnTe4Mg2SnCSn2CSnTe4Mg2SnCSn2CSnTe4Mg2SnCSn2CSnTe4Mg2
_chemical_formula_sum              "H128 C232 N32 Sn128 Te128 Mg64"
_cell_length_a       50.7288
_cell_length_b       26.7589
_cell_length_c       26.7813
_cell_angle_alpha    90.1562
_cell_angle_beta     89.9891
_cell_angle_gamma    89.8106

_symmetry_space_group_name_H-M    'P1'
_space_group_IT_number       1

loop_
  _space_group_symop_operation_xyz
  'x, y, z'

loop_
  _atom_site_type_symbol
  _atom_site_label
  _atom_site_symmetry_multiplicity
  _atom_site_fract_x
  _atom_site_fract_y
  _atom_site_fract_z
  _atom_site_occupancy
  H   H1        1.0  0.64000  0.41901  0.49126  1.0000
  H   H2        1.0  0.36073  0.59176  0.99754  1.0000
  H   H3        1.0  0.63972  0.57555  0.99408  1.0000
  H   H4        1.0  0.35704  0.36277  0.51955  1.0000
  H   H5        1.0  0.64231  0.43971  0.55435  1.0000
  H   H6        1.0  0.35695  0.54784  0.04646  1.0000
  H   H7        1.0  0.64251  0.57456  0.06037  1.0000
  H   H8        1.0  0.35984  0.42400  0.49598  1.0000
  H   H9        1.0  0.64266  0.37532  0.54074  1.0000
  H   H10       1.0  0.35686  0.61208  0.06052  1.0000
  H   H11       1.0  0.64139  0.63201  0.02841  1.0000
  H   H12       1.0  0.35832  0.41386  0.56171  1.0000
  H   H13       1.0  0.75280  0.45239  0.60915  1.0000
  H   H14       1.0  0.23969  0.58219  0.10486  1.0000
  H   H15       1.0  0.75236  0.55587  0.10860  1.0000
  H   H16       1.0  0.25122  0.45649  0.61164  1.0000
  H   H17       1.0  0.75149  0.38698  0.61463  1.0000
  H   H18       1.0  0.26672  0.60572  0.14024  1.0000
  H   H19       1.0  0.75150  0.62150  0.11153  1.0000
  H   H20       1.0  0.24611  0.39151  0.61264  1.0000
  H   H21       1.0  0.72716  0.42430  0.64471  1.0000
  H   H22       1.0  0.26338  0.54090  0.13111  1.0000
  H   H23       1.0  0.72696  0.58651  0.14319  1.0000
  H   H24       1.0  0.27355  0.41750  0.64494  1.0000
  H   H25       1.0  0.72471  0.38373  0.39903  1.0000
  H   H26       1.0  0.28074  0.59836  0.89460  1.0000
  H   H27       1.0  0.72253  0.61477  0.89517  1.0000
  H   H28       1.0  0.27995  0.40702  0.39222  1.0000
  H   H29       1.0  0.75407  0.40887  0.42568  1.0000
  H   H30       1.0  0.25241  0.62189  0.92617  1.0000
  H   H31       1.0  0.75318  0.60034  0.92474  1.0000
  H   H32       1.0  0.25332  0.37557  0.42144  1.0000
  H   H33       1.0  0.72906  0.44886  0.40209  1.0000
  H   H34       1.0  0.25590  0.55717  0.91657  1.0000
  H   H35       1.0  0.73217  0.55198  0.90365  1.0000
  H   H36       1.0  0.25341  0.44129  0.41935  1.0000
  H   H37       1.0  0.85855  0.42166  0.54487  1.0000
  H   H38       1.0  0.14159  0.57013  0.04025  1.0000
  H   H39       1.0  0.85624  0.54189  0.99783  1.0000
  H   H40       1.0  0.14437  0.45954  0.48853  1.0000
  H   H41       1.0  0.85646  0.45436  0.48772  1.0000
  H   H42       1.0  0.14446  0.54316  0.98023  1.0000
  H   H43       1.0  0.85721  0.60817  0.99182  1.0000
  H   H44       1.0  0.14434  0.39328  0.48178  1.0000
  H   H45       1.0  0.85666  0.38771  0.48849  1.0000
  H   H46       1.0  0.14305  0.60938  0.98742  1.0000
  H   H47       1.0  0.85689  0.58064  0.05148  1.0000
  H   H48       1.0  0.14112  0.42046  0.54146  1.0000
  H   H49       1.0  0.74480  0.32857  0.53811  1.0000
  H   H50       1.0  0.25576  0.67154  0.02503  1.0000
  H   H51       1.0  0.75246  0.68205  0.05184  1.0000
  H   H52       1.0  0.25226  0.32621  0.54617  1.0000
  H   H53       1.0  0.77593  0.29786  0.54479  1.0000
  H   H54       1.0  0.22674  0.69645  0.05330  1.0000
  H   H55       1.0  0.77800  0.71011  0.01634  1.0000
  H   H56       1.0  0.22204  0.29431  0.53421  1.0000
  H   H57       1.0  0.76204  0.30648  0.48503  1.0000
  H   H58       1.0  0.23066  0.69958  0.98814  1.0000
  H   H59       1.0  0.75031  0.68237  0.98633  1.0000
  H   H60       1.0  0.24300  0.31186  0.48441  1.0000
  H   H61       1.0  0.77248  0.54462  0.52376  1.0000
  H   H62       1.0  0.22820  0.45377  0.00523  1.0000
  H   H63       1.0  0.77109  0.45795  0.02168  1.0000
  H   H64       1.0  0.22950  0.54360  0.52661  1.0000
  H   H65       1.0  0.74303  0.50911  0.53135  1.0000
  H   H66       1.0  0.25134  0.48449  0.04443  1.0000
  H   H67       1.0  0.74173  0.49404  0.02995  1.0000
  H   H68       1.0  0.25876  0.50645  0.53087  1.0000
  H   H69       1.0  0.75510  0.52207  0.47107  1.0000
  H   H70       1.0  0.25485  0.48808  0.97918  1.0000
  H   H71       1.0  0.75411  0.48247  0.96942  1.0000
  H   H72       1.0  0.24544  0.52172  0.47201  1.0000
  H   H73       1.0  0.60005  0.55461  0.46489  1.0000
  H   H74       1.0  0.39885  0.42945  0.97139  1.0000
  H   H75       1.0  0.60047  0.43445  0.96599  1.0000
  H   H76       1.0  0.39897  0.56603  0.47318  1.0000
  H   H77       1.0  0.60104  0.56318  0.56531  1.0000
  H   H78       1.0  0.39975  0.42030  0.07212  1.0000
  H   H79       1.0  0.60146  0.42402  0.06603  1.0000
  H   H80       1.0  0.40008  0.57495  0.57368  1.0000
  H   H81       1.0  0.47096  0.56653  0.32905  1.0000
  H   H82       1.0  0.52495  0.43314  0.82715  1.0000
  H   H83       1.0  0.47173  0.43515  0.82905  1.0000
  H   H84       1.0  0.52407  0.56713  0.32551  1.0000
  H   H85       1.0  0.47599  0.59027  0.70967  1.0000
  H   H86       1.0  0.52831  0.41140  0.20823  1.0000
  H   H87       1.0  0.47505  0.41264  0.20962  1.0000
  H   H88       1.0  0.52938  0.58861  0.70689  1.0000
  H   H89       1.0  0.50048  0.56918  0.47765  1.0000
  H   H90       1.0  0.49968  0.43214  0.97854  1.0000
  H   H91       1.0  0.50036  0.58346  0.55806  1.0000
  H   H92       1.0  0.50069  0.41748  0.05853  1.0000
  H   H93       1.0  0.10101  0.97117  0.52227  1.0000
  H   H94       1.0  0.89928  0.02885  0.02549  1.0000
  H   H95       1.0  0.10057  0.03148  0.01734  1.0000
  H   H96       1.0  0.89901  0.96885  0.50966  1.0000
  H   H97       1.0  0.10097  0.87028  0.52583  1.0000
  H   H98       1.0  0.89869  0.12931  0.03208  1.0000
  H   H99       1.0  0.09986  0.13238  0.02259  1.0000
  H   H100      1.0  0.89903  0.86815  0.51537  1.0000
  H   H101      1.0  0.85808  0.67451  0.46424  1.0000
  H   H102      1.0  0.13808  0.32940  0.95620  1.0000
  H   H103      1.0  0.86955  0.34086  0.96206  1.0000
  H   H104      1.0  0.14445  0.67905  0.46739  1.0000
  H   H105      1.0  0.97844  0.91773  0.51270  1.0000
  H   H106      1.0  0.97772  0.08160  0.00951  1.0000
  H   H107      1.0  0.02173  0.92142  0.51415  1.0000
  H   H108      1.0  0.02104  0.08068  0.01094  1.0000
  H   H109      1.0  0.97452  0.72809  0.51842  1.0000
  H   H110      1.0  0.97204  0.27182  0.01179  1.0000
  H   H111      1.0  0.02515  0.27210  0.01064  1.0000
  H   H112      1.0  0.02765  0.72946  0.51929  1.0000
  H   H113      1.0  0.38815  0.64581  0.80712  1.0000
  H   H114      1.0  0.61251  0.63862  0.79877  1.0000
  H   H115      1.0  0.62973  0.63766  0.26229  1.0000
  H   H116      1.0  0.62882  0.36553  0.75968  1.0000
  H   H117      1.0  0.62474  0.34642  0.28964  1.0000
  H   H118      1.0  0.37812  0.34216  0.29165  1.0000
  H   H119      1.0  0.36470  0.63158  0.26865  1.0000
  H   H120      1.0  0.12478  0.18991  0.57467  1.0000
  H   H121      1.0  0.12471  0.81191  0.06835  1.0000
  H   H122      1.0  0.02670  0.89340  0.98125  1.0000
  H   H123      1.0  0.87509  0.81401  0.07088  1.0000
  H   H124      1.0  0.97367  0.89301  0.98217  1.0000
  H   H125      1.0  0.87278  0.18422  0.57271  1.0000
  H   H126      1.0  0.02563  0.11000  0.49619  1.0000
  H   H127      1.0  0.97253  0.10819  0.49428  1.0000
  H   H128      1.0  0.36509  0.36139  0.76753  1.0000
  C   C1        1.0  0.44421  0.57885  0.56182  1.0000
  C   C2        1.0  0.55703  0.42155  0.05764  1.0000
  C   C3        1.0  0.44400  0.42245  0.06098  1.0000
  C   C4        1.0  0.55695  0.57344  0.55624  1.0000
  C   C5        1.0  0.45273  0.58442  0.61161  1.0000
  C   C6        1.0  0.54950  0.41613  0.10800  1.0000
  C   C7        1.0  0.45245  0.41740  0.11082  1.0000
  C   C8        1.0  0.54966  0.58041  0.60655  1.0000
  C   C9        1.0  0.58418  0.56562  0.54063  1.0000
  C   C10       1.0  0.41624  0.42325  0.04662  1.0000
  C   C11       1.0  0.58444  0.42503  0.04168  1.0000
  C   C12       1.0  0.41651  0.57471  0.54790  1.0000
  C   C13       1.0  0.97735  0.18791  0.01794  1.0000
  C   C14       1.0  0.02185  0.81352  0.52029  1.0000
  C   C15       1.0  0.97884  0.81241  0.51961  1.0000
  C   C16       1.0  0.02039  0.18811  0.01677  1.0000
  C   C17       1.0  0.98529  0.24017  0.01453  1.0000
  C   C18       1.0  0.01420  0.76096  0.51988  1.0000
  C   C19       1.0  0.98738  0.76028  0.51958  1.0000
  C   C20       1.0  0.01212  0.24030  0.01388  1.0000
  C   C21       1.0  0.04715  0.17331  0.01700  1.0000
  C   C22       1.0  0.95202  0.82665  0.51802  1.0000
  C   C23       1.0  0.04843  0.82893  0.52065  1.0000
  C   C24       1.0  0.95068  0.17274  0.02004  1.0000
  C   C25       1.0  0.44337  0.57216  0.48067  1.0000
  C   C26       1.0  0.55623  0.42837  0.97652  1.0000
  C   C27       1.0  0.44324  0.42897  0.97994  1.0000
  C   C28       1.0  0.55621  0.56762  0.47496  1.0000
  C   C29       1.0  0.45071  0.56842  0.42999  1.0000
  C   C30       1.0  0.54787  0.43176  0.92633  1.0000
  C   C31       1.0  0.45071  0.43275  0.92945  1.0000
  C   C32       1.0  0.54794  0.56646  0.42450  1.0000
  C   C33       1.0  0.58371  0.56168  0.48995  1.0000
  C   C34       1.0  0.41577  0.42749  0.99600  1.0000
  C   C35       1.0  0.58394  0.42990  0.99111  1.0000
  C   C36       1.0  0.41596  0.57037  0.49725  1.0000
  C   C37       1.0  0.97849  0.97469  0.00314  1.0000
  C   C38       1.0  0.02137  0.02672  0.50910  1.0000
  C   C39       1.0  0.97836  0.02528  0.50724  1.0000
  C   C40       1.0  0.02154  0.97484  0.00241  1.0000
  C   C41       1.0  0.98668  0.92384  0.99073  1.0000
  C   C42       1.0  0.01279  0.07819  0.50124  1.0000
  C   C43       1.0  0.98598  0.07731  0.50032  1.0000
  C   C44       1.0  0.01351  0.92397  0.99028  1.0000
  C   C45       1.0  0.04829  0.98943  0.00554  1.0000
  C   C46       1.0  0.95173  0.01001  0.50735  1.0000
  C   C47       1.0  0.04823  0.01266  0.51180  1.0000
  C   C48       1.0  0.95170  0.98896  0.00745  1.0000
  C   C49       1.0  0.47916  0.58749  0.62681  1.0000
  C   C50       1.0  0.52341  0.41333  0.12546  1.0000
  C   C51       1.0  0.47879  0.41436  0.12667  1.0000
  C   C52       1.0  0.52378  0.58577  0.62440  1.0000
  C   C53       1.0  0.48868  0.58962  0.67718  1.0000
  C   C54       1.0  0.51501  0.41183  0.17661  1.0000
  C   C55       1.0  0.48790  0.41250  0.17735  1.0000
  C   C56       1.0  0.51580  0.58870  0.67573  1.0000
  C   C57       1.0  0.47669  0.56666  0.41165  1.0000
  C   C58       1.0  0.52148  0.43341  0.91023  1.0000
  C   C59       1.0  0.47677  0.43427  0.91173  1.0000
  C   C60       1.0  0.52143  0.56635  0.40871  1.0000
  C   C61       1.0  0.48456  0.56621  0.36020  1.0000
  C   C62       1.0  0.51222  0.43393  0.85961  1.0000
  C   C63       1.0  0.48509  0.43471  0.86054  1.0000
  C   C64       1.0  0.51169  0.56645  0.35841  1.0000
  C   C65       1.0  0.05736  0.87851  0.51900  1.0000
  C   C66       1.0  0.94198  0.12287  0.01860  1.0000
  C   C67       1.0  0.05637  0.12373  0.01501  1.0000
  C   C68       1.0  0.94280  0.87598  0.51390  1.0000
  C   C69       1.0  0.08418  0.89506  0.52202  1.0000
  C   C70       1.0  0.91551  0.10539  0.02489  1.0000
  C   C71       1.0  0.08327  0.10744  0.01808  1.0000
  C   C72       1.0  0.91591  0.89268  0.51328  1.0000
  C   C73       1.0  0.05741  0.96314  0.51537  1.0000
  C   C74       1.0  0.94247  0.03830  0.01307  1.0000
  C   C75       1.0  0.05699  0.03911  0.01017  1.0000
  C   C76       1.0  0.94276  0.96049  0.50909  1.0000
  C   C77       1.0  0.08419  0.94648  0.52013  1.0000
  C   C78       1.0  0.91580  0.05405  0.02154  1.0000
  C   C79       1.0  0.08363  0.05606  0.01536  1.0000
  C   C80       1.0  0.91589  0.94403  0.51041  1.0000
  C   C81       1.0  0.63536  0.40364  0.75050  1.0000
  C   C82       1.0  0.36082  0.59285  0.25679  1.0000
  C   C83       1.0  0.63561  0.59985  0.25020  1.0000
  C   C84       1.0  0.36225  0.39980  0.75384  1.0000
  C   C85       1.0  0.69471  0.41582  0.56709  1.0000
  C   C86       1.0  0.30481  0.58242  0.06951  1.0000
  C   C87       1.0  0.69439  0.59176  0.06578  1.0000
  C   C88       1.0  0.30571  0.41044  0.56709  1.0000
  C   C89       1.0  0.72235  0.41809  0.56436  1.0000
  C   C90       1.0  0.27713  0.58086  0.06597  1.0000
  C   C91       1.0  0.72204  0.58923  0.06281  1.0000
  C   C92       1.0  0.27804  0.41491  0.56454  1.0000
  C   C93       1.0  0.73467  0.41752  0.51705  1.0000
  C   C94       1.0  0.26531  0.58284  0.01848  1.0000
  C   C95       1.0  0.73419  0.58755  0.01543  1.0000
  C   C96       1.0  0.26560  0.41450  0.51755  1.0000
  C   C97       1.0  0.71962  0.41476  0.47308  1.0000
  C   C98       1.0  0.28082  0.58699  0.97500  1.0000
  C   C99       1.0  0.71903  0.58919  0.97149  1.0000
  C   C100      1.0  0.28041  0.40983  0.47331  1.0000
  C   C101      1.0  0.69185  0.41236  0.47652  1.0000
  C   C102      1.0  0.30858  0.58841  0.97905  1.0000
  C   C103      1.0  0.69126  0.59168  0.97505  1.0000
  C   C104      1.0  0.30805  0.40562  0.47644  1.0000
  C   C105      1.0  0.67920  0.41337  0.52328  1.0000
  C   C106      1.0  0.32076  0.58553  0.02651  1.0000
  C   C107      1.0  0.67877  0.59254  0.02213  1.0000
  C   C108      1.0  0.32091  0.40603  0.52319  1.0000
  C   C109      1.0  0.76408  0.41877  0.51459  1.0000
  C   C110      1.0  0.23597  0.58117  0.01391  1.0000
  C   C111      1.0  0.76359  0.58449  0.01322  1.0000
  C   C112      1.0  0.23624  0.41784  0.51488  1.0000
  C   C113      1.0  0.77713  0.46502  0.51069  1.0000
  C   C114      1.0  0.22348  0.53433  0.00931  1.0000
  C   C115      1.0  0.77618  0.53756  0.01093  1.0000
  C   C116      1.0  0.22374  0.46475  0.51156  1.0000
  C   C117      1.0  0.80492  0.46591  0.50890  1.0000
  C   C118      1.0  0.19578  0.53223  0.00634  1.0000
  C   C119      1.0  0.80397  0.53524  0.01116  1.0000
  C   C120      1.0  0.19594  0.46715  0.50944  1.0000
  C   C121      1.0  0.81961  0.42103  0.51114  1.0000
  C   C122      1.0  0.18056  0.57659  0.00755  1.0000
  C   C123      1.0  0.81912  0.57928  0.01357  1.0000
  C   C124      1.0  0.18078  0.42301  0.51052  1.0000
  C   C125      1.0  0.80617  0.37531  0.51579  1.0000
  C   C126      1.0  0.19340  0.62288  0.01247  1.0000
  C   C127      1.0  0.80611  0.62591  0.01587  1.0000
  C   C128      1.0  0.19368  0.37651  0.51515  1.0000
  C   C129      1.0  0.77844  0.37369  0.51742  1.0000
  C   C130      1.0  0.22112  0.62564  0.01543  1.0000
  C   C131      1.0  0.77841  0.62892  0.01542  1.0000
  C   C132      1.0  0.22135  0.37349  0.51699  1.0000
  C   C133      1.0  0.86230  0.65154  0.49735  1.0000
  C   C134      1.0  0.13708  0.34796  0.99290  1.0000
  C   C135      1.0  0.86546  0.35361  0.00041  1.0000
  C   C136      1.0  0.13941  0.65454  0.49889  1.0000
  C   C137      1.0  0.63062  0.38543  0.29652  1.0000
  C   C138      1.0  0.37544  0.61253  0.80572  1.0000
  C   C139      1.0  0.62665  0.60728  0.79791  1.0000
  C   C140      1.0  0.37178  0.38084  0.29917  1.0000
  C   C141      1.0  0.86828  0.19503  0.53398  1.0000
  C   C142      1.0  0.13047  0.80254  0.02978  1.0000
  C   C143      1.0  0.86976  0.80356  0.03239  1.0000
  C   C144      1.0  0.13024  0.19902  0.53597  1.0000
  C   C145      1.0  0.73914  0.42064  0.61088  1.0000
  C   C146      1.0  0.26071  0.57735  0.11285  1.0000
  C   C147      1.0  0.73892  0.58815  0.10922  1.0000
  C   C148      1.0  0.26152  0.42025  0.61114  1.0000
  C   C149      1.0  0.64948  0.41188  0.52731  1.0000
  C   C150      1.0  0.35041  0.58454  0.03263  1.0000
  C   C151      1.0  0.64904  0.59353  0.02634  1.0000
  C   C152      1.0  0.35060  0.40166  0.52549  1.0000
  C   C153      1.0  0.73271  0.41384  0.42242  1.0000
  C   C154      1.0  0.26698  0.59141  0.92524  1.0000
  C   C155      1.0  0.73248  0.58926  0.92113  1.0000
  C   C156      1.0  0.26624  0.40844  0.42375  1.0000
  C   C157      1.0  0.76451  0.32410  0.52193  1.0000
  C   C158      1.0  0.23440  0.67581  0.02083  1.0000
  C   C159      1.0  0.76426  0.67866  0.01751  1.0000
  C   C160      1.0  0.23526  0.32372  0.52100  1.0000
  C   C161      1.0  0.76118  0.51283  0.50943  1.0000
  C   C162      1.0  0.24017  0.48747  0.00939  1.0000
  C   C163      1.0  0.75998  0.49040  0.00821  1.0000
  C   C164      1.0  0.24019  0.51170  0.51059  1.0000
  C   C165      1.0  0.84937  0.42131  0.50764  1.0000
  C   C166      1.0  0.15086  0.57470  0.00339  1.0000
  C   C167      1.0  0.84891  0.57719  0.01341  1.0000
  C   C168      1.0  0.15110  0.42441  0.50520  1.0000
  N   N1        1.0  0.37705  0.57977  0.77031  1.0000
  N   N2        1.0  0.62367  0.42213  0.26814  1.0000
  N   N3        1.0  0.37856  0.41821  0.27165  1.0000
  N   N4        1.0  0.62726  0.57558  0.76149  1.0000
  N   N5        1.0  0.87597  0.33244  0.03893  1.0000
  N   N6        1.0  0.12106  0.66518  0.53066  1.0000
  N   N7        1.0  0.87982  0.66336  0.53029  1.0000
  N   N8        1.0  0.12196  0.33295  0.02867  1.0000
  N   N9        1.0  0.37136  0.55469  0.27860  1.0000
  N   N10       1.0  0.62693  0.44249  0.77450  1.0000
  N   N11       1.0  0.37310  0.43827  0.77448  1.0000
  N   N12       1.0  0.62644  0.56007  0.27110  1.0000
  N   N13       1.0  0.87758  0.82895  0.99423  1.0000
  N   N14       1.0  0.12248  0.17257  0.49836  1.0000
  N   N15       1.0  0.87730  0.17077  0.49582  1.0000
  N   N16       1.0  0.12313  0.82926  0.99211  1.0000
  N   N17       1.0  0.95760  0.08106  0.01174  1.0000
  N   N18       1.0  0.04189  0.92086  0.51510  1.0000
  N   N19       1.0  0.95831  0.91813  0.51082  1.0000
  N   N20       1.0  0.04119  0.08124  0.01035  1.0000
  N   N21       1.0  0.46025  0.57707  0.52044  1.0000
  N   N22       1.0  0.54015  0.42376  0.01753  1.0000
  N   N23       1.0  0.46012  0.42599  0.01996  1.0000
  N   N24       1.0  0.54017  0.57392  0.51584  1.0000
  N   N25       1.0  0.49959  0.56652  0.43959  1.0000
  N   N26       1.0  0.49940  0.43372  0.94041  1.0000
  N   N27       1.0  0.50104  0.58592  0.59614  1.0000
  N   N28       1.0  0.50089  0.41441  0.09659  1.0000
  N   N29       1.0  0.00007  0.84426  0.51977  1.0000
  N   N30       1.0  0.99897  0.15678  0.01838  1.0000
  N   N31       1.0  0.00015  0.99498  0.51213  1.0000
  N   N32       1.0  0.99996  0.00538  0.00913  1.0000
  C  Sn1       1.0  0.42742  0.63121  0.69511  1.0000
  C   C169      1.0  0.43629  0.59064  0.66666  1.0000
  C  Sn2       1.0  0.42248  0.54557  0.66690  1.0000
  C  Sn3       1.0  0.39931  0.54094  0.69615  1.0000
  C   C170      1.0  0.39045  0.58149  0.72456  1.0000
  C  Sn4       1.0  0.40425  0.62658  0.72436  1.0000
  O  Te1       1.0  0.44154  0.67591  0.69431  1.0000
  O  Te2       1.0  0.43174  0.50553  0.63817  1.0000
  O  Te3       1.0  0.38520  0.49619  0.69692  1.0000
  O  Te4       1.0  0.39500  0.66660  0.75306  1.0000
  Mg  Mg1       1.0  0.40567  0.45232  0.65154  1.0000
  Mg  Mg2       1.0  0.42105  0.71984  0.73969  1.0000
  C  Sn5       1.0  0.59353  0.36418  0.19934  1.0000
  C   C171      1.0  0.60915  0.40374  0.21609  1.0000
  C  Sn6       1.0  0.60390  0.45257  0.20060  1.0000
  C  Sn7       1.0  0.58257  0.46206  0.16768  1.0000
  C   C172      1.0  0.56696  0.42252  0.15095  1.0000
  C  Sn8       1.0  0.57221  0.37368  0.16642  1.0000
  O  Te5       1.0  0.59915  0.31567  0.21531  1.0000
  O  Te6       1.0  0.61979  0.49151  0.21784  1.0000
  O  Te7       1.0  0.57697  0.51063  0.15171  1.0000
  O  Te8       1.0  0.55632  0.33476  0.14920  1.0000
  Mg  Mg3       1.0  0.60425  0.55117  0.18551  1.0000
  Mg  Mg4       1.0  0.57184  0.27508  0.18153  1.0000
  C  Sn9       1.0  0.39752  0.45768  0.18526  1.0000
  C   C173      1.0  0.39171  0.41746  0.21653  1.0000
  C  Sn10      1.0  0.40817  0.37552  0.21764  1.0000
  C  Sn11      1.0  0.43092  0.37375  0.18687  1.0000
  C   C174      1.0  0.43672  0.41395  0.15563  1.0000
  C  Sn12      1.0  0.42026  0.45591  0.15449  1.0000
  O  Te9       1.0  0.38079  0.49922  0.18476  1.0000
  O  Te10      1.0  0.40196  0.33577  0.24919  1.0000
  O  Te11      1.0  0.44765  0.33216  0.18739  1.0000
  O  Te12      1.0  0.42647  0.49564  0.12297  1.0000
  Mg  Mg5       1.0  0.43084  0.28740  0.23666  1.0000
  Mg  Mg6       1.0  0.39761  0.54404  0.13549  1.0000
  C  Sn13      1.0  0.60308  0.53264  0.68034  1.0000
  C   C175      1.0  0.61317  0.57360  0.70650  1.0000
  C  Sn14      1.0  0.60030  0.61980  0.70485  1.0000
  C  Sn15      1.0  0.57685  0.62517  0.67649  1.0000
  C   C176      1.0  0.56678  0.58423  0.65037  1.0000
  C  Sn16      1.0  0.57964  0.53801  0.65198  1.0000
  O  Te13      1.0  0.61627  0.48681  0.68252  1.0000
  O  Te14      1.0  0.61076  0.66021  0.73129  1.0000
  O  Te15      1.0  0.56367  0.67105  0.67433  1.0000
  O  Te16      1.0  0.56919  0.49762  0.62557  1.0000
  Mg  Mg7       1.0  0.58564  0.71503  0.71672  1.0000
  Mg  Mg8       1.0  0.59429  0.44278  0.64013  1.0000
  C  Sn17      1.0  0.10317  0.75254  0.48079  1.0000
  C   C177      1.0  0.10930  0.72149  0.52105  1.0000
  C  Sn18      1.0  0.09330  0.72109  0.56351  1.0000
  C  Sn19      1.0  0.07070  0.75236  0.56576  1.0000
  C   C178      1.0  0.06458  0.78338  0.52551  1.0000
  C  Sn20      1.0  0.08057  0.78381  0.48304  1.0000
  O  Te17      1.0  0.11944  0.75233  0.43872  1.0000
  O  Te18      1.0  0.09984  0.68974  0.60330  1.0000
  O  Te19      1.0  0.05443  0.75255  0.60788  1.0000
  O  Te20      1.0  0.07405  0.81513  0.44327  1.0000
  Mg  Mg9       1.0  0.07154  0.70331  0.65248  1.0000
  Mg  Mg10      1.0  0.10232  0.80158  0.39406  1.0000
  C  Sn21      1.0  0.92253  0.24536  0.07749  1.0000
  C   C179      1.0  0.92532  0.21024  0.03912  1.0000
  C  Sn22      1.0  0.91253  0.22011  0.99339  1.0000
  C  Sn23      1.0  0.89674  0.26327  0.98584  1.0000
  C   C180      1.0  0.89406  0.29563  0.02419  1.0000
  C  Sn24      1.0  0.90673  0.28852  0.06994  1.0000
  O  Te21      1.0  0.93539  0.23746  0.12291  1.0000
  O  Te22      1.0  0.91562  0.18448  0.95559  1.0000
  O  Te23      1.0  0.88387  0.27115  0.94038  1.0000
  O  Te24      1.0  0.90366  0.32413  0.10772  1.0000
  Mg  Mg11      1.0  0.89415  0.21195  0.90031  1.0000
  Mg  Mg12      1.0  0.92513  0.29671  0.16301  1.0000
  C  Sn25      1.0  0.09463  0.21943  0.98237  1.0000
  C   C181      1.0  0.07595  0.20429  0.01839  1.0000
  C  Sn26      1.0  0.06992  0.23766  0.05697  1.0000
  C  Sn27      1.0  0.08294  0.28443  0.05959  1.0000
  C   C182      1.0  0.10171  0.29682  0.02357  1.0000
  C  Sn28      1.0  0.10765  0.26620  0.98498  1.0000
  O  Te25      1.0  0.10035  0.18550  0.94413  1.0000
  O  Te26      1.0  0.05107  0.22441  0.09256  1.0000
  O  Te27      1.0  0.07721  0.31836  0.09787  1.0000
  O  Te28      1.0  0.12648  0.27943  0.94940  1.0000
  Mg  Mg13      1.0  0.05007  0.28326  0.13750  1.0000
  Mg  Mg14      1.0  0.12749  0.22062  0.90444  1.0000
  C  Sn29      1.0  0.93118  0.74014  0.56432  1.0000
  C   C183      1.0  0.93634  0.77215  0.52438  1.0000
  C  Sn30      1.0  0.91913  0.77441  0.48374  1.0000
  C  Sn31      1.0  0.89626  0.74406  0.48301  1.0000
  C   C184      1.0  0.89110  0.71207  0.52293  1.0000
  C  Sn32      1.0  0.90831  0.70978  0.56359  1.0000
  O  Te29      1.0  0.94866  0.73849  0.60456  1.0000
  O  Te30      1.0  0.92471  0.80670  0.44424  1.0000
  O  Te31      1.0  0.87878  0.74573  0.44272  1.0000
  O  Te32      1.0  0.90273  0.67752  0.60307  1.0000
  Mg  Mg15      1.0  0.89491  0.79566  0.39781  1.0000
  Mg  Mg16      1.0  0.93251  0.68855  0.64953  1.0000
  C  Sn33      1.0  0.07564  0.90708  0.04972  1.0000
  C   C185      1.0  0.07369  0.94847  0.01821  1.0000
  C  Sn34      1.0  0.08637  0.95125  0.97201  1.0000
  C  Sn35      1.0  0.10141  0.90904  0.95698  1.0000
  C   C186      1.0  0.10335  0.86768  0.98847  1.0000
  C  Sn36      1.0  0.09068  0.86487  0.03469  1.0000
  O  Te33      1.0  0.06269  0.90785  0.09574  1.0000
  O  Te34      1.0  0.08414  0.99307  0.94116  1.0000
  O  Te35      1.0  0.11436  0.90831  0.91092  1.0000
  O  Te36      1.0  0.09290  0.82308  0.06553  1.0000
  Mg  Mg17      1.0  0.10539  0.97419  0.88199  1.0000
  Mg  Mg18      1.0  0.07165  0.84191  0.12469  1.0000
  C  Sn37      1.0  0.89546  0.07966  0.46404  1.0000
  C   C187      1.0  0.89091  0.11628  0.50036  1.0000
  C  Sn38      1.0  0.90862  0.12271  0.53977  1.0000
  C  Sn39      1.0  0.93136  0.09191  0.54293  1.0000
  C   C188      1.0  0.93590  0.05532  0.50663  1.0000
  C  Sn40      1.0  0.91820  0.04886  0.46720  1.0000
  O  Te37      1.0  0.87749  0.07389  0.42496  1.0000
  O  Te38      1.0  0.90364  0.15956  0.57564  1.0000
  O  Te39      1.0  0.94933  0.09771  0.58205  1.0000
  O  Te40      1.0  0.92317  0.01204  0.43134  1.0000
  Mg  Mg19      1.0  0.93395  0.15305  0.62177  1.0000
  Mg  Mg20      1.0  0.89289  0.01853  0.38519  1.0000
  C  Sn41      1.0  0.09652  0.05475  0.47563  1.0000
  C   C189      1.0  0.07675  0.04679  0.51105  1.0000
  C  Sn42      1.0  0.06883  0.08542  0.54294  1.0000
  C  Sn43      1.0  0.08091  0.13300  0.53934  1.0000
  C   C190      1.0  0.10066  0.14094  0.50393  1.0000
  C  Sn44      1.0  0.10860  0.10233  0.47203  1.0000
  O  Te41      1.0  0.10413  0.01560  0.44413  1.0000
  O  Te42      1.0  0.04903  0.07656  0.57807  1.0000
  O  Te43      1.0  0.07329  0.17216  0.57087  1.0000
  O  Te44      1.0  0.12838  0.11117  0.43691  1.0000
  Mg  Mg21      1.0  0.04546  0.14173  0.61262  1.0000
  Mg  Mg22      1.0  0.13196  0.04604  0.40233  1.0000
  C  Sn45      1.0  0.93472  0.89172  0.03342  1.0000
  C   C191      1.0  0.93580  0.93428  0.00336  1.0000
  C  Sn46      1.0  0.91437  0.94984  0.97295  1.0000
  C  Sn47      1.0  0.89148  0.91954  0.97258  1.0000
  C   C192      1.0  0.89052  0.87429  0.00264  1.0000
  C  Sn48      1.0  0.91184  0.86141  0.03306  1.0000
  O  Te45      1.0  0.95627  0.87960  0.06354  1.0000
  O  Te46      1.0  0.91590  0.99255  0.94320  1.0000
  O  Te47      1.0  0.86992  0.93169  0.94243  1.0000
  O  Te48      1.0  0.91030  0.81874  0.06279  1.0000
  Mg  Mg23      1.0  0.88144  0.99354  0.90854  1.0000
  Mg  Mg24      1.0  0.94475  0.81773  0.09749  1.0000
  C  Sn49      1.0  0.40217  0.61343  0.34409  1.0000
  C   C193      1.0  0.39478  0.57252  0.31479  1.0000
  C  Sn50      1.0  0.40305  0.52434  0.32738  1.0000
  C  Sn51      1.0  0.41904  0.51688  0.37017  1.0000
  C   C194      1.0  0.42642  0.55777  0.39945  1.0000
  C  Sn52      1.0  0.41816  0.60597  0.38688  1.0000
  O  Te49      1.0  0.39368  0.66127  0.33079  1.0000
  O  Te50      1.0  0.39541  0.48403  0.29750  1.0000
  O  Te51      1.0  0.42753  0.46899  0.38345  1.0000
  O  Te52      1.0  0.42579  0.64626  0.41674  1.0000
  Mg  Mg25      1.0  0.41196  0.42600  0.33100  1.0000
  Mg  Mg26      1.0  0.40924  0.70430  0.38329  1.0000
  C  Sn53      1.0  0.59601  0.39652  0.88388  1.0000
  C   C195      1.0  0.57691  0.43270  0.89471  1.0000
  C  Sn54      1.0  0.57204  0.47167  0.86134  1.0000
  C  Sn55      1.0  0.58655  0.47453  0.81617  1.0000
  C   C196      1.0  0.60564  0.43836  0.80535  1.0000
  C  Sn56      1.0  0.61053  0.39937  0.83872  1.0000
  O  Te53      1.0  0.60055  0.35788  0.91779  1.0000
  O  Te54      1.0  0.55284  0.50742  0.87300  1.0000
  O  Te55      1.0  0.58200  0.51321  0.78226  1.0000
  O  Te56      1.0  0.62970  0.36364  0.82707  1.0000
  Mg  Mg27      1.0  0.55382  0.55291  0.81485  1.0000
  Mg  Mg28      1.0  0.62873  0.31812  0.88517  1.0000
  C  Sn57      1.0  0.41853  0.38345  0.85816  1.0000
  C   C197      1.0  0.43164  0.42456  0.87858  1.0000
  C  Sn58      1.0  0.42218  0.47295  0.87054  1.0000
  C  Sn59      1.0  0.39912  0.48042  0.84150  1.0000
  C   C198      1.0  0.38603  0.43933  0.82111  1.0000
  C  Sn60      1.0  0.39548  0.39091  0.82913  1.0000
  O  Te57      1.0  0.42834  0.33540  0.86668  1.0000
  O  Te58      1.0  0.43562  0.51347  0.89132  1.0000
  O  Te59      1.0  0.38932  0.52852  0.83299  1.0000
  O  Te60      1.0  0.38204  0.35041  0.80837  1.0000
  Mg  Mg29      1.0  0.41454  0.57173  0.86919  1.0000
  Mg  Mg30      1.0  0.40310  0.29214  0.83049  1.0000
  C  Sn61      1.0  0.57819  0.51498  0.35086  1.0000
  C   C199      1.0  0.57346  0.55170  0.38701  1.0000
  C  Sn62      1.0  0.58551  0.59842  0.38345  1.0000
  C  Sn63      1.0  0.60263  0.60867  0.34290  1.0000
  C   C200      1.0  0.60734  0.57197  0.30678  1.0000
  C  Sn64      1.0  0.59531  0.52523  0.31031  1.0000
  O  Te61      1.0  0.56593  0.46854  0.35516  1.0000
  O  Te62      1.0  0.58048  0.63452  0.42005  1.0000
  O  Te63      1.0  0.61489  0.65515  0.33863  1.0000
  O  Te64      1.0  0.60032  0.48915  0.27374  1.0000
  Mg  Mg31      1.0  0.60183  0.69213  0.39782  1.0000
  Mg  Mg32      1.0  0.57898  0.43153  0.29592  1.0000
  C  Sn65      1.0  0.66456  0.36347  0.63816  1.0000
  C   C201      1.0  0.67390  0.40629  0.61429  1.0000
  C  Sn66      1.0  0.67485  0.45188  0.63974  1.0000
  C  Sn67      1.0  0.66631  0.45474  0.69011  1.0000
  C   C202      1.0  0.65699  0.41193  0.71394  1.0000
  C  Sn68      1.0  0.65602  0.36632  0.68852  1.0000
  O  Te65      1.0  0.66378  0.31828  0.61199  1.0000
  O  Te66      1.0  0.68425  0.49419  0.61509  1.0000
  O  Te67      1.0  0.66710  0.49997  0.71626  1.0000
  O  Te68      1.0  0.64663  0.32404  0.71314  1.0000
  Mg  Mg33      1.0  0.68151  0.54720  0.66657  1.0000
  Mg  Mg34      1.0  0.64937  0.27100  0.66172  1.0000
  C  Sn69      1.0  0.33104  0.63467  0.14612  1.0000
  C   C203      1.0  0.32433  0.59207  0.11870  1.0000
  C  Sn70      1.0  0.32532  0.54488  0.14082  1.0000
  C  Sn71      1.0  0.33318  0.54018  0.19142  1.0000
  C   C204      1.0  0.33988  0.58276  0.21882  1.0000
  C  Sn72      1.0  0.33890  0.62996  0.19672  1.0000
  O  Te69      1.0  0.32991  0.68146  0.12325  1.0000
  O  Te70      1.0  0.31853  0.50284  0.11264  1.0000
  O  Te71      1.0  0.33431  0.49333  0.21428  1.0000
  O  Te72      1.0  0.34568  0.67199  0.22487  1.0000
  Mg  Mg35      1.0  0.32317  0.44719  0.16045  1.0000
  Mg  Mg36      1.0  0.34104  0.72766  0.17711  1.0000
  C  Sn73      1.0  0.65599  0.64419  0.16447  1.0000
  C   C205      1.0  0.64840  0.60426  0.19471  1.0000
  C  Sn74      1.0  0.65962  0.55698  0.18793  1.0000
  C  Sn75      1.0  0.67884  0.54946  0.15017  1.0000
  C   C206      1.0  0.68643  0.58938  0.11996  1.0000
  C  Sn76      1.0  0.67521  0.63667  0.12671  1.0000
  O  Te73      1.0  0.64451  0.69113  0.17191  1.0000
  O  Te74      1.0  0.65171  0.51763  0.21861  1.0000
  O  Te75      1.0  0.69032  0.50247  0.14274  1.0000
  O  Te76      1.0  0.68312  0.67600  0.09606  1.0000
  Mg  Mg37      1.0  0.67307  0.46062  0.19399  1.0000
  Mg  Mg38      1.0  0.66178  0.73303  0.12066  1.0000
  C  Sn77      1.0  0.31976  0.35929  0.65649  1.0000
  C   C207      1.0  0.31367  0.40176  0.62845  1.0000
  C  Sn78      1.0  0.32602  0.44724  0.63862  1.0000
  C  Sn79      1.0  0.34486  0.45035  0.67762  1.0000
  C   C208      1.0  0.35094  0.40790  0.70563  1.0000
  C  Sn80      1.0  0.33860  0.36240  0.69549  1.0000
  O  Te77      1.0  0.30717  0.31421  0.64567  1.0000
  O  Te78      1.0  0.31960  0.48919  0.61008  1.0000
  O  Te79      1.0  0.35744  0.49548  0.68843  1.0000
  O  Te80      1.0  0.34501  0.32047  0.72400  1.0000
  Mg  Mg39      1.0  0.34207  0.54219  0.63911  1.0000
  Mg  Mg40      1.0  0.32256  0.26745  0.69499  1.0000
  C  Sn81      1.0  0.83267  0.54626  0.55511  1.0000
  C   C209      1.0  0.81629  0.52514  0.51887  1.0000
  C  Sn82      1.0  0.81689  0.54246  0.46973  1.0000
  C  Sn83      1.0  0.83426  0.58171  0.45652  1.0000
  C   C210      1.0  0.85064  0.60280  0.49274  1.0000
  C  Sn84      1.0  0.85004  0.58550  0.54190  1.0000
  O  Te81      1.0  0.83174  0.52835  0.60400  1.0000
  O  Te82      1.0  0.80032  0.52077  0.43416  1.0000
  O  Te83      1.0  0.83518  0.59961  0.40758  1.0000
  O  Te84      1.0  0.86660  0.60717  0.57745  1.0000
  Mg  Mg41      1.0  0.80880  0.55802  0.37247  1.0000
  Mg  Mg42      1.0  0.85814  0.56994  0.63914  1.0000
  C  Sn85      1.0  0.17347  0.45171  0.95067  1.0000
  C   C211      1.0  0.17590  0.48392  0.99157  1.0000
  C  Sn86      1.0  0.16908  0.46519  0.03939  1.0000
  C  Sn87      1.0  0.15954  0.41596  0.04651  1.0000
  C   C212      1.0  0.15711  0.38378  0.00564  1.0000
  C  Sn88      1.0  0.16393  0.40248  0.95779  1.0000
  O  Te85      1.0  0.18051  0.46849  0.90319  1.0000
  O  Te86      1.0  0.17168  0.49807  0.07970  1.0000
  O  Te87      1.0  0.15249  0.39919  0.09404  1.0000
  O  Te88      1.0  0.16134  0.36962  0.91750  1.0000
  Mg  Mg43      1.0  0.15954  0.45783  0.13716  1.0000
  Mg  Mg44      1.0  0.17348  0.40981  0.86003  1.0000
  C  Sn89      1.0  0.81793  0.44336  0.96163  1.0000
  C   C213      1.0  0.81252  0.47000  0.00360  1.0000
  C  Sn90      1.0  0.82711  0.46405  0.04743  1.0000
  C  Sn91      1.0  0.84765  0.42802  0.04934  1.0000
  C   C214      1.0  0.85315  0.39868  0.00739  1.0000
  C  Sn92      1.0  0.83847  0.40732  0.96354  1.0000
  O  Te89      1.0  0.80310  0.44994  0.91820  1.0000
  O  Te90      1.0  0.82122  0.49384  0.08891  1.0000
  O  Te91      1.0  0.86248  0.42146  0.09281  1.0000
  O  Te92      1.0  0.84435  0.37757  0.92207  1.0000
  Mg  Mg45      1.0  0.84699  0.47094  0.13949  1.0000
  Mg  Mg46      1.0  0.81860  0.40045  0.87146  1.0000
  C  Sn93      1.0  0.16954  0.57843  0.45456  1.0000
  C   C215      1.0  0.15268  0.59921  0.49036  1.0000
  C  Sn94      1.0  0.15218  0.58029  0.53891  1.0000
  C  Sn95      1.0  0.16889  0.53978  0.55197  1.0000
  C   C216      1.0  0.18574  0.51904  0.51618  1.0000
  C  Sn96      1.0  0.18625  0.53793  0.46762  1.0000
  O  Te93      1.0  0.16971  0.59795  0.40625  1.0000
  O  Te94      1.0  0.13516  0.60167  0.57405  1.0000
  O  Te95      1.0  0.16870  0.52028  0.60032  1.0000
  O  Te96      1.0  0.20326  0.51658  0.43249  1.0000
  Mg  Mg47      1.0  0.14209  0.56204  0.63500  1.0000
  Mg  Mg48      1.0  0.19636  0.55619  0.37154  1.0000
  C  Sn97      1.0  0.66072  0.45190  0.39640  1.0000
  C   C217      1.0  0.66893  0.41547  0.43035  1.0000
  C  Sn98      1.0  0.66798  0.36488  0.41750  1.0000
  C  Sn99      1.0  0.65865  0.35040  0.36970  1.0000
  C   C218      1.0  0.65045  0.38682  0.33578  1.0000
  C  Sn100     1.0  0.65139  0.43742  0.34860  1.0000
  O  Te97      1.0  0.66185  0.50226  0.41004  1.0000
  O  Te98      1.0  0.67629  0.32913  0.45207  1.0000
  O  Te99      1.0  0.65753  0.29999  0.35608  1.0000
  O  Te100     1.0  0.64309  0.47316  0.31406  1.0000
  Mg  Mg49      1.0  0.67103  0.26524  0.41604  1.0000
  Mg  Mg50      1.0  0.64835  0.53706  0.35004  1.0000
  C  Sn101     1.0  0.33671  0.64954  0.90992  1.0000
  C   C219      1.0  0.32186  0.60780  0.92344  1.0000
  C  Sn102     1.0  0.32655  0.56150  0.90086  1.0000
  C  Sn103     1.0  0.34650  0.55681  0.86402  1.0000
  C   C220      1.0  0.36133  0.59852  0.85053  1.0000
  C  Sn104     1.0  0.35666  0.64485  0.87308  1.0000
  O  Te101     1.0  0.33168  0.69546  0.93299  1.0000
  O  Te102     1.0  0.31145  0.52031  0.91498  1.0000
  O  Te103     1.0  0.35152  0.51084  0.84095  1.0000
  O  Te104     1.0  0.37175  0.68601  0.85898  1.0000
  Mg  Mg51      1.0  0.32573  0.46567  0.87285  1.0000
  Mg  Mg52      1.0  0.35750  0.74067  0.90111  1.0000
  C  Sn105     1.0  0.65486  0.65074  0.87720  1.0000
  C   C221      1.0  0.64974  0.61391  0.84143  1.0000
  C  Sn106     1.0  0.65567  0.56388  0.85121  1.0000
  C  Sn107     1.0  0.66694  0.55035  0.89773  1.0000
  C   C222      1.0  0.67206  0.58715  0.93347  1.0000
  C  Sn108     1.0  0.66613  0.63721  0.92372  1.0000
  O  Te105     1.0  0.64877  0.70053  0.86663  1.0000
  O  Te106     1.0  0.65038  0.52773  0.81485  1.0000
  O  Te107     1.0  0.67303  0.50051  0.90828  1.0000
  O  Te108     1.0  0.67142  0.67334  0.96005  1.0000
  Mg  Mg53      1.0  0.66215  0.46488  0.84682  1.0000
  Mg  Mg54      1.0  0.65964  0.73619  0.92813  1.0000
  C  Sn109     1.0  0.32657  0.44054  0.38178  1.0000
  C   C223      1.0  0.31951  0.40420  0.41665  1.0000
  C  Sn110     1.0  0.33263  0.35824  0.41776  1.0000
  C  Sn111     1.0  0.35326  0.34841  0.38331  1.0000
  C   C224      1.0  0.36031  0.38474  0.34848  1.0000
  C  Sn112     1.0  0.34719  0.43070  0.34734  1.0000
  O  Te109     1.0  0.31318  0.48621  0.38136  1.0000
  O  Te110     1.0  0.32522  0.32249  0.45295  1.0000
  O  Te111     1.0  0.36665  0.30268  0.38377  1.0000
  O  Te112     1.0  0.35460  0.46644  0.31218  1.0000
  Mg  Mg55      1.0  0.34937  0.26595  0.43877  1.0000
  Mg  Mg56      1.0  0.33047  0.52301  0.32634  1.0000
  C  Sn113     1.0  0.84249  0.31302  0.56761  1.0000
  C   C225      1.0  0.83008  0.33188  0.52503  1.0000
  C  Sn114     1.0  0.82607  0.30131  0.48338  1.0000
  C  Sn115     1.0  0.83464  0.25082  0.48430  1.0000
  C   C226      1.0  0.84705  0.23197  0.52686  1.0000
  C  Sn116     1.0  0.85107  0.26253  0.56853  1.0000
  O  Te113     1.0  0.84629  0.34426  0.60882  1.0000
  O  Te114     1.0  0.81362  0.32102  0.44123  1.0000
  O  Te115     1.0  0.83084  0.21958  0.44304  1.0000
  O  Te116     1.0  0.86351  0.24284  0.61065  1.0000
  Mg  Mg57      1.0  0.81291  0.26367  0.39439  1.0000
  Mg  Mg58      1.0  0.86421  0.30014  0.65752  1.0000
  C  Sn117     1.0  0.16190  0.72661  0.07204  1.0000
  C   C227      1.0  0.15444  0.75943  0.03403  1.0000
  C  Sn118     1.0  0.15638  0.74771  0.98402  1.0000
  C  Sn119     1.0  0.16607  0.69944  0.97173  1.0000
  C   C228      1.0  0.17363  0.66393  0.00972  1.0000
  C  Sn120     1.0  0.17160  0.67835  0.05975  1.0000
  O  Te117     1.0  0.15969  0.74185  0.12178  1.0000
  O  Te118     1.0  0.14880  0.78117  0.94668  1.0000
  O  Te119     1.0  0.16828  0.68423  0.92193  1.0000
  O  Te120     1.0  0.17917  0.64492  0.09707  1.0000
  Mg  Mg59      1.0  0.15546  0.74311  0.88442  1.0000
  Mg  Mg60      1.0  0.17250  0.68292  0.15934  1.0000
  C  Sn121     1.0  0.82815  0.70561  0.07259  1.0000
  C   C229      1.0  0.81816  0.68344  0.02928  1.0000
  C  Sn122     1.0  0.82781  0.69965  0.98245  1.0000
  C  Sn123     1.0  0.84798  0.73604  0.97883  1.0000
  C   C230      1.0  0.85807  0.75546  0.02213  1.0000
  C  Sn124     1.0  0.84833  0.74200  0.06898  1.0000
  O  Te121     1.0  0.81811  0.69156  0.11902  1.0000
  O  Te122     1.0  0.81751  0.67698  0.93968  1.0000
  O  Te123     1.0  0.85802  0.75008  0.93236  1.0000
  O  Te124     1.0  0.85862  0.76465  0.11173  1.0000
  Mg  Mg61      1.0  0.83763  0.70859  0.88492  1.0000
  Mg  Mg62      1.0  0.83853  0.73305  0.16650  1.0000
  C  Sn125     1.0  0.14887  0.29101  0.57154  1.0000
  C   C231      1.0  0.14208  0.25632  0.53466  1.0000
  C  Sn126     1.0  0.15526  0.25585  0.48886  1.0000
  C  Sn127     1.0  0.17567  0.29076  0.47974  1.0000
  C   C232      1.0  0.18245  0.32541  0.51660  1.0000
  C  Sn128     1.0  0.16928  0.32592  0.56241  1.0000
  O  Te125     1.0  0.13543  0.29081  0.61705  1.0000
  O  Te126     1.0  0.14811  0.22082  0.45257  1.0000
  O  Te127     1.0  0.18911  0.29094  0.43418  1.0000
  O  Te128     1.0  0.17642  0.36092  0.59870  1.0000
  Mg  Mg63      1.0  0.17223  0.23593  0.39651  1.0000
  Mg  Mg64      1.0  0.15232  0.34582  0.65477  1.0000
