data_image0
_chemical_formula_structural       H192C264N32C2Sn2C2HTe2HMgC2Sn2C2HTe2HMgC2Sn2C2HTe2HMgC2Sn2C2HTe2HMgC2Sn2C2HTe2HMgC2Sn2C2HTe2HMgC2Sn2C2HTe2HMgC2Sn2C2HTe2HMgC2Sn2C2HTe2HMgC2Sn2C2HTe2HMgC2Sn2C2HTe2HMgC2Sn2C2HTe2HMgC2Sn2C2HTe2HMgC2Sn2C2HTe2HMgC2Sn2C2HTe2HMgC2Sn2C2HTe2HMg
_chemical_formula_sum              "H224 C328 N32 Sn32 Te32 Mg16"
_cell_length_a       50.7288
_cell_length_b       26.7589
_cell_length_c       26.7813
_cell_angle_alpha    90.1562
_cell_angle_beta     89.9891
_cell_angle_gamma    89.8106

_symmetry_space_group_name_H-M    'P1'
_space_group_IT_number       1

loop_
  _space_group_symop_operation_xyz
  'x, y, z'

loop_
  _atom_site_type_symbol
  _atom_site_label
  _atom_site_symmetry_multiplicity
  _atom_site_fract_x
  _atom_site_fract_y
  _atom_site_fract_z
  _atom_site_occupancy
  H   H1        1.0  0.64000  0.41901  0.49126  1.0000
  H   H2        1.0  0.36073  0.59176  0.99754  1.0000
  H   H3        1.0  0.63972  0.57555  0.99408  1.0000
  H   H4        1.0  0.35704  0.36277  0.51955  1.0000
  H   H5        1.0  0.64231  0.43971  0.55435  1.0000
  H   H6        1.0  0.35695  0.54784  0.04646  1.0000
  H   H7        1.0  0.64251  0.57456  0.06037  1.0000
  H   H8        1.0  0.35984  0.42400  0.49598  1.0000
  H   H9        1.0  0.64266  0.37532  0.54074  1.0000
  H   H10       1.0  0.35686  0.61208  0.06052  1.0000
  H   H11       1.0  0.64139  0.63201  0.02841  1.0000
  H   H12       1.0  0.35832  0.41386  0.56171  1.0000
  H   H13       1.0  0.75280  0.45239  0.60915  1.0000
  H   H14       1.0  0.23969  0.58219  0.10486  1.0000
  H   H15       1.0  0.75236  0.55587  0.10860  1.0000
  H   H16       1.0  0.25122  0.45649  0.61164  1.0000
  H   H17       1.0  0.75149  0.38698  0.61463  1.0000
  H   H18       1.0  0.26672  0.60572  0.14024  1.0000
  H   H19       1.0  0.75150  0.62150  0.11153  1.0000
  H   H20       1.0  0.24611  0.39151  0.61264  1.0000
  H   H21       1.0  0.72716  0.42430  0.64471  1.0000
  H   H22       1.0  0.26338  0.54090  0.13111  1.0000
  H   H23       1.0  0.72696  0.58651  0.14319  1.0000
  H   H24       1.0  0.27355  0.41750  0.64494  1.0000
  H   H25       1.0  0.72471  0.38373  0.39903  1.0000
  H   H26       1.0  0.28074  0.59836  0.89460  1.0000
  H   H27       1.0  0.72253  0.61477  0.89517  1.0000
  H   H28       1.0  0.27995  0.40702  0.39222  1.0000
  H   H29       1.0  0.75407  0.40887  0.42568  1.0000
  H   H30       1.0  0.25241  0.62189  0.92617  1.0000
  H   H31       1.0  0.75318  0.60034  0.92474  1.0000
  H   H32       1.0  0.25332  0.37557  0.42144  1.0000
  H   H33       1.0  0.72906  0.44886  0.40209  1.0000
  H   H34       1.0  0.25590  0.55717  0.91657  1.0000
  H   H35       1.0  0.73217  0.55198  0.90365  1.0000
  H   H36       1.0  0.25341  0.44129  0.41935  1.0000
  H   H37       1.0  0.31446  0.66326  0.12592  1.0000
  H   H38       1.0  0.67903  0.67409  0.11750  1.0000
  H   H39       1.0  0.31756  0.32851  0.62109  1.0000
  H   H40       1.0  0.33817  0.66775  0.20720  1.0000
  H   H41       1.0  0.65414  0.67736  0.19769  1.0000
  H   H42       1.0  0.34132  0.32424  0.70236  1.0000
  H   H43       1.0  0.34641  0.50766  0.20739  1.0000
  H   H44       1.0  0.65563  0.51693  0.20555  1.0000
  H   H45       1.0  0.34723  0.48458  0.70521  1.0000
  H   H46       1.0  0.32319  0.50356  0.12520  1.0000
  H   H47       1.0  0.68054  0.51382  0.12483  1.0000
  H   H48       1.0  0.32322  0.48872  0.62378  1.0000
  H   H49       1.0  0.67742  0.48424  0.40901  1.0000
  H   H50       1.0  0.31652  0.52163  0.90281  1.0000
  H   H51       1.0  0.68311  0.51982  0.90352  1.0000
  H   H52       1.0  0.32246  0.47750  0.41011  1.0000
  H   H53       1.0  0.65108  0.47272  0.33102  1.0000
  H   H54       1.0  0.34492  0.53221  0.82752  1.0000
  H   H55       1.0  0.65561  0.52693  0.82634  1.0000
  H   H56       1.0  0.35006  0.46712  0.33319  1.0000
  H   H57       1.0  0.67115  0.32718  0.43992  1.0000
  H   H58       1.0  0.33720  0.66921  0.95257  1.0000
  H   H59       1.0  0.66299  0.67087  0.94341  1.0000
  H   H60       1.0  0.32976  0.32044  0.44021  1.0000
  H   H61       1.0  0.64546  0.31544  0.36176  1.0000
  H   H62       1.0  0.36597  0.67941  0.87828  1.0000
  H   H63       1.0  0.63493  0.67746  0.86754  1.0000
  H   H64       1.0  0.35710  0.30985  0.36389  1.0000
  H   H65       1.0  0.85855  0.42166  0.54487  1.0000
  H   H66       1.0  0.14159  0.57013  0.04025  1.0000
  H   H67       1.0  0.85624  0.54189  0.99783  1.0000
  H   H68       1.0  0.14437  0.45954  0.48853  1.0000
  H   H69       1.0  0.85646  0.45436  0.48772  1.0000
  H   H70       1.0  0.14446  0.54316  0.98023  1.0000
  H   H71       1.0  0.85721  0.60817  0.99182  1.0000
  H   H72       1.0  0.14434  0.39328  0.48178  1.0000
  H   H73       1.0  0.85666  0.38771  0.48849  1.0000
  H   H74       1.0  0.14305  0.60938  0.98742  1.0000
  H   H75       1.0  0.85689  0.58064  0.05148  1.0000
  H   H76       1.0  0.14112  0.42046  0.54146  1.0000
  H   H77       1.0  0.74480  0.32857  0.53811  1.0000
  H   H78       1.0  0.25576  0.67154  0.02503  1.0000
  H   H79       1.0  0.75246  0.68205  0.05184  1.0000
  H   H80       1.0  0.25226  0.32621  0.54617  1.0000
  H   H81       1.0  0.77593  0.29786  0.54479  1.0000
  H   H82       1.0  0.22674  0.69645  0.05330  1.0000
  H   H83       1.0  0.77800  0.71011  0.01634  1.0000
  H   H84       1.0  0.22204  0.29431  0.53421  1.0000
  H   H85       1.0  0.76204  0.30648  0.48503  1.0000
  H   H86       1.0  0.23066  0.69958  0.98814  1.0000
  H   H87       1.0  0.75031  0.68237  0.98633  1.0000
  H   H88       1.0  0.24300  0.31186  0.48441  1.0000
  H   H89       1.0  0.77248  0.54462  0.52376  1.0000
  H   H90       1.0  0.22820  0.45377  0.00523  1.0000
  H   H91       1.0  0.77109  0.45795  0.02168  1.0000
  H   H92       1.0  0.22950  0.54360  0.52661  1.0000
  H   H93       1.0  0.74303  0.50911  0.53135  1.0000
  H   H94       1.0  0.25134  0.48449  0.04443  1.0000
  H   H95       1.0  0.74173  0.49404  0.02995  1.0000
  H   H96       1.0  0.25876  0.50645  0.53087  1.0000
  H   H97       1.0  0.75510  0.52207  0.47107  1.0000
  H   H98       1.0  0.25485  0.48808  0.97918  1.0000
  H   H99       1.0  0.75411  0.48247  0.96942  1.0000
  H   H100      1.0  0.24544  0.52172  0.47201  1.0000
  H   H101      1.0  0.16779  0.48733  0.07914  1.0000
  H   H102      1.0  0.14229  0.40755  0.07403  1.0000
  H   H103      1.0  0.19329  0.46733  0.92746  1.0000
  H   H104      1.0  0.16849  0.38738  0.92282  1.0000
  H   H105      1.0  0.17111  0.66192  0.09528  1.0000
  H   H106      1.0  0.14448  0.74011  0.10279  1.0000
  H   H107      1.0  0.15258  0.76528  0.94519  1.0000
  H   H108      1.0  0.18009  0.68751  0.93800  1.0000
  H   H109      1.0  0.41594  0.64149  0.40355  1.0000
  H   H110      1.0  0.58423  0.36087  0.90413  1.0000
  H   H111      1.0  0.42291  0.35420  0.89401  1.0000
  H   H112      1.0  0.38113  0.63791  0.33947  1.0000
  H   H113      1.0  0.61949  0.36385  0.84007  1.0000
  H   H114      1.0  0.38906  0.35347  0.82784  1.0000
  H   H115      1.0  0.42141  0.49338  0.14394  1.0000
  H   H116      1.0  0.57565  0.50042  0.64500  1.0000
  H   H117      1.0  0.38952  0.49113  0.21585  1.0000
  H   H118      1.0  0.60983  0.50053  0.71255  1.0000
  H   H119      1.0  0.60005  0.55461  0.46489  1.0000
  H   H120      1.0  0.39885  0.42945  0.97139  1.0000
  H   H121      1.0  0.60047  0.43445  0.96599  1.0000
  H   H122      1.0  0.39897  0.56603  0.47318  1.0000
  H   H123      1.0  0.60104  0.56318  0.56531  1.0000
  H   H124      1.0  0.39975  0.42030  0.07212  1.0000
  H   H125      1.0  0.60146  0.42402  0.06603  1.0000
  H   H126      1.0  0.40008  0.57495  0.57368  1.0000
  H   H127      1.0  0.47096  0.56653  0.32905  1.0000
  H   H128      1.0  0.52495  0.43314  0.82715  1.0000
  H   H129      1.0  0.47173  0.43515  0.82905  1.0000
  H   H130      1.0  0.52407  0.56713  0.32551  1.0000
  H   H131      1.0  0.47599  0.59027  0.70967  1.0000
  H   H132      1.0  0.52831  0.41140  0.20823  1.0000
  H   H133      1.0  0.47505  0.41264  0.20962  1.0000
  H   H134      1.0  0.52938  0.58861  0.70689  1.0000
  H   H135      1.0  0.50048  0.56918  0.47765  1.0000
  H   H136      1.0  0.49968  0.43214  0.97854  1.0000
  H   H137      1.0  0.50036  0.58346  0.55806  1.0000
  H   H138      1.0  0.50069  0.41748  0.05853  1.0000
  H   H139      1.0  0.07914  0.79359  0.44498  1.0000
  H   H140      1.0  0.11020  0.72235  0.44664  1.0000
  H   H141      1.0  0.10101  0.97117  0.52227  1.0000
  H   H142      1.0  0.89928  0.02885  0.02549  1.0000
  H   H143      1.0  0.10057  0.03148  0.01734  1.0000
  H   H144      1.0  0.89901  0.96885  0.50966  1.0000
  H   H145      1.0  0.10097  0.87028  0.52583  1.0000
  H   H146      1.0  0.89869  0.12931  0.03208  1.0000
  H   H147      1.0  0.09986  0.13238  0.02259  1.0000
  H   H148      1.0  0.89903  0.86815  0.51537  1.0000
  H   H149      1.0  0.43893  0.33815  0.16746  1.0000
  H   H150      1.0  0.57141  0.66060  0.65338  1.0000
  H   H151      1.0  0.40724  0.33530  0.23753  1.0000
  H   H152      1.0  0.60546  0.66088  0.71974  1.0000
  H   H153      1.0  0.43061  0.51340  0.87999  1.0000
  H   H154      1.0  0.43667  0.48861  0.37365  1.0000
  H   H155      1.0  0.55874  0.50833  0.86293  1.0000
  H   H156      1.0  0.39589  0.51288  0.81329  1.0000
  H   H157      1.0  0.40071  0.48405  0.30979  1.0000
  H   H158      1.0  0.59443  0.51172  0.79878  1.0000
  H   H159      1.0  0.85808  0.67451  0.46424  1.0000
  H   H160      1.0  0.13808  0.32940  0.95620  1.0000
  H   H161      1.0  0.86955  0.34086  0.96206  1.0000
  H   H162      1.0  0.14445  0.67905  0.46739  1.0000
  H   H163      1.0  0.97844  0.91773  0.51270  1.0000
  H   H164      1.0  0.97772  0.08160  0.00951  1.0000
  H   H165      1.0  0.02173  0.92142  0.51415  1.0000
  H   H166      1.0  0.02104  0.08068  0.01094  1.0000
  H   H167      1.0  0.97452  0.72809  0.51842  1.0000
  H   H168      1.0  0.97204  0.27182  0.01179  1.0000
  H   H169      1.0  0.02515  0.27210  0.01064  1.0000
  H   H170      1.0  0.02765  0.72946  0.51929  1.0000
  H   H171      1.0  0.38815  0.64581  0.80712  1.0000
  H   H172      1.0  0.61251  0.63862  0.79877  1.0000
  H   H173      1.0  0.62973  0.63766  0.26229  1.0000
  H   H174      1.0  0.09434  0.70174  0.60307  1.0000
  H   H175      1.0  0.06261  0.77323  0.60091  1.0000
  H   H176      1.0  0.62882  0.36553  0.75968  1.0000
  H   H177      1.0  0.62474  0.34642  0.28964  1.0000
  H   H178      1.0  0.37812  0.34216  0.29165  1.0000
  H   H179      1.0  0.36470  0.63158  0.26865  1.0000
  H   H180      1.0  0.12478  0.18991  0.57467  1.0000
  H   H181      1.0  0.12471  0.81191  0.06835  1.0000
  H   H182      1.0  0.02670  0.89340  0.98125  1.0000
  H   H183      1.0  0.87509  0.81401  0.07088  1.0000
  H   H184      1.0  0.97367  0.89301  0.98217  1.0000
  H   H185      1.0  0.87278  0.18422  0.57271  1.0000
  H   H186      1.0  0.02563  0.11000  0.49619  1.0000
  H   H187      1.0  0.97253  0.10819  0.49428  1.0000
  H   H188      1.0  0.36509  0.36139  0.76753  1.0000
  H   H189      1.0  0.11833  0.09828  0.43742  1.0000
  H   H190      1.0  0.08639  0.02749  0.44186  1.0000
  H   H191      1.0  0.08576  0.15944  0.57276  1.0000
  H   H192      1.0  0.05427  0.08921  0.57709  1.0000
  C   C1        1.0  0.41788  0.45881  0.16415  1.0000
  C   C2        1.0  0.58216  0.53546  0.66156  1.0000
  C   C3        1.0  0.40007  0.45771  0.20370  1.0000
  C   C4        1.0  0.60125  0.53525  0.69891  1.0000
  C   C5        1.0  0.08289  0.77419  0.47993  1.0000
  C   C6        1.0  0.10055  0.73414  0.48101  1.0000
  C   C7        1.0  0.42785  0.37147  0.17787  1.0000
  C   C8        1.0  0.57964  0.62547  0.66668  1.0000
  C   C9        1.0  0.40991  0.37005  0.21718  1.0000
  C   C10       1.0  0.59862  0.62554  0.70438  1.0000
  C   C11       1.0  0.06858  0.09080  0.54689  1.0000
  C   C12       1.0  0.08646  0.13008  0.54460  1.0000
  C   C13       1.0  0.44421  0.57885  0.56182  1.0000
  C   C14       1.0  0.55703  0.42155  0.05764  1.0000
  C   C15       1.0  0.44400  0.42245  0.06098  1.0000
  C   C16       1.0  0.55695  0.57344  0.55624  1.0000
  C   C17       1.0  0.45273  0.58442  0.61161  1.0000
  C   C18       1.0  0.54950  0.41613  0.10800  1.0000
  C   C19       1.0  0.45245  0.41740  0.11082  1.0000
  C   C20       1.0  0.54966  0.58041  0.60655  1.0000
  C   C21       1.0  0.43220  0.41578  0.15101  1.0000
  C   C22       1.0  0.57086  0.58051  0.64527  1.0000
  C   C23       1.0  0.39583  0.41349  0.23094  1.0000
  C   C24       1.0  0.60919  0.58009  0.72195  1.0000
  C   C25       1.0  0.58418  0.56562  0.54063  1.0000
  C   C26       1.0  0.41624  0.42325  0.04662  1.0000
  C   C27       1.0  0.58444  0.42503  0.04168  1.0000
  C   C28       1.0  0.41651  0.57471  0.54790  1.0000
  C   C29       1.0  0.97735  0.18791  0.01794  1.0000
  C   C30       1.0  0.02185  0.81352  0.52029  1.0000
  C   C31       1.0  0.97884  0.81241  0.51961  1.0000
  C   C32       1.0  0.02039  0.18811  0.01677  1.0000
  C   C33       1.0  0.98529  0.24017  0.01453  1.0000
  C   C34       1.0  0.01420  0.76096  0.51988  1.0000
  C   C35       1.0  0.98738  0.76028  0.51958  1.0000
  C   C36       1.0  0.01212  0.24030  0.01388  1.0000
  C   C37       1.0  0.06894  0.78878  0.52294  1.0000
  C   C38       1.0  0.10501  0.70765  0.52572  1.0000
  C   C39       1.0  0.04715  0.17331  0.01700  1.0000
  C   C40       1.0  0.95202  0.82665  0.51802  1.0000
  C   C41       1.0  0.04843  0.82893  0.52065  1.0000
  C   C42       1.0  0.95068  0.17274  0.02004  1.0000
  C   C43       1.0  0.41288  0.60716  0.38246  1.0000
  C   C44       1.0  0.58625  0.39357  0.88037  1.0000
  C   C45       1.0  0.41703  0.38900  0.87619  1.0000
  C   C46       1.0  0.39324  0.60497  0.34619  1.0000
  C   C47       1.0  0.60597  0.39525  0.84419  1.0000
  C   C48       1.0  0.39794  0.38878  0.83884  1.0000
  C   C49       1.0  0.08676  0.05580  0.47110  1.0000
  C   C50       1.0  0.42153  0.47847  0.86835  1.0000
  C   C51       1.0  0.42462  0.52129  0.36559  1.0000
  C   C52       1.0  0.57174  0.47640  0.85720  1.0000
  C   C53       1.0  0.40224  0.47848  0.83129  1.0000
  C   C54       1.0  0.40478  0.51864  0.32975  1.0000
  C   C55       1.0  0.59164  0.47858  0.82147  1.0000
  C   C56       1.0  0.07347  0.76255  0.56748  1.0000
  C   C57       1.0  0.09111  0.72262  0.56880  1.0000
  C   C58       1.0  0.44337  0.57216  0.48067  1.0000
  C   C59       1.0  0.55623  0.42837  0.97652  1.0000
  C   C60       1.0  0.44324  0.42897  0.97994  1.0000
  C   C61       1.0  0.55621  0.56762  0.47496  1.0000
  C   C62       1.0  0.45071  0.56842  0.42999  1.0000
  C   C63       1.0  0.54787  0.43176  0.92633  1.0000
  C   C64       1.0  0.45071  0.43275  0.92945  1.0000
  C   C65       1.0  0.54794  0.56646  0.42450  1.0000
  C   C66       1.0  0.42923  0.56571  0.39209  1.0000
  C   C67       1.0  0.56863  0.43377  0.88712  1.0000
  C   C68       1.0  0.42941  0.43364  0.89095  1.0000
  C   C69       1.0  0.38929  0.56082  0.31828  1.0000
  C   C70       1.0  0.60860  0.43759  0.81342  1.0000
  C   C71       1.0  0.39054  0.43368  0.81510  1.0000
  C   C72       1.0  0.58371  0.56168  0.48995  1.0000
  C   C73       1.0  0.41577  0.42749  0.99600  1.0000
  C   C74       1.0  0.58394  0.42990  0.99111  1.0000
  C   C75       1.0  0.41596  0.57037  0.49725  1.0000
  C   C76       1.0  0.97849  0.97469  0.00314  1.0000
  C   C77       1.0  0.02137  0.02672  0.50910  1.0000
  C   C78       1.0  0.97836  0.02528  0.50724  1.0000
  C   C79       1.0  0.02154  0.97484  0.00241  1.0000
  C   C80       1.0  0.98668  0.92384  0.99073  1.0000
  C   C81       1.0  0.01279  0.07819  0.50124  1.0000
  C   C82       1.0  0.98598  0.07731  0.50032  1.0000
  C   C83       1.0  0.01351  0.92397  0.99028  1.0000
  C   C84       1.0  0.06832  0.05301  0.51022  1.0000
  C   C85       1.0  0.10484  0.13294  0.50519  1.0000
  C   C86       1.0  0.04829  0.98943  0.00554  1.0000
  C   C87       1.0  0.95173  0.01001  0.50735  1.0000
  C   C88       1.0  0.04823  0.01266  0.51180  1.0000
  C   C89       1.0  0.95170  0.98896  0.00745  1.0000
  C   C90       1.0  0.47916  0.58749  0.62681  1.0000
  C   C91       1.0  0.52341  0.41333  0.12546  1.0000
  C   C92       1.0  0.47879  0.41436  0.12667  1.0000
  C   C93       1.0  0.52378  0.58577  0.62440  1.0000
  C   C94       1.0  0.48868  0.58962  0.67718  1.0000
  C   C95       1.0  0.51501  0.41183  0.17661  1.0000
  C   C96       1.0  0.48790  0.41250  0.17735  1.0000
  C   C97       1.0  0.51580  0.58870  0.67573  1.0000
  C   C98       1.0  0.47669  0.56666  0.41165  1.0000
  C   C99       1.0  0.52148  0.43341  0.91023  1.0000
  C   C100      1.0  0.47677  0.43427  0.91173  1.0000
  C   C101      1.0  0.52143  0.56635  0.40871  1.0000
  C   C102      1.0  0.48456  0.56621  0.36020  1.0000
  C   C103      1.0  0.51222  0.43393  0.85961  1.0000
  C   C104      1.0  0.48509  0.43471  0.86054  1.0000
  C   C105      1.0  0.51169  0.56645  0.35841  1.0000
  C   C106      1.0  0.05736  0.87851  0.51900  1.0000
  C   C107      1.0  0.94198  0.12287  0.01860  1.0000
  C   C108      1.0  0.05637  0.12373  0.01501  1.0000
  C   C109      1.0  0.94280  0.87598  0.51390  1.0000
  C   C110      1.0  0.08418  0.89506  0.52202  1.0000
  C   C111      1.0  0.91551  0.10539  0.02489  1.0000
  C   C112      1.0  0.08327  0.10744  0.01808  1.0000
  C   C113      1.0  0.91591  0.89268  0.51328  1.0000
  C   C114      1.0  0.05741  0.96314  0.51537  1.0000
  C   C115      1.0  0.94247  0.03830  0.01307  1.0000
  C   C116      1.0  0.05699  0.03911  0.01017  1.0000
  C   C117      1.0  0.94276  0.96049  0.50909  1.0000
  C   C118      1.0  0.08419  0.94648  0.52013  1.0000
  C   C119      1.0  0.91580  0.05405  0.02154  1.0000
  C   C120      1.0  0.08363  0.05606  0.01536  1.0000
  C   C121      1.0  0.91589  0.94403  0.51041  1.0000
  C   C122      1.0  0.34434  0.58802  0.21231  1.0000
  C   C123      1.0  0.65280  0.59719  0.20643  1.0000
  C   C124      1.0  0.34623  0.40415  0.70876  1.0000
  C   C125      1.0  0.33937  0.54154  0.18924  1.0000
  C   C126      1.0  0.66090  0.55105  0.18593  1.0000
  C   C127      1.0  0.34061  0.45069  0.68651  1.0000
  C   C128      1.0  0.33474  0.63172  0.18935  1.0000
  C   C129      1.0  0.65997  0.64149  0.18177  1.0000
  C   C130      1.0  0.33733  0.36030  0.68510  1.0000
  C   C131      1.0  0.32147  0.62930  0.14385  1.0000
  C   C132      1.0  0.67389  0.63976  0.13683  1.0000
  C   C133      1.0  0.32405  0.36259  0.63958  1.0000
  C   C134      1.0  0.32633  0.53942  0.14353  1.0000
  C   C135      1.0  0.67474  0.54952  0.14112  1.0000
  C   C136      1.0  0.32725  0.45277  0.64117  1.0000
  C   C137      1.0  0.31754  0.58323  0.11973  1.0000
  C   C138      1.0  0.68106  0.59375  0.11542  1.0000
  C   C139      1.0  0.31910  0.40880  0.61667  1.0000
  C   C140      1.0  0.63536  0.40364  0.75050  1.0000
  C   C141      1.0  0.36082  0.59285  0.25679  1.0000
  C   C142      1.0  0.63561  0.59985  0.25020  1.0000
  C   C143      1.0  0.36225  0.39980  0.75384  1.0000
  C   C144      1.0  0.69471  0.41582  0.56709  1.0000
  C   C145      1.0  0.30481  0.58242  0.06951  1.0000
  C   C146      1.0  0.69439  0.59176  0.06578  1.0000
  C   C147      1.0  0.30571  0.41044  0.56709  1.0000
  C   C148      1.0  0.72235  0.41809  0.56436  1.0000
  C   C149      1.0  0.27713  0.58086  0.06597  1.0000
  C   C150      1.0  0.72204  0.58923  0.06281  1.0000
  C   C151      1.0  0.27804  0.41491  0.56454  1.0000
  C   C152      1.0  0.73467  0.41752  0.51705  1.0000
  C   C153      1.0  0.26531  0.58284  0.01848  1.0000
  C   C154      1.0  0.73419  0.58755  0.01543  1.0000
  C   C155      1.0  0.26560  0.41450  0.51755  1.0000
  C   C156      1.0  0.71962  0.41476  0.47308  1.0000
  C   C157      1.0  0.28082  0.58699  0.97500  1.0000
  C   C158      1.0  0.71903  0.58919  0.97149  1.0000
  C   C159      1.0  0.28041  0.40983  0.47331  1.0000
  C   C160      1.0  0.69185  0.41236  0.47652  1.0000
  C   C161      1.0  0.30858  0.58841  0.97905  1.0000
  C   C162      1.0  0.69126  0.59168  0.97505  1.0000
  C   C163      1.0  0.30805  0.40562  0.47644  1.0000
  C   C164      1.0  0.67920  0.41337  0.52328  1.0000
  C   C165      1.0  0.32076  0.58553  0.02651  1.0000
  C   C166      1.0  0.67877  0.59254  0.02213  1.0000
  C   C167      1.0  0.32091  0.40603  0.52319  1.0000
  C   C168      1.0  0.76408  0.41877  0.51459  1.0000
  C   C169      1.0  0.23597  0.58117  0.01391  1.0000
  C   C170      1.0  0.76359  0.58449  0.01322  1.0000
  C   C171      1.0  0.23624  0.41784  0.51488  1.0000
  C   C172      1.0  0.77713  0.46502  0.51069  1.0000
  C   C173      1.0  0.22348  0.53433  0.00931  1.0000
  C   C174      1.0  0.77618  0.53756  0.01093  1.0000
  C   C175      1.0  0.22374  0.46475  0.51156  1.0000
  C   C176      1.0  0.80492  0.46591  0.50890  1.0000
  C   C177      1.0  0.19578  0.53223  0.00634  1.0000
  C   C178      1.0  0.80397  0.53524  0.01116  1.0000
  C   C179      1.0  0.19594  0.46715  0.50944  1.0000
  C   C180      1.0  0.81961  0.42103  0.51114  1.0000
  C   C181      1.0  0.18056  0.57659  0.00755  1.0000
  C   C182      1.0  0.81912  0.57928  0.01357  1.0000
  C   C183      1.0  0.18078  0.42301  0.51052  1.0000
  C   C184      1.0  0.80617  0.37531  0.51579  1.0000
  C   C185      1.0  0.19340  0.62288  0.01247  1.0000
  C   C186      1.0  0.80611  0.62591  0.01587  1.0000
  C   C187      1.0  0.19368  0.37651  0.51515  1.0000
  C   C188      1.0  0.77844  0.37369  0.51742  1.0000
  C   C189      1.0  0.22112  0.62564  0.01543  1.0000
  C   C190      1.0  0.77841  0.62892  0.01542  1.0000
  C   C191      1.0  0.22135  0.37349  0.51699  1.0000
  C   C192      1.0  0.18195  0.48322  0.00339  1.0000
  C   C193      1.0  0.16773  0.46542  0.04486  1.0000
  C   C194      1.0  0.15363  0.42105  0.04237  1.0000
  C   C195      1.0  0.15334  0.39264  0.99800  1.0000
  C   C196      1.0  0.16826  0.40942  0.95707  1.0000
  C   C197      1.0  0.18225  0.45416  0.95965  1.0000
  C   C198      1.0  0.86230  0.65154  0.49735  1.0000
  C   C199      1.0  0.13708  0.34796  0.99290  1.0000
  C   C200      1.0  0.86546  0.35361  0.00041  1.0000
  C   C201      1.0  0.13941  0.65454  0.49889  1.0000
  C   C202      1.0  0.67612  0.40644  0.42982  1.0000
  C   C203      1.0  0.32504  0.59455  0.93329  1.0000
  C   C204      1.0  0.67507  0.59504  0.92870  1.0000
  C   C205      1.0  0.32419  0.39963  0.43025  1.0000
  C   C206      1.0  0.67043  0.44727  0.39848  1.0000
  C   C207      1.0  0.32721  0.55636  0.89716  1.0000
  C   C208      1.0  0.67292  0.55465  0.89508  1.0000
  C   C209      1.0  0.33007  0.44086  0.39965  1.0000
  C   C210      1.0  0.65580  0.44111  0.35497  1.0000
  C   C211      1.0  0.34295  0.56207  0.85500  1.0000
  C   C212      1.0  0.65769  0.55835  0.85199  1.0000
  C   C213      1.0  0.34537  0.43532  0.35686  1.0000
  C   C214      1.0  0.64660  0.39336  0.34114  1.0000
  C   C215      1.0  0.35739  0.60642  0.84780  1.0000
  C   C216      1.0  0.64380  0.60279  0.84152  1.0000
  C   C217      1.0  0.35527  0.38786  0.34330  1.0000
  C   C218      1.0  0.65246  0.35246  0.37216  1.0000
  C   C219      1.0  0.35502  0.64488  0.88350  1.0000
  C   C220      1.0  0.64572  0.64307  0.87519  1.0000
  C   C221      1.0  0.34943  0.34663  0.37384  1.0000
  C   C222      1.0  0.66690  0.35896  0.41596  1.0000
  C   C223      1.0  0.33896  0.63915  0.92531  1.0000
  C   C224      1.0  0.66134  0.63938  0.91783  1.0000
  C   C225      1.0  0.33416  0.35250  0.41676  1.0000
  C   C226      1.0  0.63062  0.38543  0.29652  1.0000
  C   C227      1.0  0.37544  0.61253  0.80572  1.0000
  C   C228      1.0  0.62665  0.60728  0.79791  1.0000
  C   C229      1.0  0.37178  0.38084  0.29917  1.0000
  C   C230      1.0  0.17748  0.66970  0.01625  1.0000
  C   C231      1.0  0.17223  0.69931  0.97399  1.0000
  C   C232      1.0  0.15700  0.74250  0.97775  1.0000
  C   C233      1.0  0.14684  0.75783  0.02432  1.0000
  C   C234      1.0  0.15230  0.72855  0.06667  1.0000
  C   C235      1.0  0.16725  0.68489  0.06259  1.0000
  C   C236      1.0  0.86828  0.19503  0.53398  1.0000
  C   C237      1.0  0.13047  0.80254  0.02978  1.0000
  C   C238      1.0  0.86976  0.80356  0.03239  1.0000
  C   C239      1.0  0.13024  0.19902  0.53597  1.0000
  C   C240      1.0  0.73914  0.42064  0.61088  1.0000
  C   C241      1.0  0.26071  0.57735  0.11285  1.0000
  C   C242      1.0  0.73892  0.58815  0.10922  1.0000
  C   C243      1.0  0.26152  0.42025  0.61114  1.0000
  C   C244      1.0  0.64948  0.41188  0.52731  1.0000
  C   C245      1.0  0.35041  0.58454  0.03263  1.0000
  C   C246      1.0  0.64904  0.59353  0.02634  1.0000
  C   C247      1.0  0.35060  0.40166  0.52549  1.0000
  C   C248      1.0  0.73271  0.41384  0.42242  1.0000
  C   C249      1.0  0.26698  0.59141  0.92524  1.0000
  C   C250      1.0  0.73248  0.58926  0.92113  1.0000
  C   C251      1.0  0.26624  0.40844  0.42375  1.0000
  C   C252      1.0  0.76451  0.32410  0.52193  1.0000
  C   C253      1.0  0.23440  0.67581  0.02083  1.0000
  C   C254      1.0  0.76426  0.67866  0.01751  1.0000
  C   C255      1.0  0.23526  0.32372  0.52100  1.0000
  C   C256      1.0  0.76118  0.51283  0.50943  1.0000
  C   C257      1.0  0.24017  0.48747  0.00939  1.0000
  C   C258      1.0  0.75998  0.49040  0.00821  1.0000
  C   C259      1.0  0.24019  0.51170  0.51059  1.0000
  C   C260      1.0  0.84937  0.42131  0.50764  1.0000
  C   C261      1.0  0.15086  0.57470  0.00339  1.0000
  C   C262      1.0  0.84891  0.57719  0.01341  1.0000
  C   C263      1.0  0.15110  0.42441  0.50520  1.0000
  C   C264      1.0  0.10451  0.09530  0.46833  1.0000
  N   N1        1.0  0.37705  0.57977  0.77031  1.0000
  N   N2        1.0  0.62367  0.42213  0.26814  1.0000
  N   N3        1.0  0.37856  0.41821  0.27165  1.0000
  N   N4        1.0  0.62726  0.57558  0.76149  1.0000
  N   N5        1.0  0.87597  0.33244  0.03893  1.0000
  N   N6        1.0  0.12106  0.66518  0.53066  1.0000
  N   N7        1.0  0.87982  0.66336  0.53029  1.0000
  N   N8        1.0  0.12196  0.33295  0.02867  1.0000
  N   N9        1.0  0.37136  0.55469  0.27860  1.0000
  N   N10       1.0  0.62693  0.44249  0.77450  1.0000
  N   N11       1.0  0.37310  0.43827  0.77448  1.0000
  N   N12       1.0  0.62644  0.56007  0.27110  1.0000
  N   N13       1.0  0.87758  0.82895  0.99423  1.0000
  N   N14       1.0  0.12248  0.17257  0.49836  1.0000
  N   N15       1.0  0.87730  0.17077  0.49582  1.0000
  N   N16       1.0  0.12313  0.82926  0.99211  1.0000
  N   N17       1.0  0.95760  0.08106  0.01174  1.0000
  N   N18       1.0  0.04189  0.92086  0.51510  1.0000
  N   N19       1.0  0.95831  0.91813  0.51082  1.0000
  N   N20       1.0  0.04119  0.08124  0.01035  1.0000
  N   N21       1.0  0.46025  0.57707  0.52044  1.0000
  N   N22       1.0  0.54015  0.42376  0.01753  1.0000
  N   N23       1.0  0.46012  0.42599  0.01996  1.0000
  N   N24       1.0  0.54017  0.57392  0.51584  1.0000
  N   N25       1.0  0.49959  0.56652  0.43959  1.0000
  N   N26       1.0  0.49940  0.43372  0.94041  1.0000
  N   N27       1.0  0.50104  0.58592  0.59614  1.0000
  N   N28       1.0  0.50089  0.41441  0.09659  1.0000
  N   N29       1.0  0.00007  0.84426  0.51977  1.0000
  N   N30       1.0  0.99897  0.15678  0.01838  1.0000
  N   N31       1.0  0.00015  0.99498  0.51213  1.0000
  N   N32       1.0  0.99996  0.00538  0.00913  1.0000
  C   C265      1.0  0.60053  0.46468  0.18554  1.0000
  C   C266      1.0  0.60508  0.42791  0.22152  1.0000
  C  Sn1       1.0  0.59262  0.38156  0.21787  1.0000
  C  Sn2       1.0  0.57530  0.37194  0.17740  1.0000
  C   C267      1.0  0.57089  0.40896  0.14158  1.0000
  C   C268      1.0  0.58346  0.45521  0.14561  1.0000
  H   H193      1.0  0.61026  0.50046  0.18863  1.0000
  O  Te1       1.0  0.59738  0.34526  0.25415  1.0000
  O  Te2       1.0  0.56259  0.32594  0.17284  1.0000
  H   H194      1.0  0.57995  0.48365  0.11773  1.0000
  Mg  Mg1       1.0  0.57542  0.28841  0.23168  1.0000
  C   C269      1.0  0.17722  0.58581  0.45892  1.0000
  C   C270      1.0  0.15824  0.60501  0.49165  1.0000
  C  Sn3       1.0  0.15198  0.57943  0.53547  1.0000
  C  Sn4       1.0  0.16501  0.53380  0.54663  1.0000
  C   C271      1.0  0.18397  0.51492  0.51366  1.0000
  C   C272      1.0  0.19007  0.54082  0.46991  1.0000
  H   H195      1.0  0.18195  0.60586  0.42508  1.0000
  O  Te3       1.0  0.13297  0.59913  0.56776  1.0000
  O  Te4       1.0  0.15914  0.50747  0.59017  1.0000
  H   H196      1.0  0.20478  0.52596  0.44459  1.0000
  Mg  Mg2       1.0  0.13178  0.54949  0.62244  1.0000
  C   C273      1.0  0.92095  0.87503  0.04349  1.0000
  C   C274      1.0  0.89919  0.86903  0.01207  1.0000
  C  Sn5       1.0  0.89394  0.90657  0.97450  1.0000
  C  Sn6       1.0  0.91094  0.94811  0.96834  1.0000
  C   C275      1.0  0.93267  0.95375  0.99994  1.0000
  C   C276      1.0  0.93773  0.91598  0.03743  1.0000
  H   H197      1.0  0.92480  0.84791  0.07249  1.0000
  O  Te5       1.0  0.87211  0.90002  0.94344  1.0000
  O  Te6       1.0  0.90627  0.98344  0.93107  1.0000
  H   H198      1.0  0.95459  0.92062  0.06173  1.0000
  Mg  Mg3       1.0  0.87399  0.95825  0.89809  1.0000
  C   C277      1.0  0.82920  0.28625  0.47205  1.0000
  C   C278      1.0  0.82076  0.31899  0.50957  1.0000
  C  Sn7       1.0  0.82931  0.31251  0.55872  1.0000
  C  Sn8       1.0  0.84664  0.27249  0.57041  1.0000
  C   C279      1.0  0.85498  0.23996  0.53260  1.0000
  C   C280      1.0  0.84630  0.24678  0.48354  1.0000
  H   H199      1.0  0.82249  0.29154  0.43409  1.0000
  O  Te7       1.0  0.82068  0.34555  0.59576  1.0000
  O  Te8       1.0  0.85550  0.26516  0.61922  1.0000
  H   H200      1.0  0.85285  0.22144  0.45450  1.0000
  Mg  Mg4       1.0  0.83822  0.32009  0.65672  1.0000
  C   C281      1.0  0.10069  0.24882  0.97434  1.0000
  C   C282      1.0  0.10452  0.28279  0.01086  1.0000
  C  Sn9       1.0  0.08975  0.28193  0.05489  1.0000
  C  Sn10      1.0  0.07094  0.24356  0.06240  1.0000
  C   C283      1.0  0.06738  0.20699  0.02565  1.0000
  C   C284      1.0  0.08215  0.21094  0.98172  1.0000
  H   H201      1.0  0.11221  0.24975  0.94036  1.0000
  O  Te9       1.0  0.09371  0.31890  0.09099  1.0000
  O  Te10      1.0  0.05593  0.24180  0.10607  1.0000
  H   H202      1.0  0.07928  0.18250  0.95347  1.0000
  Mg  Mg5       1.0  0.06847  0.30054  0.14426  1.0000
  C   C285      1.0  0.84153  0.43240  0.05817  1.0000
  C   C286      1.0  0.84590  0.40077  0.01738  1.0000
  C  Sn11      1.0  0.83643  0.41646  0.97009  1.0000
  C  Sn12      1.0  0.82243  0.46198  0.96363  1.0000
  C   C287      1.0  0.81828  0.49066  0.00467  1.0000
  C   C288      1.0  0.82773  0.47731  0.05183  1.0000
  H   H203      1.0  0.84886  0.42209  0.09465  1.0000
  O  Te11      1.0  0.84097  0.38442  0.92974  1.0000
  O  Te12      1.0  0.81286  0.47587  0.91677  1.0000
  H   H204      1.0  0.82436  0.50183  0.08340  1.0000
  Mg  Mg6       1.0  0.82402  0.41972  0.87325  1.0000
  C   C289      1.0  0.84286  0.72176  0.07674  1.0000
  C   C290      1.0  0.85303  0.75168  0.03869  1.0000
  C  Sn13      1.0  0.84630  0.74500  0.98892  1.0000
  C  Sn14      1.0  0.82915  0.70487  0.97715  1.0000
  C   C291      1.0  0.81917  0.67245  0.01549  1.0000
  C   C292      1.0  0.82594  0.68219  0.06516  1.0000
  H   H205      1.0  0.84808  0.72931  0.11518  1.0000
  O  Te13      1.0  0.85665  0.77524  0.95136  1.0000
  O  Te14      1.0  0.82220  0.69464  0.92772  1.0000
  H   H206      1.0  0.81804  0.65904  0.09462  1.0000
  Mg  Mg7       1.0  0.84137  0.74641  0.88966  1.0000
  C   C293      1.0  0.90144  0.74491  0.47379  1.0000
  C   C294      1.0  0.89710  0.71061  0.51215  1.0000
  C  Sn15      1.0  0.90985  0.71620  0.55806  1.0000
  C  Sn16      1.0  0.92725  0.75694  0.56559  1.0000
  C   C295      1.0  0.93145  0.79107  0.52699  1.0000
  C   C296      1.0  0.91859  0.78511  0.48119  1.0000
  H   H207      1.0  0.89149  0.74032  0.43836  1.0000
  O  Te15      1.0  0.90530  0.68158  0.59598  1.0000
  O  Te16      1.0  0.94024  0.76343  0.61111  1.0000
  H   H208      1.0  0.92195  0.81169  0.45151  1.0000
  Mg  Mg8       1.0  0.92761  0.70637  0.65138  1.0000
  C   C297      1.0  0.90404  0.22428  0.98404  1.0000
  C   C298      1.0  0.92605  0.21169  0.01413  1.0000
  C  Sn17      1.0  0.93051  0.23998  0.05722  1.0000
  C  Sn18      1.0  0.91269  0.27882  0.07033  1.0000
  C   C299      1.0  0.89082  0.28837  0.03999  1.0000
  C   C300      1.0  0.88644  0.26258  0.99695  1.0000
  H   H209      1.0  0.90072  0.20220  0.95075  1.0000
  O  Te17      1.0  0.95249  0.22964  0.08685  1.0000
  O  Te18      1.0  0.91667  0.30765  0.11319  1.0000
  H   H210      1.0  0.86948  0.27020  0.97368  1.0000
  Mg  Mg9       1.0  0.94948  0.27926  0.14159  1.0000
  C   C301      1.0  0.84677  0.56391  0.55168  1.0000
  C   C302      1.0  0.84910  0.59705  0.51170  1.0000
  C  Sn19      1.0  0.83465  0.58933  0.46797  1.0000
  C  Sn20      1.0  0.81755  0.54762  0.46431  1.0000
  C   C303      1.0  0.81534  0.51470  0.50454  1.0000
  C   C304      1.0  0.82990  0.52278  0.54811  1.0000
  H   H211      1.0  0.85803  0.57017  0.58541  1.0000
  O  Te19      1.0  0.83722  0.62280  0.42837  1.0000
  O  Te20      1.0  0.80287  0.53903  0.42105  1.0000
  H   H212      1.0  0.82808  0.49713  0.57908  1.0000
  Mg  Mg10      1.0  0.81311  0.59516  0.37719  1.0000
  C   C305      1.0  0.42094  0.63703  0.68508  1.0000
  C   C306      1.0  0.43211  0.59650  0.65965  1.0000
  C  Sn21      1.0  0.42334  0.54797  0.66897  1.0000
  C  Sn22      1.0  0.40301  0.53999  0.70442  1.0000
  C   C307      1.0  0.39195  0.58079  0.72965  1.0000
  C   C308      1.0  0.40088  0.62919  0.72004  1.0000
  H   H213      1.0  0.42783  0.67449  0.67763  1.0000
  O  Te21      1.0  0.43472  0.50790  0.64324  1.0000
  O  Te22      1.0  0.39387  0.49188  0.71445  1.0000
  H   H214      1.0  0.39221  0.66057  0.73972  1.0000
  Mg  Mg11      1.0  0.41558  0.44932  0.66985  1.0000
  C   C309      1.0  0.06967  0.89683  0.04251  1.0000
  C   C310      1.0  0.06902  0.94099  0.01479  1.0000
  C  Sn23      1.0  0.08663  0.95087  0.97552  1.0000
  C  Sn24      1.0  0.10532  0.91303  0.96388  1.0000
  C   C311      1.0  0.10580  0.86898  0.99181  1.0000
  C   C312      1.0  0.08809  0.85949  0.03103  1.0000
  H   H215      1.0  0.05588  0.89159  0.07284  1.0000
  O  Te23      1.0  0.08571  0.99522  0.94822  1.0000
  O  Te24      1.0  0.12325  0.91920  0.92482  1.0000
  H   H216      1.0  0.08859  0.82529  0.05247  1.0000
  Mg  Mg12      1.0  0.11424  0.98617  0.89847  1.0000
  C   C313      1.0  0.16323  0.30855  0.57467  1.0000
  C   C314      1.0  0.17616  0.32649  0.53230  1.0000
  C  Sn25      1.0  0.17312  0.30240  0.48633  1.0000
  C  Sn26      1.0  0.15681  0.25956  0.48282  1.0000
  C   C315      1.0  0.14394  0.24192  0.52541  1.0000
  C   C316      1.0  0.14713  0.26631  0.57123  1.0000
  H   H217      1.0  0.16569  0.32743  0.61012  1.0000
  O  Te25      1.0  0.18619  0.32081  0.44438  1.0000
  O  Te26      1.0  0.15342  0.23477  0.43733  1.0000
  H   H218      1.0  0.13711  0.25243  0.60402  1.0000
  Mg  Mg13      1.0  0.17536  0.27412  0.39072  1.0000
  C   C317      1.0  0.90148  0.08755  0.45447  1.0000
  C   C318      1.0  0.89462  0.12152  0.49204  1.0000
  C  Sn27      1.0  0.90752  0.12034  0.53811  1.0000
  C  Sn28      1.0  0.92766  0.08445  0.54661  1.0000
  C   C319      1.0  0.93440  0.05066  0.50876  1.0000
  C   C320      1.0  0.92136  0.05216  0.46280  1.0000
  H   H219      1.0  0.89140  0.08873  0.41890  1.0000
  O  Te27      1.0  0.90040  0.15453  0.57525  1.0000
  O  Te28      1.0  0.94088  0.08245  0.59229  1.0000
  H   H220      1.0  0.92669  0.02588  0.43371  1.0000
  Mg  Mg14      1.0  0.92414  0.13695  0.63128  1.0000
  C   C321      1.0  0.66393  0.46258  0.67863  1.0000
  C   C322      1.0  0.65357  0.42048  0.70225  1.0000
  C  Sn29      1.0  0.65846  0.37276  0.68301  1.0000
  C  Sn30      1.0  0.67403  0.36720  0.63931  1.0000
  C   C323      1.0  0.68432  0.40955  0.61597  1.0000
  C   C324      1.0  0.67929  0.45713  0.63554  1.0000
  H   H221      1.0  0.66005  0.49939  0.69378  1.0000
  O  Te29      1.0  0.64796  0.33110  0.70706  1.0000
  O  Te30      1.0  0.67923  0.31995  0.61929  1.0000
  H   H222      1.0  0.68733  0.48971  0.61726  1.0000
  Mg  Mg15      1.0  0.66055  0.27454  0.66548  1.0000
  C   C325      1.0  0.57273  0.52031  0.33861  1.0000
  C   C326      1.0  0.56919  0.55374  0.37824  1.0000
  C  Sn31      1.0  0.58583  0.59490  0.38359  1.0000
  C  Sn32      1.0  0.60639  0.60265  0.34854  1.0000
  C   C327      1.0  0.60976  0.56901  0.30900  1.0000
  C   C328      1.0  0.59299  0.52794  0.30401  1.0000
  H   H223      1.0  0.55976  0.48854  0.33473  1.0000
  O  Te31      1.0  0.58202  0.62792  0.42342  1.0000
  O  Te32      1.0  0.62330  0.64349  0.35299  1.0000
  H   H224      1.0  0.59573  0.50208  0.27330  1.0000
  Mg  Mg16      1.0  0.61018  0.67806  0.41360  1.0000
