data_image0
_chemical_formula_structural       H128C168N32C2Sn2C2HTe2HMgC2Sn2C2HTe2HMgC2Sn2C2HTe2HMgC2Sn2C2HTe2HMgC2Sn2C2HTe2HMgC2Sn2C2HTe2HMgC2Sn2C2HTe2HMgC2Sn2C2HTe2HMgC2Sn2C2HTe2HMgC2Sn2C2HTe2HMgC2Sn2C2HTe2HMgC2Sn2C2HTe2HMgC2Sn2C2HTe2HMgC2Sn2C2HTe2HMgC2Sn2C2HTe2HMgC2Sn2C2HTe2HMgC2Sn2C2HTe2HMgC2Sn2C2HTe2HMgC2Sn2C2HTe2HMgC2Sn2C2HTe2HMgC2Sn2C2HTe2HMgC2Sn2C2HTe2HMgC2Sn2C2HTe2HMgC2Sn2C2HTe2HMgC2Sn2C2HTe2HMgC2Sn2C2HTe2HMgC2Sn2C2HTe2HMgC2Sn2C2HTe2HMgC2Sn2C2HTe2HMgC2Sn2C2HTe2HMgC2Sn2C2HTe2HMgC2Sn2C2HTe2HMg
_chemical_formula_sum              "H192 C296 N32 Sn64 Te64 Mg32"
_cell_length_a       50.7288
_cell_length_b       26.7589
_cell_length_c       26.7813
_cell_angle_alpha    90.1562
_cell_angle_beta     89.9891
_cell_angle_gamma    89.8106

_symmetry_space_group_name_H-M    'P1'
_space_group_IT_number       1

loop_
  _space_group_symop_operation_xyz
  'x, y, z'

loop_
  _atom_site_type_symbol
  _atom_site_label
  _atom_site_symmetry_multiplicity
  _atom_site_fract_x
  _atom_site_fract_y
  _atom_site_fract_z
  _atom_site_occupancy
  H   H1        1.0  0.64000  0.41901  0.49126  1.0000
  H   H2        1.0  0.36073  0.59176  0.99754  1.0000
  H   H3        1.0  0.63972  0.57555  0.99408  1.0000
  H   H4        1.0  0.35704  0.36277  0.51955  1.0000
  H   H5        1.0  0.64231  0.43971  0.55435  1.0000
  H   H6        1.0  0.35695  0.54784  0.04646  1.0000
  H   H7        1.0  0.64251  0.57456  0.06037  1.0000
  H   H8        1.0  0.35984  0.42400  0.49598  1.0000
  H   H9        1.0  0.64266  0.37532  0.54074  1.0000
  H   H10       1.0  0.35686  0.61208  0.06052  1.0000
  H   H11       1.0  0.64139  0.63201  0.02841  1.0000
  H   H12       1.0  0.35832  0.41386  0.56171  1.0000
  H   H13       1.0  0.75280  0.45239  0.60915  1.0000
  H   H14       1.0  0.23969  0.58219  0.10486  1.0000
  H   H15       1.0  0.75236  0.55587  0.10860  1.0000
  H   H16       1.0  0.25122  0.45649  0.61164  1.0000
  H   H17       1.0  0.75149  0.38698  0.61463  1.0000
  H   H18       1.0  0.26672  0.60572  0.14024  1.0000
  H   H19       1.0  0.75150  0.62150  0.11153  1.0000
  H   H20       1.0  0.24611  0.39151  0.61264  1.0000
  H   H21       1.0  0.72716  0.42430  0.64471  1.0000
  H   H22       1.0  0.26338  0.54090  0.13111  1.0000
  H   H23       1.0  0.72696  0.58651  0.14319  1.0000
  H   H24       1.0  0.27355  0.41750  0.64494  1.0000
  H   H25       1.0  0.72471  0.38373  0.39903  1.0000
  H   H26       1.0  0.28074  0.59836  0.89460  1.0000
  H   H27       1.0  0.72253  0.61477  0.89517  1.0000
  H   H28       1.0  0.27995  0.40702  0.39222  1.0000
  H   H29       1.0  0.75407  0.40887  0.42568  1.0000
  H   H30       1.0  0.25241  0.62189  0.92617  1.0000
  H   H31       1.0  0.75318  0.60034  0.92474  1.0000
  H   H32       1.0  0.25332  0.37557  0.42144  1.0000
  H   H33       1.0  0.72906  0.44886  0.40209  1.0000
  H   H34       1.0  0.25590  0.55717  0.91657  1.0000
  H   H35       1.0  0.73217  0.55198  0.90365  1.0000
  H   H36       1.0  0.25341  0.44129  0.41935  1.0000
  H   H37       1.0  0.85855  0.42166  0.54487  1.0000
  H   H38       1.0  0.14159  0.57013  0.04025  1.0000
  H   H39       1.0  0.85624  0.54189  0.99783  1.0000
  H   H40       1.0  0.14437  0.45954  0.48853  1.0000
  H   H41       1.0  0.85646  0.45436  0.48772  1.0000
  H   H42       1.0  0.14446  0.54316  0.98023  1.0000
  H   H43       1.0  0.85721  0.60817  0.99182  1.0000
  H   H44       1.0  0.14434  0.39328  0.48178  1.0000
  H   H45       1.0  0.85666  0.38771  0.48849  1.0000
  H   H46       1.0  0.14305  0.60938  0.98742  1.0000
  H   H47       1.0  0.85689  0.58064  0.05148  1.0000
  H   H48       1.0  0.14112  0.42046  0.54146  1.0000
  H   H49       1.0  0.74480  0.32857  0.53811  1.0000
  H   H50       1.0  0.25576  0.67154  0.02503  1.0000
  H   H51       1.0  0.75246  0.68205  0.05184  1.0000
  H   H52       1.0  0.25226  0.32621  0.54617  1.0000
  H   H53       1.0  0.77593  0.29786  0.54479  1.0000
  H   H54       1.0  0.22674  0.69645  0.05330  1.0000
  H   H55       1.0  0.77800  0.71011  0.01634  1.0000
  H   H56       1.0  0.22204  0.29431  0.53421  1.0000
  H   H57       1.0  0.76204  0.30648  0.48503  1.0000
  H   H58       1.0  0.23066  0.69958  0.98814  1.0000
  H   H59       1.0  0.75031  0.68237  0.98633  1.0000
  H   H60       1.0  0.24300  0.31186  0.48441  1.0000
  H   H61       1.0  0.77248  0.54462  0.52376  1.0000
  H   H62       1.0  0.22820  0.45377  0.00523  1.0000
  H   H63       1.0  0.77109  0.45795  0.02168  1.0000
  H   H64       1.0  0.22950  0.54360  0.52661  1.0000
  H   H65       1.0  0.74303  0.50911  0.53135  1.0000
  H   H66       1.0  0.25134  0.48449  0.04443  1.0000
  H   H67       1.0  0.74173  0.49404  0.02995  1.0000
  H   H68       1.0  0.25876  0.50645  0.53087  1.0000
  H   H69       1.0  0.75510  0.52207  0.47107  1.0000
  H   H70       1.0  0.25485  0.48808  0.97918  1.0000
  H   H71       1.0  0.75411  0.48247  0.96942  1.0000
  H   H72       1.0  0.24544  0.52172  0.47201  1.0000
  H   H73       1.0  0.60005  0.55461  0.46489  1.0000
  H   H74       1.0  0.39885  0.42945  0.97139  1.0000
  H   H75       1.0  0.60047  0.43445  0.96599  1.0000
  H   H76       1.0  0.39897  0.56603  0.47318  1.0000
  H   H77       1.0  0.60104  0.56318  0.56531  1.0000
  H   H78       1.0  0.39975  0.42030  0.07212  1.0000
  H   H79       1.0  0.60146  0.42402  0.06603  1.0000
  H   H80       1.0  0.40008  0.57495  0.57368  1.0000
  H   H81       1.0  0.47096  0.56653  0.32905  1.0000
  H   H82       1.0  0.52495  0.43314  0.82715  1.0000
  H   H83       1.0  0.47173  0.43515  0.82905  1.0000
  H   H84       1.0  0.52407  0.56713  0.32551  1.0000
  H   H85       1.0  0.47599  0.59027  0.70967  1.0000
  H   H86       1.0  0.52831  0.41140  0.20823  1.0000
  H   H87       1.0  0.47505  0.41264  0.20962  1.0000
  H   H88       1.0  0.52938  0.58861  0.70689  1.0000
  H   H89       1.0  0.50048  0.56918  0.47765  1.0000
  H   H90       1.0  0.49968  0.43214  0.97854  1.0000
  H   H91       1.0  0.50036  0.58346  0.55806  1.0000
  H   H92       1.0  0.50069  0.41748  0.05853  1.0000
  H   H93       1.0  0.10101  0.97117  0.52227  1.0000
  H   H94       1.0  0.89928  0.02885  0.02549  1.0000
  H   H95       1.0  0.10057  0.03148  0.01734  1.0000
  H   H96       1.0  0.89901  0.96885  0.50966  1.0000
  H   H97       1.0  0.10097  0.87028  0.52583  1.0000
  H   H98       1.0  0.89869  0.12931  0.03208  1.0000
  H   H99       1.0  0.09986  0.13238  0.02259  1.0000
  H   H100      1.0  0.89903  0.86815  0.51537  1.0000
  H   H101      1.0  0.85808  0.67451  0.46424  1.0000
  H   H102      1.0  0.13808  0.32940  0.95620  1.0000
  H   H103      1.0  0.86955  0.34086  0.96206  1.0000
  H   H104      1.0  0.14445  0.67905  0.46739  1.0000
  H   H105      1.0  0.97844  0.91773  0.51270  1.0000
  H   H106      1.0  0.97772  0.08160  0.00951  1.0000
  H   H107      1.0  0.02173  0.92142  0.51415  1.0000
  H   H108      1.0  0.02104  0.08068  0.01094  1.0000
  H   H109      1.0  0.97452  0.72809  0.51842  1.0000
  H   H110      1.0  0.97204  0.27182  0.01179  1.0000
  H   H111      1.0  0.02515  0.27210  0.01064  1.0000
  H   H112      1.0  0.02765  0.72946  0.51929  1.0000
  H   H113      1.0  0.38815  0.64581  0.80712  1.0000
  H   H114      1.0  0.61251  0.63862  0.79877  1.0000
  H   H115      1.0  0.62973  0.63766  0.26229  1.0000
  H   H116      1.0  0.62882  0.36553  0.75968  1.0000
  H   H117      1.0  0.62474  0.34642  0.28964  1.0000
  H   H118      1.0  0.37812  0.34216  0.29165  1.0000
  H   H119      1.0  0.36470  0.63158  0.26865  1.0000
  H   H120      1.0  0.12478  0.18991  0.57467  1.0000
  H   H121      1.0  0.12471  0.81191  0.06835  1.0000
  H   H122      1.0  0.02670  0.89340  0.98125  1.0000
  H   H123      1.0  0.87509  0.81401  0.07088  1.0000
  H   H124      1.0  0.97367  0.89301  0.98217  1.0000
  H   H125      1.0  0.87278  0.18422  0.57271  1.0000
  H   H126      1.0  0.02563  0.11000  0.49619  1.0000
  H   H127      1.0  0.97253  0.10819  0.49428  1.0000
  H   H128      1.0  0.36509  0.36139  0.76753  1.0000
  C   C1        1.0  0.44421  0.57885  0.56182  1.0000
  C   C2        1.0  0.55703  0.42155  0.05764  1.0000
  C   C3        1.0  0.44400  0.42245  0.06098  1.0000
  C   C4        1.0  0.55695  0.57344  0.55624  1.0000
  C   C5        1.0  0.45273  0.58442  0.61161  1.0000
  C   C6        1.0  0.54950  0.41613  0.10800  1.0000
  C   C7        1.0  0.45245  0.41740  0.11082  1.0000
  C   C8        1.0  0.54966  0.58041  0.60655  1.0000
  C   C9        1.0  0.58418  0.56562  0.54063  1.0000
  C   C10       1.0  0.41624  0.42325  0.04662  1.0000
  C   C11       1.0  0.58444  0.42503  0.04168  1.0000
  C   C12       1.0  0.41651  0.57471  0.54790  1.0000
  C   C13       1.0  0.97735  0.18791  0.01794  1.0000
  C   C14       1.0  0.02185  0.81352  0.52029  1.0000
  C   C15       1.0  0.97884  0.81241  0.51961  1.0000
  C   C16       1.0  0.02039  0.18811  0.01677  1.0000
  C   C17       1.0  0.98529  0.24017  0.01453  1.0000
  C   C18       1.0  0.01420  0.76096  0.51988  1.0000
  C   C19       1.0  0.98738  0.76028  0.51958  1.0000
  C   C20       1.0  0.01212  0.24030  0.01388  1.0000
  C   C21       1.0  0.04715  0.17331  0.01700  1.0000
  C   C22       1.0  0.95202  0.82665  0.51802  1.0000
  C   C23       1.0  0.04843  0.82893  0.52065  1.0000
  C   C24       1.0  0.95068  0.17274  0.02004  1.0000
  C   C25       1.0  0.44337  0.57216  0.48067  1.0000
  C   C26       1.0  0.55623  0.42837  0.97652  1.0000
  C   C27       1.0  0.44324  0.42897  0.97994  1.0000
  C   C28       1.0  0.55621  0.56762  0.47496  1.0000
  C   C29       1.0  0.45071  0.56842  0.42999  1.0000
  C   C30       1.0  0.54787  0.43176  0.92633  1.0000
  C   C31       1.0  0.45071  0.43275  0.92945  1.0000
  C   C32       1.0  0.54794  0.56646  0.42450  1.0000
  C   C33       1.0  0.58371  0.56168  0.48995  1.0000
  C   C34       1.0  0.41577  0.42749  0.99600  1.0000
  C   C35       1.0  0.58394  0.42990  0.99111  1.0000
  C   C36       1.0  0.41596  0.57037  0.49725  1.0000
  C   C37       1.0  0.97849  0.97469  0.00314  1.0000
  C   C38       1.0  0.02137  0.02672  0.50910  1.0000
  C   C39       1.0  0.97836  0.02528  0.50724  1.0000
  C   C40       1.0  0.02154  0.97484  0.00241  1.0000
  C   C41       1.0  0.98668  0.92384  0.99073  1.0000
  C   C42       1.0  0.01279  0.07819  0.50124  1.0000
  C   C43       1.0  0.98598  0.07731  0.50032  1.0000
  C   C44       1.0  0.01351  0.92397  0.99028  1.0000
  C   C45       1.0  0.04829  0.98943  0.00554  1.0000
  C   C46       1.0  0.95173  0.01001  0.50735  1.0000
  C   C47       1.0  0.04823  0.01266  0.51180  1.0000
  C   C48       1.0  0.95170  0.98896  0.00745  1.0000
  C   C49       1.0  0.47916  0.58749  0.62681  1.0000
  C   C50       1.0  0.52341  0.41333  0.12546  1.0000
  C   C51       1.0  0.47879  0.41436  0.12667  1.0000
  C   C52       1.0  0.52378  0.58577  0.62440  1.0000
  C   C53       1.0  0.48868  0.58962  0.67718  1.0000
  C   C54       1.0  0.51501  0.41183  0.17661  1.0000
  C   C55       1.0  0.48790  0.41250  0.17735  1.0000
  C   C56       1.0  0.51580  0.58870  0.67573  1.0000
  C   C57       1.0  0.47669  0.56666  0.41165  1.0000
  C   C58       1.0  0.52148  0.43341  0.91023  1.0000
  C   C59       1.0  0.47677  0.43427  0.91173  1.0000
  C   C60       1.0  0.52143  0.56635  0.40871  1.0000
  C   C61       1.0  0.48456  0.56621  0.36020  1.0000
  C   C62       1.0  0.51222  0.43393  0.85961  1.0000
  C   C63       1.0  0.48509  0.43471  0.86054  1.0000
  C   C64       1.0  0.51169  0.56645  0.35841  1.0000
  C   C65       1.0  0.05736  0.87851  0.51900  1.0000
  C   C66       1.0  0.94198  0.12287  0.01860  1.0000
  C   C67       1.0  0.05637  0.12373  0.01501  1.0000
  C   C68       1.0  0.94280  0.87598  0.51390  1.0000
  C   C69       1.0  0.08418  0.89506  0.52202  1.0000
  C   C70       1.0  0.91551  0.10539  0.02489  1.0000
  C   C71       1.0  0.08327  0.10744  0.01808  1.0000
  C   C72       1.0  0.91591  0.89268  0.51328  1.0000
  C   C73       1.0  0.05741  0.96314  0.51537  1.0000
  C   C74       1.0  0.94247  0.03830  0.01307  1.0000
  C   C75       1.0  0.05699  0.03911  0.01017  1.0000
  C   C76       1.0  0.94276  0.96049  0.50909  1.0000
  C   C77       1.0  0.08419  0.94648  0.52013  1.0000
  C   C78       1.0  0.91580  0.05405  0.02154  1.0000
  C   C79       1.0  0.08363  0.05606  0.01536  1.0000
  C   C80       1.0  0.91589  0.94403  0.51041  1.0000
  C   C81       1.0  0.63536  0.40364  0.75050  1.0000
  C   C82       1.0  0.36082  0.59285  0.25679  1.0000
  C   C83       1.0  0.63561  0.59985  0.25020  1.0000
  C   C84       1.0  0.36225  0.39980  0.75384  1.0000
  C   C85       1.0  0.69471  0.41582  0.56709  1.0000
  C   C86       1.0  0.30481  0.58242  0.06951  1.0000
  C   C87       1.0  0.69439  0.59176  0.06578  1.0000
  C   C88       1.0  0.30571  0.41044  0.56709  1.0000
  C   C89       1.0  0.72235  0.41809  0.56436  1.0000
  C   C90       1.0  0.27713  0.58086  0.06597  1.0000
  C   C91       1.0  0.72204  0.58923  0.06281  1.0000
  C   C92       1.0  0.27804  0.41491  0.56454  1.0000
  C   C93       1.0  0.73467  0.41752  0.51705  1.0000
  C   C94       1.0  0.26531  0.58284  0.01848  1.0000
  C   C95       1.0  0.73419  0.58755  0.01543  1.0000
  C   C96       1.0  0.26560  0.41450  0.51755  1.0000
  C   C97       1.0  0.71962  0.41476  0.47308  1.0000
  C   C98       1.0  0.28082  0.58699  0.97500  1.0000
  C   C99       1.0  0.71903  0.58919  0.97149  1.0000
  C   C100      1.0  0.28041  0.40983  0.47331  1.0000
  C   C101      1.0  0.69185  0.41236  0.47652  1.0000
  C   C102      1.0  0.30858  0.58841  0.97905  1.0000
  C   C103      1.0  0.69126  0.59168  0.97505  1.0000
  C   C104      1.0  0.30805  0.40562  0.47644  1.0000
  C   C105      1.0  0.67920  0.41337  0.52328  1.0000
  C   C106      1.0  0.32076  0.58553  0.02651  1.0000
  C   C107      1.0  0.67877  0.59254  0.02213  1.0000
  C   C108      1.0  0.32091  0.40603  0.52319  1.0000
  C   C109      1.0  0.76408  0.41877  0.51459  1.0000
  C   C110      1.0  0.23597  0.58117  0.01391  1.0000
  C   C111      1.0  0.76359  0.58449  0.01322  1.0000
  C   C112      1.0  0.23624  0.41784  0.51488  1.0000
  C   C113      1.0  0.77713  0.46502  0.51069  1.0000
  C   C114      1.0  0.22348  0.53433  0.00931  1.0000
  C   C115      1.0  0.77618  0.53756  0.01093  1.0000
  C   C116      1.0  0.22374  0.46475  0.51156  1.0000
  C   C117      1.0  0.80492  0.46591  0.50890  1.0000
  C   C118      1.0  0.19578  0.53223  0.00634  1.0000
  C   C119      1.0  0.80397  0.53524  0.01116  1.0000
  C   C120      1.0  0.19594  0.46715  0.50944  1.0000
  C   C121      1.0  0.81961  0.42103  0.51114  1.0000
  C   C122      1.0  0.18056  0.57659  0.00755  1.0000
  C   C123      1.0  0.81912  0.57928  0.01357  1.0000
  C   C124      1.0  0.18078  0.42301  0.51052  1.0000
  C   C125      1.0  0.80617  0.37531  0.51579  1.0000
  C   C126      1.0  0.19340  0.62288  0.01247  1.0000
  C   C127      1.0  0.80611  0.62591  0.01587  1.0000
  C   C128      1.0  0.19368  0.37651  0.51515  1.0000
  C   C129      1.0  0.77844  0.37369  0.51742  1.0000
  C   C130      1.0  0.22112  0.62564  0.01543  1.0000
  C   C131      1.0  0.77841  0.62892  0.01542  1.0000
  C   C132      1.0  0.22135  0.37349  0.51699  1.0000
  C   C133      1.0  0.86230  0.65154  0.49735  1.0000
  C   C134      1.0  0.13708  0.34796  0.99290  1.0000
  C   C135      1.0  0.86546  0.35361  0.00041  1.0000
  C   C136      1.0  0.13941  0.65454  0.49889  1.0000
  C   C137      1.0  0.63062  0.38543  0.29652  1.0000
  C   C138      1.0  0.37544  0.61253  0.80572  1.0000
  C   C139      1.0  0.62665  0.60728  0.79791  1.0000
  C   C140      1.0  0.37178  0.38084  0.29917  1.0000
  C   C141      1.0  0.86828  0.19503  0.53398  1.0000
  C   C142      1.0  0.13047  0.80254  0.02978  1.0000
  C   C143      1.0  0.86976  0.80356  0.03239  1.0000
  C   C144      1.0  0.13024  0.19902  0.53597  1.0000
  C   C145      1.0  0.73914  0.42064  0.61088  1.0000
  C   C146      1.0  0.26071  0.57735  0.11285  1.0000
  C   C147      1.0  0.73892  0.58815  0.10922  1.0000
  C   C148      1.0  0.26152  0.42025  0.61114  1.0000
  C   C149      1.0  0.64948  0.41188  0.52731  1.0000
  C   C150      1.0  0.35041  0.58454  0.03263  1.0000
  C   C151      1.0  0.64904  0.59353  0.02634  1.0000
  C   C152      1.0  0.35060  0.40166  0.52549  1.0000
  C   C153      1.0  0.73271  0.41384  0.42242  1.0000
  C   C154      1.0  0.26698  0.59141  0.92524  1.0000
  C   C155      1.0  0.73248  0.58926  0.92113  1.0000
  C   C156      1.0  0.26624  0.40844  0.42375  1.0000
  C   C157      1.0  0.76451  0.32410  0.52193  1.0000
  C   C158      1.0  0.23440  0.67581  0.02083  1.0000
  C   C159      1.0  0.76426  0.67866  0.01751  1.0000
  C   C160      1.0  0.23526  0.32372  0.52100  1.0000
  C   C161      1.0  0.76118  0.51283  0.50943  1.0000
  C   C162      1.0  0.24017  0.48747  0.00939  1.0000
  C   C163      1.0  0.75998  0.49040  0.00821  1.0000
  C   C164      1.0  0.24019  0.51170  0.51059  1.0000
  C   C165      1.0  0.84937  0.42131  0.50764  1.0000
  C   C166      1.0  0.15086  0.57470  0.00339  1.0000
  C   C167      1.0  0.84891  0.57719  0.01341  1.0000
  C   C168      1.0  0.15110  0.42441  0.50520  1.0000
  N   N1        1.0  0.37705  0.57977  0.77031  1.0000
  N   N2        1.0  0.62367  0.42213  0.26814  1.0000
  N   N3        1.0  0.37856  0.41821  0.27165  1.0000
  N   N4        1.0  0.62726  0.57558  0.76149  1.0000
  N   N5        1.0  0.87597  0.33244  0.03893  1.0000
  N   N6        1.0  0.12106  0.66518  0.53066  1.0000
  N   N7        1.0  0.87982  0.66336  0.53029  1.0000
  N   N8        1.0  0.12196  0.33295  0.02867  1.0000
  N   N9        1.0  0.37136  0.55469  0.27860  1.0000
  N   N10       1.0  0.62693  0.44249  0.77450  1.0000
  N   N11       1.0  0.37310  0.43827  0.77448  1.0000
  N   N12       1.0  0.62644  0.56007  0.27110  1.0000
  N   N13       1.0  0.87758  0.82895  0.99423  1.0000
  N   N14       1.0  0.12248  0.17257  0.49836  1.0000
  N   N15       1.0  0.87730  0.17077  0.49582  1.0000
  N   N16       1.0  0.12313  0.82926  0.99211  1.0000
  N   N17       1.0  0.95760  0.08106  0.01174  1.0000
  N   N18       1.0  0.04189  0.92086  0.51510  1.0000
  N   N19       1.0  0.95831  0.91813  0.51082  1.0000
  N   N20       1.0  0.04119  0.08124  0.01035  1.0000
  N   N21       1.0  0.46025  0.57707  0.52044  1.0000
  N   N22       1.0  0.54015  0.42376  0.01753  1.0000
  N   N23       1.0  0.46012  0.42599  0.01996  1.0000
  N   N24       1.0  0.54017  0.57392  0.51584  1.0000
  N   N25       1.0  0.49959  0.56652  0.43959  1.0000
  N   N26       1.0  0.49940  0.43372  0.94041  1.0000
  N   N27       1.0  0.50104  0.58592  0.59614  1.0000
  N   N28       1.0  0.50089  0.41441  0.09659  1.0000
  N   N29       1.0  0.00007  0.84426  0.51977  1.0000
  N   N30       1.0  0.99897  0.15678  0.01838  1.0000
  N   N31       1.0  0.00015  0.99498  0.51213  1.0000
  N   N32       1.0  0.99996  0.00538  0.00913  1.0000
  C   C169      1.0  0.41653  0.53288  0.67650  1.0000
  C   C170      1.0  0.42865  0.57340  0.65314  1.0000
  C  Sn1       1.0  0.42450  0.62194  0.67089  1.0000
  C  Sn2       1.0  0.40790  0.62994  0.71282  1.0000
  C   C171      1.0  0.39588  0.58915  0.73594  1.0000
  C   C172      1.0  0.40016  0.54074  0.71786  1.0000
  H   H129      1.0  0.41986  0.49542  0.66253  1.0000
  O  Te1       1.0  0.43675  0.66200  0.64710  1.0000
  O  Te2       1.0  0.40341  0.67805  0.73134  1.0000
  H   H130      1.0  0.39079  0.50937  0.73598  1.0000
  Mg  Mg1       1.0  0.42453  0.72059  0.68620  1.0000
  C   C173      1.0  0.57777  0.36505  0.18652  1.0000
  C   C174      1.0  0.57001  0.40446  0.15565  1.0000
  C  Sn3       1.0  0.58208  0.45113  0.15992  1.0000
  C  Sn4       1.0  0.60230  0.45836  0.19578  1.0000
  C   C175      1.0  0.60994  0.41869  0.22647  1.0000
  C   C176      1.0  0.59773  0.37215  0.22189  1.0000
  H   H131      1.0  0.56833  0.32903  0.18297  1.0000
  O  Te3       1.0  0.57407  0.49010  0.12879  1.0000
  O  Te4       1.0  0.61470  0.50462  0.20082  1.0000
  H   H132      1.0  0.60376  0.34164  0.24578  1.0000
  Mg  Mg2       1.0  0.59690  0.54624  0.14986  1.0000
  C   C177      1.0  0.42509  0.36439  0.18870  1.0000
  C   C178      1.0  0.43050  0.40347  0.15578  1.0000
  C  Sn5       1.0  0.41870  0.45024  0.16266  1.0000
  C  Sn6       1.0  0.40119  0.45792  0.20330  1.0000
  C   C179      1.0  0.39592  0.41860  0.23604  1.0000
  C   C180      1.0  0.40782  0.37194  0.22880  1.0000
  H   H133      1.0  0.43431  0.32829  0.18312  1.0000
  O  Te5       1.0  0.42432  0.48887  0.12941  1.0000
  O  Te6       1.0  0.38914  0.50430  0.21105  1.0000
  H   H134      1.0  0.40365  0.34170  0.25432  1.0000
  Mg  Mg3       1.0  0.40303  0.54533  0.15560  1.0000
  C   C181      1.0  0.59662  0.52785  0.69092  1.0000
  C   C182      1.0  0.60896  0.56844  0.71396  1.0000
  C  Sn7       1.0  0.60108  0.61723  0.70285  1.0000
  C  Sn8       1.0  0.58045  0.62543  0.66801  1.0000
  C   C183      1.0  0.56822  0.58457  0.64518  1.0000
  C   C184      1.0  0.57627  0.53590  0.65657  1.0000
  H   H135      1.0  0.60284  0.49019  0.69974  1.0000
  O  Te7       1.0  0.61362  0.65735  0.72620  1.0000
  O  Te8       1.0  0.57218  0.67381  0.65623  1.0000
  H   H136      1.0  0.56671  0.50448  0.63874  1.0000
  Mg  Mg4       1.0  0.59535  0.71633  0.69784  1.0000
  C   C185      1.0  0.07626  0.75170  0.57456  1.0000
  C   C186      1.0  0.07058  0.78445  0.53542  1.0000
  C  Sn9       1.0  0.08183  0.77692  0.48836  1.0000
  C  Sn10      1.0  0.09907  0.73579  0.48045  1.0000
  C   C187      1.0  0.10461  0.70322  0.51984  1.0000
  C   C188      1.0  0.09325  0.71112  0.56678  1.0000
  H   H137      1.0  0.06746  0.75779  0.61087  1.0000
  O  Te9       1.0  0.07595  0.81001  0.44968  1.0000
  O  Te10      1.0  0.11058  0.72737  0.43380  1.0000
  H   H138      1.0  0.09764  0.68574  0.59707  1.0000
  Mg  Mg5       1.0  0.09650  0.78284  0.39280  1.0000
  C   C189      1.0  0.91742  0.27635  0.07603  1.0000
  C   C190      1.0  0.89798  0.29090  0.04201  1.0000
  C  Sn11      1.0  0.89370  0.26589  0.99847  1.0000
  C  Sn12      1.0  0.90929  0.22279  0.98892  1.0000
  C   C191      1.0  0.92877  0.20580  0.02320  1.0000
  C   C192      1.0  0.93280  0.23383  0.06664  1.0000
  H   H139      1.0  0.92052  0.29802  0.10965  1.0000
  O  Te11      1.0  0.87421  0.28096  0.96488  1.0000
  O  Te12      1.0  0.90552  0.19437  0.94571  1.0000
  H   H140      1.0  0.94783  0.22254  0.09298  1.0000
  Mg  Mg6       1.0  0.87653  0.23002  0.91124  1.0000
  C   C193      1.0  0.08208  0.27662  0.06926  1.0000
  C   C194      1.0  0.10181  0.28830  0.03483  1.0000
  C  Sn13      1.0  0.10345  0.26503  0.98963  1.0000
  C  Sn14      1.0  0.08507  0.22664  0.97881  1.0000
  C   C195      1.0  0.06550  0.21253  0.01349  1.0000
  C   C196      1.0  0.06394  0.23878  0.05860  1.0000
  H   H141      1.0  0.08086  0.29694  0.10416  1.0000
  O  Te13      1.0  0.12329  0.27716  0.95566  1.0000
  O  Te14      1.0  0.08635  0.20007  0.93391  1.0000
  H   H142      1.0  0.04865  0.22975  0.08524  1.0000
  Mg  Mg7       1.0  0.11694  0.23033  0.89957  1.0000
  C   C197      1.0  0.90144  0.74491  0.47379  1.0000
  C   C198      1.0  0.89710  0.71061  0.51215  1.0000
  C  Sn15      1.0  0.90985  0.71620  0.55806  1.0000
  C  Sn16      1.0  0.92725  0.75694  0.56559  1.0000
  C   C199      1.0  0.93145  0.79107  0.52699  1.0000
  C   C200      1.0  0.91859  0.78511  0.48119  1.0000
  H   H143      1.0  0.89149  0.74032  0.43836  1.0000
  O  Te15      1.0  0.90530  0.68158  0.59598  1.0000
  O  Te16      1.0  0.94024  0.76343  0.61111  1.0000
  H   H144      1.0  0.92195  0.81169  0.45151  1.0000
  Mg  Mg8       1.0  0.92761  0.70637  0.65138  1.0000
  C   C201      1.0  0.09478  0.94318  0.96173  1.0000
  C   C202      1.0  0.07288  0.94916  0.99287  1.0000
  C  Sn17      1.0  0.06776  0.91151  0.03024  1.0000
  C  Sn18      1.0  0.08482  0.86987  0.03648  1.0000
  C   C203      1.0  0.10669  0.86424  0.00517  1.0000
  C   C204      1.0  0.11163  0.90213  0.96788  1.0000
  H   H145      1.0  0.09869  0.97040  0.93290  1.0000
  O  Te17      1.0  0.04579  0.91805  0.06101  1.0000
  O  Te18      1.0  0.08007  0.83441  0.07355  1.0000
  H   H146      1.0  0.12859  0.89750  0.94380  1.0000
  Mg  Mg9       1.0  0.04760  0.85964  0.10616  1.0000
  C   C205      1.0  0.92576  0.09458  0.55259  1.0000
  C   C206      1.0  0.92994  0.05647  0.51767  1.0000
  C  Sn19      1.0  0.91674  0.05719  0.47190  1.0000
  C  Sn20      1.0  0.89905  0.09686  0.46098  1.0000
  C   C207      1.0  0.89502  0.13483  0.49615  1.0000
  C   C208      1.0  0.90832  0.13373  0.54185  1.0000
  H   H147      1.0  0.93606  0.09374  0.58794  1.0000
  O  Te19      1.0  0.92113  0.01881  0.43743  1.0000
  O  Te20      1.0  0.88560  0.09851  0.41551  1.0000
  H   H148      1.0  0.90509  0.16326  0.56887  1.0000
  Mg  Mg10      1.0  0.89817  0.03760  0.38064  1.0000
  C   C209      1.0  0.10239  0.08282  0.46345  1.0000
  C   C210      1.0  0.10417  0.12521  0.49384  1.0000
  C  Sn21      1.0  0.08792  0.13026  0.53568  1.0000
  C  Sn22      1.0  0.06956  0.09210  0.54722  1.0000
  C   C211      1.0  0.06794  0.04982  0.51660  1.0000
  C   C212      1.0  0.08430  0.04516  0.47481  1.0000
  H   H149      1.0  0.11505  0.07919  0.43113  1.0000
  O  Te21      1.0  0.08995  0.17286  0.56564  1.0000
  O  Te22      1.0  0.05309  0.09618  0.58882  1.0000
  H   H150      1.0  0.08292  0.01232  0.45130  1.0000
  Mg  Mg11      1.0  0.06323  0.16129  0.61826  1.0000
  C   C213      1.0  0.90659  0.94113  0.96173  1.0000
  C   C214      1.0  0.92587  0.95085  0.99770  1.0000
  C  Sn23      1.0  0.93083  0.91374  0.03580  1.0000
  C  Sn24      1.0  0.91609  0.86882  0.03782  1.0000
  C   C215      1.0  0.89686  0.85943  0.00163  1.0000
  C   C216      1.0  0.89205  0.89682  0.96368  1.0000
  H   H151      1.0  0.90296  0.96793  0.93234  1.0000
  O  Te23      1.0  0.95016  0.92405  0.07145  1.0000
  O  Te24      1.0  0.92055  0.83380  0.07548  1.0000
  H   H152      1.0  0.87713  0.88927  0.93581  1.0000
  Mg  Mg12      1.0  0.94899  0.86476  0.11552  1.0000
  C   C217      1.0  0.39633  0.61203  0.35675  1.0000
  C   C218      1.0  0.39037  0.57335  0.32351  1.0000
  C  Sn25      1.0  0.40365  0.52763  0.32664  1.0000
  C  Sn26      1.0  0.42324  0.52063  0.36379  1.0000
  C   C219      1.0  0.42904  0.55955  0.39689  1.0000
  C   C220      1.0  0.41564  0.60514  0.39342  1.0000
  H   H153      1.0  0.38595  0.64730  0.35409  1.0000
  O  Te25      1.0  0.39745  0.48939  0.29311  1.0000
  O  Te26      1.0  0.43680  0.47532  0.36776  1.0000
  H   H154      1.0  0.42025  0.63508  0.41919  1.0000
  Mg  Mg13      1.0  0.42136  0.43444  0.31348  1.0000
  C   C221      1.0  0.58552  0.48433  0.82683  1.0000
  C   C222      1.0  0.60572  0.44998  0.81727  1.0000
  C  Sn27      1.0  0.60658  0.40454  0.84281  1.0000
  C  Sn28      1.0  0.58682  0.39340  0.87855  1.0000
  C   C223      1.0  0.56668  0.42800  0.88782  1.0000
  C   C224      1.0  0.56602  0.47336  0.86206  1.0000
  H   H155      1.0  0.58499  0.51942  0.80688  1.0000
  O  Te27      1.0  0.62690  0.37065  0.83282  1.0000
  O  Te28      1.0  0.58720  0.34826  0.90460  1.0000
  H   H156      1.0  0.55037  0.49994  0.86945  1.0000
  Mg  Mg14      1.0  0.61893  0.31414  0.87792  1.0000
  C   C225      1.0  0.41186  0.38185  0.86924  1.0000
  C   C226      1.0  0.42715  0.42159  0.88665  1.0000
  C  Sn29      1.0  0.42275  0.46996  0.86891  1.0000
  C  Sn30      1.0  0.40265  0.47859  0.83309  1.0000
  C   C227      1.0  0.38745  0.43858  0.81594  1.0000
  C   C228      1.0  0.39202  0.39033  0.83393  1.0000
  H   H157      1.0  0.41539  0.34452  0.88318  1.0000
  O  Te29      1.0  0.43822  0.50924  0.88669  1.0000
  O  Te30      1.0  0.39783  0.52656  0.81475  1.0000
  H   H158      1.0  0.38017  0.35957  0.82047  1.0000
  Mg  Mg15      1.0  0.42413  0.56793  0.85038  1.0000
  C   C229      1.0  0.57273  0.52031  0.33861  1.0000
  C   C230      1.0  0.56919  0.55374  0.37824  1.0000
  C  Sn31      1.0  0.58583  0.59490  0.38359  1.0000
  C  Sn32      1.0  0.60639  0.60265  0.34854  1.0000
  C   C231      1.0  0.60976  0.56901  0.30900  1.0000
  C   C232      1.0  0.59299  0.52794  0.30401  1.0000
  H   H159      1.0  0.55976  0.48854  0.33473  1.0000
  O  Te31      1.0  0.58202  0.62792  0.42342  1.0000
  O  Te32      1.0  0.62330  0.64349  0.35299  1.0000
  H   H160      1.0  0.59573  0.50208  0.27330  1.0000
  Mg  Mg16      1.0  0.61018  0.67806  0.41360  1.0000
  C   C233      1.0  0.66393  0.46258  0.67863  1.0000
  C   C234      1.0  0.65357  0.42048  0.70225  1.0000
  C  Sn33      1.0  0.65846  0.37276  0.68301  1.0000
  C  Sn34      1.0  0.67403  0.36720  0.63931  1.0000
  C   C235      1.0  0.68432  0.40955  0.61597  1.0000
  C   C236      1.0  0.67929  0.45713  0.63554  1.0000
  H   H161      1.0  0.66005  0.49939  0.69378  1.0000
  O  Te33      1.0  0.64796  0.33110  0.70706  1.0000
  O  Te34      1.0  0.67923  0.31995  0.61929  1.0000
  H   H162      1.0  0.68733  0.48971  0.61726  1.0000
  Mg  Mg17      1.0  0.66055  0.27454  0.66548  1.0000
  C   C237      1.0  0.33193  0.63856  0.17838  1.0000
  C   C238      1.0  0.34074  0.59958  0.20879  1.0000
  C  Sn35      1.0  0.33853  0.55003  0.19279  1.0000
  C  Sn36      1.0  0.32728  0.53943  0.14544  1.0000
  C   C239      1.0  0.31854  0.57870  0.11528  1.0000
  C   C240      1.0  0.32085  0.62815  0.13167  1.0000
  H   H163      1.0  0.33373  0.67682  0.19105  1.0000
  O  Te35      1.0  0.34742  0.51153  0.22364  1.0000
  O  Te36      1.0  0.32484  0.49026  0.12852  1.0000
  H   H164      1.0  0.31404  0.65832  0.10811  1.0000
  Mg  Mg18      1.0  0.33982  0.45061  0.18407  1.0000
  C   C241      1.0  0.67005  0.64745  0.14601  1.0000
  C   C242      1.0  0.68097  0.60605  0.12161  1.0000
  C  Sn37      1.0  0.67673  0.55792  0.13999  1.0000
  C  Sn38      1.0  0.66126  0.55125  0.18360  1.0000
  C   C243      1.0  0.65041  0.59291  0.20771  1.0000
  C   C244      1.0  0.65478  0.64090  0.18901  1.0000
  H   H165      1.0  0.67342  0.68459  0.13152  1.0000
  O  Te37      1.0  0.68779  0.51697  0.11517  1.0000
  O  Te38      1.0  0.65671  0.50356  0.20276  1.0000
  H   H166      1.0  0.64631  0.67295  0.20789  1.0000
  Mg  Mg19      1.0  0.67599  0.45944  0.15573  1.0000
  C   C245      1.0  0.33344  0.35362  0.67528  1.0000
  C   C246      1.0  0.34502  0.39219  0.70278  1.0000
  C  Sn39      1.0  0.34227  0.44177  0.68738  1.0000
  C  Sn40      1.0  0.32763  0.45284  0.64362  1.0000
  C   C247      1.0  0.31610  0.41399  0.61638  1.0000
  C   C248      1.0  0.31898  0.36450  0.63213  1.0000
  H   H167      1.0  0.33565  0.31533  0.68747  1.0000
  O  Te39      1.0  0.35398  0.47985  0.71528  1.0000
  O  Te40      1.0  0.32456  0.50207  0.62739  1.0000
  H   H168      1.0  0.31000  0.33465  0.61084  1.0000
  Mg  Mg20      1.0  0.34423  0.54102  0.67802  1.0000
  C   C249      1.0  0.84677  0.56391  0.55168  1.0000
  C   C250      1.0  0.84910  0.59705  0.51170  1.0000
  C  Sn41      1.0  0.83465  0.58933  0.46797  1.0000
  C  Sn42      1.0  0.81755  0.54762  0.46431  1.0000
  C   C251      1.0  0.81534  0.51470  0.50454  1.0000
  C   C252      1.0  0.82990  0.52278  0.54811  1.0000
  H   H169      1.0  0.85803  0.57017  0.58541  1.0000
  O  Te41      1.0  0.83722  0.62280  0.42837  1.0000
  O  Te42      1.0  0.80287  0.53903  0.42105  1.0000
  H   H170      1.0  0.82808  0.49713  0.57908  1.0000
  Mg  Mg21      1.0  0.81311  0.59516  0.37719  1.0000
  C   C253      1.0  0.16275  0.45693  0.05067  1.0000
  C   C254      1.0  0.17989  0.47781  0.01567  1.0000
  C  Sn43      1.0  0.18291  0.45839  0.96873  1.0000
  C  Sn44      1.0  0.16859  0.41453  0.95671  1.0000
  C   C255      1.0  0.15147  0.39394  0.99198  1.0000
  C   C256      1.0  0.14860  0.41368  0.03885  1.0000
  H   H171      1.0  0.16044  0.47432  0.08692  1.0000
  O  Te43      1.0  0.20013  0.47974  0.93420  1.0000
  O  Te44      1.0  0.17133  0.39163  0.91007  1.0000
  H   H172      1.0  0.13532  0.39751  0.06593  1.0000
  Mg  Mg22      1.0  0.19718  0.43479  0.87559  1.0000
  C   C257      1.0  0.83224  0.45473  0.05956  1.0000
  C   C258      1.0  0.82145  0.48275  0.02059  1.0000
  C  Sn45      1.0  0.82296  0.46814  0.97142  1.0000
  C  Sn46      1.0  0.83562  0.42187  0.96120  1.0000
  C   C259      1.0  0.84644  0.39137  0.00046  1.0000
  C   C260      1.0  0.84472  0.40908  0.04951  1.0000
  H   H173      1.0  0.83090  0.46842  0.09752  1.0000
  O  Te45      1.0  0.81208  0.49662  0.93293  1.0000
  O  Te46      1.0  0.83750  0.40365  0.91241  1.0000
  H   H174      1.0  0.85306  0.38736  0.07968  1.0000
  Mg  Mg23      1.0  0.81964  0.45602  0.87262  1.0000
  C   C261      1.0  0.15263  0.56394  0.55049  1.0000
  C   C262      1.0  0.15440  0.60190  0.51493  1.0000
  C  Sn47      1.0  0.17025  0.59561  0.47269  1.0000
  C  Sn48      1.0  0.18455  0.55042  0.46602  1.0000
  C   C263      1.0  0.18262  0.51265  0.50179  1.0000
  C   C264      1.0  0.16671  0.51935  0.54393  1.0000
  H   H175      1.0  0.14031  0.56910  0.58308  1.0000
  O  Te47      1.0  0.17181  0.63393  0.43754  1.0000
  O  Te48      1.0  0.20053  0.54314  0.42414  1.0000
  H   H176      1.0  0.16533  0.48994  0.57144  1.0000
  Mg  Mg24      1.0  0.19623  0.60633  0.38667  1.0000
  C   C265      1.0  0.65884  0.44998  0.36413  1.0000
  C   C266      1.0  0.64971  0.40571  0.34252  1.0000
  C  Sn49      1.0  0.65318  0.36014  0.36704  1.0000
  C  Sn50      1.0  0.66604  0.35899  0.41407  1.0000
  C   C267      1.0  0.67508  0.40349  0.43539  1.0000
  C   C268      1.0  0.67151  0.44888  0.41053  1.0000
  H   H177      1.0  0.65606  0.48510  0.34491  1.0000
  O  Te49      1.0  0.64395  0.31626  0.34490  1.0000
  O  Te50      1.0  0.66976  0.31397  0.43939  1.0000
  H   H178      1.0  0.67857  0.48315  0.42729  1.0000
  Mg  Mg25      1.0  0.65370  0.26413  0.39397  1.0000
  C   C269      1.0  0.34414  0.64665  0.91880  1.0000
  C   C270      1.0  0.32706  0.60750  0.93047  1.0000
  C  Sn51      1.0  0.32613  0.56492  0.90023  1.0000
  C  Sn52      1.0  0.34262  0.56156  0.85755  1.0000
  C   C271      1.0  0.35965  0.60091  0.84622  1.0000
  C   C272      1.0  0.36042  0.64336  0.87672  1.0000
  H   H179      1.0  0.34475  0.67948  0.94242  1.0000
  O  Te51      1.0  0.30894  0.52616  0.91241  1.0000
  O  Te52      1.0  0.34209  0.51942  0.82669  1.0000
  H   H180      1.0  0.37366  0.67365  0.86770  1.0000
  Mg  Mg26      1.0  0.31536  0.47641  0.85884  1.0000
  C   C273      1.0  0.66265  0.55098  0.85927  1.0000
  C   C274      1.0  0.64631  0.59027  0.84418  1.0000
  C  Sn53      1.0  0.64542  0.63466  0.87173  1.0000
  C  Sn54      1.0  0.66121  0.63969  0.91517  1.0000
  C   C275      1.0  0.67751  0.60017  0.92993  1.0000
  C   C276      1.0  0.67824  0.55591  0.90210  1.0000
  H   H181      1.0  0.66323  0.51674  0.83772  1.0000
  O  Te53      1.0  0.62898  0.67355  0.85614  1.0000
  O  Te54      1.0  0.66071  0.68365  0.94339  1.0000
  H   H182      1.0  0.69091  0.52550  0.91377  1.0000
  Mg  Mg27      1.0  0.63512  0.72610  0.90701  1.0000
  C   C277      1.0  0.33382  0.44690  0.38926  1.0000
  C   C278      1.0  0.32425  0.41045  0.42178  1.0000
  C  Sn55      1.0  0.33165  0.36047  0.41568  1.0000
  C  Sn56      1.0  0.34896  0.34684  0.37627  1.0000
  C   C279      1.0  0.35843  0.38359  0.34395  1.0000
  C   C280      1.0  0.35089  0.43350  0.35038  1.0000
  H   H183      1.0  0.32800  0.48552  0.39424  1.0000
  O  Te55      1.0  0.32191  0.32453  0.44850  1.0000
  O  Te56      1.0  0.35668  0.29716  0.36934  1.0000
  H   H184      1.0  0.35831  0.46171  0.32522  1.0000
  Mg  Mg28      1.0  0.33813  0.26174  0.42375  1.0000
  C   C281      1.0  0.84487  0.28209  0.57642  1.0000
  C   C282      1.0  0.84925  0.24461  0.54090  1.0000
  C  Sn57      1.0  0.84019  0.25049  0.49201  1.0000
  C  Sn58      1.0  0.82650  0.29476  0.47852  1.0000
  C   C283      1.0  0.82223  0.33205  0.51431  1.0000
  C   C284      1.0  0.83137  0.32577  0.56314  1.0000
  H   H185      1.0  0.85196  0.27725  0.61419  1.0000
  O  Te57      1.0  0.84473  0.21267  0.45700  1.0000
  O  Te58      1.0  0.81723  0.30161  0.42991  1.0000
  H   H186      1.0  0.82799  0.35481  0.59062  1.0000
  Mg  Mg29      1.0  0.82827  0.23938  0.39550  1.0000
  C   C285      1.0  0.16855  0.70955  0.96748  1.0000
  C   C286      1.0  0.17789  0.67543  0.00530  1.0000
  C  Sn59      1.0  0.17018  0.68338  0.05478  1.0000
  C  Sn60      1.0  0.15290  0.72353  0.06650  1.0000
  C   C287      1.0  0.14376  0.75470  0.02839  1.0000
  C   C288      1.0  0.15150  0.74915  0.97901  1.0000
  H   H187      1.0  0.17461  0.70313  0.92927  1.0000
  O  Te59      1.0  0.17960  0.65167  0.09210  1.0000
  O  Te60      1.0  0.14487  0.73231  0.11564  1.0000
  H   H188      1.0  0.14433  0.77344  0.94973  1.0000
  Mg  Mg30      1.0  0.16303  0.67886  0.15345  1.0000
  C   C289      1.0  0.84105  0.73308  0.97219  1.0000
  C   C290      1.0  0.85035  0.75447  0.01511  1.0000
  C  Sn61      1.0  0.84610  0.73353  0.06215  1.0000
  C  Sn62      1.0  0.83239  0.68758  0.06618  1.0000
  C   C291      1.0  0.82329  0.66373  0.02301  1.0000
  C   C292      1.0  0.82754  0.68776  0.97613  1.0000
  H   H189      1.0  0.84443  0.74954  0.93592  1.0000
  O  Te61      1.0  0.85541  0.75812  0.10464  1.0000
  O  Te62      1.0  0.82788  0.66581  0.11272  1.0000
  H   H190      1.0  0.82043  0.66906  0.94291  1.0000
  Mg  Mg31      1.0  0.84439  0.71360  0.15974  1.0000
  C   C293      1.0  0.15616  0.28360  0.57786  1.0000
  C   C294      1.0  0.14685  0.25122  0.54089  1.0000
  C  Sn63      1.0  0.15426  0.25789  0.49111  1.0000
  C  Sn64      1.0  0.17132  0.29775  0.47823  1.0000
  C   C295      1.0  0.18054  0.32992  0.51550  1.0000
  C   C296      1.0  0.17299  0.32291  0.56520  1.0000
  H   H191      1.0  0.15033  0.27817  0.61632  1.0000
  O  Te63      1.0  0.14477  0.22520  0.45463  1.0000
  O  Te64      1.0  0.17905  0.30526  0.42877  1.0000
  H   H192      1.0  0.18022  0.34797  0.59382  1.0000
  Mg  Mg32      1.0  0.16090  0.25080  0.39242  1.0000
