data_image0
_chemical_formula_structural       H80C152N16C2Sn2C2HTe2HMgC2Sn2C2HTe2HMgC2Sn2C2HTe2HMgC2Sn2C2HTe2HMgC2Sn2C2HTe2HMgC2Sn2C2HTe2HMgC2Sn2C2HTe2HMgC2Sn2C2HTe2HMgC2Sn2C2HTe2HMgC2Sn2C2HTe2HMgC2Sn2C2HTe2HMgC2Sn2C2HTe2HMg
_chemical_formula_sum              "H104 C200 N16 Sn24 Te24 Mg12"
_cell_length_a       36.5142
_cell_length_b       32.5873
_cell_length_c       7.99299
_cell_angle_alpha    108.797
_cell_angle_beta     90.2331
_cell_angle_gamma    89.9611

_symmetry_space_group_name_H-M    'P1'
_space_group_IT_number       1

loop_
  _space_group_symop_operation_xyz
  'x, y, z'

loop_
  _atom_site_type_symbol
  _atom_site_label
  _atom_site_symmetry_multiplicity
  _atom_site_fract_x
  _atom_site_fract_y
  _atom_site_fract_z
  _atom_site_occupancy
  H   H1        1.0  0.10434  0.16167  0.09521  1.0000
  H   H2        1.0  0.11176  0.81841  0.04491  1.0000
  H   H3        1.0  0.60383  0.65987  0.08036  1.0000
  H   H4        1.0  0.39253  0.31755  0.04065  1.0000
  H   H5        1.0  0.61071  0.31809  0.04331  1.0000
  H   H6        1.0  0.39708  0.65923  0.07870  1.0000
  H   H7        1.0  0.06335  0.10356  0.11531  1.0000
  H   H8        1.0  0.07076  0.88078  0.06925  1.0000
  H   H9        1.0  0.56271  0.60222  0.10399  1.0000
  H   H10       1.0  0.43421  0.37941  0.07113  1.0000
  H   H11       1.0  0.57021  0.38051  0.06361  1.0000
  H   H12       1.0  0.43851  0.60141  0.10147  1.0000
  H   H13       1.0  0.14980  0.05256  0.35709  1.0000
  H   H14       1.0  0.14229  0.96451  0.45772  1.0000
  H   H15       1.0  0.64874  0.55229  0.35163  1.0000
  H   H16       1.0  0.36023  0.46381  0.44168  1.0000
  H   H17       1.0  0.64095  0.46393  0.45735  1.0000
  H   H18       1.0  0.35289  0.55047  0.34499  1.0000
  H   H19       1.0  0.19173  0.11091  0.33143  1.0000
  H   H20       1.0  0.18494  0.90194  0.42723  1.0000
  H   H21       1.0  0.69089  0.60975  0.32196  1.0000
  H   H22       1.0  0.31773  0.40169  0.40831  1.0000
  H   H23       1.0  0.68265  0.40087  0.43379  1.0000
  H   H24       1.0  0.31062  0.60897  0.31956  1.0000
  H   H25       1.0  0.81544  0.25322  0.20822  1.0000
  H   H26       1.0  0.68368  0.24927  0.35509  1.0000
  H   H27       1.0  0.72532  0.18957  0.37018  1.0000
  H   H28       1.0  0.77473  0.31422  0.21085  1.0000
  H   H29       1.0  0.46815  0.40436  0.34333  1.0000
  H   H30       1.0  0.53419  0.61032  0.33462  1.0000
  H   H31       1.0  0.46771  0.61015  0.32920  1.0000
  H   H32       1.0  0.53567  0.40383  0.33575  1.0000
  H   H33       1.0  0.96825  0.90257  0.33728  1.0000
  H   H34       1.0  0.03379  0.11014  0.34499  1.0000
  H   H35       1.0  0.96727  0.10909  0.33698  1.0000
  H   H36       1.0  0.03600  0.90261  0.33529  1.0000
  H   H37       1.0  0.33805  0.28629  0.13149  1.0000
  H   H38       1.0  0.66292  0.69222  0.10343  1.0000
  H   H39       1.0  0.33738  0.68980  0.09395  1.0000
  H   H40       1.0  0.66112  0.28550  0.14927  1.0000
  H   H41       1.0  0.83986  0.78401  0.14357  1.0000
  H   H42       1.0  0.16279  0.19392  0.11677  1.0000
  H   H43       1.0  0.83415  0.18896  0.12083  1.0000
  H   H44       1.0  0.16469  0.78719  0.14302  1.0000
  H   H45       1.0  0.89429  0.16211  0.60352  1.0000
  H   H46       1.0  0.60356  0.66044  0.59419  1.0000
  H   H47       1.0  0.38899  0.31653  0.53626  1.0000
  H   H48       1.0  0.60854  0.31530  0.54126  1.0000
  H   H49       1.0  0.93577  0.10377  0.61927  1.0000
  H   H50       1.0  0.56121  0.60346  0.61445  1.0000
  H   H51       1.0  0.42972  0.37877  0.55561  1.0000
  H   H52       1.0  0.56668  0.37658  0.55919  1.0000
  H   H53       1.0  0.84986  0.04935  0.84678  1.0000
  H   H54       1.0  0.64755  0.54698  0.83572  1.0000
  H   H55       1.0  0.35900  0.46278  0.94581  1.0000
  H   H56       1.0  0.63830  0.46294  0.94035  1.0000
  H   H57       1.0  0.80720  0.10808  0.82654  1.0000
  H   H58       1.0  0.69059  0.60433  0.81191  1.0000
  H   H59       1.0  0.31718  0.40004  0.92121  1.0000
  H   H60       1.0  0.68102  0.40089  0.91834  1.0000
  H   H61       1.0  0.18547  0.75265  0.85267  1.0000
  H   H62       1.0  0.31574  0.75627  0.67959  1.0000
  H   H63       1.0  0.27388  0.81626  0.68139  1.0000
  H   H64       1.0  0.22838  0.69375  0.86407  1.0000
  H   H65       1.0  0.46383  0.40265  0.82390  1.0000
  H   H66       1.0  0.53222  0.60963  0.83831  1.0000
  H   H67       1.0  0.46555  0.60959  0.83033  1.0000
  H   H68       1.0  0.53130  0.40114  0.81927  1.0000
  H   H69       1.0  0.96524  0.90250  0.83201  1.0000
  H   H70       1.0  0.03137  0.11037  0.85201  1.0000
  H   H71       1.0  0.96477  0.11023  0.84879  1.0000
  H   H72       1.0  0.03225  0.90190  0.82165  1.0000
  H   H73       1.0  0.33723  0.28529  0.63920  1.0000
  H   H74       1.0  0.66398  0.68765  0.59666  1.0000
  H   H75       1.0  0.33740  0.69371  0.60966  1.0000
  H   H76       1.0  0.66093  0.28515  0.64504  1.0000
  H   H77       1.0  0.83744  0.78496  0.64740  1.0000
  H   H78       1.0  0.16047  0.19327  0.62133  1.0000
  H   H79       1.0  0.83459  0.19220  0.61739  1.0000
  H   H80       1.0  0.16031  0.78536  0.65108  1.0000
  C   C1        1.0  0.77284  0.21601  0.28352  1.0000
  C   C2        1.0  0.72640  0.28555  0.27990  1.0000
  C   C3        1.0  0.15053  0.14122  0.21775  1.0000
  C   C4        1.0  0.15122  0.85614  0.23498  1.0000
  C   C5        1.0  0.65000  0.63977  0.20512  1.0000
  C   C6        1.0  0.35208  0.35534  0.22274  1.0000
  C   C7        1.0  0.64927  0.35512  0.23879  1.0000
  C   C8        1.0  0.35151  0.63892  0.20397  1.0000
  C   C9        1.0  0.11406  0.13848  0.15746  1.0000
  C   C10       1.0  0.11850  0.85023  0.13694  1.0000
  C   C11       1.0  0.61360  0.63693  0.14370  1.0000
  C   C12       1.0  0.38544  0.34943  0.13063  1.0000
  C   C13       1.0  0.61713  0.34982  0.13706  1.0000
  C   C14       1.0  0.38774  0.63618  0.14235  1.0000
  C   C15       1.0  0.09077  0.10587  0.17033  1.0000
  C   C16       1.0  0.09511  0.88500  0.15191  1.0000
  C   C17       1.0  0.59019  0.60466  0.15852  1.0000
  C   C18       1.0  0.40923  0.38410  0.14857  1.0000
  C   C19       1.0  0.59423  0.38480  0.14852  1.0000
  C   C20       1.0  0.41118  0.60388  0.15679  1.0000
  C   C21       1.0  0.10301  0.07464  0.24486  1.0000
  C   C22       1.0  0.10342  0.92649  0.26812  1.0000
  C   C23       1.0  0.60246  0.57385  0.23513  1.0000
  C   C24       1.0  0.40033  0.42580  0.26144  1.0000
  C   C25       1.0  0.60256  0.42627  0.26485  1.0000
  C   C26       1.0  0.39916  0.57299  0.23309  1.0000
  C   C27       1.0  0.14020  0.07660  0.29882  1.0000
  C   C28       1.0  0.13623  0.93237  0.36656  1.0000
  C   C29       1.0  0.63949  0.57577  0.28979  1.0000
  C   C30       1.0  0.36688  0.43163  0.35317  1.0000
  C   C31       1.0  0.63494  0.43179  0.36618  1.0000
  C   C32       1.0  0.36213  0.57464  0.28691  1.0000
  C   C33       1.0  0.16342  0.10910  0.28630  1.0000
  C   C34       1.0  0.15977  0.89782  0.35035  1.0000
  C   C35       1.0  0.66277  0.60785  0.27506  1.0000
  C   C36       1.0  0.34328  0.39718  0.33518  1.0000
  C   C37       1.0  0.65789  0.39689  0.35415  1.0000
  C   C38       1.0  0.33883  0.60707  0.27416  1.0000
  C   C39       1.0  0.78658  0.25184  0.23984  1.0000
  C   C40       1.0  0.71249  0.24957  0.32083  1.0000
  C   C41       1.0  0.73552  0.21618  0.32841  1.0000
  C   C42       1.0  0.76405  0.28623  0.24137  1.0000
  C   C43       1.0  0.42333  0.46406  0.27588  1.0000
  C   C44       1.0  0.57948  0.53962  0.26168  1.0000
  C   C45       1.0  0.42255  0.53872  0.25764  1.0000
  C   C46       1.0  0.57965  0.46424  0.27245  1.0000
  C   C47       1.0  0.92367  0.96236  0.27344  1.0000
  C   C48       1.0  0.07977  0.03998  0.26843  1.0000
  C   C49       1.0  0.92240  0.03769  0.26309  1.0000
  C   C50       1.0  0.08006  0.96420  0.27689  1.0000
  C   C51       1.0  0.46252  0.46514  0.29005  1.0000
  C   C52       1.0  0.54031  0.54127  0.28210  1.0000
  C   C53       1.0  0.46183  0.54077  0.27796  1.0000
  C   C54       1.0  0.54039  0.46495  0.28515  1.0000
  C   C55       1.0  0.96285  0.96368  0.28760  1.0000
  C   C56       1.0  0.04043  0.04095  0.28637  1.0000
  C   C57       1.0  0.96178  0.03957  0.27832  1.0000
  C   C58       1.0  0.04070  0.96412  0.28583  1.0000
  C   C59       1.0  0.48290  0.43057  0.31739  1.0000
  C   C60       1.0  0.51972  0.57981  0.30741  1.0000
  C   C61       1.0  0.48214  0.57967  0.30509  1.0000
  C   C62       1.0  0.52047  0.43038  0.31420  1.0000
  C   C63       1.0  0.98323  0.92892  0.31338  1.0000
  C   C64       1.0  0.01953  0.07941  0.31485  1.0000
  C   C65       1.0  0.98195  0.07875  0.31021  1.0000
  C   C66       1.0  0.02083  0.92907  0.31218  1.0000
  C   C67       1.0  0.32744  0.31882  0.20381  1.0000
  C   C68       1.0  0.67344  0.67458  0.19041  1.0000
  C   C69       1.0  0.32804  0.67361  0.18773  1.0000
  C   C70       1.0  0.67277  0.31771  0.22343  1.0000
  C   C71       1.0  0.82829  0.81677  0.20458  1.0000
  C   C72       1.0  0.17378  0.17603  0.20163  1.0000
  C   C73       1.0  0.82457  0.17166  0.21056  1.0000
  C   C74       1.0  0.17575  0.81953  0.21414  1.0000
  C   C75       1.0  0.02112  0.00226  0.28401  1.0000
  C   C76       1.0  0.98174  0.00180  0.28225  1.0000
  C   C77       1.0  0.52093  0.50313  0.28404  1.0000
  C   C78       1.0  0.48158  0.50308  0.28426  1.0000
  C   C79       1.0  0.09561  0.00234  0.27578  1.0000
  C   C80       1.0  0.90718  0.99983  0.27153  1.0000
  C   C81       1.0  0.59537  0.50186  0.26756  1.0000
  C   C82       1.0  0.40702  0.50118  0.26810  1.0000
  C   C83       1.0  0.22685  0.78831  0.76431  1.0000
  C   C84       1.0  0.27446  0.71982  0.76657  1.0000
  C   C85       1.0  0.84825  0.13971  0.71880  1.0000
  C   C86       1.0  0.64970  0.63702  0.70627  1.0000
  C   C87       1.0  0.35029  0.35430  0.72759  1.0000
  C   C88       1.0  0.64745  0.35415  0.72949  1.0000
  C   C89       1.0  0.88471  0.13802  0.66111  1.0000
  C   C90       1.0  0.61296  0.63611  0.65136  1.0000
  C   C91       1.0  0.38261  0.34846  0.62792  1.0000
  C   C92       1.0  0.61479  0.34761  0.63085  1.0000
  C   C93       1.0  0.90831  0.10557  0.67245  1.0000
  C   C94       1.0  0.58891  0.60433  0.66537  1.0000
  C   C95       1.0  0.40566  0.38341  0.63941  1.0000
  C   C96       1.0  0.59108  0.38198  0.64202  1.0000
  C   C97       1.0  0.89622  0.07342  0.74176  1.0000
  C   C98       1.0  0.60083  0.57192  0.73424  1.0000
  C   C99       1.0  0.39731  0.42507  0.75378  1.0000
  C   C100      1.0  0.59932  0.42399  0.75469  1.0000
  C   C101      1.0  0.85903  0.07432  0.79301  1.0000
  C   C102      1.0  0.63825  0.57203  0.78224  1.0000
  C   C103      1.0  0.36512  0.43071  0.85519  1.0000
  C   C104      1.0  0.63223  0.43046  0.85247  1.0000
  C   C105      1.0  0.83548  0.10673  0.78236  1.0000
  C   C106      1.0  0.66215  0.60390  0.76995  1.0000
  C   C107      1.0  0.34202  0.39595  0.84282  1.0000
  C   C108      1.0  0.65588  0.39631  0.84091  1.0000
  C   C109      1.0  0.21387  0.75294  0.81216  1.0000
  C   C110      1.0  0.28724  0.75512  0.71694  1.0000
  C   C111      1.0  0.26409  0.78896  0.71880  1.0000
  C   C112      1.0  0.23752  0.71995  0.81744  1.0000
  C   C113      1.0  0.42007  0.46309  0.75965  1.0000
  C   C114      1.0  0.57717  0.53787  0.75861  1.0000
  C   C115      1.0  0.42034  0.53856  0.74973  1.0000
  C   C116      1.0  0.57640  0.46205  0.76382  1.0000
  C   C117      1.0  0.91991  0.96286  0.76836  1.0000
  C   C118      1.0  0.07664  0.03905  0.76364  1.0000
  C   C119      1.0  0.91956  0.03882  0.76417  1.0000
  C   C120      1.0  0.07654  0.96228  0.75771  1.0000
  C   C121      1.0  0.45932  0.46371  0.77366  1.0000
  C   C122      1.0  0.53789  0.54002  0.77884  1.0000
  C   C123      1.0  0.45952  0.54031  0.77392  1.0000
  C   C124      1.0  0.53717  0.46310  0.77537  1.0000
  C   C125      1.0  0.95927  0.96364  0.77963  1.0000
  C   C126      1.0  0.03737  0.04079  0.78579  1.0000
  C   C127      1.0  0.95888  0.04077  0.78580  1.0000
  C   C128      1.0  0.03728  0.96327  0.77241  1.0000
  C   C129      1.0  0.47916  0.42888  0.80104  1.0000
  C   C130      1.0  0.51768  0.57900  0.80681  1.0000
  C   C131      1.0  0.48006  0.57905  0.80374  1.0000
  C   C132      1.0  0.51678  0.42836  0.80022  1.0000
  C   C133      1.0  0.97969  0.92897  0.80587  1.0000
  C   C134      1.0  0.01696  0.07969  0.81916  1.0000
  C   C135      1.0  0.97928  0.07964  0.81819  1.0000
  C   C136      1.0  0.01732  0.92873  0.80100  1.0000
  C   C137      1.0  0.32612  0.31754  0.71046  1.0000
  C   C138      1.0  0.67373  0.67099  0.68820  1.0000
  C   C139      1.0  0.32696  0.67610  0.69632  1.0000
  C   C140      1.0  0.67193  0.31779  0.71508  1.0000
  C   C141      1.0  0.82575  0.81728  0.71464  1.0000
  C   C142      1.0  0.17183  0.17451  0.70226  1.0000
  C   C143      1.0  0.82495  0.17484  0.70632  1.0000
  C   C144      1.0  0.17182  0.81809  0.71289  1.0000
  C   C145      1.0  0.01786  0.00206  0.77915  1.0000
  C   C146      1.0  0.97849  0.00214  0.78101  1.0000
  C   C147      1.0  0.51814  0.50172  0.77645  1.0000
  C   C148      1.0  0.47882  0.50192  0.77445  1.0000
  C   C149      1.0  0.09244  0.00025  0.75705  1.0000
  C   C150      1.0  0.90393  0.00033  0.76192  1.0000
  C   C151      1.0  0.59265  0.49959  0.76126  1.0000
  C   C152      1.0  0.40438  0.50040  0.75043  1.0000
  N   N1        1.0  0.29461  0.32417  0.26669  1.0000
  N   N2        1.0  0.70449  0.68366  0.27363  1.0000
  N   N3        1.0  0.29802  0.68408  0.27683  1.0000
  N   N4        1.0  0.70537  0.32206  0.28820  1.0000
  N   N5        1.0  0.79486  0.82237  0.25925  1.0000
  N   N6        1.0  0.20524  0.18487  0.28069  1.0000
  N   N7        1.0  0.79416  0.18121  0.29599  1.0000
  N   N8        1.0  0.20905  0.82443  0.27282  1.0000
  N   N9        1.0  0.29297  0.32249  0.77106  1.0000
  N   N10       1.0  0.70432  0.68087  0.77370  1.0000
  N   N11       1.0  0.29606  0.68526  0.77828  1.0000
  N   N12       1.0  0.70496  0.32344  0.77621  1.0000
  N   N13       1.0  0.79242  0.82204  0.77085  1.0000
  N   N14       1.0  0.20374  0.18251  0.77816  1.0000
  N   N15       1.0  0.79449  0.18440  0.79198  1.0000
  N   N16       1.0  0.20536  0.82392  0.76790  1.0000
  C   C153      1.0  0.28869  0.76360  0.20068  1.0000
  C   C154      1.0  0.28153  0.72827  0.25859  1.0000
  C  Sn1       1.0  0.24645  0.72195  0.31514  1.0000
  C  Sn2       1.0  0.21808  0.75159  0.31350  1.0000
  C   C155      1.0  0.22552  0.78681  0.25521  1.0000
  C   C156      1.0  0.26072  0.79284  0.19895  1.0000
  H   H81       1.0  0.31592  0.76826  0.15706  1.0000
  O  Te1       1.0  0.23977  0.68649  0.37265  1.0000
  O  Te2       1.0  0.18278  0.74603  0.36925  1.0000
  H   H82       1.0  0.26625  0.82018  0.15402  1.0000
  Mg  Mg1       1.0  0.18720  0.69274  0.43594  1.0000
  C   C157      1.0  0.33816  0.59710  0.77933  1.0000
  C   C158      1.0  0.34618  0.63330  0.72851  1.0000
  C  Sn3       1.0  0.38086  0.63804  0.66379  1.0000
  C  Sn4       1.0  0.40795  0.60588  0.64978  1.0000
  C   C159      1.0  0.39964  0.56977  0.70084  1.0000
  C   C160      1.0  0.36485  0.56535  0.76549  1.0000
  H   H83       1.0  0.31124  0.59367  0.82925  1.0000
  O  Te3       1.0  0.38842  0.67442  0.61367  1.0000
  O  Te4       1.0  0.44282  0.60980  0.58547  1.0000
  H   H84       1.0  0.35864  0.53730  0.80471  1.0000
  Mg  Mg2       1.0  0.43996  0.66522  0.53400  1.0000
  C   C161      1.0  0.72695  0.78135  0.19560  1.0000
  C   C162      1.0  0.76294  0.78953  0.25751  1.0000
  C  Sn5       1.0  0.78159  0.75960  0.31820  1.0000
  C  Sn6       1.0  0.76382  0.72078  0.31668  1.0000
  C   C163      1.0  0.72782  0.71287  0.25436  1.0000
  C   C164      1.0  0.70941  0.74305  0.19399  1.0000
  H   H85       1.0  0.71271  0.80468  0.14879  1.0000
  O  Te5       1.0  0.81754  0.76830  0.37968  1.0000
  O  Te6       1.0  0.78183  0.69030  0.37652  1.0000
  H   H86       1.0  0.68155  0.73669  0.14595  1.0000
  Mg  Mg3       1.0  0.83061  0.71681  0.44771  1.0000
  C   C165      1.0  0.77200  0.72099  0.81522  1.0000
  C   C166      1.0  0.73418  0.71678  0.78747  1.0000
  C  Sn7       1.0  0.71474  0.74764  0.73561  1.0000
  C  Sn8       1.0  0.73358  0.78333  0.71115  1.0000
  C   C167      1.0  0.77142  0.78723  0.73913  1.0000
  C   C168      1.0  0.79061  0.75618  0.79105  1.0000
  H   H87       1.0  0.78684  0.69695  0.85531  1.0000
  O  Te7       1.0  0.67696  0.74295  0.70852  1.0000
  O  Te8       1.0  0.71483  0.81463  0.65930  1.0000
  H   H88       1.0  0.81989  0.75943  0.81242  1.0000
  Mg  Mg4       1.0  0.66347  0.79405  0.63868  1.0000
  C   C169      1.0  0.27305  0.22446  0.32024  1.0000
  C   C170      1.0  0.23517  0.22067  0.29412  1.0000
  C  Sn9       1.0  0.21588  0.25157  0.24187  1.0000
  C  Sn10      1.0  0.23495  0.28688  0.21533  1.0000
  C   C171      1.0  0.27285  0.29036  0.24168  1.0000
  C   C172      1.0  0.29187  0.25927  0.29402  1.0000
  H   H89       1.0  0.28778  0.20039  0.36064  1.0000
  O  Te9       1.0  0.17804  0.24729  0.21643  1.0000
  O  Te10      1.0  0.21635  0.31821  0.16304  1.0000
  H   H90       1.0  0.32120  0.26220  0.31412  1.0000
  Mg  Mg5       1.0  0.16483  0.29828  0.14521  1.0000
  C   C173      1.0  0.89407  0.85198  0.10998  1.0000
  C   C174      1.0  0.86192  0.85052  0.20212  1.0000
  C  Sn11      1.0  0.84762  0.88840  0.32161  1.0000
  C  Sn12      1.0  0.86592  0.92845  0.34905  1.0000
  C   C175      1.0  0.89805  0.92958  0.25614  1.0000
  C   C176      1.0  0.91212  0.89148  0.13692  1.0000
  H   H91       1.0  0.90495  0.82251  0.01767  1.0000
  O  Te11      1.0  0.81548  0.88635  0.41261  1.0000
  O  Te12      1.0  0.85222  0.96681  0.46765  1.0000
  H   H92       1.0  0.93701  0.89263  0.06552  1.0000
  Mg  Mg6       1.0  0.80757  0.94740  0.56035  1.0000
  C   C177      1.0  0.78537  0.26456  0.72069  1.0000
  C   C178      1.0  0.77809  0.22895  0.77664  1.0000
  C  Sn13      1.0  0.74272  0.22178  0.82726  1.0000
  C  Sn14      1.0  0.71416  0.25085  0.82157  1.0000
  C   C179      1.0  0.72171  0.28636  0.76528  1.0000
  C   C180      1.0  0.75721  0.29324  0.71497  1.0000
  H   H93       1.0  0.81283  0.26987  0.68167  1.0000
  O  Te13      1.0  0.73593  0.18605  0.88288  1.0000
  O  Te14      1.0  0.67855  0.24444  0.87136  1.0000
  H   H94       1.0  0.76283  0.32080  0.67155  1.0000
  Mg  Mg7       1.0  0.68293  0.19109  0.93761  1.0000
  C   C181      1.0  0.15932  0.09721  0.79721  1.0000
  C   C182      1.0  0.15325  0.12988  0.72215  1.0000
  C  Sn15      1.0  0.11850  0.13553  0.65907  1.0000
  C  Sn16      1.0  0.08935  0.10791  0.67160  1.0000
  C   C183      1.0  0.09570  0.07534  0.74704  1.0000
  C   C184      1.0  0.13058  0.06997  0.80969  1.0000
  H   H95       1.0  0.18630  0.09307  0.84578  1.0000
  O  Te15      1.0  0.11291  0.16832  0.58439  1.0000
  O  Te16      1.0  0.05435  0.11285  0.60966  1.0000
  H   H96       1.0  0.13467  0.04469  0.86791  1.0000
  Mg  Mg8       1.0  0.06035  0.16221  0.51865  1.0000
  C   C185      1.0  0.90726  0.11351  0.15729  1.0000
  C   C186      1.0  0.90236  0.08115  0.23495  1.0000
  C  Sn17      1.0  0.86829  0.07551  0.30351  1.0000
  C  Sn18      1.0  0.83863  0.10283  0.29392  1.0000
  C   C187      1.0  0.84381  0.13510  0.21586  1.0000
  C   C188      1.0  0.87802  0.14046  0.14771  1.0000
  H   H97       1.0  0.93372  0.11765  0.10448  1.0000
  O  Te17      1.0  0.86387  0.04303  0.38072  1.0000
  O  Te18      1.0  0.80429  0.09790  0.36135  1.0000
  H   H98       1.0  0.88180  0.16551  0.08749  1.0000
  Mg  Mg9       1.0  0.81185  0.04902  0.45400  1.0000
  C   C189      1.0  0.14080  0.92669  0.86294  1.0000
  C   C190      1.0  0.10870  0.92706  0.76764  1.0000
  C  Sn19      1.0  0.09457  0.88845  0.65193  1.0000
  C  Sn20      1.0  0.11297  0.84878  0.63155  1.0000
  C   C191      1.0  0.14506  0.84875  0.72759  1.0000
  C   C192      1.0  0.15896  0.88758  0.84298  1.0000
  H   H99       1.0  0.15155  0.95673  0.95230  1.0000
  O  Te19      1.0  0.06248  0.88940  0.55768  1.0000
  O  Te20      1.0  0.09944  0.80971  0.51685  1.0000
  H   H100      1.0  0.18380  0.88728  0.91683  1.0000
  Mg  Mg10      1.0  0.05480  0.82770  0.41742  1.0000
  C   C193      1.0  0.84361  0.90746  0.87006  1.0000
  C   C194      1.0  0.84583  0.86493  0.75484  1.0000
  C  Sn21      1.0  0.87588  0.85179  0.64262  1.0000
  C  Sn22      1.0  0.90420  0.88185  0.64614  1.0000
  C   C195      1.0  0.90174  0.92431  0.76197  1.0000
  C   C196      1.0  0.87154  0.93712  0.87366  1.0000
  H   H101      1.0  0.82026  0.91736  0.95655  1.0000
  O  Te21      1.0  0.87765  0.80919  0.52828  1.0000
  O  Te22      1.0  0.93455  0.86958  0.53544  1.0000
  H   H102      1.0  0.86984  0.97004  0.96293  1.0000
  Mg  Mg11      1.0  0.92452  0.80792  0.40279  1.0000
  C   C197      1.0  0.21240  0.26397  0.71547  1.0000
  C   C198      1.0  0.22100  0.22489  0.74347  1.0000
  C  Sn23      1.0  0.25642  0.21749  0.79402  1.0000
  C  Sn24      1.0  0.28367  0.24988  0.81691  1.0000
  C   C199      1.0  0.27479  0.28887  0.78870  1.0000
  C   C200      1.0  0.23926  0.29594  0.73809  1.0000
  H   H103      1.0  0.18491  0.26945  0.67640  1.0000
  O  Te23      1.0  0.26455  0.17826  0.82138  1.0000
  O  Te24      1.0  0.31928  0.24333  0.86743  1.0000
  H   H104      1.0  0.23261  0.32621  0.71653  1.0000
  Mg  Mg12      1.0  0.31700  0.18454  0.88902  1.0000
