data_image0
_chemical_formula_structural       H32C80N16C2Sn2C2HTe2HMgC2Sn2C2HTe2HMgC2Sn2C2HTe2HMgC2Sn2C2HTe2HMgC2Sn2C2HTe2HMgC2Sn2C2HTe2HMgC2Sn2C2HTe2HMgC2Sn2C2HTe2HMgC2Sn2C2HTe2HMgC2Sn2C2HTe2HMgC2Sn2C2HTe2HMgC2Sn2C2HTe2HMgC2Sn2C2HTe2HMgC2Sn2C2HTe2HMgC2Sn2C2HTe2HMgC2Sn2C2HTe2HMgC2Sn2C2HTe2HMgC2Sn2C2HTe2HMgC2Sn2C2HTe2HMgC2Sn2C2HTe2HMgC2Sn2C2HTe2HMgC2Sn2C2HTe2HMgC2Sn2C2HTe2HMgC2Sn2C2HTe2HMg
_chemical_formula_sum              "H80 C176 N16 Sn48 Te48 Mg24"
_cell_length_a       36.5142
_cell_length_b       32.5873
_cell_length_c       7.99299
_cell_angle_alpha    108.797
_cell_angle_beta     90.2331
_cell_angle_gamma    89.9611

_symmetry_space_group_name_H-M    'P1'
_space_group_IT_number       1

loop_
  _space_group_symop_operation_xyz
  'x, y, z'

loop_
  _atom_site_type_symbol
  _atom_site_label
  _atom_site_symmetry_multiplicity
  _atom_site_fract_x
  _atom_site_fract_y
  _atom_site_fract_z
  _atom_site_occupancy
  H   H1        1.0  0.46815  0.40436  0.34333  1.0000
  H   H2        1.0  0.53419  0.61032  0.33462  1.0000
  H   H3        1.0  0.46771  0.61015  0.32920  1.0000
  H   H4        1.0  0.53567  0.40383  0.33575  1.0000
  H   H5        1.0  0.96825  0.90257  0.33728  1.0000
  H   H6        1.0  0.03379  0.11014  0.34499  1.0000
  H   H7        1.0  0.96727  0.10909  0.33698  1.0000
  H   H8        1.0  0.03600  0.90261  0.33529  1.0000
  H   H9        1.0  0.33805  0.28629  0.13149  1.0000
  H   H10       1.0  0.66292  0.69222  0.10343  1.0000
  H   H11       1.0  0.33738  0.68980  0.09395  1.0000
  H   H12       1.0  0.66112  0.28550  0.14927  1.0000
  H   H13       1.0  0.83986  0.78401  0.14357  1.0000
  H   H14       1.0  0.16279  0.19392  0.11677  1.0000
  H   H15       1.0  0.83415  0.18896  0.12083  1.0000
  H   H16       1.0  0.16469  0.78719  0.14302  1.0000
  H   H17       1.0  0.46383  0.40265  0.82390  1.0000
  H   H18       1.0  0.53222  0.60963  0.83831  1.0000
  H   H19       1.0  0.46555  0.60959  0.83033  1.0000
  H   H20       1.0  0.53130  0.40114  0.81927  1.0000
  H   H21       1.0  0.96524  0.90250  0.83201  1.0000
  H   H22       1.0  0.03137  0.11037  0.85201  1.0000
  H   H23       1.0  0.96477  0.11023  0.84879  1.0000
  H   H24       1.0  0.03225  0.90190  0.82165  1.0000
  H   H25       1.0  0.33723  0.28529  0.63920  1.0000
  H   H26       1.0  0.66398  0.68765  0.59666  1.0000
  H   H27       1.0  0.33740  0.69371  0.60966  1.0000
  H   H28       1.0  0.66093  0.28515  0.64504  1.0000
  H   H29       1.0  0.83744  0.78496  0.64740  1.0000
  H   H30       1.0  0.16047  0.19327  0.62133  1.0000
  H   H31       1.0  0.83459  0.19220  0.61739  1.0000
  H   H32       1.0  0.16031  0.78536  0.65108  1.0000
  C   C1        1.0  0.42333  0.46406  0.27588  1.0000
  C   C2        1.0  0.57948  0.53962  0.26168  1.0000
  C   C3        1.0  0.42255  0.53872  0.25764  1.0000
  C   C4        1.0  0.57965  0.46424  0.27245  1.0000
  C   C5        1.0  0.92367  0.96236  0.27344  1.0000
  C   C6        1.0  0.07977  0.03998  0.26843  1.0000
  C   C7        1.0  0.92240  0.03769  0.26309  1.0000
  C   C8        1.0  0.08006  0.96420  0.27689  1.0000
  C   C9        1.0  0.46252  0.46514  0.29005  1.0000
  C   C10       1.0  0.54031  0.54127  0.28210  1.0000
  C   C11       1.0  0.46183  0.54077  0.27796  1.0000
  C   C12       1.0  0.54039  0.46495  0.28515  1.0000
  C   C13       1.0  0.96285  0.96368  0.28760  1.0000
  C   C14       1.0  0.04043  0.04095  0.28637  1.0000
  C   C15       1.0  0.96178  0.03957  0.27832  1.0000
  C   C16       1.0  0.04070  0.96412  0.28583  1.0000
  C   C17       1.0  0.48290  0.43057  0.31739  1.0000
  C   C18       1.0  0.51972  0.57981  0.30741  1.0000
  C   C19       1.0  0.48214  0.57967  0.30509  1.0000
  C   C20       1.0  0.52047  0.43038  0.31420  1.0000
  C   C21       1.0  0.98323  0.92892  0.31338  1.0000
  C   C22       1.0  0.01953  0.07941  0.31485  1.0000
  C   C23       1.0  0.98195  0.07875  0.31021  1.0000
  C   C24       1.0  0.02083  0.92907  0.31218  1.0000
  C   C25       1.0  0.32744  0.31882  0.20381  1.0000
  C   C26       1.0  0.67344  0.67458  0.19041  1.0000
  C   C27       1.0  0.32804  0.67361  0.18773  1.0000
  C   C28       1.0  0.67277  0.31771  0.22343  1.0000
  C   C29       1.0  0.82829  0.81677  0.20458  1.0000
  C   C30       1.0  0.17378  0.17603  0.20163  1.0000
  C   C31       1.0  0.82457  0.17166  0.21056  1.0000
  C   C32       1.0  0.17575  0.81953  0.21414  1.0000
  C   C33       1.0  0.02112  0.00226  0.28401  1.0000
  C   C34       1.0  0.98174  0.00180  0.28225  1.0000
  C   C35       1.0  0.52093  0.50313  0.28404  1.0000
  C   C36       1.0  0.48158  0.50308  0.28426  1.0000
  C   C37       1.0  0.09561  0.00234  0.27578  1.0000
  C   C38       1.0  0.90718  0.99983  0.27153  1.0000
  C   C39       1.0  0.59537  0.50186  0.26756  1.0000
  C   C40       1.0  0.40702  0.50118  0.26810  1.0000
  C   C41       1.0  0.42007  0.46309  0.75965  1.0000
  C   C42       1.0  0.57717  0.53787  0.75861  1.0000
  C   C43       1.0  0.42034  0.53856  0.74973  1.0000
  C   C44       1.0  0.57640  0.46205  0.76382  1.0000
  C   C45       1.0  0.91991  0.96286  0.76836  1.0000
  C   C46       1.0  0.07664  0.03905  0.76364  1.0000
  C   C47       1.0  0.91956  0.03882  0.76417  1.0000
  C   C48       1.0  0.07654  0.96228  0.75771  1.0000
  C   C49       1.0  0.45932  0.46371  0.77366  1.0000
  C   C50       1.0  0.53789  0.54002  0.77884  1.0000
  C   C51       1.0  0.45952  0.54031  0.77392  1.0000
  C   C52       1.0  0.53717  0.46310  0.77537  1.0000
  C   C53       1.0  0.95927  0.96364  0.77963  1.0000
  C   C54       1.0  0.03737  0.04079  0.78579  1.0000
  C   C55       1.0  0.95888  0.04077  0.78580  1.0000
  C   C56       1.0  0.03728  0.96327  0.77241  1.0000
  C   C57       1.0  0.47916  0.42888  0.80104  1.0000
  C   C58       1.0  0.51768  0.57900  0.80681  1.0000
  C   C59       1.0  0.48006  0.57905  0.80374  1.0000
  C   C60       1.0  0.51678  0.42836  0.80022  1.0000
  C   C61       1.0  0.97969  0.92897  0.80587  1.0000
  C   C62       1.0  0.01696  0.07969  0.81916  1.0000
  C   C63       1.0  0.97928  0.07964  0.81819  1.0000
  C   C64       1.0  0.01732  0.92873  0.80100  1.0000
  C   C65       1.0  0.32612  0.31754  0.71046  1.0000
  C   C66       1.0  0.67373  0.67099  0.68820  1.0000
  C   C67       1.0  0.32696  0.67610  0.69632  1.0000
  C   C68       1.0  0.67193  0.31779  0.71508  1.0000
  C   C69       1.0  0.82575  0.81728  0.71464  1.0000
  C   C70       1.0  0.17183  0.17451  0.70226  1.0000
  C   C71       1.0  0.82495  0.17484  0.70632  1.0000
  C   C72       1.0  0.17182  0.81809  0.71289  1.0000
  C   C73       1.0  0.01786  0.00206  0.77915  1.0000
  C   C74       1.0  0.97849  0.00214  0.78101  1.0000
  C   C75       1.0  0.51814  0.50172  0.77645  1.0000
  C   C76       1.0  0.47882  0.50192  0.77445  1.0000
  C   C77       1.0  0.09244  0.00025  0.75705  1.0000
  C   C78       1.0  0.90393  0.00033  0.76192  1.0000
  C   C79       1.0  0.59265  0.49959  0.76126  1.0000
  C   C80       1.0  0.40438  0.50040  0.75043  1.0000
  N   N1        1.0  0.29461  0.32417  0.26669  1.0000
  N   N2        1.0  0.70449  0.68366  0.27363  1.0000
  N   N3        1.0  0.29802  0.68408  0.27683  1.0000
  N   N4        1.0  0.70537  0.32206  0.28820  1.0000
  N   N5        1.0  0.79486  0.82237  0.25925  1.0000
  N   N6        1.0  0.20524  0.18487  0.28069  1.0000
  N   N7        1.0  0.79416  0.18121  0.29599  1.0000
  N   N8        1.0  0.20905  0.82443  0.27282  1.0000
  N   N9        1.0  0.29297  0.32249  0.77106  1.0000
  N   N10       1.0  0.70432  0.68087  0.77370  1.0000
  N   N11       1.0  0.29606  0.68526  0.77828  1.0000
  N   N12       1.0  0.70496  0.32344  0.77621  1.0000
  N   N13       1.0  0.79242  0.82204  0.77085  1.0000
  N   N14       1.0  0.20374  0.18251  0.77816  1.0000
  N   N15       1.0  0.79449  0.18440  0.79198  1.0000
  N   N16       1.0  0.20536  0.82392  0.76790  1.0000
  C   C81       1.0  0.10514  0.13260  0.14488  1.0000
  C   C82       1.0  0.14070  0.14268  0.21051  1.0000
  C  Sn1       1.0  0.15891  0.11594  0.28961  1.0000
  C  Sn2       1.0  0.14113  0.07843  0.30302  1.0000
  C   C83       1.0  0.10556  0.06862  0.23684  1.0000
  C   C84       1.0  0.08759  0.09561  0.15799  1.0000
  H   H33       1.0  0.09124  0.15347  0.08379  1.0000
  O  Te1       1.0  0.19443  0.12649  0.35454  1.0000
  O  Te2       1.0  0.15870  0.05114  0.38139  1.0000
  H   H34       1.0  0.06006  0.08778  0.10709  1.0000
  Mg  Mg1       1.0  0.20700  0.07921  0.45018  1.0000
  C   C85       1.0  0.90791  0.87045  0.12637  1.0000
  C   C86       1.0  0.90250  0.91436  0.21899  1.0000
  C  Sn3       1.0  0.87133  0.92784  0.32308  1.0000
  C  Sn4       1.0  0.84515  0.89670  0.33444  1.0000
  C   C87       1.0  0.85083  0.85285  0.24137  1.0000
  C   C88       1.0  0.88211  0.83971  0.13755  1.0000
  H   H35       1.0  0.93212  0.86028  0.04612  1.0000
  O  Te3       1.0  0.86634  0.97184  0.41470  1.0000
  O  Te4       1.0  0.81376  0.90928  0.43755  1.0000
  H   H36       1.0  0.88630  0.80571  0.06595  1.0000
  Mg  Mg2       1.0  0.81919  0.97301  0.53776  1.0000
  C   C89       1.0  0.14445  0.92806  0.38358  1.0000
  C   C90       1.0  0.11260  0.92951  0.28808  1.0000
  C  Sn5       1.0  0.09893  0.89177  0.16447  1.0000
  C  Sn6       1.0  0.11753  0.85188  0.13627  1.0000
  C   C91       1.0  0.14935  0.85077  0.23257  1.0000
  C   C92       1.0  0.16281  0.88873  0.35589  1.0000
  H   H37       1.0  0.15485  0.95743  0.47907  1.0000
  O  Te5       1.0  0.06708  0.89380  0.07015  1.0000
  O  Te6       1.0  0.10445  0.81367  0.01359  1.0000
  H   H38       1.0  0.18745  0.88759  0.42990  1.0000
  Mg  Mg3       1.0  0.06086  0.91202  0.91740  1.0000
  C   C93       1.0  0.89445  0.13190  0.15911  1.0000
  C   C94       1.0  0.85710  0.13604  0.19836  1.0000
  C  Sn7       1.0  0.83997  0.10748  0.27142  1.0000
  C  Sn8       1.0  0.86070  0.07420  0.30571  1.0000
  C   C95       1.0  0.89806  0.07035  0.26609  1.0000
  C   C96       1.0  0.91492  0.09909  0.19295  1.0000
  H   H39       1.0  0.90750  0.15415  0.10262  1.0000
  O  Te7       1.0  0.80262  0.11207  0.30978  1.0000
  O  Te8       1.0  0.84428  0.04523  0.37873  1.0000
  H   H40       1.0  0.94385  0.09589  0.16268  1.0000
  Mg  Mg4       1.0  0.79262  0.06466  0.40808  1.0000
  C   C97       1.0  0.60468  0.63106  0.13131  1.0000
  C   C98       1.0  0.64021  0.64125  0.19716  1.0000
  C  Sn9       1.0  0.65827  0.61493  0.27874  1.0000
  C  Sn10      1.0  0.64036  0.57773  0.29445  1.0000
  C   C99       1.0  0.60483  0.56779  0.22804  1.0000
  C   C100      1.0  0.58700  0.59436  0.14670  1.0000
  H   H41       1.0  0.59089  0.65160  0.06829  1.0000
  O  Te9       1.0  0.69376  0.62560  0.34386  1.0000
  O  Te10      1.0  0.65778  0.55085  0.37533  1.0000
  H   H42       1.0  0.55950  0.58644  0.09562  1.0000
  Mg  Mg5       1.0  0.70611  0.57894  0.44335  1.0000
  C   C101      1.0  0.40775  0.37209  0.13143  1.0000
  C   C102      1.0  0.40248  0.41600  0.22456  1.0000
  C  Sn11      1.0  0.37140  0.42955  0.32924  1.0000
  C  Sn12      1.0  0.34516  0.39849  0.34069  1.0000
  C   C103      1.0  0.35069  0.35463  0.24712  1.0000
  C   C104      1.0  0.38188  0.34143  0.14271  1.0000
  H   H43       1.0  0.43189  0.36187  0.05072  1.0000
  O  Te11      1.0  0.36656  0.47355  0.42136  1.0000
  O  Te12      1.0  0.31386  0.41114  0.44440  1.0000
  H   H44       1.0  0.38596  0.30743  0.07072  1.0000
  Mg  Mg6       1.0  0.31948  0.47483  0.54513  1.0000
  C   C105      1.0  0.65641  0.40889  0.37184  1.0000
  C   C106      1.0  0.65154  0.36519  0.27385  1.0000
  C  Sn13      1.0  0.62158  0.35218  0.15973  1.0000
  C  Sn14      1.0  0.59607  0.38358  0.14366  1.0000
  C   C107      1.0  0.60119  0.42721  0.24218  1.0000
  C   C108      1.0  0.63127  0.43987  0.35602  1.0000
  H   H45       1.0  0.67968  0.41869  0.45985  1.0000
  O  Te13      1.0  0.61712  0.30840  0.06285  1.0000
  O  Te14      1.0  0.56589  0.37147  0.03054  1.0000
  H   H46       1.0  0.63504  0.47371  0.43178  1.0000
  Mg  Mg7       1.0  0.57248  0.38691  0.92631  1.0000
  C   C109      1.0  0.39727  0.63172  0.13846  1.0000
  C   C110      1.0  0.36005  0.63769  0.17919  1.0000
  C  Sn15      1.0  0.34199  0.61059  0.25645  1.0000
  C  Sn16      1.0  0.36163  0.57691  0.29352  1.0000
  C   C111      1.0  0.39887  0.57122  0.25238  1.0000
  C   C112      1.0  0.41666  0.59852  0.17504  1.0000
  H   H47       1.0  0.41104  0.65285  0.07871  1.0000
  O  Te15      1.0  0.30480  0.61700  0.29623  1.0000
  O  Te16      1.0  0.34427  0.54936  0.37075  1.0000
  H   H48       1.0  0.44548  0.59391  0.14363  1.0000
  Mg  Mg8       1.0  0.29324  0.57105  0.40054  1.0000
  C   C113      1.0  0.28508  0.24380  0.32592  1.0000
  C   C114      1.0  0.27807  0.27849  0.26363  1.0000
  C  Sn17      1.0  0.24283  0.28512  0.20853  1.0000
  C  Sn18      1.0  0.21415  0.25643  0.21613  1.0000
  C   C115      1.0  0.22144  0.22184  0.27876  1.0000
  C   C116      1.0  0.25680  0.21550  0.33351  1.0000
  H   H49       1.0  0.31244  0.23890  0.36837  1.0000
  O  Te17      1.0  0.23630  0.31993  0.14660  1.0000
  O  Te18      1.0  0.17868  0.26231  0.16195  1.0000
  H   H50       1.0  0.26222  0.18865  0.38184  1.0000
  Mg  Mg9       1.0  0.18341  0.31445  0.08766  1.0000
  C   C117      1.0  0.78468  0.74257  0.32365  1.0000
  C   C118      1.0  0.77813  0.77690  0.25857  1.0000
  C  Sn19      1.0  0.74318  0.78330  0.19965  1.0000
  C  Sn20      1.0  0.71430  0.75476  0.20621  1.0000
  C   C119      1.0  0.72112  0.72053  0.27166  1.0000
  C   C120      1.0  0.75620  0.71441  0.33023  1.0000
  H   H51       1.0  0.81181  0.73784  0.36906  1.0000
  O  Te19      1.0  0.73712  0.81775  0.13496  1.0000
  O  Te20      1.0  0.67911  0.76042  0.14823  1.0000
  H   H52       1.0  0.76126  0.68784  0.38071  1.0000
  Mg  Mg10      1.0  0.68446  0.81208  0.07122  1.0000
  C   C121      1.0  0.28869  0.76360  0.20068  1.0000
  C   C122      1.0  0.28153  0.72827  0.25859  1.0000
  C  Sn21      1.0  0.24645  0.72195  0.31514  1.0000
  C  Sn22      1.0  0.21808  0.75159  0.31350  1.0000
  C   C123      1.0  0.22552  0.78681  0.25521  1.0000
  C   C124      1.0  0.26072  0.79284  0.19895  1.0000
  H   H53       1.0  0.31592  0.76826  0.15706  1.0000
  O  Te21      1.0  0.23977  0.68649  0.37265  1.0000
  O  Te22      1.0  0.18278  0.74603  0.36925  1.0000
  H   H54       1.0  0.26625  0.82018  0.15402  1.0000
  Mg  Mg11      1.0  0.18720  0.69274  0.43594  1.0000
  C   C125      1.0  0.71350  0.23856  0.32554  1.0000
  C   C126      1.0  0.72199  0.27708  0.29283  1.0000
  C  Sn23      1.0  0.75767  0.28485  0.24808  1.0000
  C  Sn24      1.0  0.78530  0.25340  0.23590  1.0000
  C   C127      1.0  0.77653  0.21495  0.26875  1.0000
  C   C128      1.0  0.74074  0.20752  0.31349  1.0000
  H   H55       1.0  0.68581  0.23279  0.36006  1.0000
  O  Te23      1.0  0.76567  0.32352  0.21590  1.0000
  O  Te24      1.0  0.82118  0.26033  0.19136  1.0000
  H   H56       1.0  0.73417  0.17768  0.33869  1.0000
  Mg  Mg12      1.0  0.81860  0.31808  0.15968  1.0000
  C   C129      1.0  0.10243  0.13316  0.65219  1.0000
  C   C130      1.0  0.13855  0.14148  0.71196  1.0000
  C  Sn25      1.0  0.15670  0.11319  0.78350  1.0000
  C  Sn26      1.0  0.13827  0.07589  0.79520  1.0000
  C   C131      1.0  0.10215  0.06784  0.73493  1.0000
  C   C132      1.0  0.08425  0.09638  0.66363  1.0000
  H   H57       1.0  0.08858  0.15522  0.59693  1.0000
  O  Te25      1.0  0.19278  0.12199  0.84265  1.0000
  O  Te26      1.0  0.15516  0.04707  0.86607  1.0000
  H   H58       1.0  0.05629  0.08991  0.61726  1.0000
  Mg  Mg13      1.0  0.20438  0.07305  0.92895  1.0000
  C   C133      1.0  0.90426  0.87122  0.63172  1.0000
  C   C134      1.0  0.89904  0.91509  0.72573  1.0000
  C  Sn27      1.0  0.86863  0.92839  0.83543  1.0000
  C  Sn28      1.0  0.84302  0.89712  0.85107  1.0000
  C   C135      1.0  0.84850  0.85331  0.75656  1.0000
  C   C136      1.0  0.87901  0.84035  0.64712  1.0000
  H   H59       1.0  0.92788  0.86120  0.54712  1.0000
  O  Te27      1.0  0.86383  0.97235  0.92836  1.0000
  O  Te28      1.0  0.81239  0.90951  0.95981  1.0000
  H   H60       1.0  0.88306  0.80638  0.57444  1.0000
  Mg  Mg14      1.0  0.81695  0.89422  0.05971  1.0000
  C   C137      1.0  0.14080  0.92669  0.86294  1.0000
  C   C138      1.0  0.10870  0.92706  0.76764  1.0000
  C  Sn29      1.0  0.09457  0.88845  0.65193  1.0000
  C  Sn30      1.0  0.11297  0.84878  0.63155  1.0000
  C   C139      1.0  0.14506  0.84875  0.72759  1.0000
  C   C140      1.0  0.15896  0.88758  0.84298  1.0000
  H   H61       1.0  0.15155  0.95673  0.95230  1.0000
  O  Te29      1.0  0.06248  0.88940  0.55768  1.0000
  O  Te30      1.0  0.09944  0.80971  0.51685  1.0000
  H   H62       1.0  0.18380  0.88728  0.91683  1.0000
  Mg  Mg15      1.0  0.05480  0.82770  0.41742  1.0000
  C   C141      1.0  0.83663  0.09618  0.79105  1.0000
  C   C142      1.0  0.84427  0.13229  0.73899  1.0000
  C  Sn31      1.0  0.87894  0.13747  0.67519  1.0000
  C  Sn32      1.0  0.90641  0.10586  0.66339  1.0000
  C   C143      1.0  0.89848  0.06983  0.71569  1.0000
  C   C144      1.0  0.86370  0.06497  0.77940  1.0000
  H   H63       1.0  0.80972  0.09240  0.84025  1.0000
  O  Te31      1.0  0.88612  0.17376  0.62380  1.0000
  O  Te32      1.0  0.94128  0.11022  0.60005  1.0000
  H   H64       1.0  0.85718  0.03699  0.81959  1.0000
  Mg  Mg16      1.0  0.93782  0.16530  0.54618  1.0000
  C   C145      1.0  0.64789  0.57610  0.78474  1.0000
  C   C146      1.0  0.61026  0.57195  0.75107  1.0000
  C  Sn33      1.0  0.59216  0.60064  0.68143  1.0000
  C  Sn34      1.0  0.61218  0.63405  0.64490  1.0000
  C   C147      1.0  0.64983  0.63791  0.67894  1.0000
  C   C148      1.0  0.66767  0.60903  0.74869  1.0000
  H   H65       1.0  0.66170  0.55375  0.83862  1.0000
  O  Te33      1.0  0.55454  0.59605  0.64864  1.0000
  O  Te34      1.0  0.59478  0.66316  0.57520  1.0000
  H   H66       1.0  0.69681  0.61223  0.77464  1.0000
  Mg  Mg17      1.0  0.54311  0.64367  0.55319  1.0000
  C   C149      1.0  0.34456  0.40747  0.86717  1.0000
  C   C150      1.0  0.34634  0.36508  0.75037  1.0000
  C  Sn35      1.0  0.37596  0.35198  0.63532  1.0000
  C  Sn36      1.0  0.40428  0.38195  0.63758  1.0000
  C   C151      1.0  0.40226  0.42427  0.75502  1.0000
  C   C152      1.0  0.37250  0.43703  0.86954  1.0000
  H   H67       1.0  0.32154  0.41734  0.95585  1.0000
  O  Te35      1.0  0.37730  0.30952  0.51942  1.0000
  O  Te36      1.0  0.43421  0.36971  0.52406  1.0000
  H   H68       1.0  0.37114  0.46984  0.96004  1.0000
  Mg  Mg18      1.0  0.42367  0.30825  0.39016  1.0000
  C   C153      1.0  0.59358  0.37040  0.61884  1.0000
  C   C154      1.0  0.59564  0.41327  0.73085  1.0000
  C  Sn37      1.0  0.62575  0.42724  0.84327  1.0000
  C  Sn38      1.0  0.65428  0.39765  0.84323  1.0000
  C   C155      1.0  0.65197  0.35483  0.73058  1.0000
  C   C156      1.0  0.62172  0.34120  0.61866  1.0000
  H   H69       1.0  0.57019  0.35985  0.53217  1.0000
  O  Te37      1.0  0.62736  0.47018  0.95439  1.0000
  O  Te38      1.0  0.68469  0.41075  0.95420  1.0000
  H   H70       1.0  0.62014  0.30801  0.53187  1.0000
  Mg  Mg19      1.0  0.67354  0.39357  0.08168  1.0000
  C   C157      1.0  0.39607  0.63394  0.64545  1.0000
  C   C158      1.0  0.35888  0.63995  0.68655  1.0000
  C  Sn39      1.0  0.34046  0.61168  0.75671  1.0000
  C  Sn40      1.0  0.35972  0.57679  0.78616  1.0000
  C   C159      1.0  0.39694  0.57107  0.74471  1.0000
  C   C160      1.0  0.41509  0.59954  0.67451  1.0000
  H   H71       1.0  0.41013  0.65598  0.59122  1.0000
  O  Te39      1.0  0.30329  0.61815  0.79697  1.0000
  O  Te40      1.0  0.34199  0.54806  0.85619  1.0000
  H   H72       1.0  0.44390  0.59490  0.64281  1.0000
  Mg  Mg20      1.0  0.29116  0.57033  0.88979  1.0000
  C   C161      1.0  0.28354  0.24161  0.82653  1.0000
  C   C162      1.0  0.27670  0.27634  0.76428  1.0000
  C  Sn41      1.0  0.24152  0.28318  0.70923  1.0000
  C  Sn42      1.0  0.21270  0.25466  0.71687  1.0000
  C   C163      1.0  0.21982  0.22002  0.77948  1.0000
  C   C164      1.0  0.25513  0.21347  0.83417  1.0000
  H   H73       1.0  0.31086  0.23655  0.86894  1.0000
  O  Te41      1.0  0.23516  0.31803  0.64733  1.0000
  O  Te42      1.0  0.17727  0.26075  0.66275  1.0000
  H   H74       1.0  0.26041  0.18659  0.88247  1.0000
  Mg  Mg21      1.0  0.18226  0.31286  0.58847  1.0000
  C   C165      1.0  0.72516  0.77964  0.70186  1.0000
  C   C166      1.0  0.76104  0.78825  0.76501  1.0000
  C  Sn43      1.0  0.78022  0.75797  0.82156  1.0000
  C  Sn44      1.0  0.76311  0.71838  0.81456  1.0000
  C   C167      1.0  0.72722  0.71006  0.75105  1.0000
  C   C168      1.0  0.70827  0.74058  0.69485  1.0000
  H   H75       1.0  0.71051  0.80324  0.65828  1.0000
  O  Te43      1.0  0.81604  0.76710  0.88433  1.0000
  O  Te44      1.0  0.78165  0.68754  0.87018  1.0000
  H   H76       1.0  0.68050  0.73390  0.64586  1.0000
  Mg  Mg22      1.0  0.83002  0.71488  0.94519  1.0000
  C   C169      1.0  0.27368  0.78467  0.71465  1.0000
  C   C170      1.0  0.23611  0.78871  0.74869  1.0000
  C  Sn45      1.0  0.21764  0.75768  0.80303  1.0000
  C  Sn46      1.0  0.23723  0.72198  0.82361  1.0000
  C   C171      1.0  0.27482  0.71825  0.78934  1.0000
  C   C172      1.0  0.29302  0.74948  0.73498  1.0000
  H   H77       1.0  0.28776  0.80884  0.67268  1.0000
  O  Te45      1.0  0.18010  0.76221  0.83642  1.0000
  O  Te46      1.0  0.21946  0.69051  0.87782  1.0000
  H   H78       1.0  0.32211  0.74635  0.70874  1.0000
  Mg  Mg23      1.0  0.16806  0.71090  0.90731  1.0000
  C   C173      1.0  0.77353  0.28413  0.72877  1.0000
  C   C174      1.0  0.73582  0.28821  0.75853  1.0000
  C  Sn47      1.0  0.71684  0.25729  0.81145  1.0000
  C  Sn48      1.0  0.73606  0.22167  0.83494  1.0000
  C   C175      1.0  0.77379  0.21790  0.80495  1.0000
  C   C176      1.0  0.79251  0.24902  0.75197  1.0000
  H   H79       1.0  0.78802  0.30822  0.68788  1.0000
  O  Te47      1.0  0.67916  0.26186  0.84055  1.0000
  O  Te48      1.0  0.71777  0.19032  0.88781  1.0000
  H   H80       1.0  0.82172  0.24586  0.72905  1.0000
  Mg  Mg24      1.0  0.66637  0.21071  0.91114  1.0000
