data_image0
_chemical_formula_structural       H80C152N16SnCSn2CSnTe4Mg2SnCSn2CSnTe4Mg2SnCSn2CSnTe4Mg2SnCSn2CSnTe4Mg2SnCSn2CSnTe4Mg2SnCSn2CSnTe4Mg2SnCSn2CSnTe4Mg2SnCSn2CSnTe4Mg2SnCSn2CSnTe4Mg2SnCSn2CSnTe4Mg2SnCSn2CSnTe4Mg2SnCSn2CSnTe4Mg2
_chemical_formula_sum              "H80 C176 N16 Sn48 Te48 Mg24"
_cell_length_a       36.5142
_cell_length_b       32.5873
_cell_length_c       7.99299
_cell_angle_alpha    108.797
_cell_angle_beta     90.2331
_cell_angle_gamma    89.9611

_symmetry_space_group_name_H-M    'P1'
_space_group_IT_number       1

loop_
  _space_group_symop_operation_xyz
  'x, y, z'

loop_
  _atom_site_type_symbol
  _atom_site_label
  _atom_site_symmetry_multiplicity
  _atom_site_fract_x
  _atom_site_fract_y
  _atom_site_fract_z
  _atom_site_occupancy
  H   H1        1.0  0.11176  0.81841  0.04491  1.0000
  H   H2        1.0  0.89343  0.15992  0.10252  1.0000
  H   H3        1.0  0.60383  0.65987  0.08036  1.0000
  H   H4        1.0  0.61071  0.31809  0.04331  1.0000
  H   H5        1.0  0.07076  0.88078  0.06925  1.0000
  H   H6        1.0  0.93665  0.10350  0.12108  1.0000
  H   H7        1.0  0.56271  0.60222  0.10399  1.0000
  H   H8        1.0  0.57021  0.38051  0.06361  1.0000
  H   H9        1.0  0.14229  0.96451  0.45772  1.0000
  H   H10       1.0  0.85296  0.04692  0.35344  1.0000
  H   H11       1.0  0.64874  0.55229  0.35163  1.0000
  H   H12       1.0  0.64095  0.46393  0.45735  1.0000
  H   H13       1.0  0.18494  0.90194  0.42723  1.0000
  H   H14       1.0  0.80879  0.10443  0.33528  1.0000
  H   H15       1.0  0.69089  0.60975  0.32196  1.0000
  H   H16       1.0  0.68265  0.40087  0.43379  1.0000
  H   H17       1.0  0.81456  0.75271  0.35280  1.0000
  H   H18       1.0  0.18866  0.75423  0.35689  1.0000
  H   H19       1.0  0.68477  0.75345  0.16760  1.0000
  H   H20       1.0  0.31868  0.75402  0.17561  1.0000
  H   H21       1.0  0.72581  0.81370  0.16835  1.0000
  H   H22       1.0  0.27775  0.81493  0.17674  1.0000
  H   H23       1.0  0.77278  0.69333  0.36257  1.0000
  H   H24       1.0  0.23031  0.69377  0.36344  1.0000
  H   H25       1.0  0.46815  0.40436  0.34333  1.0000
  H   H26       1.0  0.53419  0.61032  0.33462  1.0000
  H   H27       1.0  0.46771  0.61015  0.32920  1.0000
  H   H28       1.0  0.53567  0.40383  0.33575  1.0000
  H   H29       1.0  0.96825  0.90257  0.33728  1.0000
  H   H30       1.0  0.03379  0.11014  0.34499  1.0000
  H   H31       1.0  0.96727  0.10909  0.33698  1.0000
  H   H32       1.0  0.03600  0.90261  0.33529  1.0000
  H   H33       1.0  0.33805  0.28629  0.13149  1.0000
  H   H34       1.0  0.66292  0.69222  0.10343  1.0000
  H   H35       1.0  0.33738  0.68980  0.09395  1.0000
  H   H36       1.0  0.66112  0.28550  0.14927  1.0000
  H   H37       1.0  0.83986  0.78401  0.14357  1.0000
  H   H38       1.0  0.16279  0.19392  0.11677  1.0000
  H   H39       1.0  0.83415  0.18896  0.12083  1.0000
  H   H40       1.0  0.16469  0.78719  0.14302  1.0000
  H   H41       1.0  0.10710  0.81483  0.54854  1.0000
  H   H42       1.0  0.89429  0.16211  0.60352  1.0000
  H   H43       1.0  0.60356  0.66044  0.59419  1.0000
  H   H44       1.0  0.06571  0.87604  0.56193  1.0000
  H   H45       1.0  0.93577  0.10377  0.61927  1.0000
  H   H46       1.0  0.56121  0.60346  0.61445  1.0000
  H   H47       1.0  0.13915  0.96330  0.93050  1.0000
  H   H48       1.0  0.84986  0.04935  0.84678  1.0000
  H   H49       1.0  0.64755  0.54698  0.83572  1.0000
  H   H50       1.0  0.18133  0.90164  0.91213  1.0000
  H   H51       1.0  0.80720  0.10808  0.82654  1.0000
  H   H52       1.0  0.69059  0.60433  0.81191  1.0000
  H   H53       1.0  0.18286  0.25388  0.68122  1.0000
  H   H54       1.0  0.81356  0.75136  0.85214  1.0000
  H   H55       1.0  0.18547  0.75265  0.85267  1.0000
  H   H56       1.0  0.68329  0.75098  0.67154  1.0000
  H   H57       1.0  0.31353  0.25175  0.85364  1.0000
  H   H58       1.0  0.31574  0.75627  0.67959  1.0000
  H   H59       1.0  0.27155  0.19193  0.86399  1.0000
  H   H60       1.0  0.72343  0.81280  0.68127  1.0000
  H   H61       1.0  0.27388  0.81626  0.68139  1.0000
  H   H62       1.0  0.77255  0.69074  0.85883  1.0000
  H   H63       1.0  0.22367  0.31438  0.68508  1.0000
  H   H64       1.0  0.22838  0.69375  0.86407  1.0000
  H   H65       1.0  0.46383  0.40265  0.82390  1.0000
  H   H66       1.0  0.53222  0.60963  0.83831  1.0000
  H   H67       1.0  0.46555  0.60959  0.83033  1.0000
  H   H68       1.0  0.53130  0.40114  0.81927  1.0000
  H   H69       1.0  0.96524  0.90250  0.83201  1.0000
  H   H70       1.0  0.03137  0.11037  0.85201  1.0000
  H   H71       1.0  0.96477  0.11023  0.84879  1.0000
  H   H72       1.0  0.03225  0.90190  0.82165  1.0000
  H   H73       1.0  0.33723  0.28529  0.63920  1.0000
  H   H74       1.0  0.66398  0.68765  0.59666  1.0000
  H   H75       1.0  0.33740  0.69371  0.60966  1.0000
  H   H76       1.0  0.66093  0.28515  0.64504  1.0000
  H   H77       1.0  0.83744  0.78496  0.64740  1.0000
  H   H78       1.0  0.16047  0.19327  0.62133  1.0000
  H   H79       1.0  0.83459  0.19220  0.61739  1.0000
  H   H80       1.0  0.16031  0.78536  0.65108  1.0000
  C   C1        1.0  0.77324  0.78694  0.25666  1.0000
  C   C2        1.0  0.23034  0.78829  0.26388  1.0000
  C   C3        1.0  0.72603  0.71820  0.26185  1.0000
  C   C4        1.0  0.27673  0.71872  0.26396  1.0000
  C   C5        1.0  0.15122  0.85614  0.23498  1.0000
  C   C6        1.0  0.84859  0.13710  0.22399  1.0000
  C   C7        1.0  0.65000  0.63977  0.20512  1.0000
  C   C8        1.0  0.64927  0.35512  0.23879  1.0000
  C   C9        1.0  0.11850  0.85023  0.13694  1.0000
  C   C10       1.0  0.88479  0.13595  0.16297  1.0000
  C   C11       1.0  0.61360  0.63693  0.14370  1.0000
  C   C12       1.0  0.61713  0.34982  0.13706  1.0000
  C   C13       1.0  0.09511  0.88500  0.15191  1.0000
  C   C14       1.0  0.90927  0.10435  0.17460  1.0000
  C   C15       1.0  0.59019  0.60466  0.15852  1.0000
  C   C16       1.0  0.59423  0.38480  0.14852  1.0000
  C   C17       1.0  0.10342  0.92649  0.26812  1.0000
  C   C18       1.0  0.89827  0.07215  0.24579  1.0000
  C   C19       1.0  0.60246  0.57385  0.23513  1.0000
  C   C20       1.0  0.60256  0.42627  0.26485  1.0000
  C   C21       1.0  0.13623  0.93237  0.36656  1.0000
  C   C22       1.0  0.86129  0.07214  0.29901  1.0000
  C   C23       1.0  0.63949  0.57577  0.28979  1.0000
  C   C24       1.0  0.63494  0.43179  0.36618  1.0000
  C   C25       1.0  0.15977  0.89782  0.35035  1.0000
  C   C26       1.0  0.83692  0.10398  0.28988  1.0000
  C   C27       1.0  0.66277  0.60785  0.27506  1.0000
  C   C28       1.0  0.65789  0.39689  0.35415  1.0000
  C   C29       1.0  0.78627  0.75226  0.30917  1.0000
  C   C30       1.0  0.21689  0.75337  0.31307  1.0000
  C   C31       1.0  0.71314  0.75298  0.20865  1.0000
  C   C32       1.0  0.29011  0.75359  0.21323  1.0000
  C   C33       1.0  0.73596  0.78696  0.20894  1.0000
  C   C34       1.0  0.26752  0.78805  0.21590  1.0000
  C   C35       1.0  0.76294  0.71913  0.31526  1.0000
  C   C36       1.0  0.23992  0.71971  0.31670  1.0000
  C   C37       1.0  0.42333  0.46406  0.27588  1.0000
  C   C38       1.0  0.57948  0.53962  0.26168  1.0000
  C   C39       1.0  0.42255  0.53872  0.25764  1.0000
  C   C40       1.0  0.57965  0.46424  0.27245  1.0000
  C   C41       1.0  0.92367  0.96236  0.27344  1.0000
  C   C42       1.0  0.07977  0.03998  0.26843  1.0000
  C   C43       1.0  0.92240  0.03769  0.26309  1.0000
  C   C44       1.0  0.08006  0.96420  0.27689  1.0000
  C   C45       1.0  0.46252  0.46514  0.29005  1.0000
  C   C46       1.0  0.54031  0.54127  0.28210  1.0000
  C   C47       1.0  0.46183  0.54077  0.27796  1.0000
  C   C48       1.0  0.54039  0.46495  0.28515  1.0000
  C   C49       1.0  0.96285  0.96368  0.28760  1.0000
  C   C50       1.0  0.04043  0.04095  0.28637  1.0000
  C   C51       1.0  0.96178  0.03957  0.27832  1.0000
  C   C52       1.0  0.04070  0.96412  0.28583  1.0000
  C   C53       1.0  0.48290  0.43057  0.31739  1.0000
  C   C54       1.0  0.51972  0.57981  0.30741  1.0000
  C   C55       1.0  0.48214  0.57967  0.30509  1.0000
  C   C56       1.0  0.52047  0.43038  0.31420  1.0000
  C   C57       1.0  0.98323  0.92892  0.31338  1.0000
  C   C58       1.0  0.01953  0.07941  0.31485  1.0000
  C   C59       1.0  0.98195  0.07875  0.31021  1.0000
  C   C60       1.0  0.02083  0.92907  0.31218  1.0000
  C   C61       1.0  0.32744  0.31882  0.20381  1.0000
  C   C62       1.0  0.67344  0.67458  0.19041  1.0000
  C   C63       1.0  0.32804  0.67361  0.18773  1.0000
  C   C64       1.0  0.67277  0.31771  0.22343  1.0000
  C   C65       1.0  0.82829  0.81677  0.20458  1.0000
  C   C66       1.0  0.17378  0.17603  0.20163  1.0000
  C   C67       1.0  0.82457  0.17166  0.21056  1.0000
  C   C68       1.0  0.17575  0.81953  0.21414  1.0000
  C   C69       1.0  0.02112  0.00226  0.28401  1.0000
  C   C70       1.0  0.98174  0.00180  0.28225  1.0000
  C   C71       1.0  0.52093  0.50313  0.28404  1.0000
  C   C72       1.0  0.48158  0.50308  0.28426  1.0000
  C   C73       1.0  0.09561  0.00234  0.27578  1.0000
  C   C74       1.0  0.90718  0.99983  0.27153  1.0000
  C   C75       1.0  0.59537  0.50186  0.26756  1.0000
  C   C76       1.0  0.40702  0.50118  0.26810  1.0000
  C   C77       1.0  0.22481  0.21743  0.76672  1.0000
  C   C78       1.0  0.77140  0.78573  0.76276  1.0000
  C   C79       1.0  0.22685  0.78831  0.76431  1.0000
  C   C80       1.0  0.72549  0.71552  0.76018  1.0000
  C   C81       1.0  0.27165  0.28664  0.76502  1.0000
  C   C82       1.0  0.27446  0.71982  0.76657  1.0000
  C   C83       1.0  0.14739  0.85434  0.72660  1.0000
  C   C84       1.0  0.84825  0.13971  0.71880  1.0000
  C   C85       1.0  0.64970  0.63702  0.70627  1.0000
  C   C86       1.0  0.11417  0.84745  0.63236  1.0000
  C   C87       1.0  0.88471  0.13802  0.66111  1.0000
  C   C88       1.0  0.61296  0.63611  0.65136  1.0000
  C   C89       1.0  0.09056  0.88180  0.64181  1.0000
  C   C90       1.0  0.90831  0.10557  0.67245  1.0000
  C   C91       1.0  0.58891  0.60433  0.66537  1.0000
  C   C92       1.0  0.09940  0.92416  0.74911  1.0000
  C   C93       1.0  0.89622  0.07342  0.74176  1.0000
  C   C94       1.0  0.60083  0.57192  0.73424  1.0000
  C   C95       1.0  0.13255  0.93075  0.84516  1.0000
  C   C96       1.0  0.85903  0.07432  0.79301  1.0000
  C   C97       1.0  0.63825  0.57203  0.78224  1.0000
  C   C98       1.0  0.15614  0.89666  0.83497  1.0000
  C   C99       1.0  0.83548  0.10673  0.78236  1.0000
  C   C100      1.0  0.66215  0.60390  0.76995  1.0000
  C   C101      1.0  0.21146  0.25276  0.71816  1.0000
  C   C102      1.0  0.78521  0.75050  0.80918  1.0000
  C   C103      1.0  0.21387  0.75294  0.81216  1.0000
  C   C104      1.0  0.71181  0.75061  0.71108  1.0000
  C   C105      1.0  0.28507  0.25138  0.81251  1.0000
  C   C106      1.0  0.28724  0.75512  0.71694  1.0000
  C   C107      1.0  0.26184  0.21798  0.81766  1.0000
  C   C108      1.0  0.73408  0.78541  0.71600  1.0000
  C   C109      1.0  0.26409  0.78896  0.71880  1.0000
  C   C110      1.0  0.76244  0.71667  0.81274  1.0000
  C   C111      1.0  0.23420  0.28705  0.72063  1.0000
  C   C112      1.0  0.23752  0.71995  0.81744  1.0000
  C   C113      1.0  0.42007  0.46309  0.75965  1.0000
  C   C114      1.0  0.57717  0.53787  0.75861  1.0000
  C   C115      1.0  0.42034  0.53856  0.74973  1.0000
  C   C116      1.0  0.57640  0.46205  0.76382  1.0000
  C   C117      1.0  0.91991  0.96286  0.76836  1.0000
  C   C118      1.0  0.07664  0.03905  0.76364  1.0000
  C   C119      1.0  0.91956  0.03882  0.76417  1.0000
  C   C120      1.0  0.07654  0.96228  0.75771  1.0000
  C   C121      1.0  0.45932  0.46371  0.77366  1.0000
  C   C122      1.0  0.53789  0.54002  0.77884  1.0000
  C   C123      1.0  0.45952  0.54031  0.77392  1.0000
  C   C124      1.0  0.53717  0.46310  0.77537  1.0000
  C   C125      1.0  0.95927  0.96364  0.77963  1.0000
  C   C126      1.0  0.03737  0.04079  0.78579  1.0000
  C   C127      1.0  0.95888  0.04077  0.78580  1.0000
  C   C128      1.0  0.03728  0.96327  0.77241  1.0000
  C   C129      1.0  0.47916  0.42888  0.80104  1.0000
  C   C130      1.0  0.51768  0.57900  0.80681  1.0000
  C   C131      1.0  0.48006  0.57905  0.80374  1.0000
  C   C132      1.0  0.51678  0.42836  0.80022  1.0000
  C   C133      1.0  0.97969  0.92897  0.80587  1.0000
  C   C134      1.0  0.01696  0.07969  0.81916  1.0000
  C   C135      1.0  0.97928  0.07964  0.81819  1.0000
  C   C136      1.0  0.01732  0.92873  0.80100  1.0000
  C   C137      1.0  0.32612  0.31754  0.71046  1.0000
  C   C138      1.0  0.67373  0.67099  0.68820  1.0000
  C   C139      1.0  0.32696  0.67610  0.69632  1.0000
  C   C140      1.0  0.67193  0.31779  0.71508  1.0000
  C   C141      1.0  0.82575  0.81728  0.71464  1.0000
  C   C142      1.0  0.17183  0.17451  0.70226  1.0000
  C   C143      1.0  0.82495  0.17484  0.70632  1.0000
  C   C144      1.0  0.17182  0.81809  0.71289  1.0000
  C   C145      1.0  0.01786  0.00206  0.77915  1.0000
  C   C146      1.0  0.97849  0.00214  0.78101  1.0000
  C   C147      1.0  0.51814  0.50172  0.77645  1.0000
  C   C148      1.0  0.47882  0.50192  0.77445  1.0000
  C   C149      1.0  0.09244  0.00025  0.75705  1.0000
  C   C150      1.0  0.90393  0.00033  0.76192  1.0000
  C   C151      1.0  0.59265  0.49959  0.76126  1.0000
  C   C152      1.0  0.40438  0.50040  0.75043  1.0000
  N   N1        1.0  0.29461  0.32417  0.26669  1.0000
  N   N2        1.0  0.70449  0.68366  0.27363  1.0000
  N   N3        1.0  0.29802  0.68408  0.27683  1.0000
  N   N4        1.0  0.70537  0.32206  0.28820  1.0000
  N   N5        1.0  0.79486  0.82237  0.25925  1.0000
  N   N6        1.0  0.20524  0.18487  0.28069  1.0000
  N   N7        1.0  0.79416  0.18121  0.29599  1.0000
  N   N8        1.0  0.20905  0.82443  0.27282  1.0000
  N   N9        1.0  0.29297  0.32249  0.77106  1.0000
  N   N10       1.0  0.70432  0.68087  0.77370  1.0000
  N   N11       1.0  0.29606  0.68526  0.77828  1.0000
  N   N12       1.0  0.70496  0.32344  0.77621  1.0000
  N   N13       1.0  0.79242  0.82204  0.77085  1.0000
  N   N14       1.0  0.20374  0.18251  0.77816  1.0000
  N   N15       1.0  0.79449  0.18440  0.79198  1.0000
  N   N16       1.0  0.20536  0.82392  0.76790  1.0000
  C  Sn1       1.0  0.10167  0.14048  0.71071  1.0000
  C   C153      1.0  0.13885  0.14555  0.75466  1.0000
  C  Sn2       1.0  0.15880  0.11139  0.77972  1.0000
  C  Sn3       1.0  0.14123  0.07131  0.76033  1.0000
  C   C154      1.0  0.10407  0.06625  0.71638  1.0000
  C  Sn4       1.0  0.08410  0.10040  0.69132  1.0000
  O  Te1       1.0  0.08226  0.17506  0.68627  1.0000
  O  Te2       1.0  0.19594  0.11724  0.82365  1.0000
  O  Te3       1.0  0.16006  0.03671  0.78482  1.0000
  O  Te4       1.0  0.04698  0.09456  0.64738  1.0000
  Mg  Mg1       1.0  0.21009  0.06050  0.84332  1.0000
  Mg  Mg2       1.0  0.03220  0.15127  0.62759  1.0000
  C  Sn5       1.0  0.39125  0.62270  0.09135  1.0000
  C   C155      1.0  0.35512  0.63064  0.14991  1.0000
  C  Sn6       1.0  0.34085  0.61115  0.26768  1.0000
  C  Sn7       1.0  0.36315  0.58314  0.32827  1.0000
  C   C156      1.0  0.39926  0.57521  0.26974  1.0000
  C  Sn8       1.0  0.41356  0.59469  0.15194  1.0000
  O  Te5       1.0  0.40579  0.72157  0.97361  1.0000
  O  Te6       1.0  0.30464  0.61958  0.32432  1.0000
  O  Te7       1.0  0.34942  0.56329  0.44609  1.0000
  O  Te8       1.0  0.44974  0.58628  0.09533  1.0000
  Mg  Mg3       1.0  0.29846  0.58490  0.48518  1.0000
  Mg  Mg4       1.0  0.45680  0.69998  0.93456  1.0000
  C  Sn9       1.0  0.39491  0.35146  0.66018  1.0000
  C   C157      1.0  0.36212  0.35153  0.74988  1.0000
  C  Sn10      1.0  0.34413  0.39049  0.83496  1.0000
  C  Sn11      1.0  0.35922  0.43019  0.83020  1.0000
  C   C158      1.0  0.39198  0.43010  0.74053  1.0000
  C  Sn12      1.0  0.40999  0.39116  0.65543  1.0000
  O  Te9       1.0  0.41242  0.31213  0.57605  1.0000
  O  Te10      1.0  0.31140  0.38974  0.92383  1.0000
  O  Te11      1.0  0.34167  0.46953  0.91444  1.0000
  O  Te12      1.0  0.44271  0.39189  0.56658  1.0000
  Mg  Mg5       1.0  0.29690  0.37272  0.01818  1.0000
  Mg  Mg6       1.0  0.45637  0.32990  0.47211  1.0000
  C  Sn13      1.0  0.35011  0.57319  0.73317  1.0000
  C   C159      1.0  0.38704  0.56721  0.68630  1.0000
  C  Sn14      1.0  0.40737  0.60092  0.66023  1.0000
  C  Sn15      1.0  0.39044  0.64147  0.68155  1.0000
  C   C160      1.0  0.35354  0.64744  0.72841  1.0000
  C  Sn16      1.0  0.33319  0.61373  0.75448  1.0000
  O  Te13      1.0  0.33032  0.53903  0.75858  1.0000
  O  Te14      1.0  0.44424  0.59417  0.61338  1.0000
  O  Te15      1.0  0.41027  0.67563  0.65609  1.0000
  O  Te16      1.0  0.29634  0.62048  0.80134  1.0000
  Mg  Mg7       1.0  0.45972  0.65062  0.59342  1.0000
  Mg  Mg8       1.0  0.28084  0.56406  0.82142  1.0000
  C  Sn17      1.0  0.16366  0.09331  0.24650  1.0000
  C   C161      1.0  0.15562  0.12707  0.18009  1.0000
  C  Sn18      1.0  0.11929  0.13744  0.15576  1.0000
  C  Sn19      1.0  0.09040  0.11360  0.19881  1.0000
  C   C162      1.0  0.09845  0.07987  0.26521  1.0000
  C  Sn20      1.0  0.13477  0.06946  0.28956  1.0000
  O  Te17      1.0  0.20018  0.08350  0.26977  1.0000
  O  Te18      1.0  0.11193  0.17132  0.08911  1.0000
  O  Te19      1.0  0.05386  0.12344  0.17548  1.0000
  O  Te20      1.0  0.14214  0.03561  0.35619  1.0000
  Mg  Mg9       1.0  0.05775  0.17241  0.08088  1.0000
  Mg  Mg10      1.0  0.19630  0.03451  0.36456  1.0000
  C  Sn21      1.0  0.89686  0.87637  0.59754  1.0000
  C   C163      1.0  0.89293  0.91930  0.70668  1.0000
  C  Sn22      1.0  0.86842  0.92974  0.84790  1.0000
  C  Sn23      1.0  0.84741  0.89657  0.88080  1.0000
  C   C164      1.0  0.85136  0.85367  0.77172  1.0000
  C  Sn24      1.0  0.87586  0.84320  0.63043  1.0000
  O  Te21      1.0  0.92153  0.86669  0.45712  1.0000
  O  Te22      1.0  0.86495  0.97289  0.95516  1.0000
  O  Te23      1.0  0.82189  0.82726  0.02135  1.0000
  O  Te24      1.0  0.87934  0.80008  0.52324  1.0000
  Mg  Mg11      1.0  0.82688  0.89081  0.13020  1.0000
  Mg  Mg12      1.0  0.91656  0.80309  0.34823  1.0000
  C  Sn25      1.0  0.34141  0.40911  0.30739  1.0000
  C   C165      1.0  0.34623  0.36580  0.20431  1.0000
  C  Sn26      1.0  0.38070  0.35073  0.13662  1.0000
  C  Sn27      1.0  0.41098  0.37953  0.17280  1.0000
  C   C166      1.0  0.40616  0.42281  0.27584  1.0000
  C  Sn28      1.0  0.37170  0.43791  0.34356  1.0000
  O  Te25      1.0  0.30671  0.42348  0.37371  1.0000
  O  Te26      1.0  0.38484  0.30729  0.03386  1.0000
  O  Te27      1.0  0.44570  0.36513  0.10637  1.0000
  O  Te28      1.0  0.36755  0.48131  0.44629  1.0000
  Mg  Mg13      1.0  0.43838  0.38214  0.97334  1.0000
  Mg  Mg14      1.0  0.31487  0.48553  0.50695  1.0000
  C  Sn29      1.0  0.76820  0.27619  0.67737  1.0000
  C   C167      1.0  0.73132  0.28176  0.72544  1.0000
  C  Sn30      1.0  0.71554  0.25749  0.82202  1.0000
  C  Sn31      1.0  0.73708  0.22703  0.87169  1.0000
  C   C168      1.0  0.77394  0.22148  0.82365  1.0000
  C  Sn32      1.0  0.78974  0.24573  0.72704  1.0000
  O  Te29      1.0  0.78340  0.30081  0.58082  1.0000
  O  Te30      1.0  0.67861  0.26361  0.86849  1.0000
  O  Te31      1.0  0.72184  0.20240  0.96831  1.0000
  O  Te32      1.0  0.82665  0.23962  0.68059  1.0000
  Mg  Mg15      1.0  0.66953  0.14339  0.00042  1.0000
  Mg  Mg16      1.0  0.83492  0.28081  0.54876  1.0000
  C  Sn33      1.0  0.61377  0.35537  0.58481  1.0000
  C   C169      1.0  0.64612  0.35595  0.67954  1.0000
  C  Sn34      1.0  0.65428  0.39114  0.82941  1.0000
  C  Sn35      1.0  0.62957  0.42650  0.88585  1.0000
  C   C170      1.0  0.59723  0.42591  0.79116  1.0000
  C  Sn36      1.0  0.58906  0.39072  0.64125  1.0000
  O  Te33      1.0  0.60617  0.31985  0.43539  1.0000
  O  Te34      1.0  0.68680  0.39099  0.92192  1.0000
  O  Te35      1.0  0.63635  0.38300  0.03540  1.0000
  O  Te36      1.0  0.55656  0.39086  0.54879  1.0000
  Mg  Mg17      1.0  0.68412  0.36774  0.11732  1.0000
  Mg  Mg18      1.0  0.55836  0.33509  0.35343  1.0000
  C  Sn37      1.0  0.76830  0.27428  0.18608  1.0000
  C   C171      1.0  0.73135  0.27993  0.23282  1.0000
  C  Sn38      1.0  0.71502  0.25477  0.32421  1.0000
  C  Sn39      1.0  0.73607  0.22333  0.36995  1.0000
  C   C172      1.0  0.77299  0.21771  0.32325  1.0000
  C  Sn40      1.0  0.78934  0.24284  0.23182  1.0000
  O  Te37      1.0  0.78406  0.29979  0.09474  1.0000
  O  Te38      1.0  0.67804  0.26100  0.36945  1.0000
  O  Te39      1.0  0.72027  0.19782  0.46136  1.0000
  O  Te40      1.0  0.82631  0.23664  0.18662  1.0000
  Mg  Mg19      1.0  0.66895  0.21836  0.49373  1.0000
  Mg  Mg20      1.0  0.83543  0.27926  0.06242  1.0000
  C  Sn41      1.0  0.21849  0.25713  0.16400  1.0000
  C   C173      1.0  0.22703  0.22049  0.21112  1.0000
  C  Sn42      1.0  0.25904  0.21932  0.30576  1.0000
  C  Sn43      1.0  0.28300  0.25553  0.35443  1.0000
  C   C174      1.0  0.27445  0.29214  0.30736  1.0000
  C  Sn44      1.0  0.24244  0.29334  0.21268  1.0000
  O  Te41      1.0  0.18634  0.25760  0.06939  1.0000
  O  Te42      1.0  0.26701  0.18232  0.35131  1.0000
  O  Te43      1.0  0.31517  0.25503  0.44912  1.0000
  O  Te44      1.0  0.23447  0.33031  0.16716  1.0000
  Mg  Mg21      1.0  0.31407  0.19723  0.48059  1.0000
  Mg  Mg22      1.0  0.18741  0.31544  0.03797  1.0000
  C  Sn45      1.0  0.86524  0.92211  0.39113  1.0000
  C   C175      1.0  0.89850  0.92221  0.30541  1.0000
  C  Sn46      1.0  0.90790  0.88752  0.15625  1.0000
  C  Sn47      1.0  0.88353  0.85200  0.09133  1.0000
  C   C176      1.0  0.85029  0.85191  0.17700  1.0000
  C  Sn48      1.0  0.84087  0.88658  0.32620  1.0000
  O  Te45      1.0  0.85640  0.95713  0.54002  1.0000
  O  Te46      1.0  0.94131  0.88835  0.07283  1.0000
  O  Te47      1.0  0.89323  0.89599  0.94231  1.0000
  O  Te48      1.0  0.80747  0.88577  0.40958  1.0000
  Mg  Mg23      1.0  0.94188  0.91209  0.87442  1.0000
  Mg  Mg24      1.0  0.80771  0.94105  0.60794  1.0000
