data_image0
_chemical_formula_structural       H32C80N16SnCSn2CSnTe4Mg2SnCSn2CSnTe4Mg2SnCSn2CSnTe4Mg2SnCSn2CSnTe4Mg2SnCSn2CSnTe4Mg2SnCSn2CSnTe4Mg2SnCSn2CSnTe4Mg2SnCSn2CSnTe4Mg2SnCSn2CSnTe4Mg2SnCSn2CSnTe4Mg2SnCSn2CSnTe4Mg2SnCSn2CSnTe4Mg2SnCSn2CSnTe4Mg2SnCSn2CSnTe4Mg2SnCSn2CSnTe4Mg2SnCSn2CSnTe4Mg2SnCSn2CSnTe4Mg2SnCSn2CSnTe4Mg2SnCSn2CSnTe4Mg2SnCSn2CSnTe4Mg2SnCSn2CSnTe4Mg2SnCSn2CSnTe4Mg2SnCSn2CSnTe4Mg2SnCSn2CSnTe4Mg2
_chemical_formula_sum              "H32 C128 N16 Sn96 Te96 Mg48"
_cell_length_a       36.5142
_cell_length_b       32.5873
_cell_length_c       7.99299
_cell_angle_alpha    108.797
_cell_angle_beta     90.2331
_cell_angle_gamma    89.9611

_symmetry_space_group_name_H-M    'P1'
_space_group_IT_number       1

loop_
  _space_group_symop_operation_xyz
  'x, y, z'

loop_
  _atom_site_type_symbol
  _atom_site_label
  _atom_site_symmetry_multiplicity
  _atom_site_fract_x
  _atom_site_fract_y
  _atom_site_fract_z
  _atom_site_occupancy
  H   H1        1.0  0.46815  0.40436  0.34333  1.0000
  H   H2        1.0  0.53419  0.61032  0.33462  1.0000
  H   H3        1.0  0.46771  0.61015  0.32920  1.0000
  H   H4        1.0  0.53567  0.40383  0.33575  1.0000
  H   H5        1.0  0.96825  0.90257  0.33728  1.0000
  H   H6        1.0  0.03379  0.11014  0.34499  1.0000
  H   H7        1.0  0.96727  0.10909  0.33698  1.0000
  H   H8        1.0  0.03600  0.90261  0.33529  1.0000
  H   H9        1.0  0.33805  0.28629  0.13149  1.0000
  H   H10       1.0  0.66292  0.69222  0.10343  1.0000
  H   H11       1.0  0.33738  0.68980  0.09395  1.0000
  H   H12       1.0  0.66112  0.28550  0.14927  1.0000
  H   H13       1.0  0.83986  0.78401  0.14357  1.0000
  H   H14       1.0  0.16279  0.19392  0.11677  1.0000
  H   H15       1.0  0.83415  0.18896  0.12083  1.0000
  H   H16       1.0  0.16469  0.78719  0.14302  1.0000
  H   H17       1.0  0.46383  0.40265  0.82390  1.0000
  H   H18       1.0  0.53222  0.60963  0.83831  1.0000
  H   H19       1.0  0.46555  0.60959  0.83033  1.0000
  H   H20       1.0  0.53130  0.40114  0.81927  1.0000
  H   H21       1.0  0.96524  0.90250  0.83201  1.0000
  H   H22       1.0  0.03137  0.11037  0.85201  1.0000
  H   H23       1.0  0.96477  0.11023  0.84879  1.0000
  H   H24       1.0  0.03225  0.90190  0.82165  1.0000
  H   H25       1.0  0.33723  0.28529  0.63920  1.0000
  H   H26       1.0  0.66398  0.68765  0.59666  1.0000
  H   H27       1.0  0.33740  0.69371  0.60966  1.0000
  H   H28       1.0  0.66093  0.28515  0.64504  1.0000
  H   H29       1.0  0.83744  0.78496  0.64740  1.0000
  H   H30       1.0  0.16047  0.19327  0.62133  1.0000
  H   H31       1.0  0.83459  0.19220  0.61739  1.0000
  H   H32       1.0  0.16031  0.78536  0.65108  1.0000
  C   C1        1.0  0.42333  0.46406  0.27588  1.0000
  C   C2        1.0  0.57948  0.53962  0.26168  1.0000
  C   C3        1.0  0.42255  0.53872  0.25764  1.0000
  C   C4        1.0  0.57965  0.46424  0.27245  1.0000
  C   C5        1.0  0.92367  0.96236  0.27344  1.0000
  C   C6        1.0  0.07977  0.03998  0.26843  1.0000
  C   C7        1.0  0.92240  0.03769  0.26309  1.0000
  C   C8        1.0  0.08006  0.96420  0.27689  1.0000
  C   C9        1.0  0.46252  0.46514  0.29005  1.0000
  C   C10       1.0  0.54031  0.54127  0.28210  1.0000
  C   C11       1.0  0.46183  0.54077  0.27796  1.0000
  C   C12       1.0  0.54039  0.46495  0.28515  1.0000
  C   C13       1.0  0.96285  0.96368  0.28760  1.0000
  C   C14       1.0  0.04043  0.04095  0.28637  1.0000
  C   C15       1.0  0.96178  0.03957  0.27832  1.0000
  C   C16       1.0  0.04070  0.96412  0.28583  1.0000
  C   C17       1.0  0.48290  0.43057  0.31739  1.0000
  C   C18       1.0  0.51972  0.57981  0.30741  1.0000
  C   C19       1.0  0.48214  0.57967  0.30509  1.0000
  C   C20       1.0  0.52047  0.43038  0.31420  1.0000
  C   C21       1.0  0.98323  0.92892  0.31338  1.0000
  C   C22       1.0  0.01953  0.07941  0.31485  1.0000
  C   C23       1.0  0.98195  0.07875  0.31021  1.0000
  C   C24       1.0  0.02083  0.92907  0.31218  1.0000
  C   C25       1.0  0.32744  0.31882  0.20381  1.0000
  C   C26       1.0  0.67344  0.67458  0.19041  1.0000
  C   C27       1.0  0.32804  0.67361  0.18773  1.0000
  C   C28       1.0  0.67277  0.31771  0.22343  1.0000
  C   C29       1.0  0.82829  0.81677  0.20458  1.0000
  C   C30       1.0  0.17378  0.17603  0.20163  1.0000
  C   C31       1.0  0.82457  0.17166  0.21056  1.0000
  C   C32       1.0  0.17575  0.81953  0.21414  1.0000
  C   C33       1.0  0.02112  0.00226  0.28401  1.0000
  C   C34       1.0  0.98174  0.00180  0.28225  1.0000
  C   C35       1.0  0.52093  0.50313  0.28404  1.0000
  C   C36       1.0  0.48158  0.50308  0.28426  1.0000
  C   C37       1.0  0.09561  0.00234  0.27578  1.0000
  C   C38       1.0  0.90718  0.99983  0.27153  1.0000
  C   C39       1.0  0.59537  0.50186  0.26756  1.0000
  C   C40       1.0  0.40702  0.50118  0.26810  1.0000
  C   C41       1.0  0.42007  0.46309  0.75965  1.0000
  C   C42       1.0  0.57717  0.53787  0.75861  1.0000
  C   C43       1.0  0.42034  0.53856  0.74973  1.0000
  C   C44       1.0  0.57640  0.46205  0.76382  1.0000
  C   C45       1.0  0.91991  0.96286  0.76836  1.0000
  C   C46       1.0  0.07664  0.03905  0.76364  1.0000
  C   C47       1.0  0.91956  0.03882  0.76417  1.0000
  C   C48       1.0  0.07654  0.96228  0.75771  1.0000
  C   C49       1.0  0.45932  0.46371  0.77366  1.0000
  C   C50       1.0  0.53789  0.54002  0.77884  1.0000
  C   C51       1.0  0.45952  0.54031  0.77392  1.0000
  C   C52       1.0  0.53717  0.46310  0.77537  1.0000
  C   C53       1.0  0.95927  0.96364  0.77963  1.0000
  C   C54       1.0  0.03737  0.04079  0.78579  1.0000
  C   C55       1.0  0.95888  0.04077  0.78580  1.0000
  C   C56       1.0  0.03728  0.96327  0.77241  1.0000
  C   C57       1.0  0.47916  0.42888  0.80104  1.0000
  C   C58       1.0  0.51768  0.57900  0.80681  1.0000
  C   C59       1.0  0.48006  0.57905  0.80374  1.0000
  C   C60       1.0  0.51678  0.42836  0.80022  1.0000
  C   C61       1.0  0.97969  0.92897  0.80587  1.0000
  C   C62       1.0  0.01696  0.07969  0.81916  1.0000
  C   C63       1.0  0.97928  0.07964  0.81819  1.0000
  C   C64       1.0  0.01732  0.92873  0.80100  1.0000
  C   C65       1.0  0.32612  0.31754  0.71046  1.0000
  C   C66       1.0  0.67373  0.67099  0.68820  1.0000
  C   C67       1.0  0.32696  0.67610  0.69632  1.0000
  C   C68       1.0  0.67193  0.31779  0.71508  1.0000
  C   C69       1.0  0.82575  0.81728  0.71464  1.0000
  C   C70       1.0  0.17183  0.17451  0.70226  1.0000
  C   C71       1.0  0.82495  0.17484  0.70632  1.0000
  C   C72       1.0  0.17182  0.81809  0.71289  1.0000
  C   C73       1.0  0.01786  0.00206  0.77915  1.0000
  C   C74       1.0  0.97849  0.00214  0.78101  1.0000
  C   C75       1.0  0.51814  0.50172  0.77645  1.0000
  C   C76       1.0  0.47882  0.50192  0.77445  1.0000
  C   C77       1.0  0.09244  0.00025  0.75705  1.0000
  C   C78       1.0  0.90393  0.00033  0.76192  1.0000
  C   C79       1.0  0.59265  0.49959  0.76126  1.0000
  C   C80       1.0  0.40438  0.50040  0.75043  1.0000
  N   N1        1.0  0.29461  0.32417  0.26669  1.0000
  N   N2        1.0  0.70449  0.68366  0.27363  1.0000
  N   N3        1.0  0.29802  0.68408  0.27683  1.0000
  N   N4        1.0  0.70537  0.32206  0.28820  1.0000
  N   N5        1.0  0.79486  0.82237  0.25925  1.0000
  N   N6        1.0  0.20524  0.18487  0.28069  1.0000
  N   N7        1.0  0.79416  0.18121  0.29599  1.0000
  N   N8        1.0  0.20905  0.82443  0.27282  1.0000
  N   N9        1.0  0.29297  0.32249  0.77106  1.0000
  N   N10       1.0  0.70432  0.68087  0.77370  1.0000
  N   N11       1.0  0.29606  0.68526  0.77828  1.0000
  N   N12       1.0  0.70496  0.32344  0.77621  1.0000
  N   N13       1.0  0.79242  0.82204  0.77085  1.0000
  N   N14       1.0  0.20374  0.18251  0.77816  1.0000
  N   N15       1.0  0.79449  0.18440  0.79198  1.0000
  N   N16       1.0  0.20536  0.82392  0.76790  1.0000
  C  Sn1       1.0  0.16366  0.09331  0.24650  1.0000
  C   C81       1.0  0.15562  0.12707  0.18009  1.0000
  C  Sn2       1.0  0.11929  0.13744  0.15576  1.0000
  C  Sn3       1.0  0.09040  0.11360  0.19881  1.0000
  C   C82       1.0  0.09845  0.07987  0.26521  1.0000
  C  Sn4       1.0  0.13477  0.06946  0.28956  1.0000
  O  Te1       1.0  0.20018  0.08350  0.26977  1.0000
  O  Te2       1.0  0.11193  0.17132  0.08911  1.0000
  O  Te3       1.0  0.05386  0.12344  0.17548  1.0000
  O  Te4       1.0  0.14214  0.03561  0.35619  1.0000
  Mg  Mg1       1.0  0.05775  0.17241  0.08088  1.0000
  Mg  Mg2       1.0  0.19630  0.03451  0.36456  1.0000
  C  Sn5       1.0  0.90090  0.87560  0.09080  1.0000
  C   C83       1.0  0.89662  0.91858  0.19880  1.0000
  C  Sn6       1.0  0.87103  0.92920  0.33550  1.0000
  C  Sn7       1.0  0.84927  0.89616  0.36497  1.0000
  C   C84       1.0  0.85356  0.85321  0.25704  1.0000
  C  Sn8       1.0  0.87915  0.84256  0.12027  1.0000
  O  Te5       1.0  0.92750  0.94476  0.95492  1.0000
  O  Te6       1.0  0.86724  0.97240  0.44169  1.0000
  O  Te7       1.0  0.82350  0.90607  0.50098  1.0000
  O  Te8       1.0  0.88295  0.79939  0.01415  1.0000
  Mg  Mg3       1.0  0.82844  0.96962  0.61007  1.0000
  Mg  Mg4       1.0  0.92258  0.88116  0.84580  1.0000
  C  Sn9       1.0  0.09276  0.87318  0.17975  1.0000
  C   C85       1.0  0.09773  0.91650  0.28263  1.0000
  C  Sn10      1.0  0.13197  0.93117  0.35624  1.0000
  C  Sn11      1.0  0.16188  0.90193  0.32631  1.0000
  C   C86       1.0  0.15691  0.85864  0.22347  1.0000
  C  Sn12      1.0  0.12267  0.84394  0.14983  1.0000
  O  Te9       1.0  0.05829  0.85923  0.10746  1.0000
  O  Te10      1.0  0.13626  0.97462  0.45867  1.0000
  O  Te11      1.0  0.19637  0.91592  0.39871  1.0000
  O  Te12      1.0  0.11838  0.80052  0.04742  1.0000
  Mg  Mg5       1.0  0.18853  0.97815  0.52871  1.0000
  Mg  Mg6       1.0  0.06697  0.87600  0.97725  1.0000
  C  Sn13      1.0  0.88869  0.12283  0.11120  1.0000
  C   C87       1.0  0.85237  0.12890  0.16839  1.0000
  C  Sn14      1.0  0.83881  0.10793  0.28256  1.0000
  C  Sn15      1.0  0.86204  0.08033  0.34088  1.0000
  C   C88       1.0  0.89834  0.07428  0.28372  1.0000
  C  Sn16      1.0  0.91192  0.09523  0.16952  1.0000
  O  Te13      1.0  0.90251  0.22317  0.99707  1.0000
  O  Te14      1.0  0.80240  0.11449  0.33789  1.0000
  O  Te15      1.0  0.84904  0.05902  0.45509  1.0000
  O  Te16      1.0  0.94831  0.08869  0.11422  1.0000
  Mg  Mg7       1.0  0.79744  0.07832  0.49365  1.0000
  Mg  Mg8       1.0  0.95415  0.20389  0.95855  1.0000
  C  Sn17      1.0  0.66296  0.59197  0.23623  1.0000
  C   C89       1.0  0.65515  0.62527  0.16680  1.0000
  C  Sn18      1.0  0.61890  0.63569  0.14119  1.0000
  C  Sn19      1.0  0.58984  0.61235  0.18601  1.0000
  C   C90       1.0  0.59766  0.57908  0.25541  1.0000
  C  Sn20      1.0  0.63391  0.56864  0.28104  1.0000
  O  Te17      1.0  0.69941  0.58212  0.26072  1.0000
  O  Te18      1.0  0.61177  0.66910  0.07154  1.0000
  O  Te19      1.0  0.55338  0.62224  0.16145  1.0000
  O  Te20      1.0  0.64104  0.53526  0.35067  1.0000
  Mg  Mg9       1.0  0.55760  0.67046  0.06265  1.0000
  Mg  Mg10      1.0  0.69520  0.53388  0.35971  1.0000
  C  Sn21      1.0  0.36534  0.42357  0.39789  1.0000
  C   C91       1.0  0.39858  0.42368  0.31195  1.0000
  C  Sn22      1.0  0.40788  0.38908  0.16228  1.0000
  C  Sn23      1.0  0.38344  0.35364  0.09706  1.0000
  C   C92       1.0  0.35022  0.35354  0.18296  1.0000
  C  Sn24      1.0  0.34090  0.38813  0.33267  1.0000
  O  Te21      1.0  0.35661  0.45850  0.54730  1.0000
  O  Te22      1.0  0.44126  0.38992  0.07865  1.0000
  O  Te23      1.0  0.39304  0.39773  0.94753  1.0000
  O  Te24      1.0  0.30754  0.38731  0.41627  1.0000
  Mg  Mg11      1.0  0.44169  0.41380  0.87952  1.0000
  Mg  Mg12      1.0  0.30792  0.44245  0.61534  1.0000
  C  Sn25      1.0  0.61656  0.35794  0.09212  1.0000
  C   C93       1.0  0.64831  0.35737  0.18955  1.0000
  C  Sn26      1.0  0.65623  0.39179  0.34259  1.0000
  C  Sn27      1.0  0.63190  0.42750  0.39953  1.0000
  C   C94       1.0  0.60016  0.42805  0.30215  1.0000
  C  Sn28      1.0  0.59222  0.39365  0.14905  1.0000
  O  Te25      1.0  0.61003  0.40221  0.93953  1.0000
  O  Te26      1.0  0.68815  0.39050  0.43776  1.0000
  O  Te27      1.0  0.63930  0.46227  0.55225  1.0000
  O  Te28      1.0  0.56032  0.39493  0.05393  1.0000
  Mg  Mg13      1.0  0.68622  0.44556  0.63700  1.0000
  Mg  Mg14      1.0  0.56306  0.41891  0.85473  1.0000
  C  Sn29      1.0  0.35193  0.57260  0.24105  1.0000
  C   C95       1.0  0.38875  0.56624  0.19236  1.0000
  C  Sn30      1.0  0.40880  0.59914  0.15827  1.0000
  C  Sn31      1.0  0.39171  0.63926  0.17326  1.0000
  C   C96       1.0  0.35492  0.64562  0.22195  1.0000
  C  Sn32      1.0  0.33484  0.61272  0.25604  1.0000
  O  Te29      1.0  0.33242  0.53925  0.27452  1.0000
  O  Te30      1.0  0.44556  0.59201  0.10974  1.0000
  O  Te31      1.0  0.41126  0.67262  0.13974  1.0000
  O  Te32      1.0  0.29810  0.61984  0.30457  1.0000
  Mg  Mg15      1.0  0.46065  0.64736  0.07785  1.0000
  Mg  Mg16      1.0  0.28300  0.56453  0.33658  1.0000
  C  Sn33      1.0  0.28623  0.23841  0.26649  1.0000
  C   C97       1.0  0.27761  0.27523  0.22086  1.0000
  C  Sn34      1.0  0.24113  0.28743  0.21295  1.0000
  C  Sn35      1.0  0.21267  0.26231  0.25156  1.0000
  C   C98       1.0  0.22130  0.22552  0.29719  1.0000
  C  Sn36      1.0  0.25777  0.21329  0.30511  1.0000
  O  Te33      1.0  0.32289  0.22682  0.27359  1.0000
  O  Te34      1.0  0.23318  0.32437  0.16696  1.0000
  O  Te35      1.0  0.17598  0.27393  0.24443  1.0000
  O  Te36      1.0  0.26572  0.17638  0.35110  1.0000
  Mg  Mg17      1.0  0.17902  0.32695  0.17537  1.0000
  Mg  Mg18      1.0  0.31987  0.17378  0.34281  1.0000
  C  Sn37      1.0  0.78605  0.73700  0.26439  1.0000
  C   C99       1.0  0.77784  0.77351  0.21577  1.0000
  C  Sn38      1.0  0.74147  0.78562  0.20380  1.0000
  C  Sn39      1.0  0.71270  0.76073  0.24133  1.0000
  C   C100      1.0  0.72092  0.72425  0.28995  1.0000
  C  Sn40      1.0  0.75729  0.71212  0.30192  1.0000
  O  Te37      1.0  0.82262  0.72550  0.27552  1.0000
  O  Te38      1.0  0.73394  0.82224  0.15487  1.0000
  O  Te39      1.0  0.67612  0.77226  0.23015  1.0000
  O  Te40      1.0  0.76482  0.67552  0.35085  1.0000
  Mg  Mg19      1.0  0.67976  0.82482  0.15819  1.0000
  Mg  Mg20      1.0  0.81899  0.67293  0.34765  1.0000
  C  Sn41      1.0  0.23029  0.71885  0.26923  1.0000
  C   C101      1.0  0.26762  0.71427  0.22984  1.0000
  C  Sn42      1.0  0.28808  0.74957  0.21948  1.0000
  C  Sn43      1.0  0.27086  0.79032  0.24921  1.0000
  C   C102      1.0  0.23355  0.79489  0.28860  1.0000
  C  Sn44      1.0  0.21307  0.75960  0.29896  1.0000
  O  Te41      1.0  0.21037  0.68312  0.27892  1.0000
  O  Te42      1.0  0.32536  0.74419  0.17984  1.0000
  O  Te43      1.0  0.29081  0.82606  0.23948  1.0000
  O  Te44      1.0  0.17581  0.76497  0.33860  1.0000
  Mg  Mg21      1.0  0.34085  0.80253  0.18149  1.0000
  Mg  Mg22      1.0  0.16030  0.70666  0.33708  1.0000
  C  Sn45      1.0  0.76830  0.27428  0.18608  1.0000
  C   C103      1.0  0.73135  0.27993  0.23282  1.0000
  C  Sn46      1.0  0.71502  0.25477  0.32421  1.0000
  C  Sn47      1.0  0.73607  0.22333  0.36995  1.0000
  C   C104      1.0  0.77299  0.21771  0.32325  1.0000
  C  Sn48      1.0  0.78934  0.24284  0.23182  1.0000
  O  Te45      1.0  0.78406  0.29979  0.09474  1.0000
  O  Te46      1.0  0.67804  0.26100  0.36945  1.0000
  O  Te47      1.0  0.72027  0.19782  0.46136  1.0000
  O  Te48      1.0  0.82631  0.23664  0.18662  1.0000
  Mg  Mg23      1.0  0.66895  0.21836  0.49373  1.0000
  Mg  Mg24      1.0  0.83543  0.27926  0.06242  1.0000
  C  Sn49      1.0  0.14155  0.08729  0.84286  1.0000
  C   C105      1.0  0.10479  0.08110  0.79152  1.0000
  C  Sn50      1.0  0.08974  0.10241  0.68125  1.0000
  C  Sn51      1.0  0.11189  0.13048  0.62095  1.0000
  C   C106      1.0  0.14863  0.13665  0.67227  1.0000
  C  Sn52      1.0  0.16370  0.11535  0.78256  1.0000
  O  Te49      1.0  0.15541  0.06564  0.95316  1.0000
  O  Te50      1.0  0.05292  0.09572  0.63175  1.0000
  O  Te51      1.0  0.09739  0.15213  0.51058  1.0000
  O  Te52      1.0  0.20050  0.12203  0.83204  1.0000
  Mg  Mg25      1.0  0.04578  0.13249  0.47954  1.0000
  Mg  Mg26      1.0  0.20767  0.08526  0.98416  1.0000
  C  Sn53      1.0  0.89686  0.87637  0.59754  1.0000
  C   C107      1.0  0.89293  0.91930  0.70668  1.0000
  C  Sn54      1.0  0.86842  0.92974  0.84790  1.0000
  C  Sn55      1.0  0.84741  0.89657  0.88080  1.0000
  C   C108      1.0  0.85136  0.85367  0.77172  1.0000
  C  Sn56      1.0  0.87586  0.84320  0.63043  1.0000
  O  Te53      1.0  0.92153  0.86669  0.45712  1.0000
  O  Te54      1.0  0.86495  0.97289  0.95516  1.0000
  O  Te55      1.0  0.82189  0.82726  0.02135  1.0000
  O  Te56      1.0  0.87934  0.80008  0.52324  1.0000
  Mg  Mg27      1.0  0.82688  0.89081  0.13020  1.0000
  Mg  Mg28      1.0  0.91656  0.80309  0.34823  1.0000
  C  Sn57      1.0  0.14749  0.90373  0.88619  1.0000
  C   C109      1.0  0.14368  0.86035  0.78185  1.0000
  C  Sn58      1.0  0.11858  0.84856  0.64207  1.0000
  C  Sn59      1.0  0.09685  0.88080  0.60573  1.0000
  C   C110      1.0  0.10067  0.92415  0.71001  1.0000
  C  Sn60      1.0  0.12576  0.93598  0.84985  1.0000
  O  Te57      1.0  0.17191  0.83575  0.02524  1.0000
  O  Te58      1.0  0.11525  0.80497  0.53965  1.0000
  O  Te59      1.0  0.07157  0.86971  0.46655  1.0000
  O  Te60      1.0  0.12910  0.97953  0.95221  1.0000
  Mg  Mg29      1.0  0.07703  0.80606  0.36470  1.0000
  Mg  Mg30      1.0  0.16648  0.89945  0.12712  1.0000
  C  Sn61      1.0  0.84166  0.10612  0.83891  1.0000
  C   C111      1.0  0.84893  0.13945  0.76917  1.0000
  C  Sn62      1.0  0.87974  0.13754  0.66392  1.0000
  C  Sn63      1.0  0.90378  0.10154  0.62752  1.0000
  C   C112      1.0  0.89650  0.06823  0.69721  1.0000
  C  Sn64      1.0  0.86570  0.07012  0.80250  1.0000
  O  Te61      1.0  0.81069  0.10870  0.94378  1.0000
  O  Te62      1.0  0.88645  0.17126  0.59573  1.0000
  O  Te63      1.0  0.93477  0.09898  0.52255  1.0000
  O  Te64      1.0  0.85838  0.03642  0.87064  1.0000
  Mg  Mg31      1.0  0.93219  0.15294  0.45992  1.0000
  Mg  Mg32      1.0  0.81180  0.97567  0.00639  1.0000
  C  Sn65      1.0  0.64247  0.58510  0.83361  1.0000
  C   C113      1.0  0.60573  0.57905  0.78184  1.0000
  C  Sn66      1.0  0.59091  0.60021  0.67048  1.0000
  C  Sn67      1.0  0.61328  0.62796  0.60948  1.0000
  C   C114      1.0  0.64999  0.63399  0.66122  1.0000
  C  Sn68      1.0  0.66484  0.61286  0.77261  1.0000
  O  Te65      1.0  0.65671  0.56363  0.94501  1.0000
  O  Te66      1.0  0.55410  0.59366  0.62058  1.0000
  O  Te67      1.0  0.59900  0.64944  0.49800  1.0000
  O  Te68      1.0  0.70162  0.61939  0.82248  1.0000
  Mg  Mg33      1.0  0.54732  0.63010  0.46680  1.0000
  Mg  Mg34      1.0  0.70843  0.58295  0.97617  1.0000
  C  Sn69      1.0  0.39491  0.35146  0.66018  1.0000
  C   C115      1.0  0.36212  0.35153  0.74988  1.0000
  C  Sn70      1.0  0.34413  0.39049  0.83496  1.0000
  C  Sn71      1.0  0.35922  0.43019  0.83020  1.0000
  C   C116      1.0  0.39198  0.43010  0.74053  1.0000
  C  Sn72      1.0  0.40999  0.39116  0.65543  1.0000
  O  Te69      1.0  0.41242  0.31213  0.57605  1.0000
  O  Te70      1.0  0.31140  0.38974  0.92383  1.0000
  O  Te71      1.0  0.34167  0.46953  0.91444  1.0000
  O  Te72      1.0  0.44271  0.39189  0.56658  1.0000
  Mg  Mg35      1.0  0.29690  0.37272  0.01818  1.0000
  Mg  Mg36      1.0  0.45637  0.32990  0.47211  1.0000
  C  Sn73      1.0  0.58887  0.37035  0.67104  1.0000
  C   C117      1.0  0.59347  0.41396  0.77093  1.0000
  C  Sn74      1.0  0.62761  0.42933  0.84383  1.0000
  C  Sn75      1.0  0.65779  0.40053  0.81623  1.0000
  C   C118      1.0  0.65319  0.35695  0.71637  1.0000
  C  Sn76      1.0  0.61905  0.34155  0.64344  1.0000
  O  Te73      1.0  0.55450  0.35570  0.59940  1.0000
  O  Te74      1.0  0.63153  0.47306  0.94327  1.0000
  O  Te75      1.0  0.69219  0.41522  0.88798  1.0000
  O  Te76      1.0  0.61513  0.29785  0.54403  1.0000
  Mg  Mg37      1.0  0.68297  0.39855  0.01355  1.0000
  Mg  Mg38      1.0  0.56287  0.29330  0.47361  1.0000
  C  Sn77      1.0  0.34333  0.60687  0.82723  1.0000
  C   C119      1.0  0.35094  0.64033  0.75870  1.0000
  C  Sn78      1.0  0.38165  0.63812  0.65253  1.0000
  C  Sn79      1.0  0.40525  0.60168  0.61394  1.0000
  C   C120      1.0  0.39763  0.56824  0.68243  1.0000
  C  Sn80      1.0  0.36692  0.57043  0.78864  1.0000
  O  Te77      1.0  0.31247  0.60976  0.93306  1.0000
  O  Te78      1.0  0.38870  0.67198  0.58558  1.0000
  O  Te79      1.0  0.43612  0.59882  0.50802  1.0000
  O  Te80      1.0  0.35987  0.53659  0.85554  1.0000
  Mg  Mg39      1.0  0.43412  0.65312  0.44775  1.0000
  Mg  Mg40      1.0  0.31445  0.55541  0.99331  1.0000
  C  Sn81      1.0  0.28469  0.23621  0.76711  1.0000
  C   C121      1.0  0.27624  0.27309  0.72151  1.0000
  C  Sn82      1.0  0.23982  0.28550  0.71366  1.0000
  C  Sn83      1.0  0.21124  0.26055  0.75231  1.0000
  C   C122      1.0  0.21968  0.22370  0.79791  1.0000
  C  Sn84      1.0  0.25610  0.21126  0.80576  1.0000
  O  Te81      1.0  0.32129  0.22441  0.77414  1.0000
  O  Te82      1.0  0.23206  0.32249  0.66769  1.0000
  O  Te83      1.0  0.17461  0.27238  0.74524  1.0000
  O  Te84      1.0  0.26387  0.17430  0.85172  1.0000
  Mg  Mg41      1.0  0.17791  0.32539  0.67619  1.0000
  Mg  Mg42      1.0  0.31801  0.17138  0.84335  1.0000
  C  Sn85      1.0  0.71738  0.75341  0.65730  1.0000
  C   C123      1.0  0.72622  0.71655  0.70228  1.0000
  C  Sn86      1.0  0.75804  0.71558  0.79856  1.0000
  C  Sn87      1.0  0.78151  0.75223  0.85107  1.0000
  C   C124      1.0  0.77266  0.78906  0.80612  1.0000
  C  Sn88      1.0  0.74085  0.79006  0.70981  1.0000
  O  Te85      1.0  0.68544  0.75367  0.56099  1.0000
  O  Te86      1.0  0.76631  0.67836  0.84193  1.0000
  O  Te87      1.0  0.81347  0.75195  0.94744  1.0000
  O  Te88      1.0  0.73258  0.82725  0.66647  1.0000
  Mg  Mg43      1.0  0.81293  0.69370  0.97478  1.0000
  Mg  Mg44      1.0  0.68596  0.81196  0.53371  1.0000
  C  Sn89      1.0  0.28698  0.77001  0.76432  1.0000
  C   C125      1.0  0.27868  0.73220  0.80307  1.0000
  C  Sn90      1.0  0.24229  0.71964  0.80960  1.0000
  C  Sn91      1.0  0.21358  0.74540  0.77660  1.0000
  C   C126      1.0  0.22189  0.78318  0.73785  1.0000
  C  Sn92      1.0  0.25828  0.79577  0.73133  1.0000
  O  Te89      1.0  0.32356  0.78194  0.75849  1.0000
  O  Te90      1.0  0.23467  0.68172  0.84867  1.0000
  O  Te91      1.0  0.17698  0.73344  0.78247  1.0000
  O  Te92      1.0  0.26590  0.83366  0.69226  1.0000
  Mg  Mg45      1.0  0.18050  0.67901  0.84121  1.0000
  Mg  Mg46      1.0  0.32006  0.83639  0.69959  1.0000
  C  Sn93      1.0  0.76820  0.27619  0.67737  1.0000
  C   C127      1.0  0.73132  0.28176  0.72544  1.0000
  C  Sn94      1.0  0.71554  0.25749  0.82202  1.0000
  C  Sn95      1.0  0.73708  0.22703  0.87169  1.0000
  C   C128      1.0  0.77394  0.22148  0.82365  1.0000
  C  Sn96      1.0  0.78974  0.24573  0.72704  1.0000
  O  Te93      1.0  0.78340  0.30081  0.58082  1.0000
  O  Te94      1.0  0.67861  0.26361  0.86849  1.0000
  O  Te95      1.0  0.72184  0.20240  0.96831  1.0000
  O  Te96      1.0  0.82665  0.23962  0.68059  1.0000
  Mg  Mg47      1.0  0.66953  0.14339  0.00042  1.0000
  Mg  Mg48      1.0  0.83492  0.28081  0.54876  1.0000
