data_image0
_chemical_formula_structural       H150C186N30O6SnCSn2CSnTe4Mg2SnCSn2CSnTe4Mg2SnCSn2CSnTe4Mg2SnCSn2CSnTe4Mg2SnCSn2CSnTe4Mg2SnCSn2CSnTe4Mg2SnCSn2CSnTe4Mg2SnCSn2CSnTe4Mg2SnCSn2CSnTe4Mg2SnCSn2CSnTe4Mg2SnCSn2CSnTe4Mg2SnCSn2CSnTe4Mg2SnCSn2CSnTe4Mg2SnCSn2CSnTe4Mg2SnCSn2CSnTe4Mg2
_chemical_formula_sum              "H150 C216 N30 O6 Sn60 Te60 Mg30"
_cell_length_a       51.4208
_cell_length_b       51.4078
_cell_length_c       8.17305
_cell_angle_alpha    88.9358
_cell_angle_beta     89.7278
_cell_angle_gamma    120.009

_symmetry_space_group_name_H-M    'P1'
_space_group_IT_number       1

loop_
  _space_group_symop_operation_xyz
  'x, y, z'

loop_
  _atom_site_type_symbol
  _atom_site_label
  _atom_site_symmetry_multiplicity
  _atom_site_fract_x
  _atom_site_fract_y
  _atom_site_fract_z
  _atom_site_occupancy
  H   H1        1.0  0.30381  0.11620  0.20697  1.0000
  H   H2        1.0  0.88689  0.18766  0.15735  1.0000
  H   H3        1.0  0.81229  0.69754  0.18475  1.0000
  H   H4        1.0  0.35533  0.13650  0.30424  1.0000
  H   H5        1.0  0.86734  0.21987  0.25045  1.0000
  H   H6        1.0  0.78040  0.64492  0.27723  1.0000
  H   H7        1.0  0.90412  0.72446  0.01874  1.0000
  H   H8        1.0  0.84196  0.06426  0.44966  1.0000
  H   H9        1.0  0.93979  0.77960  0.45865  1.0000
  H   H10       1.0  0.87560  0.79859  0.20313  1.0000
  H   H11       1.0  0.84584  0.74511  0.29818  1.0000
  H   H12       1.0  0.38963  0.15795  0.55337  1.0000
  H   H13       1.0  0.84672  0.23335  0.50767  1.0000
  H   H14       1.0  0.43960  0.17920  0.09484  1.0000
  H   H15       1.0  0.46235  0.25688  0.29852  1.0000
  H   H16       1.0  0.74652  0.20632  0.28887  1.0000
  H   H17       1.0  0.40788  0.23348  0.23993  1.0000
  H   H18       1.0  0.77025  0.17588  0.21932  1.0000
  H   H19       1.0  0.17199  0.11875  0.97674  1.0000
  H   H20       1.0  0.88479  0.05299  0.96117  1.0000
  H   H21       1.0  0.94675  0.83010  0.94989  1.0000
  H   H22       1.0  0.49106  0.22315  0.08577  1.0000
  H   H23       1.0  0.77744  0.27290  0.05071  1.0000
  H   H24       1.0  0.72663  0.50323  0.07567  1.0000
  H   H25       1.0  0.90862  0.03005  0.13353  1.0000
  H   H26       1.0  0.93455  0.00088  0.10252  1.0000
  H   H27       1.0  0.99887  0.07024  0.30128  1.0000
  H   H28       1.0  0.92966  0.92941  0.29878  1.0000
  H   H29       1.0  0.97453  0.10091  0.34320  1.0000
  H   H30       1.0  0.89979  0.87398  0.33725  1.0000
  H   H31       1.0  0.53651  0.23439  0.06514  1.0000
  H   H32       1.0  0.59147  0.26153  0.08707  1.0000
  H   H33       1.0  0.66487  0.26196  0.31823  1.0000
  H   H34       1.0  0.73643  0.39955  0.28135  1.0000
  H   H35       1.0  0.69319  0.23474  0.29588  1.0000
  H   H36       1.0  0.76410  0.45530  0.25528  1.0000
  H   H37       1.0  0.02693  0.05542  0.44884  1.0000
  H   H38       1.0  0.94317  0.97218  0.44143  1.0000
  H   H39       1.0  0.02638  0.97157  0.44981  1.0000
  H   H40       1.0  0.63903  0.27645  0.46096  1.0000
  H   H41       1.0  0.72339  0.35932  0.44807  1.0000
  H   H42       1.0  0.64059  0.36072  0.44261  1.0000
  H   H43       1.0  0.37754  0.24102  0.44370  1.0000
  H   H44       1.0  0.76306  0.13917  0.42712  1.0000
  H   H45       1.0  0.86193  0.62213  0.43778  1.0000
  H   H46       1.0  0.34243  0.26843  0.49884  1.0000
  H   H47       1.0  0.73435  0.07668  0.49448  1.0000
  H   H48       1.0  0.92407  0.65626  0.49915  1.0000
  H   H49       1.0  0.33583  0.31258  0.35483  1.0000
  H   H50       1.0  0.68932  0.02629  0.36989  1.0000
  H   H51       1.0  0.97513  0.66414  0.38004  1.0000
  H   H52       1.0  0.31448  0.30213  0.17189  1.0000
  H   H53       1.0  0.69850  0.01436  0.18513  1.0000
  H   H54       1.0  0.98865  0.68638  0.19607  1.0000
  H   H55       1.0  0.36624  0.29745  0.21871  1.0000
  H   H56       1.0  0.70436  0.07141  0.22432  1.0000
  H   H57       1.0  0.93277  0.63284  0.23108  1.0000
  H   H58       1.0  0.28370  0.26735  0.01296  1.0000
  H   H59       1.0  0.73510  0.02039  0.01845  1.0000
  H   H60       1.0  0.98183  0.71157  0.01135  1.0000
  H   H61       1.0  0.28210  0.23548  0.48802  1.0000
  H   H62       1.0  0.76678  0.04813  0.47579  1.0000
  H   H63       1.0  0.95089  0.71686  0.48361  1.0000
  H   H64       1.0  0.70908  0.97193  0.37258  1.0000
  H   H65       1.0  0.72036  0.93658  0.22686  1.0000
  H   H66       1.0  0.18233  0.22349  0.10028  1.0000
  H   H67       1.0  0.77059  0.95529  0.09575  1.0000
  H   H68       1.0  0.03081  0.81855  0.06048  1.0000
  H   H69       1.0  0.80905  0.00951  0.10796  1.0000
  H   H70       1.0  0.79747  0.04477  0.25205  1.0000
  H   H71       1.0  0.30688  0.25053  0.19954  1.0000
  H   H72       1.0  0.75060  0.05774  0.19290  1.0000
  H   H73       1.0  0.94343  0.69248  0.19386  1.0000
  H   H74       1.0  0.29991  0.11676  0.69540  1.0000
  H   H75       1.0  0.88403  0.18806  0.66881  1.0000
  H   H76       1.0  0.81390  0.69538  0.66691  1.0000
  H   H77       1.0  0.35142  0.13671  0.79221  1.0000
  H   H78       1.0  0.86313  0.21901  0.76228  1.0000
  H   H79       1.0  0.78243  0.64337  0.76676  1.0000
  H   H80       1.0  0.81809  0.09353  0.53358  1.0000
  H   H81       1.0  0.91000  0.72582  0.54076  1.0000
  H   H82       1.0  0.93366  0.77761  0.92550  1.0000
  H   H83       1.0  0.92393  0.12765  0.67832  1.0000
  H   H84       1.0  0.87276  0.79555  0.67388  1.0000
  H   H85       1.0  0.89999  0.15700  0.76481  1.0000
  H   H86       1.0  0.84327  0.74178  0.76153  1.0000
  H   H87       1.0  0.38541  0.15611  0.03203  1.0000
  H   H88       1.0  0.44388  0.18167  0.61481  1.0000
  H   H89       1.0  0.82266  0.26329  0.58001  1.0000
  H   H90       1.0  0.45851  0.25765  0.80723  1.0000
  H   H91       1.0  0.40416  0.23498  0.74728  1.0000
  H   H92       1.0  0.16800  0.11726  0.46183  1.0000
  H   H93       1.0  0.88284  0.05363  0.46473  1.0000
  H   H94       1.0  0.94905  0.83127  0.47192  1.0000
  H   H95       1.0  0.49531  0.22639  0.60056  1.0000
  H   H96       1.0  0.77806  0.26986  0.58045  1.0000
  H   H97       1.0  0.73344  0.50265  0.58897  1.0000
  H   H98       1.0  0.90635  0.03001  0.64512  1.0000
  H   H99       1.0  0.96887  0.87630  0.64089  1.0000
  H   H100      1.0  0.93158  0.00017  0.61194  1.0000
  H   H101      1.0  0.99780  0.93152  0.61105  1.0000
  H   H102      1.0  0.00234  0.07200  0.79896  1.0000
  H   H103      1.0  0.97714  0.10193  0.83858  1.0000
  H   H104      1.0  0.76655  0.30496  0.55425  1.0000
  H   H105      1.0  0.69607  0.45822  0.54863  1.0000
  H   H106      1.0  0.73826  0.33162  0.58087  1.0000
  H   H107      1.0  0.66900  0.40311  0.57819  1.0000
  H   H108      1.0  0.59736  0.33378  0.78524  1.0000
  H   H109      1.0  0.54167  0.30667  0.76763  1.0000
  H   H110      1.0  0.03062  0.05701  0.94032  1.0000
  H   H111      1.0  0.94682  0.97381  0.94424  1.0000
  H   H112      1.0  0.03005  0.97315  0.94836  1.0000
  H   H113      1.0  0.63470  0.27547  0.94917  1.0000
  H   H114      1.0  0.71908  0.35811  0.95258  1.0000
  H   H115      1.0  0.63646  0.35993  0.94624  1.0000
  H   H116      1.0  0.37392  0.24100  0.93777  1.0000
  H   H117      1.0  0.75858  0.13597  0.92581  1.0000
  H   H118      1.0  0.86451  0.62202  0.93951  1.0000
  H   H119      1.0  0.34384  0.27183  0.97652  1.0000
  H   H120      1.0  0.72920  0.07414  0.98108  1.0000
  H   H121      1.0  0.92657  0.65544  0.99589  1.0000
  H   H122      1.0  0.32981  0.31150  0.88808  1.0000
  H   H123      1.0  0.69034  0.02134  0.89289  1.0000
  H   H124      1.0  0.97862  0.66597  0.87740  1.0000
  H   H125      1.0  0.30522  0.30248  0.72001  1.0000
  H   H126      1.0  0.69972  0.00677  0.72112  1.0000
  H   H127      1.0  0.99175  0.68931  0.69701  1.0000
  H   H128      1.0  0.36339  0.30945  0.70929  1.0000
  H   H129      1.0  0.69638  0.06007  0.71456  1.0000
  H   H130      1.0  0.93731  0.63383  0.72711  1.0000
  H   H131      1.0  0.29016  0.27304  0.50156  1.0000
  H   H132      1.0  0.72893  0.01972  0.50764  1.0000
  H   H133      1.0  0.98243  0.71191  0.49495  1.0000
  H   H134      1.0  0.27978  0.23172  0.98023  1.0000
  H   H135      1.0  0.77099  0.05120  0.96884  1.0000
  H   H136      1.0  0.95276  0.71964  0.97272  1.0000
  H   H137      1.0  0.25232  0.28311  0.86437  1.0000
  H   H138      1.0  0.03029  0.73987  0.86741  1.0000
  H   H139      1.0  0.20609  0.26767  0.70472  1.0000
  H   H140      1.0  0.06529  0.78601  0.70708  1.0000
  H   H141      1.0  0.18011  0.21754  0.57636  1.0000
  H   H142      1.0  0.77718  0.96082  0.56988  1.0000
  H   H143      1.0  0.04590  0.81600  0.56464  1.0000
  H   H144      1.0  0.20113  0.18337  0.60626  1.0000
  H   H145      1.0  0.99150  0.79937  0.58261  1.0000
  H   H146      1.0  0.24814  0.19955  0.75993  1.0000
  H   H147      1.0  0.95662  0.75314  0.74286  1.0000
  H   H148      1.0  0.30403  0.25374  0.69263  1.0000
  H   H149      1.0  0.74893  0.05456  0.69242  1.0000
  H   H150      1.0  0.94595  0.69386  0.69739  1.0000
  C   C1        1.0  0.31595  0.13927  0.24765  1.0000
  C   C2        1.0  0.86395  0.17718  0.20452  1.0000
  C   C3        1.0  0.82290  0.68504  0.22855  1.0000
  C   C4        1.0  0.34527  0.15075  0.30331  1.0000
  C   C5        1.0  0.85294  0.19558  0.25820  1.0000
  C   C6        1.0  0.80470  0.65519  0.28230  1.0000
  C   C7        1.0  0.36282  0.18067  0.35232  1.0000
  C   C8        1.0  0.82326  0.18363  0.31641  1.0000
  C   C9        1.0  0.81690  0.63749  0.33635  1.0000
  C   C10       1.0  0.34826  0.19755  0.34524  1.0000
  C   C11       1.0  0.80607  0.15221  0.31828  1.0000
  C   C12       1.0  0.84835  0.65222  0.33530  1.0000
  C   C13       1.0  0.31892  0.18669  0.28462  1.0000
  C   C14       1.0  0.81631  0.13317  0.25818  1.0000
  C   C15       1.0  0.86719  0.68193  0.27435  1.0000
  C   C16       1.0  0.30175  0.15662  0.23486  1.0000
  C   C17       1.0  0.84629  0.14559  0.20168  1.0000
  C   C18       1.0  0.85448  0.69933  0.22051  1.0000
  C   C19       1.0  0.87263  0.73086  0.16364  1.0000
  C   C20       1.0  0.39470  0.19417  0.39459  1.0000
  C   C21       1.0  0.81000  0.20212  0.36139  1.0000
  C   C22       1.0  0.89795  0.74060  0.06083  1.0000
  C   C23       1.0  0.91455  0.77057  0.00857  1.0000
  C   C24       1.0  0.90654  0.79171  0.05818  1.0000
  C   C25       1.0  0.88123  0.78201  0.16145  1.0000
  C   C26       1.0  0.86462  0.75213  0.21299  1.0000
  C   C27       1.0  0.40552  0.17954  0.49692  1.0000
  C   C28       1.0  0.82485  0.22750  0.45917  1.0000
  C   C29       1.0  0.43603  0.19293  0.53129  1.0000
  C   C30       1.0  0.81129  0.24426  0.49961  1.0000
  C   C31       1.0  0.45685  0.22094  0.45990  1.0000
  C   C32       1.0  0.78286  0.23669  0.43902  1.0000
  C   C33       1.0  0.44612  0.23552  0.35604  1.0000
  C   C34       1.0  0.76818  0.21162  0.33828  1.0000
  C   C35       1.0  0.41569  0.22250  0.32552  1.0000
  C   C36       1.0  0.78139  0.19460  0.30175  1.0000
  C   C37       1.0  0.17908  0.10319  0.02562  1.0000
  C   C38       1.0  0.89997  0.07562  0.00691  1.0000
  C   C39       1.0  0.92462  0.82321  0.00575  1.0000
  C   C40       1.0  0.48895  0.23470  0.49169  1.0000
  C   C41       1.0  0.76863  0.25432  0.47837  1.0000
  C   C42       1.0  0.74766  0.51022  0.47759  1.0000
  C   C43       1.0  0.94086  0.06785  0.98542  1.0000
  C   C44       1.0  0.73149  0.26746  0.42482  1.0000
  C   C45       1.0  0.73276  0.46075  0.40419  1.0000
  C   C46       1.0  0.92859  0.03877  0.05558  1.0000
  C   C47       1.0  0.94332  0.02242  0.03800  1.0000
  C   C48       1.0  0.96712  0.03285  0.45403  1.0000
  C   C49       1.0  0.96610  0.93477  0.45196  1.0000
  C   C50       1.0  0.97891  0.06155  0.37929  1.0000
  C   C51       1.0  0.93814  0.91792  0.37604  1.0000
  C   C52       1.0  0.96527  0.07876  0.40106  1.0000
  C   C53       1.0  0.92137  0.88685  0.39602  1.0000
  C   C54       1.0  0.54961  0.25626  0.00442  1.0000
  C   C55       1.0  0.58074  0.27144  0.01517  1.0000
  C   C56       1.0  0.69935  0.29892  0.45149  1.0000
  C   C57       1.0  0.70085  0.39709  0.43410  1.0000
  C   C58       1.0  0.68672  0.27102  0.37476  1.0000
  C   C59       1.0  0.72809  0.41239  0.34496  1.0000
  C   C60       1.0  0.70249  0.25573  0.36078  1.0000
  C   C61       1.0  0.74361  0.44354  0.32902  1.0000
  C   C62       1.0  0.03067  0.01548  0.44691  1.0000
  C   C63       1.0  0.98319  0.01579  0.44353  1.0000
  C   C64       1.0  0.98286  0.96798  0.44334  1.0000
  C   C65       1.0  0.63597  0.31670  0.45273  1.0000
  C   C66       1.0  0.68317  0.31587  0.45612  1.0000
  C   C67       1.0  0.68398  0.36393  0.44621  1.0000
  C   C68       1.0  0.01470  0.03102  0.44508  1.0000
  C   C69       1.0  0.96759  0.98426  0.44117  1.0000
  C   C70       1.0  0.01436  0.98396  0.44557  1.0000
  C   C71       1.0  0.65165  0.30087  0.45819  1.0000
  C   C72       1.0  0.69898  0.34742  0.45090  1.0000
  C   C73       1.0  0.65248  0.34821  0.44780  1.0000
  C   C74       1.0  0.33418  0.23209  0.36133  1.0000
  C   C75       1.0  0.77088  0.10388  0.34735  1.0000
  C   C76       1.0  0.89683  0.66607  0.35755  1.0000
  C   C77       1.0  0.31382  0.26488  0.30637  1.0000
  C   C78       1.0  0.73675  0.05082  0.30469  1.0000
  C   C79       1.0  0.95005  0.68602  0.30773  1.0000
  C   C80       1.0  0.32940  0.29781  0.24891  1.0000
  C   C81       1.0  0.70357  0.03396  0.25860  1.0000
  C   C82       1.0  0.96835  0.67092  0.26681  1.0000
  C   C83       1.0  0.28582  0.25526  0.41552  1.0000
  C   C84       1.0  0.74621  0.03221  0.41321  1.0000
  C   C85       1.0  0.96746  0.71457  0.40966  1.0000
  C   C86       1.0  0.75247  0.01066  0.32175  1.0000
  C   C87       1.0  0.73084  0.98016  0.31258  1.0000
  C   C88       1.0  0.73731  0.96023  0.23229  1.0000
  C   C89       1.0  0.76555  0.97066  0.15963  1.0000
  C   C90       1.0  0.78714  0.00116  0.16624  1.0000
  C   C91       1.0  0.78065  0.02099  0.24667  1.0000
  C   C92       1.0  0.31221  0.13981  0.73612  1.0000
  C   C93       1.0  0.86090  0.17700  0.71370  1.0000
  C   C94       1.0  0.82472  0.68339  0.71535  1.0000
  C   C95       1.0  0.34142  0.15101  0.79230  1.0000
  C   C96       1.0  0.84908  0.19466  0.76747  1.0000
  C   C97       1.0  0.80674  0.65382  0.77267  1.0000
  C   C98       1.0  0.35902  0.18087  0.84251  1.0000
  C   C99       1.0  0.81903  0.18208  0.82174  1.0000
  C   C100      1.0  0.81904  0.63645  0.83185  1.0000
  C   C101      1.0  0.34476  0.19800  0.83394  1.0000
  C   C102      1.0  0.80236  0.15059  0.82139  1.0000
  C   C103      1.0  0.85051  0.65139  0.83146  1.0000
  C   C104      1.0  0.31568  0.18759  0.77044  1.0000
  C   C105      1.0  0.81356  0.13227  0.76182  1.0000
  C   C106      1.0  0.86916  0.68101  0.76827  1.0000
  C   C107      1.0  0.29831  0.15745  0.72194  1.0000
  C   C108      1.0  0.84374  0.14540  0.70745  1.0000
  C   C109      1.0  0.85635  0.69808  0.71025  1.0000
  C   C110      1.0  0.85735  0.12767  0.65351  1.0000
  C   C111      1.0  0.87426  0.72970  0.65511  1.0000
  C   C112      1.0  0.39071  0.19399  0.88704  1.0000
  C   C113      1.0  0.84114  0.10100  0.56667  1.0000
  C   C114      1.0  0.90195  0.74105  0.57167  1.0000
  C   C115      1.0  0.85464  0.08455  0.51972  1.0000
  C   C116      1.0  0.91860  0.77132  0.52537  1.0000
  C   C117      1.0  0.88464  0.09403  0.55851  1.0000
  C   C118      1.0  0.90807  0.79118  0.56000  1.0000
  C   C119      1.0  0.90093  0.12070  0.64538  1.0000
  C   C120      1.0  0.88040  0.77992  0.64364  1.0000
  C   C121      1.0  0.88751  0.13711  0.69188  1.0000
  C   C122      1.0  0.86393  0.74983  0.69049  1.0000
  C   C123      1.0  0.40136  0.17827  0.98188  1.0000
  C   C124      1.0  0.43180  0.19126  0.01699  1.0000
  C   C125      1.0  0.45273  0.21996  0.95367  1.0000
  C   C126      1.0  0.44218  0.23568  0.85786  1.0000
  C   C127      1.0  0.41183  0.22305  0.82680  1.0000
  C   C128      1.0  0.17554  0.10222  0.51306  1.0000
  C   C129      1.0  0.89820  0.07614  0.51146  1.0000
  C   C130      1.0  0.92563  0.82289  0.51160  1.0000
  C   C131      1.0  0.48476  0.23324  0.98472  1.0000
  C   C132      1.0  0.76555  0.25475  0.96356  1.0000
  C   C133      1.0  0.74385  0.50992  0.97881  1.0000
  C   C134      1.0  0.93852  0.06740  0.49399  1.0000
  C   C135      1.0  0.93252  0.87124  0.48809  1.0000
  C   C136      1.0  0.53508  0.26913  0.91745  1.0000
  C   C137      1.0  0.92608  0.03839  0.56551  1.0000
  C   C138      1.0  0.96076  0.88784  0.56137  1.0000
  C   C139      1.0  0.94041  0.02166  0.54678  1.0000
  C   C140      1.0  0.97703  0.91902  0.54434  1.0000
  C   C141      1.0  0.97039  0.03411  0.94814  1.0000
  C   C142      1.0  0.98205  0.06288  0.87454  1.0000
  C   C143      1.0  0.96794  0.07968  0.89504  1.0000
  C   C144      1.0  0.74416  0.29524  0.50365  1.0000
  C   C145      1.0  0.70531  0.44555  0.49202  1.0000
  C   C146      1.0  0.72830  0.31051  0.51666  1.0000
  C   C147      1.0  0.68980  0.41436  0.50658  1.0000
  C   C148      1.0  0.59864  0.29989  0.93931  1.0000
  C   C149      1.0  0.58404  0.31248  0.85116  1.0000
  C   C150      1.0  0.55295  0.29737  0.83959  1.0000
  C   C151      1.0  0.03424  0.01701  0.94338  1.0000
  C   C152      1.0  0.98678  0.01734  0.93988  1.0000
  C   C153      1.0  0.98641  0.96948  0.94404  1.0000
  C   C154      1.0  0.63171  0.31583  0.94846  1.0000
  C   C155      1.0  0.67877  0.31481  0.95208  1.0000
  C   C156      1.0  0.67979  0.36292  0.95066  1.0000
  C   C157      1.0  0.01830  0.03259  0.93968  1.0000
  C   C158      1.0  0.97124  0.98583  0.94157  1.0000
  C   C159      1.0  0.01794  0.98545  0.94397  1.0000
  C   C160      1.0  0.64728  0.29989  0.95092  1.0000
  C   C161      1.0  0.69467  0.34631  0.95303  1.0000
  C   C162      1.0  0.64829  0.34734  0.94927  1.0000
  C   C163      1.0  0.33145  0.23319  0.84678  1.0000
  C   C164      1.0  0.76798  0.10174  0.84577  1.0000
  C   C165      1.0  0.89920  0.66599  0.85730  1.0000
  C   C166      1.0  0.31027  0.26551  0.80824  1.0000
  C   C167      1.0  0.73665  0.04822  0.80929  1.0000
  C   C168      1.0  0.95265  0.68722  0.81027  1.0000
  C   C169      1.0  0.32281  0.29900  0.77351  1.0000
  C   C170      1.0  0.70331  0.02753  0.77704  1.0000
  C   C171      1.0  0.97157  0.67299  0.76603  1.0000
  C   C172      1.0  0.28165  0.25166  0.91793  1.0000
  C   C173      1.0  0.75035  0.03320  0.91637  1.0000
  C   C174      1.0  0.96958  0.71555  0.91382  1.0000
  C   C175      1.0  0.25339  0.24243  0.82256  1.0000
  C   C176      1.0  0.99111  0.74334  0.81548  1.0000
  C   C177      1.0  0.24137  0.26148  0.80503  1.0000
  C   C178      1.0  0.02179  0.75279  0.80345  1.0000
  C   C179      1.0  0.21511  0.25260  0.71720  1.0000
  C   C180      1.0  0.04151  0.77890  0.71446  1.0000
  C   C181      1.0  0.20042  0.22442  0.64581  1.0000
  C   C182      1.0  0.03072  0.79585  0.63547  1.0000
  C   C183      1.0  0.21232  0.20530  0.66208  1.0000
  C   C184      1.0  0.00010  0.78646  0.64542  1.0000
  C   C185      1.0  0.23867  0.21430  0.74889  1.0000
  C   C186      1.0  0.98048  0.76044  0.73477  1.0000
  N   N1        1.0  0.16092  0.07453  0.03398  1.0000
  N   N2        1.0  0.92860  0.08625  0.01464  1.0000
  N   N3        1.0  0.91523  0.84205  0.02405  1.0000
  N   N4        1.0  0.50830  0.25595  0.39574  1.0000
  N   N5        1.0  0.74571  0.25082  0.39610  1.0000
  N   N6        1.0  0.74977  0.49194  0.37896  1.0000
  N   N7        1.0  0.35745  0.22667  0.39425  1.0000
  N   N8        1.0  0.77699  0.13282  0.37627  1.0000
  N   N9        1.0  0.86794  0.64270  0.38929  1.0000
  N   N10       1.0  0.31097  0.20890  0.29494  1.0000
  N   N11       1.0  0.79370  0.10317  0.27669  1.0000
  N   N12       1.0  0.89729  0.68979  0.28852  1.0000
  N   N13       1.0  0.33711  0.26015  0.38336  1.0000
  N   N14       1.0  0.74252  0.07926  0.37733  1.0000
  N   N15       1.0  0.92160  0.66263  0.38339  1.0000
  N   N16       1.0  0.15768  0.07355  0.52634  1.0000
  N   N17       1.0  0.92668  0.08621  0.52271  1.0000
  N   N18       1.0  0.91422  0.84027  0.51489  1.0000
  N   N19       1.0  0.50406  0.25590  0.89587  1.0000
  N   N20       1.0  0.74092  0.24932  0.89292  1.0000
  N   N21       1.0  0.74766  0.49093  0.89512  1.0000
  N   N22       1.0  0.35424  0.22720  0.88297  1.0000
  N   N23       1.0  0.77318  0.13039  0.87626  1.0000
  N   N24       1.0  0.87036  0.64245  0.88968  1.0000
  N   N25       1.0  0.30818  0.21018  0.77838  1.0000
  N   N26       1.0  0.79152  0.10202  0.77736  1.0000
  N   N27       1.0  0.89931  0.68931  0.78498  1.0000
  N   N28       1.0  0.33470  0.26119  0.86906  1.0000
  N   N29       1.0  0.74020  0.07647  0.87169  1.0000
  N   N30       1.0  0.92431  0.66342  0.88400  1.0000
  O   O1        1.0  0.35566  0.30489  0.15029  1.0000
  O   O2        1.0  0.69660  0.05326  0.15957  1.0000
  O   O3        1.0  0.95112  0.64507  0.16647  1.0000
  O   O4        1.0  0.34740  0.31117  0.65630  1.0000
  O   O5        1.0  0.69211  0.04134  0.66391  1.0000
  O   O6        1.0  0.95510  0.64758  0.66233  1.0000
  C  Sn1       1.0  0.68046  0.41531  0.97850  1.0000
  C   C187      1.0  0.68850  0.39510  0.91657  1.0000
  C  Sn2       1.0  0.71792  0.40517  0.86291  1.0000
  C  Sn3       1.0  0.73978  0.43609  0.87140  1.0000
  C   C188      1.0  0.73174  0.45627  0.93332  1.0000
  C  Sn4       1.0  0.70232  0.44622  0.98699  1.0000
  O  Te1       1.0  0.65389  0.40918  0.03146  1.0000
  O  Te2       1.0  0.72542  0.38455  0.80142  1.0000
  O  Te3       1.0  0.76934  0.44664  0.81837  1.0000
  O  Te4       1.0  0.69780  0.47127  0.04847  1.0000
  Mg  Mg1       1.0  0.76861  0.40984  0.74440  1.0000
  Mg  Mg2       1.0  0.65462  0.44600  0.10560  1.0000
  C  Sn5       1.0  0.11069  0.03673  0.85935  1.0000
  C   C189      1.0  0.12843  0.06180  0.95352  1.0000
  C  Sn6       1.0  0.11808  0.07644  0.06539  1.0000
  C  Sn7       1.0  0.08637  0.06125  0.08360  1.0000
  C   C190      1.0  0.06567  0.03176  0.98949  1.0000
  C  Sn8       1.0  0.07897  0.02155  0.87757  1.0000
  O  Te5       1.0  0.12449  0.02693  0.74828  1.0000
  O  Te6       1.0  0.13629  0.10156  0.15813  1.0000
  O  Te7       1.0  0.07257  0.07108  0.19479  1.0000
  O  Te8       1.0  0.56080  0.99644  0.78489  1.0000
  Mg  Mg3       1.0  0.10694  0.10631  0.29328  1.0000
  Mg  Mg4       1.0  0.59012  0.99166  0.64977  1.0000
  C  Sn9       1.0  0.58112  0.31551  0.38605  1.0000
  C   C191      1.0  0.59911  0.30637  0.46782  1.0000
  C  Sn10      1.0  0.58734  0.27640  0.51827  1.0000
  C  Sn11      1.0  0.55695  0.25512  0.48624  1.0000
  C   C192      1.0  0.53898  0.26426  0.40449  1.0000
  C  Sn12      1.0  0.55073  0.29423  0.35401  1.0000
  O  Te9       1.0  0.59336  0.34559  0.33672  1.0000
  O  Te10      1.0  0.60577  0.26780  0.59988  1.0000
  O  Te11      1.0  0.54472  0.22503  0.53566  1.0000
  O  Te12      1.0  0.53232  0.30284  0.27244  1.0000
  Mg  Mg5       1.0  0.57878  0.22425  0.64270  1.0000
  Mg  Mg6       1.0  0.55929  0.34638  0.22949  1.0000
  C  Sn13      1.0  0.93159  0.91468  0.92991  1.0000
  C   C193      1.0  0.96105  0.93370  0.97935  1.0000
  C  Sn14      1.0  0.98206  0.92631  0.02870  1.0000
  C  Sn15      1.0  0.97041  0.89481  0.02853  1.0000
  C   C194      1.0  0.93800  0.87136  0.97909  1.0000
  C  Sn16      1.0  0.91994  0.88317  0.92974  1.0000
  O  Te13      1.0  0.91396  0.92700  0.88105  1.0000
  O  Te14      1.0  0.01144  0.94578  0.07767  1.0000
  O  Te15      1.0  0.98807  0.88250  0.07745  1.0000
  O  Te16      1.0  0.89058  0.86372  0.88077  1.0000
  Mg  Mg7       1.0  0.02668  0.91823  0.13353  1.0000
  Mg  Mg8       1.0  0.87533  0.89126  0.82481  1.0000
  C  Sn17      1.0  0.85156  0.08638  0.98022  1.0000
  C   C195      1.0  0.88328  0.09595  0.01523  1.0000
  C  Sn18      1.0  0.90026  0.11598  0.13645  1.0000
  C  Sn19      1.0  0.88825  0.13120  0.22460  1.0000
  C   C196      1.0  0.85952  0.12606  0.18960  1.0000
  C  Sn20      1.0  0.84253  0.10603  0.06837  1.0000
  O  Te17      1.0  0.83498  0.06625  0.85854  1.0000
  O  Te18      1.0  0.92894  0.12075  0.16922  1.0000
  O  Te19      1.0  0.90485  0.15134  0.34636  1.0000
  O  Te20      1.0  0.81385  0.10126  0.03561  1.0000
  Mg  Mg9       1.0  0.94282  0.15030  0.34635  1.0000
  Mg  Mg10      1.0  0.79698  0.06726  0.85858  1.0000
  C  Sn21      1.0  0.10241  0.06708  0.60377  1.0000
  C   C197      1.0  0.12269  0.05917  0.53983  1.0000
  C  Sn22      1.0  0.11405  0.03833  0.41527  1.0000
  C  Sn23      1.0  0.08453  0.02512  0.35322  1.0000
  C   C198      1.0  0.06427  0.03303  0.41712  1.0000
  C  Sn24      1.0  0.07288  0.05387  0.54172  1.0000
  O  Te21      1.0  0.11153  0.08798  0.72827  1.0000
  O  Te22      1.0  0.13473  0.03077  0.35334  1.0000
  O  Te23      1.0  0.07542  0.00421  0.22863  1.0000
  O  Te24      1.0  0.05223  0.06143  0.60362  1.0000
  Mg  Mg11      1.0  0.11169  0.00119  0.18412  1.0000
  Mg  Mg12      1.0  0.07525  0.09102  0.77277  1.0000
  C  Sn25      1.0  0.21504  0.20661  0.23414  1.0000
  C   C199      1.0  0.20120  0.22372  0.20582  1.0000
  C  Sn26      1.0  0.21717  0.25481  0.22489  1.0000
  C  Sn27      1.0  0.24761  0.26911  0.27317  1.0000
  C   C200      1.0  0.26143  0.25201  0.30143  1.0000
  C  Sn28      1.0  0.24548  0.22091  0.28242  1.0000
  O  Te25      1.0  0.19864  0.17556  0.21433  1.0000
  O  Te26      1.0  0.20285  0.27144  0.19593  1.0000
  O  Te27      1.0  0.26400  0.30019  0.29297  1.0000
  O  Te28      1.0  0.25978  0.20429  0.31133  1.0000
  Mg  Mg13      1.0  0.23463  0.31314  0.23916  1.0000
  Mg  Mg14      1.0  0.22803  0.16259  0.26806  1.0000
  C  Sn29      1.0  0.72902  0.30699  0.98696  1.0000
  C   C201      1.0  0.70124  0.29955  0.92015  1.0000
  C  Sn30      1.0  0.68267  0.27090  0.85954  1.0000
  C  Sn31      1.0  0.69204  0.24923  0.86594  1.0000
  C   C202      1.0  0.71980  0.25667  0.93274  1.0000
  C  Sn32      1.0  0.73839  0.28532  0.99336  1.0000
  O  Te29      1.0  0.75020  0.34021  0.04684  1.0000
  O  Te30      1.0  0.65500  0.26399  0.79327  1.0000
  O  Te31      1.0  0.67381  0.22044  0.80598  1.0000
  O  Te32      1.0  0.76901  0.29667  0.05963  1.0000
  Mg  Mg15      1.0  0.63813  0.22176  0.72743  1.0000
  Mg  Mg16      1.0  0.78590  0.33889  0.12558  1.0000
  C  Sn33      1.0  0.98321  0.78379  0.21347  1.0000
  C   C203      1.0  0.01396  0.79951  0.17629  1.0000
  C  Sn34      1.0  0.03106  0.78543  0.19271  1.0000
  C  Sn35      1.0  0.01715  0.75498  0.24734  1.0000
  C   C204      1.0  0.98642  0.73927  0.28446  1.0000
  C  Sn36      1.0  0.96930  0.75335  0.26810  1.0000
  O  Te33      1.0  0.96655  0.79833  0.19616  1.0000
  O  Te34      1.0  0.06177  0.80161  0.15485  1.0000
  O  Te35      1.0  0.03385  0.74045  0.26464  1.0000
  O  Te36      1.0  0.93861  0.73718  0.30590  1.0000
  Mg  Mg17      1.0  0.07493  0.77196  0.19793  1.0000
  Mg  Mg18      1.0  0.92542  0.76680  0.26279  1.0000
  C  Sn37      1.0  0.80049  0.56181  0.36381  1.0000
  C   C205      1.0  0.77456  0.54620  0.46130  1.0000
  C  Sn38      1.0  0.75841  0.56009  0.50902  1.0000
  C  Sn39      1.0  0.76839  0.59020  0.45816  1.0000
  C   C206      1.0  0.79431  0.60579  0.36071  1.0000
  C  Sn40      1.0  0.81047  0.59192  0.31295  1.0000
  O  Te37      1.0  0.81628  0.54748  0.31755  1.0000
  O  Te38      1.0  0.73256  0.54404  0.60655  1.0000
  O  Te39      1.0  0.75258  0.60453  0.50452  1.0000
  O  Te40      1.0  0.83631  0.60795  0.21546  1.0000
  Mg  Mg19      1.0  0.71871  0.57330  0.63783  1.0000
  Mg  Mg20      1.0  0.85017  0.57871  0.18404  1.0000
  C  Sn41      1.0  0.77563  0.59286  0.02213  1.0000
  C   C207      1.0  0.79921  0.60259  0.92874  1.0000
  C  Sn42      1.0  0.80704  0.58586  0.82783  1.0000
  C  Sn43      1.0  0.78790  0.55430  0.82001  1.0000
  C   C208      1.0  0.76136  0.54015  0.91334  1.0000
  C  Sn44      1.0  0.75649  0.56131  0.01432  1.0000
  O  Te41      1.0  0.76825  0.61004  0.12216  1.0000
  O  Te42      1.0  0.83371  0.60053  0.73565  1.0000
  O  Te43      1.0  0.79530  0.53714  0.71988  1.0000
  O  Te44      1.0  0.72983  0.54665  0.10644  1.0000
  Mg  Mg21      1.0  0.83400  0.56739  0.61759  1.0000
  Mg  Mg22      1.0  0.72952  0.57977  0.22446  1.0000
  C  Sn45      1.0  0.23975  0.14881  0.00248  1.0000
  C   C209      1.0  0.21609  0.11979  0.03746  1.0000
  C  Sn46      1.0  0.21863  0.10225  0.16196  1.0000
  C  Sn47      1.0  0.24538  0.11396  0.25348  1.0000
  C   C210      1.0  0.26902  0.14296  0.21850  1.0000
  C  Sn48      1.0  0.26650  0.16052  0.09399  1.0000
  O  Te45      1.0  0.23374  0.16152  0.87748  1.0000
  O  Te46      1.0  0.19468  0.07330  0.19464  1.0000
  O  Te47      1.0  0.24840  0.09678  0.37854  1.0000
  O  Te48      1.0  0.29043  0.18946  0.06132  1.0000
  Mg  Mg23      1.0  0.20956  0.05864  0.37700  1.0000
  Mg  Mg24      1.0  0.27260  0.19970  0.87905  1.0000
  C  Sn49      1.0  0.76081  0.19980  0.87044  1.0000
  C   C211      1.0  0.77338  0.22683  0.95366  1.0000
  C  Sn50      1.0  0.80424  0.24305  0.98122  1.0000
  C  Sn51      1.0  0.82293  0.23203  0.92434  1.0000
  C   C212      1.0  0.81036  0.20501  0.84115  1.0000
  C  Sn52      1.0  0.77950  0.18877  0.81355  1.0000
  O  Te49      1.0  0.72990  0.18395  0.84424  1.0000
  O  Te50      1.0  0.81927  0.27446  0.06477  1.0000
  O  Te51      1.0  0.85387  0.24790  0.95061  1.0000
  O  Te52      1.0  0.76745  0.16182  0.73004  1.0000
  Mg  Mg25      1.0  0.86267  0.28793  0.07047  1.0000
  Mg  Mg26      1.0  0.72405  0.14835  0.72419  1.0000
  C  Sn53      1.0  0.24174  0.10637  0.66904  1.0000
  C   C213      1.0  0.26486  0.13582  0.63769  1.0000
  C  Sn54      1.0  0.25841  0.15751  0.57690  1.0000
  C  Sn55      1.0  0.22823  0.14962  0.54691  1.0000
  C   C214      1.0  0.20513  0.12019  0.57829  1.0000
  C  Sn56      1.0  0.21155  0.09848  0.63905  1.0000
  O  Te53      1.0  0.24871  0.08505  0.72980  1.0000
  O  Te54      1.0  0.28191  0.18680  0.54646  1.0000
  O  Te55      1.0  0.22127  0.17097  0.48610  1.0000
  O  Te56      1.0  0.18808  0.06921  0.66952  1.0000
  Mg  Mg27      1.0  0.26105  0.20788  0.46409  1.0000
  Mg  Mg28      1.0  0.20891  0.04812  0.75196  1.0000
  C  Sn57      1.0  0.74008  0.97474  0.83377  1.0000
  C   C215      1.0  0.25768  0.00571  0.85450  1.0000
  C  Sn58      1.0  0.28241  0.02306  0.75131  1.0000
  C  Sn59      1.0  0.28968  0.00917  0.62467  1.0000
  C   C216      1.0  0.77209  0.97822  0.60397  1.0000
  C  Sn60      1.0  0.74735  0.96085  0.70713  1.0000
  O  Te57      1.0  0.71546  0.95783  0.93836  1.0000
  O  Te58      1.0  0.29968  0.05398  0.77447  1.0000
  O  Te59      1.0  0.31432  0.02611  0.52006  1.0000
  O  Te60      1.0  0.73008  0.92995  0.68400  1.0000
  Mg  Mg29      1.0  0.33100  0.06745  0.60053  1.0000
  Mg  Mg30      1.0  0.69876  0.91647  0.85781  1.0000
