data_image0
_chemical_formula_structural       H90C96N30O6C2Sn2C2HTe2HMgC2Sn2C2HTe2HMgC2Sn2C2HTe2HMgC2Sn2C2HTe2HMgC2Sn2C2HTe2HMgC2Sn2C2HTe2HMgC2Sn2C2HTe2HMgC2Sn2C2HTe2HMgC2Sn2C2HTe2HMgC2Sn2C2HTe2HMgC2Sn2C2HTe2HMgC2Sn2C2HTe2HMgC2Sn2C2HTe2HMgC2Sn2C2HTe2HMgC2Sn2C2HTe2HMgC2Sn2C2HTe2HMgC2Sn2C2HTe2HMgC2Sn2C2HTe2HMgC2Sn2C2HTe2HMgC2Sn2C2HTe2HMgC2Sn2C2HTe2HMgC2Sn2C2HTe2HMgC2Sn2C2HTe2HMgC2Sn2C2HTe2HMgC2Sn2C2HTe2HMgC2Sn2C2HTe2HMgC2Sn2C2HTe2HMgC2Sn2C2HTe2HMgC2Sn2C2HTe2HMgC2Sn2C2HTe2HMg
_chemical_formula_sum              "H150 C216 N30 O6 Sn60 Te60 Mg30"
_cell_length_a       51.4208
_cell_length_b       51.4078
_cell_length_c       8.17305
_cell_angle_alpha    88.9358
_cell_angle_beta     89.7278
_cell_angle_gamma    120.009

_symmetry_space_group_name_H-M    'P1'
_space_group_IT_number       1

loop_
  _space_group_symop_operation_xyz
  'x, y, z'

loop_
  _atom_site_type_symbol
  _atom_site_label
  _atom_site_symmetry_multiplicity
  _atom_site_fract_x
  _atom_site_fract_y
  _atom_site_fract_z
  _atom_site_occupancy
  H   H1        1.0  0.30381  0.11620  0.20697  1.0000
  H   H2        1.0  0.88689  0.18766  0.15735  1.0000
  H   H3        1.0  0.81229  0.69754  0.18475  1.0000
  H   H4        1.0  0.35533  0.13650  0.30424  1.0000
  H   H5        1.0  0.86734  0.21987  0.25045  1.0000
  H   H6        1.0  0.78040  0.64492  0.27723  1.0000
  H   H7        1.0  0.17199  0.11875  0.97674  1.0000
  H   H8        1.0  0.88479  0.05299  0.96117  1.0000
  H   H9        1.0  0.94675  0.83010  0.94989  1.0000
  H   H10       1.0  0.49106  0.22315  0.08577  1.0000
  H   H11       1.0  0.77744  0.27290  0.05071  1.0000
  H   H12       1.0  0.72663  0.50323  0.07567  1.0000
  H   H13       1.0  0.02693  0.05542  0.44884  1.0000
  H   H14       1.0  0.94317  0.97218  0.44143  1.0000
  H   H15       1.0  0.02638  0.97157  0.44981  1.0000
  H   H16       1.0  0.63903  0.27645  0.46096  1.0000
  H   H17       1.0  0.72339  0.35932  0.44807  1.0000
  H   H18       1.0  0.64059  0.36072  0.44261  1.0000
  H   H19       1.0  0.37754  0.24102  0.44370  1.0000
  H   H20       1.0  0.76306  0.13917  0.42712  1.0000
  H   H21       1.0  0.86193  0.62213  0.43778  1.0000
  H   H22       1.0  0.34243  0.26843  0.49884  1.0000
  H   H23       1.0  0.73435  0.07668  0.49448  1.0000
  H   H24       1.0  0.92407  0.65626  0.49915  1.0000
  H   H25       1.0  0.33583  0.31258  0.35483  1.0000
  H   H26       1.0  0.68932  0.02629  0.36989  1.0000
  H   H27       1.0  0.97513  0.66414  0.38004  1.0000
  H   H28       1.0  0.31448  0.30213  0.17189  1.0000
  H   H29       1.0  0.69850  0.01436  0.18513  1.0000
  H   H30       1.0  0.98865  0.68638  0.19607  1.0000
  H   H31       1.0  0.36624  0.29745  0.21871  1.0000
  H   H32       1.0  0.70436  0.07141  0.22432  1.0000
  H   H33       1.0  0.93277  0.63284  0.23108  1.0000
  H   H34       1.0  0.28370  0.26735  0.01296  1.0000
  H   H35       1.0  0.73510  0.02039  0.01845  1.0000
  H   H36       1.0  0.98183  0.71157  0.01135  1.0000
  H   H37       1.0  0.28210  0.23548  0.48802  1.0000
  H   H38       1.0  0.76678  0.04813  0.47579  1.0000
  H   H39       1.0  0.95089  0.71686  0.48361  1.0000
  H   H40       1.0  0.18233  0.22349  0.10028  1.0000
  H   H41       1.0  0.77059  0.95529  0.09575  1.0000
  H   H42       1.0  0.03081  0.81855  0.06048  1.0000
  H   H43       1.0  0.30688  0.25053  0.19954  1.0000
  H   H44       1.0  0.75060  0.05774  0.19290  1.0000
  H   H45       1.0  0.94343  0.69248  0.19386  1.0000
  H   H46       1.0  0.29991  0.11676  0.69540  1.0000
  H   H47       1.0  0.88403  0.18806  0.66881  1.0000
  H   H48       1.0  0.81390  0.69538  0.66691  1.0000
  H   H49       1.0  0.35142  0.13671  0.79221  1.0000
  H   H50       1.0  0.86313  0.21901  0.76228  1.0000
  H   H51       1.0  0.78243  0.64337  0.76676  1.0000
  H   H52       1.0  0.16800  0.11726  0.46183  1.0000
  H   H53       1.0  0.88284  0.05363  0.46473  1.0000
  H   H54       1.0  0.94905  0.83127  0.47192  1.0000
  H   H55       1.0  0.49531  0.22639  0.60056  1.0000
  H   H56       1.0  0.77806  0.26986  0.58045  1.0000
  H   H57       1.0  0.73344  0.50265  0.58897  1.0000
  H   H58       1.0  0.03062  0.05701  0.94032  1.0000
  H   H59       1.0  0.94682  0.97381  0.94424  1.0000
  H   H60       1.0  0.03005  0.97315  0.94836  1.0000
  H   H61       1.0  0.63470  0.27547  0.94917  1.0000
  H   H62       1.0  0.71908  0.35811  0.95258  1.0000
  H   H63       1.0  0.63646  0.35993  0.94624  1.0000
  H   H64       1.0  0.37392  0.24100  0.93777  1.0000
  H   H65       1.0  0.75858  0.13597  0.92581  1.0000
  H   H66       1.0  0.86451  0.62202  0.93951  1.0000
  H   H67       1.0  0.34384  0.27183  0.97652  1.0000
  H   H68       1.0  0.72920  0.07414  0.98108  1.0000
  H   H69       1.0  0.92657  0.65544  0.99589  1.0000
  H   H70       1.0  0.32981  0.31150  0.88808  1.0000
  H   H71       1.0  0.69034  0.02134  0.89289  1.0000
  H   H72       1.0  0.97862  0.66597  0.87740  1.0000
  H   H73       1.0  0.30522  0.30248  0.72001  1.0000
  H   H74       1.0  0.69972  0.00677  0.72112  1.0000
  H   H75       1.0  0.99175  0.68931  0.69701  1.0000
  H   H76       1.0  0.36339  0.30945  0.70929  1.0000
  H   H77       1.0  0.69638  0.06007  0.71456  1.0000
  H   H78       1.0  0.93731  0.63383  0.72711  1.0000
  H   H79       1.0  0.29016  0.27304  0.50156  1.0000
  H   H80       1.0  0.72893  0.01972  0.50764  1.0000
  H   H81       1.0  0.98243  0.71191  0.49495  1.0000
  H   H82       1.0  0.27978  0.23172  0.98023  1.0000
  H   H83       1.0  0.77099  0.05120  0.96884  1.0000
  H   H84       1.0  0.95276  0.71964  0.97272  1.0000
  H   H85       1.0  0.18011  0.21754  0.57636  1.0000
  H   H86       1.0  0.77718  0.96082  0.56988  1.0000
  H   H87       1.0  0.04590  0.81600  0.56464  1.0000
  H   H88       1.0  0.30403  0.25374  0.69263  1.0000
  H   H89       1.0  0.74893  0.05456  0.69242  1.0000
  H   H90       1.0  0.94595  0.69386  0.69739  1.0000
  C   C1        1.0  0.31595  0.13927  0.24765  1.0000
  C   C2        1.0  0.86395  0.17718  0.20452  1.0000
  C   C3        1.0  0.82290  0.68504  0.22855  1.0000
  C   C4        1.0  0.34527  0.15075  0.30331  1.0000
  C   C5        1.0  0.85294  0.19558  0.25820  1.0000
  C   C6        1.0  0.80470  0.65519  0.28230  1.0000
  C   C7        1.0  0.36282  0.18067  0.35232  1.0000
  C   C8        1.0  0.82326  0.18363  0.31641  1.0000
  C   C9        1.0  0.81690  0.63749  0.33635  1.0000
  C   C10       1.0  0.34826  0.19755  0.34524  1.0000
  C   C11       1.0  0.80607  0.15221  0.31828  1.0000
  C   C12       1.0  0.84835  0.65222  0.33530  1.0000
  C   C13       1.0  0.31892  0.18669  0.28462  1.0000
  C   C14       1.0  0.81631  0.13317  0.25818  1.0000
  C   C15       1.0  0.86719  0.68193  0.27435  1.0000
  C   C16       1.0  0.30175  0.15662  0.23486  1.0000
  C   C17       1.0  0.84629  0.14559  0.20168  1.0000
  C   C18       1.0  0.85448  0.69933  0.22051  1.0000
  C   C19       1.0  0.17908  0.10319  0.02562  1.0000
  C   C20       1.0  0.89997  0.07562  0.00691  1.0000
  C   C21       1.0  0.92462  0.82321  0.00575  1.0000
  C   C22       1.0  0.48895  0.23470  0.49169  1.0000
  C   C23       1.0  0.76863  0.25432  0.47837  1.0000
  C   C24       1.0  0.74766  0.51022  0.47759  1.0000
  C   C25       1.0  0.03067  0.01548  0.44691  1.0000
  C   C26       1.0  0.98319  0.01579  0.44353  1.0000
  C   C27       1.0  0.98286  0.96798  0.44334  1.0000
  C   C28       1.0  0.63597  0.31670  0.45273  1.0000
  C   C29       1.0  0.68317  0.31587  0.45612  1.0000
  C   C30       1.0  0.68398  0.36393  0.44621  1.0000
  C   C31       1.0  0.01470  0.03102  0.44508  1.0000
  C   C32       1.0  0.96759  0.98426  0.44117  1.0000
  C   C33       1.0  0.01436  0.98396  0.44557  1.0000
  C   C34       1.0  0.65165  0.30087  0.45819  1.0000
  C   C35       1.0  0.69898  0.34742  0.45090  1.0000
  C   C36       1.0  0.65248  0.34821  0.44780  1.0000
  C   C37       1.0  0.33418  0.23209  0.36133  1.0000
  C   C38       1.0  0.77088  0.10388  0.34735  1.0000
  C   C39       1.0  0.89683  0.66607  0.35755  1.0000
  C   C40       1.0  0.31382  0.26488  0.30637  1.0000
  C   C41       1.0  0.73675  0.05082  0.30469  1.0000
  C   C42       1.0  0.95005  0.68602  0.30773  1.0000
  C   C43       1.0  0.32940  0.29781  0.24891  1.0000
  C   C44       1.0  0.70357  0.03396  0.25860  1.0000
  C   C45       1.0  0.96835  0.67092  0.26681  1.0000
  C   C46       1.0  0.28582  0.25526  0.41552  1.0000
  C   C47       1.0  0.74621  0.03221  0.41321  1.0000
  C   C48       1.0  0.96746  0.71457  0.40966  1.0000
  C   C49       1.0  0.31221  0.13981  0.73612  1.0000
  C   C50       1.0  0.86090  0.17700  0.71370  1.0000
  C   C51       1.0  0.82472  0.68339  0.71535  1.0000
  C   C52       1.0  0.34142  0.15101  0.79230  1.0000
  C   C53       1.0  0.84908  0.19466  0.76747  1.0000
  C   C54       1.0  0.80674  0.65382  0.77267  1.0000
  C   C55       1.0  0.35902  0.18087  0.84251  1.0000
  C   C56       1.0  0.81903  0.18208  0.82174  1.0000
  C   C57       1.0  0.81904  0.63645  0.83185  1.0000
  C   C58       1.0  0.34476  0.19800  0.83394  1.0000
  C   C59       1.0  0.80236  0.15059  0.82139  1.0000
  C   C60       1.0  0.85051  0.65139  0.83146  1.0000
  C   C61       1.0  0.31568  0.18759  0.77044  1.0000
  C   C62       1.0  0.81356  0.13227  0.76182  1.0000
  C   C63       1.0  0.86916  0.68101  0.76827  1.0000
  C   C64       1.0  0.29831  0.15745  0.72194  1.0000
  C   C65       1.0  0.84374  0.14540  0.70745  1.0000
  C   C66       1.0  0.85635  0.69808  0.71025  1.0000
  C   C67       1.0  0.17554  0.10222  0.51306  1.0000
  C   C68       1.0  0.89820  0.07614  0.51146  1.0000
  C   C69       1.0  0.92563  0.82289  0.51160  1.0000
  C   C70       1.0  0.48476  0.23324  0.98472  1.0000
  C   C71       1.0  0.76555  0.25475  0.96356  1.0000
  C   C72       1.0  0.74385  0.50992  0.97881  1.0000
  C   C73       1.0  0.03424  0.01701  0.94338  1.0000
  C   C74       1.0  0.98678  0.01734  0.93988  1.0000
  C   C75       1.0  0.98641  0.96948  0.94404  1.0000
  C   C76       1.0  0.63171  0.31583  0.94846  1.0000
  C   C77       1.0  0.67877  0.31481  0.95208  1.0000
  C   C78       1.0  0.67979  0.36292  0.95066  1.0000
  C   C79       1.0  0.01830  0.03259  0.93968  1.0000
  C   C80       1.0  0.97124  0.98583  0.94157  1.0000
  C   C81       1.0  0.01794  0.98545  0.94397  1.0000
  C   C82       1.0  0.64728  0.29989  0.95092  1.0000
  C   C83       1.0  0.69467  0.34631  0.95303  1.0000
  C   C84       1.0  0.64829  0.34734  0.94927  1.0000
  C   C85       1.0  0.33145  0.23319  0.84678  1.0000
  C   C86       1.0  0.76798  0.10174  0.84577  1.0000
  C   C87       1.0  0.89920  0.66599  0.85730  1.0000
  C   C88       1.0  0.31027  0.26551  0.80824  1.0000
  C   C89       1.0  0.73665  0.04822  0.80929  1.0000
  C   C90       1.0  0.95265  0.68722  0.81027  1.0000
  C   C91       1.0  0.32281  0.29900  0.77351  1.0000
  C   C92       1.0  0.70331  0.02753  0.77704  1.0000
  C   C93       1.0  0.97157  0.67299  0.76603  1.0000
  C   C94       1.0  0.28165  0.25166  0.91793  1.0000
  C   C95       1.0  0.75035  0.03320  0.91637  1.0000
  C   C96       1.0  0.96958  0.71555  0.91382  1.0000
  N   N1        1.0  0.16092  0.07453  0.03398  1.0000
  N   N2        1.0  0.92860  0.08625  0.01464  1.0000
  N   N3        1.0  0.91523  0.84205  0.02405  1.0000
  N   N4        1.0  0.50830  0.25595  0.39574  1.0000
  N   N5        1.0  0.74571  0.25082  0.39610  1.0000
  N   N6        1.0  0.74977  0.49194  0.37896  1.0000
  N   N7        1.0  0.35745  0.22667  0.39425  1.0000
  N   N8        1.0  0.77699  0.13282  0.37627  1.0000
  N   N9        1.0  0.86794  0.64270  0.38929  1.0000
  N   N10       1.0  0.31097  0.20890  0.29494  1.0000
  N   N11       1.0  0.79370  0.10317  0.27669  1.0000
  N   N12       1.0  0.89729  0.68979  0.28852  1.0000
  N   N13       1.0  0.33711  0.26015  0.38336  1.0000
  N   N14       1.0  0.74252  0.07926  0.37733  1.0000
  N   N15       1.0  0.92160  0.66263  0.38339  1.0000
  N   N16       1.0  0.15768  0.07355  0.52634  1.0000
  N   N17       1.0  0.92668  0.08621  0.52271  1.0000
  N   N18       1.0  0.91422  0.84027  0.51489  1.0000
  N   N19       1.0  0.50406  0.25590  0.89587  1.0000
  N   N20       1.0  0.74092  0.24932  0.89292  1.0000
  N   N21       1.0  0.74766  0.49093  0.89512  1.0000
  N   N22       1.0  0.35424  0.22720  0.88297  1.0000
  N   N23       1.0  0.77318  0.13039  0.87626  1.0000
  N   N24       1.0  0.87036  0.64245  0.88968  1.0000
  N   N25       1.0  0.30818  0.21018  0.77838  1.0000
  N   N26       1.0  0.79152  0.10202  0.77736  1.0000
  N   N27       1.0  0.89931  0.68931  0.78498  1.0000
  N   N28       1.0  0.33470  0.26119  0.86906  1.0000
  N   N29       1.0  0.74020  0.07647  0.87169  1.0000
  N   N30       1.0  0.92431  0.66342  0.88400  1.0000
  O   O1        1.0  0.35566  0.30489  0.15029  1.0000
  O   O2        1.0  0.69660  0.05326  0.15957  1.0000
  O   O3        1.0  0.95112  0.64507  0.16647  1.0000
  O   O4        1.0  0.34740  0.31117  0.65630  1.0000
  O   O5        1.0  0.69211  0.04134  0.66391  1.0000
  O   O6        1.0  0.95510  0.64758  0.66233  1.0000
  C   C97       1.0  0.23834  0.15389  0.04292  1.0000
  C   C98       1.0  0.21511  0.12414  0.06187  1.0000
  C  Sn1       1.0  0.21954  0.10336  0.15204  1.0000
  C  Sn2       1.0  0.24778  0.11261  0.22449  1.0000
  C   C99       1.0  0.27087  0.14243  0.20491  1.0000
  C   C100      1.0  0.26620  0.16304  0.11439  1.0000
  H   H91       1.0  0.23175  0.16540  0.97296  1.0000
  O  Te1       1.0  0.19608  0.07371  0.16972  1.0000
  O  Te2       1.0  0.25281  0.09231  0.31529  1.0000
  H   H92       1.0  0.28419  0.18608  0.09983  1.0000
  Mg  Mg1       1.0  0.21389  0.05437  0.30467  1.0000
  C   C101      1.0  0.90354  0.12679  0.16213  1.0000
  C   C102      1.0  0.89059  0.09926  0.08366  1.0000
  C  Sn3       1.0  0.86095  0.08587  0.03068  1.0000
  C  Sn4       1.0  0.84402  0.10037  0.05688  1.0000
  C   C103      1.0  0.85718  0.12792  0.13540  1.0000
  C   C104      1.0  0.88686  0.14111  0.18796  1.0000
  H   H93       1.0  0.92650  0.13700  0.20272  1.0000
  O  Te3       1.0  0.84539  0.05391  0.95254  1.0000
  O  Te4       1.0  0.81436  0.08749  0.00512  1.0000
  H   H94       1.0  0.89688  0.16244  0.24862  1.0000
  Mg  Mg2       1.0  0.80415  0.04532  0.90438  1.0000
  C   C105      1.0  0.91386  0.76297  0.01139  1.0000
  C   C106      1.0  0.90847  0.78665  0.03798  1.0000
  C  Sn5       1.0  0.88475  0.78244  0.14025  1.0000
  C  Sn6       1.0  0.86613  0.75396  0.21720  1.0000
  C   C107      1.0  0.87172  0.73042  0.18991  1.0000
  C   C108      1.0  0.89551  0.73488  0.08729  1.0000
  H   H95       1.0  0.92929  0.76198  0.93207  1.0000
  O  Te5       1.0  0.87967  0.80633  0.16544  1.0000
  O  Te6       1.0  0.84228  0.74913  0.32006  1.0000
  H   H96       1.0  0.89969  0.71655  0.06682  1.0000
  Mg  Mg3       1.0  0.84438  0.78867  0.31614  1.0000
  C   C109      1.0  0.42816  0.18684  0.54101  1.0000
  C   C110      1.0  0.45230  0.21314  0.47444  1.0000
  C  Sn7       1.0  0.44721  0.23136  0.36570  1.0000
  C  Sn8       1.0  0.41737  0.22304  0.32308  1.0000
  C   C111      1.0  0.39337  0.19669  0.39044  1.0000
  C   C112      1.0  0.39871  0.17862  0.49909  1.0000
  H   H97       1.0  0.43229  0.17287  0.62515  1.0000
  O  Te7       1.0  0.47160  0.25756  0.30028  1.0000
  O  Te8       1.0  0.41164  0.24084  0.21474  1.0000
  H   H98       1.0  0.38001  0.15827  0.55069  1.0000
  Mg  Mg4       1.0  0.45232  0.27442  0.15783  1.0000
  C   C113      1.0  0.76807  0.20559  0.31276  1.0000
  C   C114      1.0  0.77790  0.22945  0.42007  1.0000
  C  Sn9       1.0  0.80572  0.24079  0.49531  1.0000
  C  Sn10      1.0  0.82399  0.22797  0.46223  1.0000
  C   C115      1.0  0.81396  0.20412  0.35460  1.0000
  C   C116      1.0  0.78607  0.19294  0.28002  1.0000
  H   H99       1.0  0.74650  0.19695  0.25497  1.0000
  O  Te9       1.0  0.81520  0.26463  0.60225  1.0000
  O  Te10      1.0  0.85190  0.23888  0.53572  1.0000
  H   H100      1.0  0.77847  0.17448  0.19686  1.0000
  Mg  Mg5       1.0  0.85499  0.27167  0.67247  1.0000
  C   C117      1.0  0.76646  0.58662  0.50083  1.0000
  C   C118      1.0  0.79274  0.60281  0.40664  1.0000
  C  Sn11      1.0  0.80489  0.58780  0.32290  1.0000
  C  Sn12      1.0  0.79040  0.55598  0.33386  1.0000
  C   C119      1.0  0.76411  0.53999  0.42832  1.0000
  C   C120      1.0  0.75215  0.55524  0.51166  1.0000
  H   H101      1.0  0.75720  0.59841  0.56525  1.0000
  O  Te11      1.0  0.83117  0.60432  0.22939  1.0000
  O  Te12      1.0  0.80205  0.54041  0.25137  1.0000
  H   H102      1.0  0.73179  0.54269  0.58449  1.0000
  Mg  Mg6       1.0  0.83836  0.57291  0.13949  1.0000
  C   C121      1.0  0.10862  0.02928  0.89643  1.0000
  C   C122      1.0  0.12733  0.05604  0.97569  1.0000
  C  Sn13      1.0  0.11814  0.07599  0.05417  1.0000
  C  Sn14      1.0  0.08665  0.06443  0.05311  1.0000
  C   C123      1.0  0.06514  0.03318  0.97356  1.0000
  C   C124      1.0  0.07755  0.01786  0.89537  1.0000
  H   H103      1.0  0.11822  0.01741  0.83600  1.0000
  O  Te13      1.0  0.13716  0.10269  0.13273  1.0000
  O  Te14      1.0  0.07390  0.07946  0.13063  1.0000
  H   H104      1.0  0.06306  0.99713  0.83410  1.0000
  Mg  Mg7       1.0  0.10912  0.11502  0.22115  1.0000
  C   C125      1.0  0.97467  0.07940  0.87977  1.0000
  C   C126      1.0  0.94747  0.07126  0.95965  1.0000
  C  Sn15      1.0  0.93462  0.04803  0.04313  1.0000
  C  Sn16      1.0  0.94629  0.02819  0.04652  1.0000
  C   C127      1.0  0.97055  0.03210  0.96632  1.0000
  C   C128      1.0  0.98620  0.05984  0.88311  1.0000
  H   H105      1.0  0.98679  0.10086  0.81546  1.0000
  O  Te15      1.0  0.90747  0.04026  0.12224  1.0000
  O  Te16      1.0  0.93093  0.00040  0.12909  1.0000
  H   H106      1.0  0.00727  0.06614  0.82136  1.0000
  Mg  Mg8       1.0  0.89483  0.99993  0.21834  1.0000
  C   C129      1.0  0.93331  0.91287  0.87818  1.0000
  C   C130      1.0  0.96153  0.93273  0.94064  1.0000
  C  Sn17      1.0  0.98019  0.92624  0.03071  1.0000
  C  Sn18      1.0  0.96734  0.89483  0.05854  1.0000
  C   C131      1.0  0.93613  0.87071  0.99545  1.0000
  C   C132      1.0  0.92062  0.88188  0.90552  1.0000
  H   H107      1.0  0.92132  0.92151  0.80853  1.0000
  O  Te17      1.0  0.00836  0.94640  0.09228  1.0000
  O  Te18      1.0  0.98253  0.88330  0.14810  1.0000
  H   H108      1.0  0.89878  0.86650  0.85709  1.0000
  Mg  Mg9       1.0  0.02030  0.91980  0.20689  1.0000
  C   C133      1.0  0.10486  0.02727  0.39837  1.0000
  C   C134      1.0  0.12390  0.05453  0.47234  1.0000
  C  Sn19      1.0  0.11205  0.07054  0.54848  1.0000
  C  Sn20      1.0  0.08055  0.05897  0.55045  1.0000
  C   C135      1.0  0.06170  0.03166  0.47621  1.0000
  C   C136      1.0  0.07379  0.01584  0.40032  1.0000
  H   H109      1.0  0.11422  0.01501  0.33973  1.0000
  O  Te19      1.0  0.13139  0.09775  0.62174  1.0000
  O  Te20      1.0  0.06811  0.07450  0.62575  1.0000
  H   H110      1.0  0.55906  0.99472  0.34315  1.0000
  Mg  Mg10      1.0  0.10371  0.11063  0.70889  1.0000
  C   C137      1.0  0.92583  0.03104  0.57183  1.0000
  C   C138      1.0  0.93497  0.06026  0.51592  1.0000
  C  Sn21      1.0  0.96056  0.07585  0.41598  1.0000
  C  Sn22      1.0  0.97727  0.06186  0.37135  1.0000
  C   C139      1.0  0.96793  0.03261  0.42782  1.0000
  C   C140      1.0  0.94229  0.01722  0.52781  1.0000
  H   H111      1.0  0.90599  0.01912  0.64912  1.0000
  O  Te21      1.0  0.96938  0.10504  0.36126  1.0000
  O  Te22      1.0  0.00293  0.07693  0.27156  1.0000
  H   H112      1.0  0.43523  0.99459  0.57099  1.0000
  Mg  Mg11      1.0  0.00593  0.11636  0.22783  1.0000
  C   C141      1.0  0.92174  0.89393  0.38047  1.0000
  C   C142      1.0  0.92926  0.87454  0.46221  1.0000
  C  Sn23      1.0  0.95602  0.88607  0.54858  1.0000
  C  Sn24      1.0  0.97557  0.91761  0.55300  1.0000
  C   C143      1.0  0.96783  0.93682  0.47091  1.0000
  C   C144      1.0  0.94100  0.92504  0.38482  1.0000
  H   H113      1.0  0.90098  0.88482  0.31393  1.0000
  O  Te23      1.0  0.96320  0.86638  0.62952  1.0000
  O  Te24      1.0  0.00245  0.92974  0.63844  1.0000
  H   H114      1.0  0.93518  0.94006  0.32163  1.0000
  Mg  Mg12      1.0  0.00236  0.89372  0.72935  1.0000
  C   C145      1.0  0.57333  0.26501  0.02937  1.0000
  C   C146      1.0  0.59164  0.28745  0.95234  1.0000
  C  Sn25      1.0  0.58245  0.30405  0.85611  1.0000
  C  Sn26      1.0  0.55135  0.29348  0.83691  1.0000
  C   C147      1.0  0.53023  0.26656  0.91459  1.0000
  C   C148      1.0  0.54265  0.25457  0.01056  1.0000
  H   H115      1.0  0.58063  0.25230  0.10370  1.0000
  O  Te25      1.0  0.60401  0.33086  0.77995  1.0000
  O  Te26      1.0  0.54154  0.30963  0.74148  1.0000
  H   H116      1.0  0.52617  0.23376  0.07028  1.0000
  Mg  Mg13      1.0  0.57952  0.34487  0.66229  1.0000
  C   C149      1.0  0.73831  0.29961  0.02425  1.0000
  C   C150      1.0  0.72716  0.26807  0.94819  1.0000
  C  Sn27      1.0  0.70066  0.25366  0.85938  1.0000
  C  Sn28      1.0  0.68205  0.26668  0.84667  1.0000
  C   C151      1.0  0.69044  0.29381  0.92311  1.0000
  C   C152      1.0  0.71997  0.31248  0.01172  1.0000
  H   H117      1.0  0.75886  0.31063  0.09274  1.0000
  O  Te27      1.0  0.69282  0.22659  0.78420  1.0000
  O  Te28      1.0  0.65545  0.25275  0.75862  1.0000
  H   H118      1.0  0.72631  0.33347  0.07051  1.0000
  Mg  Mg14      1.0  0.65438  0.21616  0.67784  1.0000
  C   C153      1.0  0.68702  0.42073  0.02982  1.0000
  C   C154      1.0  0.69001  0.39555  0.95521  1.0000
  C  Sn29      1.0  0.71622  0.40544  0.86153  1.0000
  C  Sn30      1.0  0.73681  0.43668  0.84246  1.0000
  C   C155      1.0  0.73064  0.45725  0.91771  1.0000
  C   C156      1.0  0.70731  0.45155  0.01113  1.0000
  H   H119      1.0  0.66667  0.41289  0.10219  1.0000
  O  Te29      1.0  0.72184  0.38441  0.78778  1.0000
  O  Te30      1.0  0.76318  0.44718  0.74956  1.0000
  H   H120      1.0  0.70270  0.46762  0.06898  1.0000
  Mg  Mg15      1.0  0.76085  0.40976  0.67306  1.0000
  C   C157      1.0  0.58141  0.31240  0.33503  1.0000
  C   C158      1.0  0.59964  0.30521  0.42943  1.0000
  C  Sn31      1.0  0.58708  0.27811  0.51902  1.0000
  C  Sn32      1.0  0.55568  0.25787  0.51374  1.0000
  C   C159      1.0  0.53764  0.26526  0.41884  1.0000
  C   C160      1.0  0.55044  0.29244  0.32970  1.0000
  H   H121      1.0  0.59132  0.33342  0.26599  1.0000
  O  Te31      1.0  0.60562  0.27129  0.61275  1.0000
  O  Te32      1.0  0.54255  0.23062  0.60204  1.0000
  H   H122      1.0  0.53633  0.29799  0.25654  1.0000
  Mg  Mg16      1.0  0.57717  0.23142  0.71181  1.0000
  C   C161      1.0  0.68733  0.26473  0.35636  1.0000
  C   C162      1.0  0.69477  0.29094  0.44022  1.0000
  C  Sn33      1.0  0.72258  0.30684  0.51578  1.0000
  C  Sn34      1.0  0.74327  0.29625  0.50698  1.0000
  C   C163      1.0  0.73561  0.27002  0.42269  1.0000
  C   C164      1.0  0.70773  0.25427  0.34756  1.0000
  H   H123      1.0  0.66576  0.25255  0.29815  1.0000
  O  Te33      1.0  0.72966  0.33298  0.59912  1.0000
  O  Te34      1.0  0.77122  0.31172  0.58134  1.0000
  H   H124      1.0  0.70197  0.23399  0.28255  1.0000
  Mg  Mg17      1.0  0.77052  0.34620  0.68069  1.0000
  C   C165      1.0  0.74353  0.43631  0.32254  1.0000
  C   C166      1.0  0.73527  0.45680  0.37718  1.0000
  C  Sn35      1.0  0.70913  0.44687  0.47157  1.0000
  C  Sn36      1.0  0.69097  0.41584  0.51184  1.0000
  C   C167      1.0  0.69944  0.39552  0.45668  1.0000
  C   C168      1.0  0.72564  0.40570  0.36225  1.0000
  H   H125      1.0  0.76381  0.44419  0.24956  1.0000
  O  Te35      1.0  0.70120  0.46765  0.52511  1.0000
  O  Te36      1.0  0.66473  0.40530  0.60605  1.0000
  H   H126      1.0  0.73204  0.38983  0.32005  1.0000
  Mg  Mg18      1.0  0.66337  0.44234  0.65027  1.0000
  C   C169      1.0  0.24124  0.26933  0.29119  1.0000
  C   C170      1.0  0.25458  0.25209  0.32928  1.0000
  C  Sn37      1.0  0.24217  0.22280  0.27317  1.0000
  C  Sn38      1.0  0.21592  0.21061  0.17712  1.0000
  C   C171      1.0  0.20275  0.22805  0.13959  1.0000
  C   C172      1.0  0.21535  0.25733  0.19642  1.0000
  H   H127      1.0  0.25100  0.29199  0.33508  1.0000
  O  Te37      1.0  0.25578  0.20589  0.31240  1.0000
  O  Te38      1.0  0.20305  0.18141  0.11940  1.0000
  H   H128      1.0  0.20503  0.27068  0.16681  1.0000
  Mg  Mg19      1.0  0.22983  0.16719  0.20533  1.0000
  C   C173      1.0  0.78642  0.01965  0.22659  1.0000
  C   C174      1.0  0.75929  0.01427  0.29674  1.0000
  C  Sn39      1.0  0.23451  0.98521  0.30334  1.0000
  C  Sn40      1.0  0.23700  0.96112  0.23843  1.0000
  C   C175      1.0  0.26425  0.96673  0.16861  1.0000
  C   C176      1.0  0.28892  0.99591  0.16260  1.0000
  H   H129      1.0  0.80552  0.04222  0.22201  1.0000
  O  Te39      1.0  0.20756  0.98023  0.37380  1.0000
  O  Te40      1.0  0.21258  0.93185  0.24348  1.0000
  H   H130      1.0  0.80992  0.00007  0.10837  1.0000
  Mg  Mg20      1.0  0.18061  0.93640  0.35190  1.0000
  C   C177      1.0  0.03279  0.77714  0.22219  1.0000
  C   C178      1.0  0.02224  0.79346  0.13414  1.0000
  C  Sn41      1.0  0.99181  0.78483  0.14115  1.0000
  C  Sn42      1.0  0.97163  0.75939  0.23825  1.0000
  C   C179      1.0  0.98242  0.74322  0.32597  1.0000
  C   C180      1.0  0.01291  0.75205  0.31804  1.0000
  H   H131      1.0  0.05638  0.78397  0.21614  1.0000
  O  Te41      1.0  0.98164  0.80138  0.05237  1.0000
  O  Te42      1.0  0.94111  0.75028  0.24749  1.0000
  H   H132      1.0  0.02107  0.73942  0.38630  1.0000
  Mg  Mg21      1.0  0.93804  0.78009  0.10430  1.0000
  C   C181      1.0  0.25137  0.16027  0.54220  1.0000
  C   C182      1.0  0.26473  0.14920  0.65018  1.0000
  C  Sn43      1.0  0.24830  0.11987  0.71409  1.0000
  C  Sn44      1.0  0.21793  0.10134  0.66880  1.0000
  C   C183      1.0  0.20478  0.11262  0.56060  1.0000
  C   C184      1.0  0.22143  0.14200  0.49742  1.0000
  H   H133      1.0  0.26425  0.18300  0.49323  1.0000
  O  Te43      1.0  0.26199  0.10917  0.82187  1.0000
  O  Te44      1.0  0.20099  0.07194  0.73081  1.0000
  H   H134      1.0  0.21108  0.15056  0.41373  1.0000
  Mg  Mg22      1.0  0.22962  0.06756  0.87374  1.0000
  C   C185      1.0  0.84763  0.08502  0.52379  1.0000
  C   C186      1.0  0.87736  0.09169  0.54089  1.0000
  C  Sn45      1.0  0.89770  0.11693  0.62661  1.0000
  C  Sn46      1.0  0.88803  0.13580  0.69641  1.0000
  C   C187      1.0  0.85824  0.12892  0.67872  1.0000
  C   C188      1.0  0.83807  0.10361  0.59265  1.0000
  H   H135      1.0  0.83202  0.06542  0.45728  1.0000
  O  Te45      1.0  0.92732  0.12328  0.64249  1.0000
  O  Te46      1.0  0.90789  0.16117  0.78276  1.0000
  H   H136      1.0  0.81505  0.09843  0.57952  1.0000
  Mg  Mg23      1.0  0.94598  0.16041  0.77121  1.0000
  C   C189      1.0  0.90845  0.74707  0.54751  1.0000
  C   C190      1.0  0.88205  0.73234  0.64199  1.0000
  C  Sn47      1.0  0.86762  0.74779  0.69266  1.0000
  C  Sn48      1.0  0.87990  0.77856  0.64768  1.0000
  C   C191      1.0  0.90632  0.79309  0.55304  1.0000
  C   C192      1.0  0.92058  0.77742  0.50305  1.0000
  H   H137      1.0  0.91948  0.73494  0.50874  1.0000
  O  Te47      1.0  0.84126  0.73273  0.78705  1.0000
  O  Te48      1.0  0.86594  0.79454  0.69662  1.0000
  H   H138      1.0  0.94101  0.78883  0.42981  1.0000
  Mg  Mg24      1.0  0.83048  0.76417  0.82405  1.0000
  C   C193      1.0  0.42392  0.18507  0.02538  1.0000
  C   C194      1.0  0.44518  0.20762  0.96608  1.0000
  C  Sn49      1.0  0.44024  0.22699  0.86577  1.0000
  C  Sn50      1.0  0.41047  0.21913  0.82429  1.0000
  C   C195      1.0  0.38638  0.19208  0.88433  1.0000
  C   C196      1.0  0.39157  0.17287  0.98458  1.0000
  H   H139      1.0  0.42793  0.17021  0.10302  1.0000
  O  Te49      1.0  0.46471  0.25386  0.80753  1.0000
  O  Te50      1.0  0.40490  0.23808  0.72429  1.0000
  H   H140      1.0  0.37577  0.15642  0.03056  1.0000
  Mg  Mg25      1.0  0.44565  0.27224  0.67514  1.0000
  C   C197      1.0  0.82234  0.23467  0.96476  1.0000
  C   C198      1.0  0.80965  0.20681  0.88991  1.0000
  C  Sn51      1.0  0.78087  0.19405  0.82482  1.0000
  C  Sn52      1.0  0.76456  0.20953  0.83499  1.0000
  C   C199      1.0  0.77746  0.23740  0.91001  1.0000
  C   C200      1.0  0.80627  0.24995  0.97479  1.0000
  H   H141      1.0  0.84760  0.24884  0.01480  1.0000
  O  Te51      1.0  0.76853  0.16619  0.75051  1.0000
  O  Te52      1.0  0.73577  0.19729  0.77089  1.0000
  H   H142      1.0  0.81907  0.27598  0.03263  1.0000
  Mg  Mg26      1.0  0.72855  0.15875  0.68137  1.0000
  C   C201      1.0  0.76593  0.58730  0.98345  1.0000
  C   C202      1.0  0.79404  0.60230  0.90505  1.0000
  C  Sn53      1.0  0.80653  0.58606  0.83881  1.0000
  C  Sn54      1.0  0.79052  0.55422  0.85145  1.0000
  C   C203      1.0  0.76240  0.53942  0.93002  1.0000
  C   C204      1.0  0.75012  0.55589  0.99591  1.0000
  H   H143      1.0  0.75939  0.60448  0.03436  1.0000
  O  Te53      1.0  0.83465  0.60140  0.76094  1.0000
  O  Te54      1.0  0.80247  0.53743  0.78628  1.0000
  H   H144      1.0  0.73131  0.54871  0.05651  1.0000
  Mg  Mg27      1.0  0.84154  0.56859  0.69162  1.0000
  C   C205      1.0  0.22077  0.25806  0.74599  1.0000
  C   C206      1.0  0.20459  0.23249  0.65256  1.0000
  C  Sn55      1.0  0.21256  0.21019  0.65093  1.0000
  C  Sn56      1.0  0.23718  0.21362  0.74475  1.0000
  C   C207      1.0  0.25321  0.23928  0.83791  1.0000
  C   C208      1.0  0.24505  0.26145  0.83860  1.0000
  H   H145      1.0  0.21445  0.27521  0.74661  1.0000
  O  Te55      1.0  0.19616  0.18479  0.55686  1.0000
  O  Te56      1.0  0.24562  0.19167  0.74539  1.0000
  H   H146      1.0  0.25757  0.28124  0.91104  1.0000
  Mg  Mg28      1.0  0.21633  0.16108  0.59752  1.0000
  C   C209      1.0  0.79143  0.02370  0.71679  1.0000
  C   C210      1.0  0.76435  0.01686  0.79388  1.0000
  C  Sn57      1.0  0.24040  0.98732  0.79989  1.0000
  C  Sn58      1.0  0.24367  0.96424  0.72730  1.0000
  C   C211      1.0  0.27086  0.97131  0.65057  1.0000
  C   C212      1.0  0.79468  0.00094  0.64522  1.0000
  H   H147      1.0  0.80987  0.04663  0.71272  1.0000
  O  Te57      1.0  0.21350  0.98089  0.87735  1.0000
  O  Te58      1.0  0.22009  0.93452  0.73159  1.0000
  H   H148      1.0  0.81564  0.00622  0.58561  1.0000
  Mg  Mg29      1.0  0.18784  0.93698  0.85130  1.0000
  C   C213      1.0  0.99216  0.78073  0.65664  1.0000
  C   C214      1.0  0.02343  0.79502  0.64152  1.0000
  C  Sn59      1.0  0.03904  0.78202  0.71221  1.0000
  C  Sn60      1.0  0.02300  0.75419  0.79955  1.0000
  C   C215      1.0  0.99172  0.74006  0.81388  1.0000
  C   C216      1.0  0.97632  0.75327  0.74271  1.0000
  H   H149      1.0  0.98024  0.79094  0.60150  1.0000
  O  Te59      1.0  0.07028  0.79661  0.69599  1.0000
  O  Te60      1.0  0.03804  0.74069  0.87136  1.0000
  H   H150      1.0  0.95211  0.74219  0.75434  1.0000
  Mg  Mg30      1.0  0.08070  0.76928  0.81558  1.0000
