data_image0
_chemical_formula_structural       H192C192N36C2Sn2C2HTe2HMgC2Sn2C2HTe2HMgC2Sn2C2HTe2HMgC2Sn2C2HTe2HMgC2Sn2C2HTe2HMgC2Sn2C2HTe2HMgC2Sn2C2HTe2HMgC2Sn2C2HTe2HMgC2Sn2C2HTe2HMgC2Sn2C2HTe2HMgC2Sn2C2HTe2HMgC2Sn2C2HTe2HMg
_chemical_formula_sum              "H216 C240 N36 Sn24 Te24 Mg12"
_cell_length_a       51.8069
_cell_length_b       51.8112
_cell_length_c       8.27607
_cell_angle_alpha    89.2159
_cell_angle_beta     90.2821
_cell_angle_gamma    120.098

_symmetry_space_group_name_H-M    'P1'
_space_group_IT_number       1

loop_
  _space_group_symop_operation_xyz
  'x, y, z'

loop_
  _atom_site_type_symbol
  _atom_site_label
  _atom_site_symmetry_multiplicity
  _atom_site_fract_x
  _atom_site_fract_y
  _atom_site_fract_z
  _atom_site_occupancy
  H   H1        1.0  0.30497  0.11357  0.45553  1.0000
  H   H2        1.0  0.88650  0.19190  0.45554  1.0000
  H   H3        1.0  0.81055  0.69372  0.45986  1.0000
  H   H4        1.0  0.35801  0.13460  0.52344  1.0000
  H   H5        1.0  0.86432  0.22257  0.52586  1.0000
  H   H6        1.0  0.78007  0.64060  0.53315  1.0000
  H   H7        1.0  0.39268  0.15440  0.27146  1.0000
  H   H8        1.0  0.44750  0.17790  0.30778  1.0000
  H   H9        1.0  0.46025  0.25764  0.06966  1.0000
  H   H10       1.0  0.40527  0.23403  0.03205  1.0000
  H   H11       1.0  0.25767  0.09736  0.12013  1.0000
  H   H12       1.0  0.83654  0.74037  0.09615  1.0000
  H   H13       1.0  0.20322  0.07251  0.06021  1.0000
  H   H14       1.0  0.86584  0.79474  0.02727  1.0000
  H   H15       1.0  0.84932  0.06819  0.29616  1.0000
  H   H16       1.0  0.93560  0.78173  0.30598  1.0000
  H   H17       1.0  0.82515  0.09798  0.35255  1.0000
  H   H18       1.0  0.90664  0.72778  0.37446  1.0000
  H   H19       1.0  0.49847  0.21896  0.25153  1.0000
  H   H20       1.0  0.78071  0.28103  0.24522  1.0000
  H   H21       1.0  0.71921  0.49916  0.25008  1.0000
  H   H22       1.0  0.16797  0.11266  0.35978  1.0000
  H   H23       1.0  0.88987  0.05762  0.34090  1.0000
  H   H24       1.0  0.94413  0.83208  0.33199  1.0000
  H   H25       1.0  0.70082  0.45942  0.04171  1.0000
  H   H26       1.0  0.67044  0.40427  0.03788  1.0000
  H   H27       1.0  0.73521  0.39866  0.34104  1.0000
  H   H28       1.0  0.76640  0.45382  0.33609  1.0000
  H   H29       1.0  0.12342  0.08977  0.04865  1.0000
  H   H30       1.0  0.06848  0.06560  0.03286  1.0000
  H   H31       1.0  0.00462  0.07149  0.23729  1.0000
  H   H32       1.0  0.92987  0.93381  0.22323  1.0000
  H   H33       1.0  0.98175  0.10344  0.25997  1.0000
  H   H34       1.0  0.89841  0.87863  0.23252  1.0000
  H   H35       1.0  0.63996  0.36189  0.18857  1.0000
  H   H36       1.0  0.63684  0.27742  0.18070  1.0000
  H   H37       1.0  0.72128  0.35895  0.18653  1.0000
  H   H38       1.0  0.02511  0.96995  0.37545  1.0000
  H   H39       1.0  0.02992  0.05514  0.38619  1.0000
  H   H40       1.0  0.94465  0.97466  0.37397  1.0000
  H   H41       1.0  0.37522  0.23489  0.26179  1.0000
  H   H42       1.0  0.76693  0.14468  0.25593  1.0000
  H   H43       1.0  0.85589  0.62368  0.27013  1.0000
  H   H44       1.0  0.35235  0.26810  0.28161  1.0000
  H   H45       1.0  0.73409  0.09021  0.27771  1.0000
  H   H46       1.0  0.91060  0.64543  0.28611  1.0000
  H   H47       1.0  0.33828  0.31306  0.08520  1.0000
  H   H48       1.0  0.68808  0.03582  0.18395  1.0000
  H   H49       1.0  0.96687  0.65601  0.18225  1.0000
  H   H50       1.0  0.35082  0.30472  0.49663  1.0000
  H   H51       1.0  0.69478  0.04135  0.47307  1.0000
  H   H52       1.0  0.95511  0.65009  0.45689  1.0000
  H   H53       1.0  0.39498  0.35364  0.08521  1.0000
  H   H54       1.0  0.65311  0.05957  0.03332  1.0000
  H   H55       1.0  0.91831  0.57997  0.22567  1.0000
  H   H56       1.0  0.40780  0.34687  0.27230  1.0000
  H   H57       1.0  0.66325  0.08732  0.18342  1.0000
  H   H58       1.0  0.95432  0.61111  0.26205  1.0000
  H   H59       1.0  0.37254  0.34484  0.26311  1.0000
  H   H60       1.0  0.65600  0.05107  0.23994  1.0000
  H   H61       1.0  0.94405  0.59679  0.06278  1.0000
  H   H62       1.0  0.39741  0.30056  0.42696  1.0000
  H   H63       1.0  0.69872  0.09313  0.41028  1.0000
  H   H64       1.0  0.90356  0.59916  0.43969  1.0000
  H   H65       1.0  0.38373  0.27646  0.07208  1.0000
  H   H66       1.0  0.73628  0.11139  0.01189  1.0000
  H   H67       1.0  0.88977  0.62384  0.02541  1.0000
  H   H68       1.0  0.41358  0.30659  0.17551  1.0000
  H   H69       1.0  0.71015  0.12249  0.06352  1.0000
  H   H70       1.0  0.88044  0.58769  0.09617  1.0000
  H   H71       1.0  0.28058  0.26621  0.07143  1.0000
  H   H72       1.0  0.73739  0.02347  0.03325  1.0000
  H   H73       1.0  0.97615  0.71780  0.03855  1.0000
  H   H74       1.0  0.27554  0.28638  0.34590  1.0000
  H   H75       1.0  0.71706  0.98917  0.27695  1.0000
  H   H76       1.0  0.01221  0.73043  0.27011  1.0000
  H   H77       1.0  0.30458  0.31149  0.21717  1.0000
  H   H78       1.0  0.69106  0.99577  0.17281  1.0000
  H   H79       1.0  0.00532  0.69872  0.15926  1.0000
  H   H80       1.0  0.31269  0.29527  0.38481  1.0000
  H   H81       1.0  0.70615  0.01347  0.35939  1.0000
  H   H82       1.0  0.98887  0.69432  0.35219  1.0000
  H   H83       1.0  0.27933  0.22918  0.36553  1.0000
  H   H84       1.0  0.77150  0.05129  0.34427  1.0000
  H   H85       1.0  0.95104  0.72107  0.36613  1.0000
  H   H86       1.0  0.26473  0.21592  0.17290  1.0000
  H   H87       1.0  0.78629  0.05644  0.14802  1.0000
  H   H88       1.0  0.94289  0.73100  0.17612  1.0000
  H   H89       1.0  0.24869  0.23255  0.29392  1.0000
  H   H90       1.0  0.77004  0.02050  0.24327  1.0000
  H   H91       1.0  0.97984  0.75132  0.25545  1.0000
  H   H92       1.0  0.31371  0.25106  0.01758  1.0000
  H   H93       1.0  0.74741  0.07001  0.00627  1.0000
  H   H94       1.0  0.93090  0.67968  0.01315  1.0000
  H   H95       1.0  0.30360  0.11458  0.97461  1.0000
  H   H96       1.0  0.88681  0.19274  0.95349  1.0000
  H   H97       1.0  0.80767  0.69399  0.94782  1.0000
  H   H98       1.0  0.35691  0.13671  0.03919  1.0000
  H   H99       1.0  0.86567  0.22441  0.02393  1.0000
  H   H100      1.0  0.77626  0.64099  0.02352  1.0000
  H   H101      1.0  0.39540  0.15217  0.76806  1.0000
  H   H102      1.0  0.76294  0.60534  0.77743  1.0000
  H   H103      1.0  0.45043  0.17742  0.80368  1.0000
  H   H104      1.0  0.73206  0.55034  0.81634  1.0000
  H   H105      1.0  0.46029  0.25645  0.57165  1.0000
  H   H106      1.0  0.79893  0.53878  0.57823  1.0000
  H   H107      1.0  0.40519  0.23119  0.53393  1.0000
  H   H108      1.0  0.82977  0.59386  0.53633  1.0000
  H   H109      1.0  0.90382  0.16182  0.60651  1.0000
  H   H110      1.0  0.83812  0.74030  0.58667  1.0000
  H   H111      1.0  0.92800  0.13176  0.54873  1.0000
  H   H112      1.0  0.86735  0.79456  0.51818  1.0000
  H   H113      1.0  0.21701  0.15194  0.81299  1.0000
  H   H114      1.0  0.93116  0.78072  0.78803  1.0000
  H   H115      1.0  0.27122  0.17669  0.87167  1.0000
  H   H116      1.0  0.90213  0.72677  0.85481  1.0000
  H   H117      1.0  0.50033  0.21938  0.75465  1.0000
  H   H118      1.0  0.78007  0.27926  0.74430  1.0000
  H   H119      1.0  0.72235  0.49994  0.76192  1.0000
  H   H120      1.0  0.16661  0.11074  0.84904  1.0000
  H   H121      1.0  0.88625  0.05605  0.85989  1.0000
  H   H122      1.0  0.94111  0.83126  0.82340  1.0000
  H   H123      1.0  0.70209  0.46012  0.55697  1.0000
  H   H124      1.0  0.67141  0.40509  0.54958  1.0000
  H   H125      1.0  0.73729  0.39818  0.83576  1.0000
  H   H126      1.0  0.76852  0.45335  0.83643  1.0000
  H   H127      1.0  0.91016  0.03502  0.54229  1.0000
  H   H128      1.0  0.96391  0.87355  0.53008  1.0000
  H   H129      1.0  0.93395  0.00390  0.52915  1.0000
  H   H130      1.0  0.99470  0.92855  0.52721  1.0000
  H   H131      1.0  0.06595  0.99556  0.74743  1.0000
  H   H132      1.0  0.12073  0.01872  0.77426  1.0000
  H   H133      1.0  0.64154  0.36259  0.68759  1.0000
  H   H134      1.0  0.63730  0.27764  0.68290  1.0000
  H   H135      1.0  0.72231  0.35849  0.68774  1.0000
  H   H136      1.0  0.02354  0.96974  0.87401  1.0000
  H   H137      1.0  0.02839  0.05496  0.88739  1.0000
  H   H138      1.0  0.94309  0.97440  0.88331  1.0000
  H   H139      1.0  0.37630  0.23035  0.77986  1.0000
  H   H140      1.0  0.76645  0.14153  0.75648  1.0000
  H   H141      1.0  0.86122  0.62404  0.76376  1.0000
  H   H142      1.0  0.35572  0.26377  0.79984  1.0000
  H   H143      1.0  0.73387  0.08679  0.77504  1.0000
  H   H144      1.0  0.91581  0.64644  0.78184  1.0000
  H   H145      1.0  0.34750  0.31150  0.70211  1.0000
  H   H146      1.0  0.68786  0.02999  0.67788  1.0000
  H   H147      1.0  0.97224  0.65577  0.64791  1.0000
  H   H148      1.0  0.35075  0.29672  0.94374  1.0000
  H   H149      1.0  0.69494  0.04405  0.97555  1.0000
  H   H150      1.0  0.95530  0.65244  0.97893  1.0000
  H   H151      1.0  0.40640  0.34680  0.57004  1.0000
  H   H152      1.0  0.65098  0.05223  0.55001  1.0000
  H   H153      1.0  0.94623  0.59477  0.56619  1.0000
  H   H154      1.0  0.42395  0.33659  0.72360  1.0000
  H   H155      1.0  0.65987  0.07849  0.70737  1.0000
  H   H156      1.0  0.92280  0.58109  0.73971  1.0000
  H   H157      1.0  0.39427  0.34288  0.77498  1.0000
  H   H158      1.0  0.65487  0.04260  0.75307  1.0000
  H   H159      1.0  0.95960  0.61199  0.75763  1.0000
  H   H160      1.0  0.40348  0.31207  0.97648  1.0000
  H   H161      1.0  0.70329  0.09883  0.89368  1.0000
  H   H162      1.0  0.90382  0.60339  0.92209  1.0000
  H   H163      1.0  0.37635  0.26544  0.52864  1.0000
  H   H164      1.0  0.73259  0.10792  0.52234  1.0000
  H   H165      1.0  0.89289  0.62302  0.53465  1.0000
  H   H166      1.0  0.41326  0.29076  0.59257  1.0000
  H   H167      1.0  0.70449  0.11583  0.58308  1.0000
  H   H168      1.0  0.88355  0.58827  0.62710  1.0000
  H   H169      1.0  0.28535  0.26068  0.55069  1.0000
  H   H170      1.0  0.73942  0.02069  0.53677  1.0000
  H   H171      1.0  0.98536  0.71567  0.54376  1.0000
  H   H172      1.0  0.27122  0.28213  0.77919  1.0000
  H   H173      1.0  0.70600  0.01114  0.85490  1.0000
  H   H174      1.0  0.98529  0.69107  0.88177  1.0000
  H   H175      1.0  0.30469  0.30809  0.68158  1.0000
  H   H176      1.0  0.72056  0.98843  0.79589  1.0000
  H   H177      1.0  0.01279  0.72686  0.81479  1.0000
  H   H178      1.0  0.30573  0.29293  0.87312  1.0000
  H   H179      1.0  0.69366  0.99062  0.67400  1.0000
  H   H180      1.0  0.00818  0.69507  0.71426  1.0000
  H   H181      1.0  0.27917  0.22927  0.87512  1.0000
  H   H182      1.0  0.77089  0.04824  0.85464  1.0000
  H   H183      1.0  0.95291  0.72233  0.83445  1.0000
  H   H184      1.0  0.27082  0.21273  0.68334  1.0000
  H   H185      1.0  0.78761  0.05695  0.66171  1.0000
  H   H186      1.0  0.95042  0.73221  0.63393  1.0000
  H   H187      1.0  0.25010  0.22898  0.75955  1.0000
  H   H188      1.0  0.77289  0.02009  0.74415  1.0000
  H   H189      1.0  0.98524  0.75145  0.73765  1.0000
  H   H190      1.0  0.32288  0.25279  0.52588  1.0000
  H   H191      1.0  0.74663  0.06639  0.50201  1.0000
  H   H192      1.0  0.93647  0.68139  0.50610  1.0000
  C   C1        1.0  0.30018  0.15284  0.03715  1.0000
  C   C2        1.0  0.84854  0.15120  0.02534  1.0000
  C   C3        1.0  0.84922  0.69789  0.02183  1.0000
  C   C4        1.0  0.31685  0.13532  0.51208  1.0000
  C   C5        1.0  0.86424  0.18113  0.50809  1.0000
  C   C6        1.0  0.82139  0.68232  0.51330  1.0000
  C   C7        1.0  0.34576  0.14937  0.06154  1.0000
  C   C8        1.0  0.85289  0.20055  0.04914  1.0000
  C   C9        1.0  0.80005  0.65228  0.04868  1.0000
  C   C10       1.0  0.36276  0.17855  0.12077  1.0000
  C   C11       1.0  0.82408  0.18858  0.11500  1.0000
  C   C12       1.0  0.81214  0.63570  0.11795  1.0000
  C   C13       1.0  0.34710  0.19385  0.14019  1.0000
  C   C14       1.0  0.80861  0.15760  0.13900  1.0000
  C   C15       1.0  0.84307  0.65167  0.14143  1.0000
  C   C16       1.0  0.31684  0.18219  0.09556  1.0000
  C   C17       1.0  0.81955  0.13878  0.09017  1.0000
  C   C18       1.0  0.86182  0.68159  0.08951  1.0000
  C   C19       1.0  0.39497  0.19251  0.15032  1.0000
  C   C20       1.0  0.86272  0.13205  0.48313  1.0000
  C   C21       1.0  0.87016  0.73013  0.48328  1.0000
  C   C22       1.0  0.40750  0.17692  0.22626  1.0000
  C   C23       1.0  0.43826  0.19019  0.24655  1.0000
  C   C24       1.0  0.45752  0.21955  0.19175  1.0000
  C   C25       1.0  0.44510  0.23524  0.11528  1.0000
  C   C26       1.0  0.41450  0.22199  0.09589  1.0000
  C   C27       1.0  0.24873  0.10901  0.04993  1.0000
  C   C28       1.0  0.85694  0.74927  0.02518  1.0000
  C   C29       1.0  0.90568  0.12493  0.50468  1.0000
  C   C30       1.0  0.87531  0.77954  0.48410  1.0000
  C   C31       1.0  0.89041  0.09812  0.41886  1.0000
  C   C32       1.0  0.90318  0.79170  0.40632  1.0000
  C   C33       1.0  0.86121  0.08863  0.36533  1.0000
  C   C34       1.0  0.91418  0.77263  0.36756  1.0000
  C   C35       1.0  0.84747  0.10525  0.39746  1.0000
  C   C36       1.0  0.89804  0.74232  0.40621  1.0000
  C   C37       1.0  0.48979  0.23348  0.21061  1.0000
  C   C38       1.0  0.76673  0.25800  0.20308  1.0000
  C   C39       1.0  0.74273  0.50842  0.21480  1.0000
  C   C40       1.0  0.17603  0.09756  0.39945  1.0000
  C   C41       1.0  0.90438  0.08019  0.38815  1.0000
  C   C42       1.0  0.92099  0.82367  0.37213  1.0000
  C   C43       1.0  0.73533  0.46040  0.19281  1.0000
  C   C44       1.0  0.94407  0.07115  0.39899  1.0000
  C   C45       1.0  0.92932  0.87224  0.37819  1.0000
  C   C46       1.0  0.70783  0.44600  0.11106  1.0000
  C   C47       1.0  0.69081  0.41496  0.10910  1.0000
  C   C48       1.0  0.70031  0.39721  0.19081  1.0000
  C   C49       1.0  0.72779  0.41184  0.27285  1.0000
  C   C50       1.0  0.74530  0.44276  0.27161  1.0000
  C   C51       1.0  0.93040  0.04258  0.47164  1.0000
  C   C52       1.0  0.95700  0.88678  0.45827  1.0000
  C   C53       1.0  0.94385  0.02513  0.46401  1.0000
  C   C54       1.0  0.97425  0.91781  0.45672  1.0000
  C   C55       1.0  0.97093  0.03518  0.38144  1.0000
  C   C56       1.0  0.96483  0.93547  0.37345  1.0000
  C   C57       1.0  0.98420  0.06361  0.30696  1.0000
  C   C58       1.0  0.93725  0.92070  0.29248  1.0000
  C   C59       1.0  0.97141  0.08154  0.31795  1.0000
  C   C60       1.0  0.91957  0.88979  0.29644  1.0000
  C   C61       1.0  0.03144  0.01435  0.38055  1.0000
  C   C62       1.0  0.98559  0.01701  0.37805  1.0000
  C   C63       1.0  0.98280  0.96843  0.37407  1.0000
  C   C64       1.0  0.63441  0.31778  0.18466  1.0000
  C   C65       1.0  0.68086  0.31617  0.18280  1.0000
  C   C66       1.0  0.68264  0.36426  0.18772  1.0000
  C   C67       1.0  0.65135  0.34908  0.18694  1.0000
  C   C68       1.0  0.64956  0.30167  0.18258  1.0000
  C   C69       1.0  0.69704  0.34744  0.18552  1.0000
  C   C70       1.0  0.01408  0.98311  0.37613  1.0000
  C   C71       1.0  0.01681  0.03094  0.38118  1.0000
  C   C72       1.0  0.96888  0.98574  0.37473  1.0000
  C   C73       1.0  0.33113  0.22588  0.19257  1.0000
  C   C74       1.0  0.77602  0.10952  0.19404  1.0000
  C   C75       1.0  0.89106  0.66776  0.19832  1.0000
  C   C76       1.0  0.32011  0.26517  0.12445  1.0000
  C   C77       1.0  0.73519  0.06064  0.11970  1.0000
  C   C78       1.0  0.94022  0.67680  0.12658  1.0000
  C   C79       1.0  0.34588  0.29694  0.07254  1.0000
  C   C80       1.0  0.70247  0.05334  0.09727  1.0000
  C   C81       1.0  0.94795  0.65163  0.10470  1.0000
  C   C82       1.0  0.38791  0.33996  0.19722  1.0000
  C   C83       1.0  0.66589  0.06852  0.14585  1.0000
  C   C84       1.0  0.93581  0.60137  0.17546  1.0000
  C   C85       1.0  0.39469  0.30054  0.09337  1.0000
  C   C86       1.0  0.71242  0.10394  0.01729  1.0000
  C   C87       1.0  0.89834  0.60845  0.04201  1.0000
  C   C88       1.0  0.29130  0.26444  0.18289  1.0000
  C   C89       1.0  0.73766  0.03221  0.15381  1.0000
  C   C90       1.0  0.96834  0.70805  0.15955  1.0000
  C   C91       1.0  0.29645  0.29080  0.28841  1.0000
  C   C92       1.0  0.71150  0.00649  0.24595  1.0000
  C   C93       1.0  0.99493  0.70760  0.23999  1.0000
  C   C94       1.0  0.26969  0.23383  0.25852  1.0000
  C   C95       1.0  0.76811  0.04051  0.22679  1.0000
  C   C96       1.0  0.96006  0.72906  0.24449  1.0000
  C   C97       1.0  0.30156  0.15113  0.53303  1.0000
  C   C98       1.0  0.84858  0.14977  0.52302  1.0000
  C   C99       1.0  0.85272  0.69827  0.52770  1.0000
  C   C100      1.0  0.31558  0.13700  0.02308  1.0000
  C   C101      1.0  0.86471  0.18249  0.00766  1.0000
  C   C102      1.0  0.81796  0.68231  0.00434  1.0000
  C   C103      1.0  0.34696  0.14713  0.55200  1.0000
  C   C104      1.0  0.85182  0.19867  0.54988  1.0000
  C   C105      1.0  0.80392  0.65223  0.55698  1.0000
  C   C106      1.0  0.36387  0.17550  0.62108  1.0000
  C   C107      1.0  0.82285  0.18615  0.61474  1.0000
  C   C108      1.0  0.81647  0.63587  0.62317  1.0000
  C   C109      1.0  0.34814  0.19050  0.64876  1.0000
  C   C110      1.0  0.80790  0.15511  0.63574  1.0000
  C   C111      1.0  0.84747  0.65210  0.64354  1.0000
  C   C112      1.0  0.31823  0.17980  0.60009  1.0000
  C   C113      1.0  0.81931  0.13673  0.58522  1.0000
  C   C114      1.0  0.86583  0.68214  0.59191  1.0000
  C   C115      1.0  0.39622  0.18986  0.64956  1.0000
  C   C116      1.0  0.79864  0.60361  0.65562  1.0000
  C   C117      1.0  0.26820  0.13869  0.99903  1.0000
  C   C118      1.0  0.86711  0.72977  0.97872  1.0000
  C   C119      1.0  0.40956  0.17490  0.72374  1.0000
  C   C120      1.0  0.77070  0.59076  0.73276  1.0000
  C   C121      1.0  0.44043  0.18914  0.74396  1.0000
  C   C122      1.0  0.75353  0.55996  0.75488  1.0000
  C   C123      1.0  0.45896  0.21874  0.69073  1.0000
  C   C124      1.0  0.76375  0.54102  0.70113  1.0000
  C   C125      1.0  0.44573  0.23379  0.61582  1.0000
  C   C126      1.0  0.79169  0.55375  0.62362  1.0000
  C   C127      1.0  0.41506  0.21962  0.59629  1.0000
  C   C128      1.0  0.80874  0.58440  0.60195  1.0000
  C   C129      1.0  0.89210  0.14162  0.53562  1.0000
  C   C130      1.0  0.85911  0.74930  0.52123  1.0000
  C   C131      1.0  0.21842  0.09512  0.01766  1.0000
  C   C132      1.0  0.87324  0.77952  0.98840  1.0000
  C   C133      1.0  0.20655  0.11045  0.93220  1.0000
  C   C134      1.0  0.90038  0.79131  0.90354  1.0000
  C   C135      1.0  0.22593  0.14002  0.88108  1.0000
  C   C136      1.0  0.91048  0.77189  0.85659  1.0000
  C   C137      1.0  0.25634  0.15406  0.91441  1.0000
  C   C138      1.0  0.89424  0.74154  0.89430  1.0000
  C   C139      1.0  0.49127  0.23338  0.71019  1.0000
  C   C140      1.0  0.76579  0.25607  0.70527  1.0000
  C   C141      1.0  0.74558  0.50877  0.72212  1.0000
  C   C142      1.0  0.17463  0.09623  0.89927  1.0000
  C   C143      1.0  0.90155  0.07902  0.89942  1.0000
  C   C144      1.0  0.91838  0.82326  0.86924  1.0000
  C   C145      1.0  0.73728  0.46047  0.69894  1.0000
  C   C146      1.0  0.12594  0.05627  0.90885  1.0000
  C   C147      1.0  0.70936  0.44645  0.62146  1.0000
  C   C148      1.0  0.69219  0.41545  0.61733  1.0000
  C   C149      1.0  0.70191  0.39735  0.69270  1.0000
  C   C150      1.0  0.72970  0.41163  0.77188  1.0000
  C   C151      1.0  0.74729  0.44251  0.77329  1.0000
  C   C152      1.0  0.11081  0.06961  0.97845  1.0000
  C   C153      1.0  0.07985  0.05591  0.96916  1.0000
  C   C154      1.0  0.06288  0.02892  0.88707  1.0000
  C   C155      1.0  0.07830  0.01594  0.81620  1.0000
  C   C156      1.0  0.10908  0.02894  0.82935  1.0000
  C   C157      1.0  0.02995  0.01412  0.88142  1.0000
  C   C158      1.0  0.98403  0.01676  0.88454  1.0000
  C   C159      1.0  0.98125  0.96822  0.87708  1.0000
  C   C160      1.0  0.63552  0.31829  0.68504  1.0000
  C   C161      1.0  0.68159  0.31604  0.68410  1.0000
  C   C162      1.0  0.68400  0.36444  0.68798  1.0000
  C   C163      1.0  0.65271  0.34957  0.68662  1.0000
  C   C164      1.0  0.65034  0.30188  0.68378  1.0000
  C   C165      1.0  0.69808  0.34731  0.68612  1.0000
  C   C166      1.0  0.01253  0.98290  0.87685  1.0000
  C   C167      1.0  0.01530  0.03073  0.88406  1.0000
  C   C168      1.0  0.96733  0.98549  0.88168  1.0000
  C   C169      1.0  0.33273  0.22259  0.70992  1.0000
  C   C170      1.0  0.77571  0.10680  0.68684  1.0000
  C   C171      1.0  0.89580  0.66841  0.69285  1.0000
  C   C172      1.0  0.32544  0.26420  0.64061  1.0000
  C   C173      1.0  0.73515  0.05722  0.61739  1.0000
  C   C174      1.0  0.94512  0.67703  0.61800  1.0000
  C   C175      1.0  0.35124  0.29709  0.62131  1.0000
  C   C176      1.0  0.70195  0.04890  0.59794  1.0000
  C   C177      1.0  0.95147  0.65096  0.58746  1.0000
  C   C178      1.0  0.40244  0.33366  0.68282  1.0000
  C   C179      1.0  0.66372  0.06080  0.66311  1.0000
  C   C180      1.0  0.93996  0.60146  0.67883  1.0000
  C   C181      1.0  0.39261  0.28911  0.54573  1.0000
  C   C182      1.0  0.70843  0.09857  0.53265  1.0000
  C   C183      1.0  0.90083  0.60728  0.55724  1.0000
  C   C184      1.0  0.29426  0.26135  0.67209  1.0000
  C   C185      1.0  0.73900  0.02966  0.65568  1.0000
  C   C186      1.0  0.97371  0.70697  0.65980  1.0000
  C   C187      1.0  0.29432  0.28765  0.75627  1.0000
  C   C188      1.0  0.71334  0.00377  0.74990  1.0000
  C   C189      1.0  0.99600  0.70460  0.77345  1.0000
  C   C190      1.0  0.27234  0.23137  0.75232  1.0000
  C   C191      1.0  0.76942  0.03927  0.73347  1.0000
  C   C192      1.0  0.96521  0.72964  0.71981  1.0000
  N   N1        1.0  0.50724  0.26155  0.18110  1.0000
  N   N2        1.0  0.73863  0.24691  0.17467  1.0000
  N   N3        1.0  0.75389  0.49141  0.19074  1.0000
  N   N4        1.0  0.15815  0.06924  0.41722  1.0000
  N   N5        1.0  0.93240  0.09021  0.41373  1.0000
  N   N6        1.0  0.91037  0.84133  0.38874  1.0000
  N   N7        1.0  0.30772  0.20270  0.12843  1.0000
  N   N8        1.0  0.79867  0.10910  0.12421  1.0000
  N   N9        1.0  0.89148  0.69073  0.12443  1.0000
  N   N10       1.0  0.35592  0.22204  0.20143  1.0000
  N   N11       1.0  0.78084  0.13839  0.20779  1.0000
  N   N12       1.0  0.86230  0.64339  0.21261  1.0000
  N   N13       1.0  0.33217  0.25180  0.23947  1.0000
  N   N14       1.0  0.74955  0.08468  0.24145  1.0000
  N   N15       1.0  0.91588  0.66644  0.24825  1.0000
  N   N16       1.0  0.37353  0.30790  0.16777  1.0000
  N   N17       1.0  0.69762  0.07845  0.12928  1.0000
  N   N18       1.0  0.92399  0.62155  0.15173  1.0000
  N   N19       1.0  0.50839  0.26142  0.67861  1.0000
  N   N20       1.0  0.73760  0.24513  0.67951  1.0000
  N   N21       1.0  0.75622  0.49139  0.69590  1.0000
  N   N22       1.0  0.15672  0.06816  0.92589  1.0000
  N   N23       1.0  0.92971  0.08903  0.91831  1.0000
  N   N24       1.0  0.90843  0.84131  0.89210  1.0000
  N   N25       1.0  0.30954  0.20048  0.63750  1.0000
  N   N26       1.0  0.79859  0.10687  0.61657  1.0000
  N   N27       1.0  0.89569  0.69146  0.62315  1.0000
  N   N28       1.0  0.35687  0.21784  0.72008  1.0000
  N   N29       1.0  0.78011  0.13547  0.70255  1.0000
  N   N30       1.0  0.86713  0.64396  0.71025  1.0000
  N   N31       1.0  0.33465  0.24879  0.76116  1.0000
  N   N32       1.0  0.74953  0.08181  0.73551  1.0000
  N   N33       1.0  0.92080  0.66708  0.73908  1.0000
  N   N34       1.0  0.38105  0.30184  0.66274  1.0000
  N   N35       1.0  0.69575  0.07264  0.64256  1.0000
  N   N36       1.0  0.92845  0.62180  0.65191  1.0000
  C   C193      1.0  0.92818  0.03463  0.99262  1.0000
  C   C194      1.0  0.93787  0.06321  0.92969  1.0000
  C  Sn1       1.0  0.96365  0.07754  0.83475  1.0000
  C  Sn2       1.0  0.97998  0.06291  0.80238  1.0000
  C   C195      1.0  0.97009  0.03430  0.86581  1.0000
  C   C196      1.0  0.94427  0.02018  0.96071  1.0000
  H   H193      1.0  0.90861  0.02608  0.06598  1.0000
  O  Te1       1.0  0.97302  0.10610  0.77287  1.0000
  O  Te2       1.0  0.00582  0.07670  0.70781  1.0000
  H   H194      1.0  0.93718  0.00043  0.00933  1.0000
  Mg  Mg1       1.0  0.00961  0.11570  0.65066  1.0000
  C   C197      1.0  0.22589  0.09342  0.51772  1.0000
  C   C198      1.0  0.21012  0.10656  0.45398  1.0000
  C  Sn3       1.0  0.22531  0.13632  0.40168  1.0000
  C  Sn4       1.0  0.25686  0.15317  0.41352  1.0000
  C   C199      1.0  0.27243  0.13981  0.47735  1.0000
  C   C200      1.0  0.25701  0.11002  0.52937  1.0000
  H   H195      1.0  0.21397  0.07036  0.55789  1.0000
  O  Te3       1.0  0.20921  0.14911  0.33837  1.0000
  O  Te4       1.0  0.27259  0.18295  0.36209  1.0000
  H   H196      1.0  0.26923  0.09985  0.57862  1.0000
  Mg  Mg2       1.0  0.24069  0.19044  0.28447  1.0000
  C   C201      1.0  0.08685  0.01747  0.29510  1.0000
  C   C202      1.0  0.06760  0.02502  0.37165  1.0000
  C  Sn5       1.0  0.07906  0.05046  0.46708  1.0000
  C  Sn6       1.0  0.11038  0.06863  0.48597  1.0000
  C   C203      1.0  0.12945  0.06090  0.40880  1.0000
  C   C204      1.0  0.11774  0.03539  0.31362  1.0000
  H   H197      1.0  0.57931  0.99775  0.22139  1.0000
  O  Te5       1.0  0.05951  0.05767  0.54275  1.0000
  O  Te6       1.0  0.12243  0.09418  0.58061  1.0000
  H   H198      1.0  0.13265  0.02956  0.25429  1.0000
  Mg  Mg3       1.0  0.08667  0.09471  0.65937  1.0000
  C   C205      1.0  0.75023  0.56667  0.25259  1.0000
  C   C206      1.0  0.75612  0.54465  0.19944  1.0000
  C  Sn7       1.0  0.78316  0.55260  0.12323  1.0000
  C  Sn8       1.0  0.80466  0.58320  0.10001  1.0000
  C   C207      1.0  0.79856  0.60506  0.15372  1.0000
  C   C208      1.0  0.77143  0.59685  0.22979  1.0000
  H   H199      1.0  0.72925  0.56032  0.31152  1.0000
  O  Te7       1.0  0.78867  0.53031  0.07081  1.0000
  O  Te8       1.0  0.83187  0.59177  0.02425  1.0000
  H   H200      1.0  0.76689  0.61391  0.27102  1.0000
  Mg  Mg4       1.0  0.82862  0.55079  0.97400  1.0000
  C   C209      1.0  0.81634  0.24801  0.74415  1.0000
  C   C210      1.0  0.78843  0.24247  0.69025  1.0000
  C  Sn9       1.0  0.76898  0.21559  0.61504  1.0000
  C  Sn10      1.0  0.77769  0.19390  0.59361  1.0000
  C   C211      1.0  0.80565  0.19965  0.64805  1.0000
  C   C212      1.0  0.82494  0.22662  0.72311  1.0000
  H   H201      1.0  0.83126  0.26887  0.80230  1.0000
  O  Te9       1.0  0.74118  0.21042  0.56187  1.0000
  O  Te10      1.0  0.75868  0.16684  0.51889  1.0000
  H   H202      1.0  0.84654  0.23089  0.76492  1.0000
  Mg  Mg5       1.0  0.72309  0.17016  0.46700  1.0000
  C   C213      1.0  0.77354  0.19655  0.08343  1.0000
  C   C214      1.0  0.80284  0.20406  0.11993  1.0000
  C  Sn11      1.0  0.82169  0.23056  0.20000  1.0000
  C  Sn12      1.0  0.81095  0.24985  0.24423  1.0000
  C   C215      1.0  0.78160  0.24213  0.20727  1.0000
  C   C216      1.0  0.76293  0.21556  0.12707  1.0000
  H   H203      1.0  0.75909  0.17599  0.02145  1.0000
  O  Te11      1.0  0.85091  0.23772  0.23549  1.0000
  O  Te12      1.0  0.82932  0.27647  0.32440  1.0000
  H   H204      1.0  0.74024  0.20975  0.09891  1.0000
  Mg  Mg6       1.0  0.86740  0.27647  0.34623  1.0000
  C   C217      1.0  0.58053  0.31592  0.77126  1.0000
  C   C218      1.0  0.59911  0.30571  0.71408  1.0000
  C  Sn13      1.0  0.58716  0.27923  0.62732  1.0000
  C  Sn14      1.0  0.55602  0.26272  0.59740  1.0000
  C   C219      1.0  0.53762  0.27313  0.65502  1.0000
  C   C220      1.0  0.54982  0.29966  0.74175  1.0000
  H   H205      1.0  0.58996  0.33645  0.83829  1.0000
  O  Te13      1.0  0.60604  0.26934  0.57111  1.0000
  O  Te14      1.0  0.54349  0.23618  0.51096  1.0000
  H   H206      1.0  0.53543  0.30757  0.78592  1.0000
  Mg  Mg7       1.0  0.57841  0.23187  0.45928  1.0000
  C   C221      1.0  0.73779  0.29811  0.58715  1.0000
  C   C222      1.0  0.73024  0.27176  0.67215  1.0000
  C  Sn15      1.0  0.70403  0.25748  0.76364  1.0000
  C  Sn16      1.0  0.68507  0.26987  0.76988  1.0000
  C   C223      1.0  0.69281  0.29623  0.68432  1.0000
  C   C224      1.0  0.71910  0.31034  0.59320  1.0000
  H   H207      1.0  0.75813  0.30902  0.51657  1.0000
  O  Te15      1.0  0.69682  0.23117  0.84787  1.0000
  O  Te16      1.0  0.65873  0.25605  0.86033  1.0000
  H   H208      1.0  0.72493  0.33073  0.52732  1.0000
  Mg  Mg8       1.0  0.65854  0.22061  0.95430  1.0000
  C   C225      1.0  0.69218  0.25522  0.27625  1.0000
  C   C226      1.0  0.71734  0.26038  0.18849  1.0000
  C  Sn17      1.0  0.73347  0.28671  0.09825  1.0000
  C  Sn18      1.0  0.72418  0.30823  0.09610  1.0000
  C   C227      1.0  0.69898  0.30287  0.18440  1.0000
  C   C228      1.0  0.68301  0.27644  0.27425  1.0000
  H   H209      1.0  0.67983  0.23478  0.34585  1.0000
  O  Te17      1.0  0.75855  0.29151  0.01121  1.0000
  O  Te18      1.0  0.73989  0.33475  0.00698  1.0000
  H   H210      1.0  0.66354  0.27245  0.34228  1.0000
  Mg  Mg9       1.0  0.77219  0.32869  0.90804  1.0000
  C   C229      1.0  0.84484  0.09817  0.89350  1.0000
  C   C230      1.0  0.85652  0.12501  0.97683  1.0000
  C  Sn19      1.0  0.88634  0.14156  0.03250  1.0000
  C  Sn20      1.0  0.90432  0.12855  0.00400  1.0000
  C   C231      1.0  0.89201  0.09932  0.92042  1.0000
  C   C232      1.0  0.86256  0.08534  0.86529  1.0000
  H   H211      1.0  0.82206  0.08736  0.85076  1.0000
  O  Te19      1.0  0.89766  0.16835  0.11560  1.0000
  O  Te20      1.0  0.93378  0.14223  0.05827  1.0000
  H   H212      1.0  0.85353  0.06458  0.80068  1.0000
  Mg  Mg10      1.0  0.93910  0.17849  0.16573  1.0000
  C   C233      1.0  0.97185  0.91024  0.97001  1.0000
  C   C234      1.0  0.96711  0.93122  0.88763  1.0000
  C  Sn21      1.0  0.94082  0.92209  0.80055  1.0000
  C  Sn22      1.0  0.91890  0.89137  0.79611  1.0000
  C   C235      1.0  0.92384  0.87055  0.87902  1.0000
  C   C236      1.0  0.95024  0.87993  0.96574  1.0000
  H   H213      1.0  0.99268  0.91989  0.03718  1.0000
  O  Te21      1.0  0.93644  0.94335  0.71889  1.0000
  O  Te22      1.0  0.89241  0.88163  0.71006  1.0000
  H   H214      1.0  0.95430  0.86607  0.02959  1.0000
  Mg  Mg11      1.0  0.89674  0.91909  0.61827  1.0000
  C   C237      1.0  0.56275  0.30752  0.27700  1.0000
  C   C238      1.0  0.54218  0.28249  0.19126  1.0000
  C  Sn23      1.0  0.55170  0.26591  0.10363  1.0000
  C  Sn24      1.0  0.58239  0.27461  0.10208  1.0000
  C   C239      1.0  0.60279  0.29968  0.18835  1.0000
  C   C240      1.0  0.59303  0.31611  0.27558  1.0000
  H   H215      1.0  0.55519  0.32023  0.34458  1.0000
  O  Te23      1.0  0.53085  0.24097  0.01859  1.0000
  O  Te24      1.0  0.59251  0.25844  0.01556  1.0000
  H   H216      1.0  0.60895  0.33548  0.34204  1.0000
  Mg  Mg12      1.0  0.55512  0.22374  0.91866  1.0000
