data_image0
_chemical_formula_structural       H156C138N36O12C2Sn2C2HTe2HMgC2Sn2C2HTe2HMgC2Sn2C2HTe2HMgC2Sn2C2HTe2HMgC2Sn2C2HTe2HMgC2Sn2C2HTe2HMgC2Sn2C2HTe2HMgC2Sn2C2HTe2HMgC2Sn2C2HTe2HMgC2Sn2C2HTe2HMgC2Sn2C2HTe2HMgC2Sn2C2HTe2HMgC2Sn2C2HTe2HMgC2Sn2C2HTe2HMgC2Sn2C2HTe2HMgC2Sn2C2HTe2HMgC2Sn2C2HTe2HMgC2Sn2C2HTe2HMgC2Sn2C2HTe2HMgC2Sn2C2HTe2HMgC2Sn2C2HTe2HMgC2Sn2C2HTe2HMgC2Sn2C2HTe2HMgC2Sn2C2HTe2HMg
_chemical_formula_sum              "H204 C234 N36 O12 Sn48 Te48 Mg24"
_cell_length_a       51.8223
_cell_length_b       51.5626
_cell_length_c       8.46391
_cell_angle_alpha    89.4791
_cell_angle_beta     90.9705
_cell_angle_gamma    119.957

_symmetry_space_group_name_H-M    'P1'
_space_group_IT_number       1

loop_
  _space_group_symop_operation_xyz
  'x, y, z'

loop_
  _atom_site_type_symbol
  _atom_site_label
  _atom_site_symmetry_multiplicity
  _atom_site_fract_x
  _atom_site_fract_y
  _atom_site_fract_z
  _atom_site_occupancy
  H   H1        1.0  0.04745  0.06468  0.07926  1.0000
  H   H2        1.0  0.96120  0.98557  0.08520  1.0000
  H   H3        1.0  0.03962  0.97766  0.05534  1.0000
  H   H4        1.0  0.28536  0.10640  0.27307  1.0000
  H   H5        1.0  0.87773  0.18418  0.34190  1.0000
  H   H6        1.0  0.81311  0.69000  0.31332  1.0000
  H   H7        1.0  0.62231  0.26643  0.14420  1.0000
  H   H8        1.0  0.70660  0.34799  0.13411  1.0000
  H   H9        1.0  0.62589  0.35138  0.17993  1.0000
  H   H10       1.0  0.33851  0.12831  0.23704  1.0000
  H   H11       1.0  0.85729  0.21585  0.27318  1.0000
  H   H12       1.0  0.78138  0.63720  0.26223  1.0000
  H   H13       1.0  0.38723  0.27491  0.20380  1.0000
  H   H14       1.0  0.75192  0.11241  0.26791  1.0000
  H   H15       1.0  0.88676  0.63922  0.26269  1.0000
  H   H16       1.0  0.40673  0.23864  0.09742  1.0000
  H   H17       1.0  0.78015  0.15975  0.12960  1.0000
  H   H18       1.0  0.83651  0.62167  0.14407  1.0000
  H   H19       1.0  0.32897  0.23257  0.33790  1.0000
  H   H20       1.0  0.78078  0.07605  0.29186  1.0000
  H   H21       1.0  0.92056  0.70419  0.30539  1.0000
  H   H22       1.0  0.35481  0.26550  0.44076  1.0000
  H   H23       1.0  0.75904  0.07615  0.45075  1.0000
  H   H24       1.0  0.91981  0.68046  0.45942  1.0000
  H   H25       1.0  0.33802  0.27273  0.10676  1.0000
  H   H26       1.0  0.73838  0.06249  0.10518  1.0000
  H   H27       1.0  0.94123  0.68243  0.12163  1.0000
  H   H28       1.0  0.32694  0.31245  0.47043  1.0000
  H   H29       1.0  0.67426  0.03249  0.44673  1.0000
  H   H30       1.0  0.97421  0.65558  0.46701  1.0000
  H   H31       1.0  0.33387  0.33658  0.30620  1.0000
  H   H32       1.0  0.66519  0.01527  0.25752  1.0000
  H   H33       1.0  0.98261  0.64570  0.28241  1.0000
  H   H34       1.0  0.29569  0.29606  0.14593  1.0000
  H   H35       1.0  0.68687  0.98764  0.37975  1.0000
  H   H36       1.0  0.00426  0.69646  0.18431  1.0000
  H   H37       1.0  0.27843  0.28653  0.33342  1.0000
  H   H38       1.0  0.71098  0.01841  0.50081  1.0000
  H   H39       1.0  0.01389  0.70420  0.38687  1.0000
  H   H40       1.0  0.28694  0.24458  0.18252  1.0000
  H   H41       1.0  0.71755  0.01105  0.14859  1.0000
  H   H42       1.0  0.98087  0.72628  0.24596  1.0000
  H   H43       1.0  0.29600  0.25108  0.38550  1.0000
  H   H44       1.0  0.74527  0.02228  0.29864  1.0000
  H   H45       1.0  0.97098  0.71007  0.43621  1.0000
  H   H46       1.0  0.15303  0.10104  0.54780  1.0000
  H   H47       1.0  0.88086  0.05597  0.64014  1.0000
  H   H48       1.0  0.93639  0.82374  0.59977  1.0000
  H   H49       1.0  0.44647  0.38426  0.34435  1.0000
  H   H50       1.0  0.69344  0.12201  0.02805  1.0000
  H   H51       1.0  0.88254  0.57684  0.02191  1.0000
  H   H52       1.0  0.48554  0.20683  0.21922  1.0000
  H   H53       1.0  0.76967  0.27616  0.15718  1.0000
  H   H54       1.0  0.71007  0.48946  0.23492  1.0000
  H   H55       1.0  0.45537  0.40459  0.16416  1.0000
  H   H56       1.0  0.65701  0.11717  0.00791  1.0000
  H   H57       1.0  0.88764  0.54551  0.99366  1.0000
  H   H58       1.0  0.42025  0.33673  0.45236  1.0000
  H   H59       1.0  0.63817  0.07897  0.65303  1.0000
  H   H60       1.0  0.92415  0.56154  0.65567  1.0000
  H   H61       1.0  0.43247  0.38190  0.63507  1.0000
  H   H62       1.0  0.63516  0.03695  0.47123  1.0000
  H   H63       1.0  0.96343  0.60172  0.46853  1.0000
  H   H64       1.0  0.41333  0.40131  0.98292  1.0000
  H   H65       1.0  0.61835  0.08937  0.19866  1.0000
  H   H66       1.0  0.91787  0.53418  0.16883  1.0000
  H   H67       1.0  0.37571  0.37784  0.04021  1.0000
  H   H68       1.0  0.62141  0.06525  0.33980  1.0000
  H   H69       1.0  0.94051  0.55907  0.32086  1.0000
  H   H70       1.0  0.38614  0.40384  0.30290  1.0000
  H   H71       1.0  0.67117  0.10652  0.45146  1.0000
  H   H72       1.0  0.89854  0.56475  0.43981  1.0000
  H   H73       1.0  0.41459  0.40547  0.43053  1.0000
  H   H74       1.0  0.69997  0.13018  0.31925  1.0000
  H   H75       1.0  0.87383  0.56994  0.31129  1.0000
  H   H76       1.0  0.42430  0.42769  0.25597  1.0000
  H   H77       1.0  0.66651  0.13178  0.32406  1.0000
  H   H78       1.0  0.87458  0.53587  0.30559  1.0000
  H   H79       1.0  0.01580  0.04612  0.55211  1.0000
  H   H80       1.0  0.93037  0.96550  0.56973  1.0000
  H   H81       1.0  0.01088  0.96087  0.59643  1.0000
  H   H82       1.0  0.31543  0.12532  0.80405  1.0000
  H   H83       1.0  0.88792  0.18236  0.77868  1.0000
  H   H84       1.0  0.81780  0.70801  0.76298  1.0000
  H   H85       1.0  0.64989  0.28622  0.66996  1.0000
  H   H86       1.0  0.73467  0.36764  0.67624  1.0000
  H   H87       1.0  0.65355  0.37104  0.63700  1.0000
  H   H88       1.0  0.36776  0.14737  0.74998  1.0000
  H   H89       1.0  0.86390  0.21187  0.73663  1.0000
  H   H90       1.0  0.78707  0.65433  0.72719  1.0000
  H   H91       1.0  0.35805  0.24578  0.75325  1.0000
  H   H92       1.0  0.72637  0.11065  0.70067  1.0000
  H   H93       1.0  0.88984  0.61634  0.70842  1.0000
  H   H94       1.0  0.37344  0.21231  0.63539  1.0000
  H   H95       1.0  0.76571  0.16619  0.60770  1.0000
  H   H96       1.0  0.83368  0.59811  0.61666  1.0000
  H   H97       1.0  0.29347  0.21759  0.79024  1.0000
  H   H98       1.0  0.76489  0.09112  0.85800  1.0000
  H   H99       1.0  0.90909  0.67538  0.84931  1.0000
  H   H100      1.0  0.31760  0.23885  0.94697  1.0000
  H   H101      1.0  0.73232  0.08703  0.94795  1.0000
  H   H102      1.0  0.91465  0.64809  0.94926  1.0000
  H   H103      1.0  0.31831  0.26148  0.60997  1.0000
  H   H104      1.0  0.72516  0.06063  0.62390  1.0000
  H   H105      1.0  0.93856  0.66523  0.61909  1.0000
  H   H106      1.0  0.34451  0.31945  0.96085  1.0000
  H   H107      1.0  0.68288  0.01686  0.00530  1.0000
  H   H108      1.0  0.98968  0.67296  0.98255  1.0000
  H   H109      1.0  0.35565  0.33829  0.77667  1.0000
  H   H110      1.0  0.65849  0.99717  0.84568  1.0000
  H   H111      1.0  0.00489  0.66508  0.81557  1.0000
  H   H112      1.0  0.30567  0.31180  0.66990  1.0000
  H   H113      1.0  0.69634  0.99164  0.71178  1.0000
  H   H114      1.0  0.00358  0.70460  0.66056  1.0000
  H   H115      1.0  0.29697  0.31235  0.87049  1.0000
  H   H116      1.0  0.70642  0.98910  0.90972  1.0000
  H   H117      1.0  0.01368  0.72192  0.84920  1.0000
  H   H118      1.0  0.27438  0.25813  0.72167  1.0000
  H   H119      1.0  0.74790  0.03286  0.71504  1.0000
  H   H120      1.0  0.96329  0.71628  0.70680  1.0000
  H   H121      1.0  0.28893  0.26225  0.91608  1.0000
  H   H122      1.0  0.74561  0.04092  0.91401  1.0000
  H   H123      1.0  0.96154  0.70598  0.90761  1.0000
  H   H124      1.0  0.18348  0.11816  0.09446  1.0000
  H   H125      1.0  0.90421  0.06220  0.09003  1.0000
  H   H126      1.0  0.94956  0.84073  0.02087  1.0000
  H   H127      1.0  0.42246  0.30590  0.53247  1.0000
  H   H128      1.0  0.61824  0.06842  0.83357  1.0000
  H   H129      1.0  0.93669  0.55344  0.83667  1.0000
  H   H130      1.0  0.51383  0.22880  0.69094  1.0000
  H   H131      1.0  0.78956  0.28309  0.72696  1.0000
  H   H132      1.0  0.72658  0.50796  0.67042  1.0000
  H   H133      1.0  0.45518  0.34155  0.51545  1.0000
  H   H134      1.0  0.59841  0.05852  0.65081  1.0000
  H   H135      1.0  0.94573  0.54328  0.65472  1.0000
  H   H136      1.0  0.43920  0.36484  0.16137  1.0000
  H   H137      1.0  0.66369  0.08797  0.95192  1.0000
  H   H138      1.0  0.91623  0.58194  0.94165  1.0000
  H   H139      1.0  0.39728  0.36170  0.97648  1.0000
  H   H140      1.0  0.61815  0.05645  0.13450  1.0000
  H   H141      1.0  0.94996  0.56878  0.11896  1.0000
  H   H142      1.0  0.46632  0.38305  0.69086  1.0000
  H   H143      1.0  0.59585  0.01487  0.48581  1.0000
  H   H144      1.0  0.98620  0.58493  0.47638  1.0000
  H   H145      1.0  0.44106  0.38026  0.83852  1.0000
  H   H146      1.0  0.61851  0.99969  0.54676  1.0000
  H   H147      1.0  0.00119  0.62273  0.53548  1.0000
  H   H148      1.0  0.43255  0.33054  0.95404  1.0000
  H   H149      1.0  0.59255  0.98691  0.81028  1.0000
  H   H150      1.0  0.01716  0.61039  0.79580  1.0000
  H   H151      1.0  0.42909  0.30210  0.82259  1.0000
  H   H152      1.0  0.59465  0.01592  0.93191  1.0000
  H   H153      1.0  0.98987  0.58352  0.92420  1.0000
  H   H154      1.0  0.46306  0.33696  0.83212  1.0000
  H   H155      1.0  0.57134  0.00445  0.76002  1.0000
  H   H156      1.0  0.00001  0.57152  0.75138  1.0000
  C   C1        1.0  0.30025  0.12650  0.33938  1.0000
  C   C2        1.0  0.85617  0.17827  0.38957  1.0000
  C   C3        1.0  0.81844  0.67458  0.37383  1.0000
  C   C4        1.0  0.33080  0.13887  0.31983  1.0000
  C   C5        1.0  0.84480  0.19700  0.35191  1.0000
  C   C6        1.0  0.80011  0.64420  0.34389  1.0000
  C   C7        1.0  0.35199  0.16574  0.39532  1.0000
  C   C8        1.0  0.81637  0.19057  0.40207  1.0000
  C   C9        1.0  0.80657  0.62249  0.40525  1.0000
  C   C10       1.0  0.33942  0.17836  0.49188  1.0000
  C   C11       1.0  0.80231  0.16571  0.50181  1.0000
  C   C12       1.0  0.83226  0.63409  0.50084  1.0000
  C   C13       1.0  0.34005  0.18800  0.02400  1.0000
  C   C14       1.0  0.82926  0.14377  0.01875  1.0000
  C   C15       1.0  0.85543  0.68640  0.01029  1.0000
  C   C16       1.0  0.28764  0.13981  0.43323  1.0000
  C   C17       1.0  0.84090  0.15168  0.48022  1.0000
  C   C18       1.0  0.84435  0.68642  0.47115  1.0000
  C   C19       1.0  0.36336  0.23069  0.14508  1.0000
  C   C20       1.0  0.79083  0.12514  0.16902  1.0000
  C   C21       1.0  0.87329  0.66582  0.16653  1.0000
  C   C22       1.0  0.04744  0.02283  0.06794  1.0000
  C   C23       1.0  0.00270  0.02719  0.08457  1.0000
  C   C24       1.0  0.99820  0.97779  0.07117  1.0000
  C   C25       1.0  0.62025  0.30715  0.16104  1.0000
  C   C26       1.0  0.66625  0.30532  0.13541  1.0000
  C   C27       1.0  0.66838  0.35363  0.15613  1.0000
  C   C28       1.0  0.03377  0.04040  0.07833  1.0000
  C   C29       1.0  0.98531  0.99595  0.08182  1.0000
  C   C30       1.0  0.02934  0.99151  0.06458  1.0000
  C   C31       1.0  0.63510  0.29078  0.14518  1.0000
  C   C32       1.0  0.68245  0.33664  0.13960  1.0000
  C   C33       1.0  0.63719  0.33856  0.16574  1.0000
  C   C34       1.0  0.34688  0.25580  0.32302  1.0000
  C   C35       1.0  0.76209  0.07932  0.32243  1.0000
  C   C36       1.0  0.91794  0.68206  0.33070  1.0000
  C   C37       1.0  0.33447  0.27353  0.23379  1.0000
  C   C38       1.0  0.73406  0.05663  0.23025  1.0000
  C   C39       1.0  0.94340  0.68031  0.24978  1.0000
  C   C40       1.0  0.32737  0.31364  0.34054  1.0000
  C   C41       1.0  0.68355  0.02803  0.34205  1.0000
  C   C42       1.0  0.97529  0.65988  0.33915  1.0000
  C   C43       1.0  0.29783  0.28964  0.26761  1.0000
  C   C44       1.0  0.70107  0.01206  0.38200  1.0000
  C   C45       1.0  0.99506  0.69327  0.30334  1.0000
  C   C46       1.0  0.30134  0.26178  0.26845  1.0000
  C   C47       1.0  0.72583  0.02385  0.25894  1.0000
  C   C48       1.0  0.97356  0.70548  0.31257  1.0000
  C   C49       1.0  0.19162  0.10361  0.04938  1.0000
  C   C50       1.0  0.91839  0.08616  0.06309  1.0000
  C   C51       1.0  0.92585  0.83366  0.00266  1.0000
  C   C52       1.0  0.37718  0.32550  0.23643  1.0000
  C   C53       1.0  0.69974  0.07803  0.21999  1.0000
  C   C54       1.0  0.92482  0.62490  0.22504  1.0000
  C   C55       1.0  0.47730  0.22201  0.25161  1.0000
  C   C56       1.0  0.75562  0.25192  0.17723  1.0000
  C   C57       1.0  0.73404  0.49743  0.24934  1.0000
  C   C58       1.0  0.40843  0.38079  0.21261  1.0000
  C   C59       1.0  0.66162  0.09284  0.20496  1.0000
  C   C60       1.0  0.91217  0.57262  0.19383  1.0000
  C   C61       1.0  0.43923  0.38357  0.22133  1.0000
  C   C62       1.0  0.66967  0.10589  0.03806  1.0000
  C   C63       1.0  0.89877  0.56922  0.02760  1.0000
  C   C64       1.0  0.39799  0.38024  0.04238  1.0000
  C   C65       1.0  0.62777  0.07474  0.22108  1.0000
  C   C66       1.0  0.93144  0.55785  0.20171  1.0000
  C   C67       1.0  0.40827  0.40592  0.30652  1.0000
  C   C68       1.0  0.67579  0.11675  0.33352  1.0000
  C   C69       1.0  0.88837  0.56021  0.32116  1.0000
  C   C70       1.0  0.33057  0.14628  0.86250  1.0000
  C   C71       1.0  0.86809  0.17665  0.84587  1.0000
  C   C72       1.0  0.82309  0.69341  0.83260  1.0000
  C   C73       1.0  0.36075  0.15883  0.83106  1.0000
  C   C74       1.0  0.85454  0.19387  0.82302  1.0000
  C   C75       1.0  0.80518  0.66257  0.81370  1.0000
  C   C76       1.0  0.38213  0.18727  0.88897  1.0000
  C   C77       1.0  0.82790  0.18753  0.89920  1.0000
  C   C78       1.0  0.81131  0.64181  0.89231  1.0000
  C   C79       1.0  0.37064  0.20081  0.98621  1.0000
  C   C80       1.0  0.81629  0.16231  0.99815  1.0000
  C   C81       1.0  0.83609  0.65501  0.99514  1.0000
  C   C82       1.0  0.30826  0.16681  0.50846  1.0000
  C   C83       1.0  0.81340  0.14625  0.54241  1.0000
  C   C84       1.0  0.85098  0.66498  0.53626  1.0000
  C   C85       1.0  0.31869  0.16004  0.95843  1.0000
  C   C86       1.0  0.85632  0.15117  0.94512  1.0000
  C   C87       1.0  0.84920  0.70658  0.92805  1.0000
  C   C88       1.0  0.32998  0.20597  0.65720  1.0000
  C   C89       1.0  0.77056  0.12847  0.65463  1.0000
  C   C90       1.0  0.87041  0.64142  0.65636  1.0000
  C   C91       1.0  0.01709  0.00525  0.57707  1.0000
  C   C92       1.0  0.97128  0.00813  0.56167  1.0000
  C   C93       1.0  0.96853  0.95926  0.58303  1.0000
  C   C94       1.0  0.64795  0.32688  0.65079  1.0000
  C   C95       1.0  0.69405  0.32477  0.67185  1.0000
  C   C96       1.0  0.69615  0.37330  0.65518  1.0000
  C   C97       1.0  0.00251  0.02192  0.56303  1.0000
  C   C98       1.0  0.95458  0.97667  0.57204  1.0000
  C   C99       1.0  0.99978  0.97401  0.58752  1.0000
  C   C100      1.0  0.66284  0.31051  0.66370  1.0000
  C   C101      1.0  0.71048  0.35626  0.66767  1.0000
  C   C102      1.0  0.66493  0.35816  0.64521  1.0000
  C   C103      1.0  0.31594  0.23613  0.81788  1.0000
  C   C104      1.0  0.74236  0.08730  0.83470  1.0000
  C   C105      1.0  0.91321  0.65668  0.83247  1.0000
  C   C106      1.0  0.31945  0.26469  0.73868  1.0000
  C   C107      1.0  0.72342  0.05681  0.75200  1.0000
  C   C108      1.0  0.94303  0.66806  0.74693  1.0000
  C   C109      1.0  0.34076  0.31676  0.83236  1.0000
  C   C110      1.0  0.68164  0.01319  0.87699  1.0000
  C   C111      1.0  0.98957  0.67260  0.85249  1.0000
  C   C112      1.0  0.30787  0.30449  0.78904  1.0000
  C   C113      1.0  0.70397  0.00387  0.82396  1.0000
  C   C114      1.0  0.99620  0.70283  0.78324  1.0000
  C   C115      1.0  0.29465  0.27046  0.79415  1.0000
  C   C116      1.0  0.73295  0.03384  0.80215  1.0000
  C   C117      1.0  0.96570  0.70088  0.78796  1.0000
  C   C118      1.0  0.16110  0.08516  0.53016  1.0000
  C   C119      1.0  0.89320  0.07601  0.56586  1.0000
  C   C120      1.0  0.91262  0.81442  0.56978  1.0000
  C   C121      1.0  0.37505  0.30003  0.72991  1.0000
  C   C122      1.0  0.67293  0.05145  0.73766  1.0000
  C   C123      1.0  0.95030  0.62406  0.73511  1.0000
  C   C124      1.0  0.50490  0.24405  0.70455  1.0000
  C   C125      1.0  0.77359  0.25946  0.75330  1.0000
  C   C126      1.0  0.74972  0.51706  0.71248  1.0000
  C   C127      1.0  0.42748  0.33911  0.70751  1.0000
  C   C128      1.0  0.61833  0.03166  0.71085  1.0000
  C   C129      1.0  0.97153  0.59041  0.70554  1.0000
  C   C130      1.0  0.43130  0.33002  0.54178  1.0000
  C   C131      1.0  0.61850  0.06139  0.71218  1.0000
  C   C132      1.0  0.94257  0.56037  0.71365  1.0000
  C   C133      1.0  0.44266  0.37321  0.71921  1.0000
  C   C134      1.0  0.61707  0.02021  0.54351  1.0000
  C   C135      1.0  0.98105  0.60058  0.53607  1.0000
  C   C136      1.0  0.43870  0.32629  0.83761  1.0000
  C   C137      1.0  0.59266  0.00824  0.80947  1.0000
  C   C138      1.0  0.99621  0.58897  0.80010  1.0000
  N   N1        1.0  0.38504  0.22865  0.06144  1.0000
  N   N2        1.0  0.79139  0.14943  0.09392  1.0000
  N   N3        1.0  0.84844  0.64229  0.09466  1.0000
  N   N4        1.0  0.33635  0.20749  0.12267  1.0000
  N   N5        1.0  0.81236  0.12039  0.12253  1.0000
  N   N6        1.0  0.87888  0.69235  0.11478  1.0000
  N   N7        1.0  0.37093  0.25457  0.24336  1.0000
  N   N8        1.0  0.77027  0.10994  0.28252  1.0000
  N   N9        1.0  0.88834  0.65964  0.28003  1.0000
  N   N10       1.0  0.34886  0.30552  0.28024  1.0000
  N   N11       1.0  0.70605  0.05655  0.27155  1.0000
  N   N12       1.0  0.94561  0.65270  0.27831  1.0000
  N   N13       1.0  0.17370  0.07551  0.02275  1.0000
  N   N14       1.0  0.94707  0.09856  0.06245  1.0000
  N   N15       1.0  0.91668  0.85276  0.00822  1.0000
  N   N16       1.0  0.49454  0.25076  0.25053  1.0000
  N   N17       1.0  0.72693  0.23874  0.16473  1.0000
  N   N18       1.0  0.74450  0.47948  0.23591  1.0000
  N   N19       1.0  0.35281  0.20393  0.58593  1.0000
  N   N20       1.0  0.77452  0.15346  0.57247  1.0000
  N   N21       1.0  0.84564  0.61950  0.57617  1.0000
  N   N22       1.0  0.30317  0.18512  0.60891  1.0000
  N   N23       1.0  0.79263  0.12285  0.63680  1.0000
  N   N24       1.0  0.87475  0.66873  0.63349  1.0000
  N   N25       1.0  0.33713  0.22761  0.76715  1.0000
  N   N26       1.0  0.74580  0.11300  0.74597  1.0000
  N   N27       1.0  0.88722  0.63340  0.74978  1.0000
  N   N28       1.0  0.34727  0.29362  0.77613  1.0000
  N   N29       1.0  0.69138  0.04157  0.79270  1.0000
  N   N30       1.0  0.95929  0.65205  0.79168  1.0000
  N   N31       1.0  0.14324  0.05662  0.53857  1.0000
  N   N32       1.0  0.91854  0.08273  0.50608  1.0000
  N   N33       1.0  0.90066  0.83121  0.56012  1.0000
  N   N34       1.0  0.52169  0.27266  0.68874  1.0000
  N   N35       1.0  0.74519  0.24934  0.74912  1.0000
  N   N36       1.0  0.76219  0.50069  0.71798  1.0000
  O   O1        1.0  0.39312  0.31887  0.15921  1.0000
  O   O2        1.0  0.71859  0.10274  0.16681  1.0000
  O   O3        1.0  0.89966  0.61836  0.17483  1.0000
  O   O4        1.0  0.38547  0.35344  0.29380  1.0000
  O   O5        1.0  0.67048  0.06937  0.23218  1.0000
  O   O6        1.0  0.93454  0.60485  0.23045  1.0000
  O   O7        1.0  0.38127  0.28107  0.68335  1.0000
  O   O8        1.0  0.68101  0.07355  0.65075  1.0000
  O   O9        1.0  0.92782  0.60954  0.65132  1.0000
  O   O10       1.0  0.39541  0.32964  0.73855  1.0000
  O   O11       1.0  0.64476  0.03387  0.79473  1.0000
  O   O12       1.0  0.96924  0.61444  0.78838  1.0000
  C   C139      1.0  0.07378  0.05045  0.45783  1.0000
  C   C140      1.0  0.05357  0.02551  0.54450  1.0000
  C  Sn1       1.0  0.06378  0.01112  0.64731  1.0000
  C  Sn2       1.0  0.09481  0.02196  0.66342  1.0000
  C   C141      1.0  0.11485  0.04694  0.57627  1.0000
  C   C142      1.0  0.10439  0.06116  0.47370  1.0000
  H   H157      1.0  0.06570  0.06147  0.37853  1.0000
  O  Te1       1.0  0.54012  0.98622  0.73297  1.0000
  O  Te2       1.0  0.10561  0.00801  0.76537  1.0000
  H   H158      1.0  0.12005  0.08049  0.40668  1.0000
  Mg  Mg1       1.0  0.56573  0.97483  0.85672  1.0000
  C   C143      1.0  0.96460  0.07328  0.61089  1.0000
  C   C144      1.0  0.93880  0.06785  0.52823  1.0000
  C  Sn3       1.0  0.92041  0.03997  0.45838  1.0000
  C  Sn4       1.0  0.92804  0.01716  0.47178  1.0000
  C   C145      1.0  0.95388  0.02281  0.55483  1.0000
  C   C146      1.0  0.97213  0.05079  0.62422  1.0000
  H   H159      1.0  0.97871  0.09492  0.66466  1.0000
  O  Te3       1.0  0.89472  0.03492  0.37617  1.0000
  O  Te4       1.0  0.40689  0.98909  0.40317  1.0000
  H   H160      1.0  0.99209  0.05499  0.68830  1.0000
  Mg  Mg2       1.0  0.37418  0.99302  0.30315  1.0000
  C   C147      1.0  0.91609  0.90265  0.66188  1.0000
  C   C148      1.0  0.94485  0.92233  0.60926  1.0000
  C  Sn5       1.0  0.96043  0.91154  0.52439  1.0000
  C  Sn6       1.0  0.94691  0.88048  0.49174  1.0000
  C   C149      1.0  0.91812  0.86099  0.54480  1.0000
  C   C150      1.0  0.90273  0.87202  0.62967  1.0000
  H   H161      1.0  0.90418  0.91119  0.72747  1.0000
  O  Te5       1.0  0.98915  0.93151  0.47274  1.0000
  O  Te6       1.0  0.96197  0.86911  0.40711  1.0000
  H   H162      1.0  0.88046  0.85678  0.67031  1.0000
  Mg  Mg3       1.0  0.00067  0.90523  0.36181  1.0000
  C   C151      1.0  0.12095  0.07750  0.95446  1.0000
  C   C152      1.0  0.13734  0.06925  0.02786  1.0000
  C  Sn7       1.0  0.12574  0.04286  0.11620  1.0000
  C  Sn8       1.0  0.09444  0.02457  0.13108  1.0000
  C   C153      1.0  0.07553  0.03314  0.05710  1.0000
  C   C154      1.0  0.09008  0.05946  0.96903  1.0000
  H   H163      1.0  0.13011  0.09796  0.88624  1.0000
  O  Te7       1.0  0.14513  0.03482  0.18881  1.0000
  O  Te8       1.0  0.57910  0.99807  0.21862  1.0000
  H   H164      1.0  0.07529  0.06594  0.91213  1.0000
  Mg  Mg4       1.0  0.61466  0.99664  0.29558  1.0000
  C   C155      1.0  0.99107  0.08765  0.18794  1.0000
  C   C156      1.0  0.96748  0.08420  0.09090  1.0000
  C  Sn9       1.0  0.95540  0.05917  0.99187  1.0000
  C  Sn10      1.0  0.96447  0.03737  0.99026  1.0000
  C   C157      1.0  0.98539  0.04115  0.08787  1.0000
  C   C158      1.0  0.00002  0.06615  0.18646  1.0000
  H   H165      1.0  0.00238  0.10698  0.26429  1.0000
  O  Te9       1.0  0.93188  0.05608  0.89564  1.0000
  O  Te10      1.0  0.95009  0.01227  0.89247  1.0000
  H   H166      1.0  0.01828  0.06880  0.26166  1.0000
  Mg  Mg5       1.0  0.91925  0.01802  0.78276  1.0000
  C   C159      1.0  0.93391  0.90756  0.15015  1.0000
  C   C160      1.0  0.93455  0.88742  0.04311  1.0000
  C  Sn11      1.0  0.96174  0.89629  0.94534  1.0000
  C  Sn12      1.0  0.98602  0.92603  0.95521  1.0000
  C   C161      1.0  0.98248  0.94614  0.06277  1.0000
  C   C162      1.0  0.95785  0.93689  0.16001  1.0000
  H   H167      1.0  0.91486  0.90040  0.22545  1.0000
  O  Te11      1.0  0.96202  0.87589  0.83902  1.0000
  O  Te12      1.0  0.01079  0.93562  0.85893  1.0000
  H   H168      1.0  0.95737  0.95248  0.24294  1.0000
  Mg  Mg6       1.0  0.00076  0.89956  0.73277  1.0000
  C   C163      1.0  0.56307  0.30248  0.09832  1.0000
  C   C164      1.0  0.58391  0.29585  0.16573  1.0000
  C  Sn13      1.0  0.57460  0.27098  0.26447  1.0000
  C  Sn14      1.0  0.54385  0.25244  0.29604  1.0000
  C   C165      1.0  0.52318  0.25926  0.22793  1.0000
  C   C166      1.0  0.53274  0.28421  0.12934  1.0000
  H   H169      1.0  0.57046  0.32178  0.02197  1.0000
  O  Te13      1.0  0.59571  0.26468  0.33090  1.0000
  O  Te14      1.0  0.53393  0.22744  0.39424  1.0000
  H   H170      1.0  0.51660  0.28933  0.07708  1.0000
  Mg  Mg7       1.0  0.57124  0.22811  0.45700  1.0000
  C   C167      1.0  0.67361  0.25599  0.02891  1.0000
  C   C168      1.0  0.67849  0.28106  0.11523  1.0000
  C  Sn15      1.0  0.70265  0.29483  0.22053  1.0000
  C  Sn16      1.0  0.72225  0.28324  0.23949  1.0000
  C   C169      1.0  0.71718  0.25816  0.15251  1.0000
  C   C170      1.0  0.69293  0.24455  0.04749  1.0000
  H   H171      1.0  0.65755  0.24533  0.94759  1.0000
  O  Te15      1.0  0.70720  0.31986  0.30588  1.0000
  O  Te16      1.0  0.74657  0.29658  0.34389  1.0000
  H   H172      1.0  0.69186  0.22502  0.98060  1.0000
  Mg  Mg8       1.0  0.74344  0.33021  0.43373  1.0000
  C   C171      1.0  0.73138  0.42576  0.09379  1.0000
  C   C172      1.0  0.72699  0.44552  0.18614  1.0000
  C  Sn17      1.0  0.70192  0.43480  0.28126  1.0000
  C  Sn18      1.0  0.68089  0.40371  0.28376  1.0000
  C   C173      1.0  0.68550  0.38413  0.19102  1.0000
  C   C174      1.0  0.71066  0.39509  0.09623  1.0000
  H   H173      1.0  0.75086  0.43424  0.02051  1.0000
  O  Te17      1.0  0.69787  0.45486  0.37275  1.0000
  O  Te18      1.0  0.65565  0.39240  0.37780  1.0000
  H   H174      1.0  0.71407  0.37979  0.02482  1.0000
  Mg  Mg9       1.0  0.65995  0.42864  0.48163  1.0000
  C   C175      1.0  0.21913  0.13635  0.52300  1.0000
  C   C176      1.0  0.19682  0.10676  0.49595  1.0000
  C  Sn19      1.0  0.20428  0.08527  0.45241  1.0000
  C  Sn20      1.0  0.23466  0.09364  0.43576  1.0000
  C   C177      1.0  0.25682  0.12329  0.46319  1.0000
  C   C178      1.0  0.24911  0.14461  0.50667  1.0000
  H   H175      1.0  0.21317  0.15284  0.55672  1.0000
  O  Te19      1.0  0.18170  0.05581  0.42578  1.0000
  O  Te20      1.0  0.24274  0.07262  0.39243  1.0000
  H   H176      1.0  0.26639  0.16752  0.52770  1.0000
  Mg  Mg10      1.0  0.20391  0.03527  0.36895  1.0000
  C   C179      1.0  0.88453  0.13480  0.40317  1.0000
  C   C180      1.0  0.85860  0.13193  0.46801  1.0000
  C  Sn21      1.0  0.84324  0.11026  0.58326  1.0000
  C  Sn22      1.0  0.85410  0.09114  0.63434  1.0000
  C   C181      1.0  0.88007  0.09420  0.56882  1.0000
  C   C182      1.0  0.89526  0.11596  0.45353  1.0000
  H   H177      1.0  0.89629  0.15164  0.31403  1.0000
  O  Te21      1.0  0.81737  0.10769  0.64676  1.0000
  O  Te22      1.0  0.83920  0.06930  0.74939  1.0000
  H   H178      1.0  0.91534  0.11819  0.40342  1.0000
  Mg  Mg11      1.0  0.80490  0.07449  0.80043  1.0000
  C   C183      1.0  0.89941  0.73991  0.56002  1.0000
  C   C184      1.0  0.86926  0.72200  0.52043  1.0000
  C  Sn23      1.0  0.85192  0.73509  0.48373  1.0000
  C  Sn24      1.0  0.86508  0.76670  0.48678  1.0000
  C   C185      1.0  0.89526  0.78442  0.52643  1.0000
  C   C186      1.0  0.91240  0.77109  0.56300  1.0000
  H   H179      1.0  0.91268  0.72959  0.58823  1.0000
  O  Te23      1.0  0.82184  0.71686  0.44449  1.0000
  O  Te24      1.0  0.84826  0.78037  0.45056  1.0000
  H   H180      1.0  0.93575  0.78496  0.59354  1.0000
  Mg  Mg12      1.0  0.80815  0.74600  0.40429  1.0000
  C   C187      1.0  0.26689  0.16175  0.06746  1.0000
  C   C188      1.0  0.28352  0.14953  0.00830  1.0000
  C  Sn25      1.0  0.27189  0.12030  0.94779  1.0000
  C  Sn26      1.0  0.24032  0.10319  0.94659  1.0000
  C   C189      1.0  0.22118  0.11576  0.00594  1.0000
  C   C190      1.0  0.23575  0.14488  0.06626  1.0000
  H   H181      1.0  0.27816  0.18429  0.11405  1.0000
  O  Te25      1.0  0.28885  0.10844  0.88921  1.0000
  O  Te26      1.0  0.22543  0.07406  0.88675  1.0000
  H   H182      1.0  0.22287  0.15434  0.11196  1.0000
  Mg  Mg13      1.0  0.25832  0.06774  0.82011  1.0000
  C   C191      1.0  0.91826  0.13925  0.95773  1.0000
  C   C192      1.0  0.90503  0.11098  0.02368  1.0000
  C  Sn27      1.0  0.87492  0.09319  0.05988  1.0000
  C  Sn28      1.0  0.85504  0.10411  0.02931  1.0000
  C   C193      1.0  0.86849  0.13242  0.96320  1.0000
  C   C194      1.0  0.89867  0.15003  0.92748  1.0000
  H   H183      1.0  0.94161  0.15288  0.93000  1.0000
  O  Te27      1.0  0.86477  0.06486  0.12579  1.0000
  O  Te28      1.0  0.82483  0.08679  0.06429  1.0000
  H   H184      1.0  0.90681  0.17202  0.87632  1.0000
  Mg  Mg14      1.0  0.82166  0.04965  0.15293  1.0000
  C   C195      1.0  0.86819  0.78327  0.92583  1.0000
  C   C196      1.0  0.89803  0.79925  0.97464  1.0000
  C  Sn29      1.0  0.91137  0.78455  0.00142  1.0000
  C  Sn30      1.0  0.89990  0.75299  0.97877  1.0000
  C   C197      1.0  0.87004  0.73721  0.92981  1.0000
  C   C198      1.0  0.85421  0.75228  0.90340  1.0000
  H   H185      1.0  0.85594  0.79493  0.90531  1.0000
  O  Te29      1.0  0.94116  0.80085  0.05021  1.0000
  O  Te30      1.0  0.91270  0.73774  0.00463  1.0000
  H   H186      1.0  0.83111  0.73991  0.86551  1.0000
  Mg  Mg15      1.0  0.95290  0.76982  0.07026  1.0000
  C   C199      1.0  0.41116  0.21777  0.39050  1.0000
  C   C200      1.0  0.38850  0.18833  0.36344  1.0000
  C  Sn31      1.0  0.39531  0.16703  0.30808  1.0000
  C  Sn32      1.0  0.42540  0.17543  0.27942  1.0000
  C   C201      1.0  0.44791  0.20494  0.30697  1.0000
  C   C202      1.0  0.44084  0.22607  0.36232  1.0000
  H   H187      1.0  0.40570  0.23411  0.43341  1.0000
  O  Te31      1.0  0.37240  0.13772  0.28162  1.0000
  O  Te32      1.0  0.43283  0.15460  0.22414  1.0000
  H   H188      1.0  0.45839  0.24886  0.38335  1.0000
  Mg  Mg16      1.0  0.39374  0.11740  0.20597  1.0000
  C   C203      1.0  0.75476  0.19810  0.27313  1.0000
  C   C204      1.0  0.76627  0.22848  0.24001  1.0000
  C  Sn33      1.0  0.79693  0.24832  0.25009  1.0000
  C  Sn34      1.0  0.81638  0.23748  0.29412  1.0000
  C   C205      1.0  0.80465  0.20704  0.32690  1.0000
  C   C206      1.0  0.77393  0.18738  0.31651  1.0000
  H   H189      1.0  0.73100  0.18289  0.26501  1.0000
  O  Te33      1.0  0.80805  0.27861  0.21666  1.0000
  O  Te34      1.0  0.84711  0.25682  0.30504  1.0000
  H   H190      1.0  0.76503  0.16386  0.34206  1.0000
  Mg  Mg17      1.0  0.85158  0.29617  0.24798  1.0000
  C   C207      1.0  0.74073  0.55492  0.30308  1.0000
  C   C208      1.0  0.74946  0.53382  0.27335  1.0000
  C  Sn35      1.0  0.77916  0.54126  0.29522  1.0000
  C  Sn36      1.0  0.80046  0.57039  0.34788  1.0000
  C   C209      1.0  0.79150  0.59134  0.37741  1.0000
  C   C210      1.0  0.76172  0.58366  0.35509  1.0000
  H   H191      1.0  0.71769  0.54897  0.28590  1.0000
  O  Te35      1.0  0.78750  0.51991  0.26491  1.0000
  O  Te36      1.0  0.83029  0.57843  0.37077  1.0000
  H   H192      1.0  0.75497  0.60000  0.37821  1.0000
  Mg  Mg18      1.0  0.83079  0.54153  0.31354  1.0000
  C   C211      1.0  0.59213  0.32191  0.54767  1.0000
  C   C212      1.0  0.61183  0.31604  0.63442  1.0000
  C  Sn37      1.0  0.60099  0.29250  0.74317  1.0000
  C  Sn38      1.0  0.56984  0.27455  0.76521  1.0000
  C   C213      1.0  0.55030  0.28059  0.67776  1.0000
  C   C214      1.0  0.56139  0.30420  0.56928  1.0000
  H   H193      1.0  0.60070  0.34017  0.46367  1.0000
  O  Te37      1.0  0.62099  0.28695  0.82891  1.0000
  O  Te38      1.0  0.55840  0.25088  0.87308  1.0000
  H   H194      1.0  0.54613  0.30873  0.50206  1.0000
  Mg  Mg19      1.0  0.59461  0.25216  0.96205  1.0000
  C   C215      1.0  0.70231  0.26085  0.61682  1.0000
  C   C216      1.0  0.72812  0.26652  0.70009  1.0000
  C  Sn39      1.0  0.74416  0.29289  0.78721  1.0000
  C  Sn40      1.0  0.73412  0.31392  0.79084  1.0000
  C   C217      1.0  0.70825  0.30803  0.70722  1.0000
  C   C218      1.0  0.69238  0.28157  0.62038  1.0000
  H   H195      1.0  0.69001  0.24037  0.54970  1.0000
  O  Te39      1.0  0.76991  0.29821  0.86969  1.0000
  O  Te40      1.0  0.74972  0.34045  0.87701  1.0000
  H   H196      1.0  0.67238  0.27718  0.55600  1.0000
  Mg  Mg20      1.0  0.78353  0.33759  0.97002  1.0000
  C   C219      1.0  0.70098  0.42851  0.75614  1.0000
  C   C220      1.0  0.70848  0.41000  0.67274  1.0000
  C  Sn41      1.0  0.73608  0.42206  0.59941  1.0000
  C  Sn42      1.0  0.75650  0.45324  0.61000  1.0000
  C   C221      1.0  0.74879  0.47157  0.69381  1.0000
  C   C222      1.0  0.72111  0.45927  0.76670  1.0000
  H   H197      1.0  0.67957  0.41899  0.81261  1.0000
  O  Te41      1.0  0.74321  0.40324  0.51651  1.0000
  O  Te42      1.0  0.78423  0.46588  0.53788  1.0000
  H   H198      1.0  0.71532  0.47360  0.83134  1.0000
  Mg  Mg21      1.0  0.78371  0.43102  0.43827  1.0000
  C   C223      1.0  0.45002  0.19188  0.77719  1.0000
  C   C224      1.0  0.46926  0.22180  0.73736  1.0000
  C  Sn43      1.0  0.46039  0.24310  0.75593  1.0000
  C  Sn44      1.0  0.43172  0.23422  0.81555  1.0000
  C   C225      1.0  0.41265  0.20424  0.85517  1.0000
  C   C226      1.0  0.42175  0.18311  0.83607  1.0000
  H   H199      1.0  0.45706  0.17553  0.76250  1.0000
  O  Te43      1.0  0.47988  0.27289  0.71549  1.0000
  O  Te44      1.0  0.42229  0.25505  0.83534  1.0000
  H   H200      1.0  0.40686  0.15995  0.86701  1.0000
  Mg  Mg22      1.0  0.45685  0.29300  0.76355  1.0000
  C   C227      1.0  0.76825  0.20319  0.84932  1.0000
  C   C228      1.0  0.78186  0.23375  0.81522  1.0000
  C  Sn45      1.0  0.81275  0.25071  0.79912  1.0000
  C  Sn46      1.0  0.83027  0.23675  0.81752  1.0000
  C   C229      1.0  0.81644  0.20615  0.85151  1.0000
  C   C230      1.0  0.78552  0.18939  0.86743  1.0000
  H   H201      1.0  0.74433  0.19022  0.86155  1.0000
  O  Te45      1.0  0.82598  0.28122  0.76509  1.0000
  O  Te46      1.0  0.86117  0.25316  0.80199  1.0000
  H   H202      1.0  0.77499  0.16573  0.89373  1.0000
  Mg  Mg23      1.0  0.86889  0.29411  0.75517  1.0000
  C   C231      1.0  0.80758  0.58397  0.88144  1.0000
  C   C232      1.0  0.79929  0.60565  0.85567  1.0000
  C  Sn47      1.0  0.77148  0.59766  0.78873  1.0000
  C  Sn48      1.0  0.75164  0.56739  0.74696  1.0000
  C   C233      1.0  0.76013  0.54587  0.77332  1.0000
  C   C234      1.0  0.78802  0.55411  0.84033  1.0000
  H   H203      1.0  0.82915  0.59034  0.93337  1.0000
  O  Te47      1.0  0.76355  0.61960  0.76375  1.0000
  O  Te48      1.0  0.72370  0.55879  0.67992  1.0000
  H   H204      1.0  0.79442  0.53732  0.86036  1.0000
  Mg  Mg24      1.0  0.72307  0.59684  0.66903  1.0000
