data_image0
_chemical_formula_structural       H144C120N36SnCSn2CSnTe4Mg2SnCSn2CSnTe4Mg2SnCSn2CSnTe4Mg2SnCSn2CSnTe4Mg2SnCSn2CSnTe4Mg2SnCSn2CSnTe4Mg2SnCSn2CSnTe4Mg2SnCSn2CSnTe4Mg2SnCSn2CSnTe4Mg2SnCSn2CSnTe4Mg2SnCSn2CSnTe4Mg2SnCSn2CSnTe4Mg2SnCSn2CSnTe4Mg2SnCSn2CSnTe4Mg2SnCSn2CSnTe4Mg2SnCSn2CSnTe4Mg2SnCSn2CSnTe4Mg2SnCSn2CSnTe4Mg2SnCSn2CSnTe4Mg2SnCSn2CSnTe4Mg2SnCSn2CSnTe4Mg2SnCSn2CSnTe4Mg2SnCSn2CSnTe4Mg2SnCSn2CSnTe4Mg2
_chemical_formula_sum              "H144 C168 N36 Sn96 Te96 Mg48"
_cell_length_a       51.8069
_cell_length_b       51.8112
_cell_length_c       8.27607
_cell_angle_alpha    89.2159
_cell_angle_beta     90.2821
_cell_angle_gamma    120.098

_symmetry_space_group_name_H-M    'P1'
_space_group_IT_number       1

loop_
  _space_group_symop_operation_xyz
  'x, y, z'

loop_
  _atom_site_type_symbol
  _atom_site_label
  _atom_site_symmetry_multiplicity
  _atom_site_fract_x
  _atom_site_fract_y
  _atom_site_fract_z
  _atom_site_occupancy
  H   H1        1.0  0.30497  0.11357  0.45553  1.0000
  H   H2        1.0  0.88650  0.19190  0.45554  1.0000
  H   H3        1.0  0.81055  0.69372  0.45986  1.0000
  H   H4        1.0  0.35801  0.13460  0.52344  1.0000
  H   H5        1.0  0.86432  0.22257  0.52586  1.0000
  H   H6        1.0  0.78007  0.64060  0.53315  1.0000
  H   H7        1.0  0.49847  0.21896  0.25153  1.0000
  H   H8        1.0  0.78071  0.28103  0.24522  1.0000
  H   H9        1.0  0.71921  0.49916  0.25008  1.0000
  H   H10       1.0  0.16797  0.11266  0.35978  1.0000
  H   H11       1.0  0.88987  0.05762  0.34090  1.0000
  H   H12       1.0  0.94413  0.83208  0.33199  1.0000
  H   H13       1.0  0.63996  0.36189  0.18857  1.0000
  H   H14       1.0  0.63684  0.27742  0.18070  1.0000
  H   H15       1.0  0.72128  0.35895  0.18653  1.0000
  H   H16       1.0  0.02511  0.96995  0.37545  1.0000
  H   H17       1.0  0.02992  0.05514  0.38619  1.0000
  H   H18       1.0  0.94465  0.97466  0.37397  1.0000
  H   H19       1.0  0.37522  0.23489  0.26179  1.0000
  H   H20       1.0  0.76693  0.14468  0.25593  1.0000
  H   H21       1.0  0.85589  0.62368  0.27013  1.0000
  H   H22       1.0  0.35235  0.26810  0.28161  1.0000
  H   H23       1.0  0.73409  0.09021  0.27771  1.0000
  H   H24       1.0  0.91060  0.64543  0.28611  1.0000
  H   H25       1.0  0.33828  0.31306  0.08520  1.0000
  H   H26       1.0  0.68808  0.03582  0.18395  1.0000
  H   H27       1.0  0.96687  0.65601  0.18225  1.0000
  H   H28       1.0  0.35082  0.30472  0.49663  1.0000
  H   H29       1.0  0.69478  0.04135  0.47307  1.0000
  H   H30       1.0  0.95511  0.65009  0.45689  1.0000
  H   H31       1.0  0.39498  0.35364  0.08521  1.0000
  H   H32       1.0  0.65311  0.05957  0.03332  1.0000
  H   H33       1.0  0.91831  0.57997  0.22567  1.0000
  H   H34       1.0  0.40780  0.34687  0.27230  1.0000
  H   H35       1.0  0.66325  0.08732  0.18342  1.0000
  H   H36       1.0  0.95432  0.61111  0.26205  1.0000
  H   H37       1.0  0.37254  0.34484  0.26311  1.0000
  H   H38       1.0  0.65600  0.05107  0.23994  1.0000
  H   H39       1.0  0.94405  0.59679  0.06278  1.0000
  H   H40       1.0  0.39741  0.30056  0.42696  1.0000
  H   H41       1.0  0.69872  0.09313  0.41028  1.0000
  H   H42       1.0  0.90356  0.59916  0.43969  1.0000
  H   H43       1.0  0.38373  0.27646  0.07208  1.0000
  H   H44       1.0  0.73628  0.11139  0.01189  1.0000
  H   H45       1.0  0.88977  0.62384  0.02541  1.0000
  H   H46       1.0  0.41358  0.30659  0.17551  1.0000
  H   H47       1.0  0.71015  0.12249  0.06352  1.0000
  H   H48       1.0  0.88044  0.58769  0.09617  1.0000
  H   H49       1.0  0.28058  0.26621  0.07143  1.0000
  H   H50       1.0  0.73739  0.02347  0.03325  1.0000
  H   H51       1.0  0.97615  0.71780  0.03855  1.0000
  H   H52       1.0  0.27554  0.28638  0.34590  1.0000
  H   H53       1.0  0.71706  0.98917  0.27695  1.0000
  H   H54       1.0  0.01221  0.73043  0.27011  1.0000
  H   H55       1.0  0.30458  0.31149  0.21717  1.0000
  H   H56       1.0  0.69106  0.99577  0.17281  1.0000
  H   H57       1.0  0.00532  0.69872  0.15926  1.0000
  H   H58       1.0  0.31269  0.29527  0.38481  1.0000
  H   H59       1.0  0.70615  0.01347  0.35939  1.0000
  H   H60       1.0  0.98887  0.69432  0.35219  1.0000
  H   H61       1.0  0.27933  0.22918  0.36553  1.0000
  H   H62       1.0  0.77150  0.05129  0.34427  1.0000
  H   H63       1.0  0.95104  0.72107  0.36613  1.0000
  H   H64       1.0  0.26473  0.21592  0.17290  1.0000
  H   H65       1.0  0.78629  0.05644  0.14802  1.0000
  H   H66       1.0  0.94289  0.73100  0.17612  1.0000
  H   H67       1.0  0.24869  0.23255  0.29392  1.0000
  H   H68       1.0  0.77004  0.02050  0.24327  1.0000
  H   H69       1.0  0.97984  0.75132  0.25545  1.0000
  H   H70       1.0  0.31371  0.25106  0.01758  1.0000
  H   H71       1.0  0.74741  0.07001  0.00627  1.0000
  H   H72       1.0  0.93090  0.67968  0.01315  1.0000
  H   H73       1.0  0.30360  0.11458  0.97461  1.0000
  H   H74       1.0  0.88681  0.19274  0.95349  1.0000
  H   H75       1.0  0.80767  0.69399  0.94782  1.0000
  H   H76       1.0  0.35691  0.13671  0.03919  1.0000
  H   H77       1.0  0.86567  0.22441  0.02393  1.0000
  H   H78       1.0  0.77626  0.64099  0.02352  1.0000
  H   H79       1.0  0.50033  0.21938  0.75465  1.0000
  H   H80       1.0  0.78007  0.27926  0.74430  1.0000
  H   H81       1.0  0.72235  0.49994  0.76192  1.0000
  H   H82       1.0  0.16661  0.11074  0.84904  1.0000
  H   H83       1.0  0.88625  0.05605  0.85989  1.0000
  H   H84       1.0  0.94111  0.83126  0.82340  1.0000
  H   H85       1.0  0.64154  0.36259  0.68759  1.0000
  H   H86       1.0  0.63730  0.27764  0.68290  1.0000
  H   H87       1.0  0.72231  0.35849  0.68774  1.0000
  H   H88       1.0  0.02354  0.96974  0.87401  1.0000
  H   H89       1.0  0.02839  0.05496  0.88739  1.0000
  H   H90       1.0  0.94309  0.97440  0.88331  1.0000
  H   H91       1.0  0.37630  0.23035  0.77986  1.0000
  H   H92       1.0  0.76645  0.14153  0.75648  1.0000
  H   H93       1.0  0.86122  0.62404  0.76376  1.0000
  H   H94       1.0  0.35572  0.26377  0.79984  1.0000
  H   H95       1.0  0.73387  0.08679  0.77504  1.0000
  H   H96       1.0  0.91581  0.64644  0.78184  1.0000
  H   H97       1.0  0.34750  0.31150  0.70211  1.0000
  H   H98       1.0  0.68786  0.02999  0.67788  1.0000
  H   H99       1.0  0.97224  0.65577  0.64791  1.0000
  H   H100      1.0  0.35075  0.29672  0.94374  1.0000
  H   H101      1.0  0.69494  0.04405  0.97555  1.0000
  H   H102      1.0  0.95530  0.65244  0.97893  1.0000
  H   H103      1.0  0.40640  0.34680  0.57004  1.0000
  H   H104      1.0  0.65098  0.05223  0.55001  1.0000
  H   H105      1.0  0.94623  0.59477  0.56619  1.0000
  H   H106      1.0  0.42395  0.33659  0.72360  1.0000
  H   H107      1.0  0.65987  0.07849  0.70737  1.0000
  H   H108      1.0  0.92280  0.58109  0.73971  1.0000
  H   H109      1.0  0.39427  0.34288  0.77498  1.0000
  H   H110      1.0  0.65487  0.04260  0.75307  1.0000
  H   H111      1.0  0.95960  0.61199  0.75763  1.0000
  H   H112      1.0  0.40348  0.31207  0.97648  1.0000
  H   H113      1.0  0.70329  0.09883  0.89368  1.0000
  H   H114      1.0  0.90382  0.60339  0.92209  1.0000
  H   H115      1.0  0.37635  0.26544  0.52864  1.0000
  H   H116      1.0  0.73259  0.10792  0.52234  1.0000
  H   H117      1.0  0.89289  0.62302  0.53465  1.0000
  H   H118      1.0  0.41326  0.29076  0.59257  1.0000
  H   H119      1.0  0.70449  0.11583  0.58308  1.0000
  H   H120      1.0  0.88355  0.58827  0.62710  1.0000
  H   H121      1.0  0.28535  0.26068  0.55069  1.0000
  H   H122      1.0  0.73942  0.02069  0.53677  1.0000
  H   H123      1.0  0.98536  0.71567  0.54376  1.0000
  H   H124      1.0  0.27122  0.28213  0.77919  1.0000
  H   H125      1.0  0.70600  0.01114  0.85490  1.0000
  H   H126      1.0  0.98529  0.69107  0.88177  1.0000
  H   H127      1.0  0.30469  0.30809  0.68158  1.0000
  H   H128      1.0  0.72056  0.98843  0.79589  1.0000
  H   H129      1.0  0.01279  0.72686  0.81479  1.0000
  H   H130      1.0  0.30573  0.29293  0.87312  1.0000
  H   H131      1.0  0.69366  0.99062  0.67400  1.0000
  H   H132      1.0  0.00818  0.69507  0.71426  1.0000
  H   H133      1.0  0.27917  0.22927  0.87512  1.0000
  H   H134      1.0  0.77089  0.04824  0.85464  1.0000
  H   H135      1.0  0.95291  0.72233  0.83445  1.0000
  H   H136      1.0  0.27082  0.21273  0.68334  1.0000
  H   H137      1.0  0.78761  0.05695  0.66171  1.0000
  H   H138      1.0  0.95042  0.73221  0.63393  1.0000
  H   H139      1.0  0.25010  0.22898  0.75955  1.0000
  H   H140      1.0  0.77289  0.02009  0.74415  1.0000
  H   H141      1.0  0.98524  0.75145  0.73765  1.0000
  H   H142      1.0  0.32288  0.25279  0.52588  1.0000
  H   H143      1.0  0.74663  0.06639  0.50201  1.0000
  H   H144      1.0  0.93647  0.68139  0.50610  1.0000
  C   C1        1.0  0.30018  0.15284  0.03715  1.0000
  C   C2        1.0  0.84854  0.15120  0.02534  1.0000
  C   C3        1.0  0.84922  0.69789  0.02183  1.0000
  C   C4        1.0  0.31685  0.13532  0.51208  1.0000
  C   C5        1.0  0.86424  0.18113  0.50809  1.0000
  C   C6        1.0  0.82139  0.68232  0.51330  1.0000
  C   C7        1.0  0.34576  0.14937  0.06154  1.0000
  C   C8        1.0  0.85289  0.20055  0.04914  1.0000
  C   C9        1.0  0.80005  0.65228  0.04868  1.0000
  C   C10       1.0  0.36276  0.17855  0.12077  1.0000
  C   C11       1.0  0.82408  0.18858  0.11500  1.0000
  C   C12       1.0  0.81214  0.63570  0.11795  1.0000
  C   C13       1.0  0.34710  0.19385  0.14019  1.0000
  C   C14       1.0  0.80861  0.15760  0.13900  1.0000
  C   C15       1.0  0.84307  0.65167  0.14143  1.0000
  C   C16       1.0  0.31684  0.18219  0.09556  1.0000
  C   C17       1.0  0.81955  0.13878  0.09017  1.0000
  C   C18       1.0  0.86182  0.68159  0.08951  1.0000
  C   C19       1.0  0.48979  0.23348  0.21061  1.0000
  C   C20       1.0  0.76673  0.25800  0.20308  1.0000
  C   C21       1.0  0.74273  0.50842  0.21480  1.0000
  C   C22       1.0  0.17603  0.09756  0.39945  1.0000
  C   C23       1.0  0.90438  0.08019  0.38815  1.0000
  C   C24       1.0  0.92099  0.82367  0.37213  1.0000
  C   C25       1.0  0.03144  0.01435  0.38055  1.0000
  C   C26       1.0  0.98559  0.01701  0.37805  1.0000
  C   C27       1.0  0.98280  0.96843  0.37407  1.0000
  C   C28       1.0  0.63441  0.31778  0.18466  1.0000
  C   C29       1.0  0.68086  0.31617  0.18280  1.0000
  C   C30       1.0  0.68264  0.36426  0.18772  1.0000
  C   C31       1.0  0.65135  0.34908  0.18694  1.0000
  C   C32       1.0  0.64956  0.30167  0.18258  1.0000
  C   C33       1.0  0.69704  0.34744  0.18552  1.0000
  C   C34       1.0  0.01408  0.98311  0.37613  1.0000
  C   C35       1.0  0.01681  0.03094  0.38118  1.0000
  C   C36       1.0  0.96888  0.98574  0.37473  1.0000
  C   C37       1.0  0.33113  0.22588  0.19257  1.0000
  C   C38       1.0  0.77602  0.10952  0.19404  1.0000
  C   C39       1.0  0.89106  0.66776  0.19832  1.0000
  C   C40       1.0  0.32011  0.26517  0.12445  1.0000
  C   C41       1.0  0.73519  0.06064  0.11970  1.0000
  C   C42       1.0  0.94022  0.67680  0.12658  1.0000
  C   C43       1.0  0.34588  0.29694  0.07254  1.0000
  C   C44       1.0  0.70247  0.05334  0.09727  1.0000
  C   C45       1.0  0.94795  0.65163  0.10470  1.0000
  C   C46       1.0  0.38791  0.33996  0.19722  1.0000
  C   C47       1.0  0.66589  0.06852  0.14585  1.0000
  C   C48       1.0  0.93581  0.60137  0.17546  1.0000
  C   C49       1.0  0.39469  0.30054  0.09337  1.0000
  C   C50       1.0  0.71242  0.10394  0.01729  1.0000
  C   C51       1.0  0.89834  0.60845  0.04201  1.0000
  C   C52       1.0  0.29130  0.26444  0.18289  1.0000
  C   C53       1.0  0.73766  0.03221  0.15381  1.0000
  C   C54       1.0  0.96834  0.70805  0.15955  1.0000
  C   C55       1.0  0.29645  0.29080  0.28841  1.0000
  C   C56       1.0  0.71150  0.00649  0.24595  1.0000
  C   C57       1.0  0.99493  0.70760  0.23999  1.0000
  C   C58       1.0  0.26969  0.23383  0.25852  1.0000
  C   C59       1.0  0.76811  0.04051  0.22679  1.0000
  C   C60       1.0  0.96006  0.72906  0.24449  1.0000
  C   C61       1.0  0.30156  0.15113  0.53303  1.0000
  C   C62       1.0  0.84858  0.14977  0.52302  1.0000
  C   C63       1.0  0.85272  0.69827  0.52770  1.0000
  C   C64       1.0  0.31558  0.13700  0.02308  1.0000
  C   C65       1.0  0.86471  0.18249  0.00766  1.0000
  C   C66       1.0  0.81796  0.68231  0.00434  1.0000
  C   C67       1.0  0.34696  0.14713  0.55200  1.0000
  C   C68       1.0  0.85182  0.19867  0.54988  1.0000
  C   C69       1.0  0.80392  0.65223  0.55698  1.0000
  C   C70       1.0  0.36387  0.17550  0.62108  1.0000
  C   C71       1.0  0.82285  0.18615  0.61474  1.0000
  C   C72       1.0  0.81647  0.63587  0.62317  1.0000
  C   C73       1.0  0.34814  0.19050  0.64876  1.0000
  C   C74       1.0  0.80790  0.15511  0.63574  1.0000
  C   C75       1.0  0.84747  0.65210  0.64354  1.0000
  C   C76       1.0  0.31823  0.17980  0.60009  1.0000
  C   C77       1.0  0.81931  0.13673  0.58522  1.0000
  C   C78       1.0  0.86583  0.68214  0.59191  1.0000
  C   C79       1.0  0.49127  0.23338  0.71019  1.0000
  C   C80       1.0  0.76579  0.25607  0.70527  1.0000
  C   C81       1.0  0.74558  0.50877  0.72212  1.0000
  C   C82       1.0  0.17463  0.09623  0.89927  1.0000
  C   C83       1.0  0.90155  0.07902  0.89942  1.0000
  C   C84       1.0  0.91838  0.82326  0.86924  1.0000
  C   C85       1.0  0.02995  0.01412  0.88142  1.0000
  C   C86       1.0  0.98403  0.01676  0.88454  1.0000
  C   C87       1.0  0.98125  0.96822  0.87708  1.0000
  C   C88       1.0  0.63552  0.31829  0.68504  1.0000
  C   C89       1.0  0.68159  0.31604  0.68410  1.0000
  C   C90       1.0  0.68400  0.36444  0.68798  1.0000
  C   C91       1.0  0.65271  0.34957  0.68662  1.0000
  C   C92       1.0  0.65034  0.30188  0.68378  1.0000
  C   C93       1.0  0.69808  0.34731  0.68612  1.0000
  C   C94       1.0  0.01253  0.98290  0.87685  1.0000
  C   C95       1.0  0.01530  0.03073  0.88406  1.0000
  C   C96       1.0  0.96733  0.98549  0.88168  1.0000
  C   C97       1.0  0.33273  0.22259  0.70992  1.0000
  C   C98       1.0  0.77571  0.10680  0.68684  1.0000
  C   C99       1.0  0.89580  0.66841  0.69285  1.0000
  C   C100      1.0  0.32544  0.26420  0.64061  1.0000
  C   C101      1.0  0.73515  0.05722  0.61739  1.0000
  C   C102      1.0  0.94512  0.67703  0.61800  1.0000
  C   C103      1.0  0.35124  0.29709  0.62131  1.0000
  C   C104      1.0  0.70195  0.04890  0.59794  1.0000
  C   C105      1.0  0.95147  0.65096  0.58746  1.0000
  C   C106      1.0  0.40244  0.33366  0.68282  1.0000
  C   C107      1.0  0.66372  0.06080  0.66311  1.0000
  C   C108      1.0  0.93996  0.60146  0.67883  1.0000
  C   C109      1.0  0.39261  0.28911  0.54573  1.0000
  C   C110      1.0  0.70843  0.09857  0.53265  1.0000
  C   C111      1.0  0.90083  0.60728  0.55724  1.0000
  C   C112      1.0  0.29426  0.26135  0.67209  1.0000
  C   C113      1.0  0.73900  0.02966  0.65568  1.0000
  C   C114      1.0  0.97371  0.70697  0.65980  1.0000
  C   C115      1.0  0.29432  0.28765  0.75627  1.0000
  C   C116      1.0  0.71334  0.00377  0.74990  1.0000
  C   C117      1.0  0.99600  0.70460  0.77345  1.0000
  C   C118      1.0  0.27234  0.23137  0.75232  1.0000
  C   C119      1.0  0.76942  0.03927  0.73347  1.0000
  C   C120      1.0  0.96521  0.72964  0.71981  1.0000
  N   N1        1.0  0.50724  0.26155  0.18110  1.0000
  N   N2        1.0  0.73863  0.24691  0.17467  1.0000
  N   N3        1.0  0.75389  0.49141  0.19074  1.0000
  N   N4        1.0  0.15815  0.06924  0.41722  1.0000
  N   N5        1.0  0.93240  0.09021  0.41373  1.0000
  N   N6        1.0  0.91037  0.84133  0.38874  1.0000
  N   N7        1.0  0.30772  0.20270  0.12843  1.0000
  N   N8        1.0  0.79867  0.10910  0.12421  1.0000
  N   N9        1.0  0.89148  0.69073  0.12443  1.0000
  N   N10       1.0  0.35592  0.22204  0.20143  1.0000
  N   N11       1.0  0.78084  0.13839  0.20779  1.0000
  N   N12       1.0  0.86230  0.64339  0.21261  1.0000
  N   N13       1.0  0.33217  0.25180  0.23947  1.0000
  N   N14       1.0  0.74955  0.08468  0.24145  1.0000
  N   N15       1.0  0.91588  0.66644  0.24825  1.0000
  N   N16       1.0  0.37353  0.30790  0.16777  1.0000
  N   N17       1.0  0.69762  0.07845  0.12928  1.0000
  N   N18       1.0  0.92399  0.62155  0.15173  1.0000
  N   N19       1.0  0.50839  0.26142  0.67861  1.0000
  N   N20       1.0  0.73760  0.24513  0.67951  1.0000
  N   N21       1.0  0.75622  0.49139  0.69590  1.0000
  N   N22       1.0  0.15672  0.06816  0.92589  1.0000
  N   N23       1.0  0.92971  0.08903  0.91831  1.0000
  N   N24       1.0  0.90843  0.84131  0.89210  1.0000
  N   N25       1.0  0.30954  0.20048  0.63750  1.0000
  N   N26       1.0  0.79859  0.10687  0.61657  1.0000
  N   N27       1.0  0.89569  0.69146  0.62315  1.0000
  N   N28       1.0  0.35687  0.21784  0.72008  1.0000
  N   N29       1.0  0.78011  0.13547  0.70255  1.0000
  N   N30       1.0  0.86713  0.64396  0.71025  1.0000
  N   N31       1.0  0.33465  0.24879  0.76116  1.0000
  N   N32       1.0  0.74953  0.08181  0.73551  1.0000
  N   N33       1.0  0.92080  0.66708  0.73908  1.0000
  N   N34       1.0  0.38105  0.30184  0.66274  1.0000
  N   N35       1.0  0.69575  0.07264  0.64256  1.0000
  N   N36       1.0  0.92845  0.62180  0.65191  1.0000
  C  Sn1       1.0  0.42196  0.22334  0.05188  1.0000
  C   C121      1.0  0.39969  0.19507  0.10371  1.0000
  C  Sn2       1.0  0.40603  0.17900  0.21832  1.0000
  C  Sn3       1.0  0.43524  0.19143  0.28256  1.0000
  C   C122      1.0  0.45750  0.21968  0.23076  1.0000
  C  Sn4       1.0  0.45117  0.23578  0.11612  1.0000
  O  Te1       1.0  0.41471  0.23662  0.93719  1.0000
  O  Te2       1.0  0.38339  0.15077  0.26822  1.0000
  O  Te3       1.0  0.44207  0.17573  0.39733  1.0000
  O  Te4       1.0  0.47379  0.26398  0.06624  1.0000
  Mg  Mg1       1.0  0.40369  0.13812  0.42714  1.0000
  Mg  Mg2       1.0  0.45310  0.27427  0.90741  1.0000
  C  Sn5       1.0  0.81877  0.25321  0.19749  1.0000
  C   C123      1.0  0.79002  0.24608  0.15038  1.0000
  C  Sn6       1.0  0.76904  0.21689  0.10831  1.0000
  C  Sn7       1.0  0.77695  0.19436  0.11353  1.0000
  C   C124      1.0  0.80568  0.20149  0.16064  1.0000
  C  Sn8       1.0  0.82668  0.23067  0.20271  1.0000
  O  Te5       1.0  0.83938  0.28253  0.23904  1.0000
  O  Te6       1.0  0.74044  0.21031  0.06155  1.0000
  O  Te7       1.0  0.75631  0.16502  0.07192  1.0000
  O  Te8       1.0  0.85526  0.23726  0.24947  1.0000
  Mg  Mg3       1.0  0.72018  0.16708  0.01622  1.0000
  Mg  Mg4       1.0  0.87553  0.28047  0.29491  1.0000
  C  Sn9       1.0  0.74742  0.56517  0.20015  1.0000
  C   C125      1.0  0.75516  0.54377  0.16076  1.0000
  C  Sn10      1.0  0.78477  0.55230  0.12619  1.0000
  C  Sn11      1.0  0.80712  0.58286  0.13119  1.0000
  C   C126      1.0  0.79938  0.60424  0.17059  1.0000
  C  Sn12      1.0  0.76977  0.59572  0.20515  1.0000
  O  Te9       1.0  0.71768  0.55613  0.23427  1.0000
  O  Te10      1.0  0.79196  0.53050  0.08707  1.0000
  O  Te11      1.0  0.83688  0.59188  0.09702  1.0000
  O  Te12      1.0  0.76258  0.61750  0.24427  1.0000
  Mg  Mg5       1.0  0.83559  0.55389  0.05016  1.0000
  Mg  Mg6       1.0  0.71896  0.59414  0.28129  1.0000
  C  Sn13      1.0  0.23402  0.14163  0.84056  1.0000
  C   C127      1.0  0.21161  0.11306  0.88729  1.0000
  C  Sn14      1.0  0.21737  0.09961  0.00795  1.0000
  C  Sn15      1.0  0.24571  0.11259  0.08357  1.0000
  C   C128      1.0  0.26810  0.14114  0.03686  1.0000
  C  Sn16      1.0  0.26236  0.15461  0.91618  1.0000
  O  Te13      1.0  0.22817  0.15706  0.71966  1.0000
  O  Te14      1.0  0.19462  0.07109  0.05258  1.0000
  O  Te15      1.0  0.25155  0.09713  0.20455  1.0000
  O  Te16      1.0  0.28509  0.18312  0.87157  1.0000
  Mg  Mg7       1.0  0.21341  0.05894  0.22346  1.0000
  Mg  Mg8       1.0  0.26633  0.19529  0.70077  1.0000
  C  Sn17      1.0  0.84344  0.09562  0.94654  1.0000
  C   C129      1.0  0.85705  0.12629  0.01538  1.0000
  C  Sn18      1.0  0.88804  0.14344  0.02981  1.0000
  C  Sn19      1.0  0.90581  0.12969  0.97419  1.0000
  C   C130      1.0  0.89261  0.10143  0.90537  1.0000
  C  Sn20      1.0  0.86162  0.08427  0.89092  1.0000
  O  Te17      1.0  0.81242  0.07887  0.93332  1.0000
  O  Te18      1.0  0.90072  0.17164  0.09911  1.0000
  O  Te19      1.0  0.93685  0.14647  0.98747  1.0000
  O  Te20      1.0  0.84894  0.05609  0.82165  1.0000
  Mg  Mg9       1.0  0.94404  0.18601  0.09047  1.0000
  Mg  Mg10      1.0  0.80563  0.04171  0.83014  1.0000
  C  Sn21      1.0  0.90375  0.74914  0.92288  1.0000
  C   C131      1.0  0.87684  0.73613  0.00394  1.0000
  C  Sn22      1.0  0.85931  0.74935  0.02498  1.0000
  C  Sn23      1.0  0.86889  0.77616  0.96365  1.0000
  C   C132      1.0  0.89620  0.79154  0.88263  1.0000
  C  Sn24      1.0  0.91374  0.77835  0.86155  1.0000
  O  Te21      1.0  0.92090  0.73549  0.90322  1.0000
  O  Te22      1.0  0.83208  0.73352  0.10648  1.0000
  O  Te23      1.0  0.85171  0.78980  0.98338  1.0000
  O  Te24      1.0  0.94096  0.79416  0.78009  1.0000
  Mg  Mg11      1.0  0.81667  0.76161  0.10279  1.0000
  Mg  Mg12      1.0  0.95638  0.76609  0.78364  1.0000
  C  Sn25      1.0  0.22430  0.09796  0.55966  1.0000
  C   C133      1.0  0.20947  0.11075  0.48046  1.0000
  C  Sn26      1.0  0.22551  0.13722  0.39127  1.0000
  C  Sn27      1.0  0.25702  0.15119  0.38094  1.0000
  C   C134      1.0  0.27184  0.13840  0.46009  1.0000
  C  Sn28      1.0  0.25582  0.11193  0.54933  1.0000
  O  Te25      1.0  0.20782  0.07149  0.64813  1.0000
  O  Te26      1.0  0.21019  0.14959  0.31318  1.0000
  O  Te27      1.0  0.27350  0.17768  0.29238  1.0000
  O  Te28      1.0  0.27112  0.09956  0.62736  1.0000
  Mg  Mg13      1.0  0.24252  0.18588  0.20730  1.0000
  Mg  Mg14      1.0  0.23881  0.06326  0.73320  1.0000
  C  Sn29      1.0  0.90121  0.12525  0.55894  1.0000
  C   C135      1.0  0.88980  0.09899  0.47047  1.0000
  C  Sn30      1.0  0.86496  0.09010  0.37106  1.0000
  C  Sn31      1.0  0.85123  0.10785  0.35974  1.0000
  C   C136      1.0  0.86264  0.13409  0.44814  1.0000
  C  Sn32      1.0  0.88749  0.14299  0.54762  1.0000
  O  Te29      1.0  0.92607  0.13370  0.65755  1.0000
  O  Te30      1.0  0.85395  0.06375  0.28382  1.0000
  O  Te31      1.0  0.82636  0.09937  0.26102  1.0000
  O  Te32      1.0  0.89850  0.16932  0.63479  1.0000
  Mg  Mg15      1.0  0.81961  0.06164  0.16590  1.0000
  Mg  Mg16      1.0  0.93284  0.17147  0.75268  1.0000
  C  Sn33      1.0  0.90724  0.75006  0.43648  1.0000
  C   C137      1.0  0.87927  0.73439  0.51091  1.0000
  C  Sn34      1.0  0.86119  0.74717  0.52264  1.0000
  C  Sn35      1.0  0.87125  0.77622  0.45855  1.0000
  C   C138      1.0  0.89920  0.79187  0.38415  1.0000
  C  Sn36      1.0  0.91730  0.77911  0.37240  1.0000
  O  Te33      1.0  0.92495  0.73685  0.42610  1.0000
  O  Te34      1.0  0.83332  0.73108  0.59763  1.0000
  O  Te35      1.0  0.85351  0.78943  0.46899  1.0000
  O  Te36      1.0  0.94515  0.79518  0.29743  1.0000
  Mg  Mg17      1.0  0.81730  0.75861  0.58213  1.0000
  Mg  Mg18      1.0  0.96118  0.76767  0.31279  1.0000
  C  Sn37      1.0  0.56279  0.31082  0.22606  1.0000
  C   C139      1.0  0.54242  0.28403  0.15303  1.0000
  C  Sn38      1.0  0.55128  0.26390  0.10476  1.0000
  C  Sn39      1.0  0.58112  0.27068  0.13010  1.0000
  C   C140      1.0  0.60147  0.29745  0.20311  1.0000
  C  Sn40      1.0  0.59263  0.31760  0.25139  1.0000
  O  Te37      1.0  0.55344  0.33061  0.27336  1.0000
  O  Te38      1.0  0.53051  0.23727  0.03195  1.0000
  O  Te39      1.0  0.59046  0.25086  0.08272  1.0000
  O  Te40      1.0  0.61338  0.34422  0.32419  1.0000
  Mg  Mg19      1.0  0.55354  0.21507  0.98860  1.0000
  Mg  Mg20      1.0  0.58996  0.36403  0.36766  1.0000
  C  Sn41      1.0  0.68889  0.25198  0.22572  1.0000
  C   C141      1.0  0.71579  0.25910  0.15044  1.0000
  C  Sn42      1.0  0.73547  0.28834  0.09914  1.0000
  C  Sn43      1.0  0.72811  0.31093  0.12369  1.0000
  C   C142      1.0  0.70122  0.30380  0.19896  1.0000
  C  Sn44      1.0  0.68154  0.27457  0.25027  1.0000
  O  Te41      1.0  0.66957  0.22261  0.27603  1.0000
  O  Te42      1.0  0.76222  0.29491  0.02412  1.0000
  O  Te43      1.0  0.74746  0.34032  0.07330  1.0000
  O  Te44      1.0  0.65480  0.26800  0.32527  1.0000
  Mg  Mg21      1.0  0.78083  0.33582  0.97699  1.0000
  Mg  Mg22      1.0  0.63576  0.22470  0.37253  1.0000
  C  Sn45      1.0  0.72879  0.41868  0.31922  1.0000
  C   C143      1.0  0.70154  0.40088  0.24206  1.0000
  C  Sn46      1.0  0.69190  0.41287  0.11960  1.0000
  C  Sn47      1.0  0.70988  0.44327  0.07322  1.0000
  C   C144      1.0  0.73712  0.46105  0.15033  1.0000
  C  Sn48      1.0  0.74677  0.44908  0.27283  1.0000
  O  Te45      1.0  0.73799  0.40623  0.44133  1.0000
  O  Te46      1.0  0.66456  0.39464  0.04427  1.0000
  O  Te47      1.0  0.70024  0.45332  0.95100  1.0000
  O  Te48      1.0  0.77409  0.46729  0.34813  1.0000
  Mg  Mg23      1.0  0.66128  0.41948  0.88447  1.0000
  Mg  Mg24      1.0  0.77699  0.44008  0.50788  1.0000
  C  Sn49      1.0  0.08842  0.06526  0.44091  1.0000
  C   C145      1.0  0.06858  0.03870  0.36412  1.0000
  C  Sn50      1.0  0.07797  0.01905  0.31476  1.0000
  C  Sn51      1.0  0.10782  0.02608  0.34280  1.0000
  C   C146      1.0  0.12764  0.05262  0.41957  1.0000
  C  Sn52      1.0  0.11827  0.07229  0.46896  1.0000
  O  Te49      1.0  0.07854  0.08458  0.48924  1.0000
  O  Te50      1.0  0.55925  0.99263  0.23817  1.0000
  O  Te51      1.0  0.11769  0.00673  0.29439  1.0000
  O  Te52      1.0  0.13849  0.09869  0.54552  1.0000
  Mg  Mg25      1.0  0.58330  0.97348  0.19480  1.0000
  Mg  Mg26      1.0  0.11446  0.11785  0.58902  1.0000
  C  Sn53      1.0  0.97086  0.07554  0.26835  1.0000
  C   C147      1.0  0.94531  0.06972  0.35431  1.0000
  C  Sn54      1.0  0.93315  0.04688  0.47063  1.0000
  C  Sn55      1.0  0.94682  0.02949  0.50176  1.0000
  C   C148      1.0  0.97237  0.03531  0.41585  1.0000
  C  Sn56      1.0  0.98454  0.05815  0.29948  1.0000
  O  Te53      1.0  0.98263  0.09848  0.15262  1.0000
  O  Te54      1.0  0.90758  0.04148  0.55499  1.0000
  O  Te55      1.0  0.93503  0.00653  0.61760  1.0000
  O  Te56      1.0  0.01009  0.06356  0.21517  1.0000
  Mg  Mg27      1.0  0.89993  0.00777  0.70097  1.0000
  Mg  Mg28      1.0  0.01777  0.09727  0.06923  1.0000
  C  Sn57      1.0  0.97633  0.91080  0.42368  1.0000
  C   C149      1.0  0.96995  0.93139  0.35001  1.0000
  C  Sn58      1.0  0.94104  0.92254  0.29771  1.0000
  C  Sn59      1.0  0.91802  0.89249  0.31960  1.0000
  C   C150      1.0  0.92440  0.87192  0.39325  1.0000
  C  Sn60      1.0  0.95331  0.88075  0.44557  1.0000
  O  Te57      1.0  0.00540  0.92014  0.47504  1.0000
  O  Te58      1.0  0.93521  0.94353  0.22433  1.0000
  O  Te59      1.0  0.88894  0.88316  0.26816  1.0000
  O  Te60      1.0  0.95915  0.85978  0.51893  1.0000
  Mg  Mg29      1.0  0.89208  0.92001  0.17486  1.0000
  Mg  Mg30      1.0  0.00227  0.88328  0.56852  1.0000
  C  Sn61      1.0  0.42263  0.22134  0.55214  1.0000
  C   C151      1.0  0.40104  0.19265  0.60246  1.0000
  C  Sn62      1.0  0.40814  0.17693  0.71561  1.0000
  C  Sn63      1.0  0.43740  0.19016  0.77989  1.0000
  C   C152      1.0  0.45896  0.21882  0.72960  1.0000
  C  Sn64      1.0  0.45189  0.23456  0.61642  1.0000
  O  Te61      1.0  0.41504  0.23664  0.43890  1.0000
  O  Te62      1.0  0.38618  0.14828  0.76402  1.0000
  O  Te63      1.0  0.44498  0.17482  0.89321  1.0000
  O  Te64      1.0  0.47382  0.26320  0.56804  1.0000
  Mg  Mg31      1.0  0.40736  0.13638  0.92129  1.0000
  Mg  Mg32      1.0  0.45267  0.27512  0.41085  1.0000
  C  Sn65      1.0  0.81761  0.25089  0.69157  1.0000
  C   C153      1.0  0.78847  0.24348  0.65151  1.0000
  C  Sn66      1.0  0.76705  0.21399  0.61804  1.0000
  C  Sn67      1.0  0.77491  0.19141  0.62485  1.0000
  C   C154      1.0  0.80402  0.19882  0.66491  1.0000
  C  Sn68      1.0  0.82546  0.22831  0.69838  1.0000
  O  Te65      1.0  0.83866  0.28052  0.72458  1.0000
  O  Te66      1.0  0.73807  0.20713  0.57822  1.0000
  O  Te67      1.0  0.75383  0.16177  0.59179  1.0000
  O  Te68      1.0  0.85443  0.23517  0.73820  1.0000
  Mg  Mg33      1.0  0.71729  0.16353  0.54335  1.0000
  Mg  Mg34      1.0  0.87522  0.27876  0.77317  1.0000
  C  Sn69      1.0  0.75162  0.56610  0.71277  1.0000
  C   C155      1.0  0.75836  0.54421  0.66849  1.0000
  C  Sn70      1.0  0.78753  0.55205  0.62711  1.0000
  C  Sn71      1.0  0.81044  0.58240  0.63013  1.0000
  C   C156      1.0  0.80370  0.60428  0.67441  1.0000
  C  Sn72      1.0  0.77453  0.59646  0.71579  1.0000
  O  Te69      1.0  0.72231  0.55775  0.75369  1.0000
  O  Te70      1.0  0.79373  0.52976  0.58320  1.0000
  O  Te71      1.0  0.83977  0.59074  0.58916  1.0000
  O  Te72      1.0  0.76834  0.61872  0.75971  1.0000
  Mg  Mg35      1.0  0.83710  0.55228  0.53765  1.0000
  Mg  Mg36      1.0  0.72497  0.59623  0.80535  1.0000
  C  Sn73      1.0  0.58032  0.30950  0.80954  1.0000
  C   C157      1.0  0.59866  0.30037  0.73691  1.0000
  C  Sn74      1.0  0.58744  0.27883  0.61644  1.0000
  C  Sn75      1.0  0.55726  0.26617  0.56745  1.0000
  C   C158      1.0  0.53894  0.27531  0.64003  1.0000
  C  Sn76      1.0  0.55014  0.29684  0.76055  1.0000
  O  Te73      1.0  0.59201  0.33106  0.92973  1.0000
  O  Te74      1.0  0.60621  0.27005  0.54564  1.0000
  O  Te75      1.0  0.54558  0.24459  0.44715  1.0000
  O  Te76      1.0  0.53139  0.30563  0.83130  1.0000
  Mg  Mg37      1.0  0.57994  0.23994  0.38692  1.0000
  Mg  Mg38      1.0  0.55763  0.33574  0.98996  1.0000
  C  Sn77      1.0  0.68829  0.25117  0.72850  1.0000
  C   C159      1.0  0.71506  0.25779  0.65339  1.0000
  C  Sn78      1.0  0.73517  0.28691  0.60234  1.0000
  C  Sn79      1.0  0.72840  0.30992  0.62697  1.0000
  C   C160      1.0  0.70165  0.30330  0.70206  1.0000
  C  Sn80      1.0  0.68152  0.27418  0.75313  1.0000
  O  Te77      1.0  0.66851  0.22190  0.77857  1.0000
  O  Te78      1.0  0.76178  0.29298  0.52747  1.0000
  O  Te79      1.0  0.74820  0.33921  0.57682  1.0000
  O  Te80      1.0  0.65492  0.26811  0.82798  1.0000
  Mg  Mg39      1.0  0.78157  0.33635  0.48065  1.0000
  Mg  Mg40      1.0  0.63512  0.22475  0.87492  1.0000
  C  Sn81      1.0  0.69851  0.42214  0.57062  1.0000
  C   C161      1.0  0.70445  0.40117  0.64337  1.0000
  C  Sn82      1.0  0.72633  0.40984  0.76267  1.0000
  C  Sn83      1.0  0.74259  0.44010  0.81035  1.0000
  C   C162      1.0  0.73664  0.46104  0.73764  1.0000
  C  Sn84      1.0  0.71477  0.45240  0.61829  1.0000
  O  Te81      1.0  0.67655  0.41298  0.45161  1.0000
  O  Te82      1.0  0.73187  0.38848  0.83362  1.0000
  O  Te83      1.0  0.76457  0.44925  0.92946  1.0000
  O  Te84      1.0  0.70922  0.47374  0.54739  1.0000
  Mg  Mg41      1.0  0.76398  0.41188  0.99042  1.0000
  Mg  Mg42      1.0  0.67711  0.45036  0.39064  1.0000
  C  Sn85      1.0  0.08723  0.06498  0.93576  1.0000
  C   C163      1.0  0.06726  0.03793  0.86367  1.0000
  C  Sn86      1.0  0.07644  0.01773  0.82182  1.0000
  C  Sn87      1.0  0.10619  0.02471  0.85277  1.0000
  C   C164      1.0  0.12613  0.05175  0.92484  1.0000
  C  Sn88      1.0  0.11698  0.07196  0.96671  1.0000
  O  Te85      1.0  0.07756  0.08483  0.97659  1.0000
  O  Te86      1.0  0.55759  0.99084  0.74982  1.0000
  O  Te87      1.0  0.11584  0.00483  0.81186  1.0000
  O  Te88      1.0  0.13773  0.10123  0.03869  1.0000
  Mg  Mg43      1.0  0.58135  0.97105  0.71628  1.0000
  Mg  Mg44      1.0  0.11400  0.12103  0.07236  1.0000
  C  Sn89      1.0  0.98520  0.07180  0.84599  1.0000
  C   C165      1.0  0.97522  0.04337  0.91200  1.0000
  C  Sn90      1.0  0.94602  0.02630  0.96958  1.0000
  C  Sn91      1.0  0.92638  0.03788  0.96090  1.0000
  C   C166      1.0  0.93635  0.06629  0.89489  1.0000
  C  Sn92      1.0  0.96555  0.08338  0.83731  1.0000
  O  Te89      1.0  0.01448  0.08848  0.78916  1.0000
  O  Te90      1.0  0.93698  0.00033  0.03511  1.0000
  O  Te91      1.0  0.89749  0.02357  0.01781  1.0000
  O  Te92      1.0  0.97501  0.11173  0.77179  1.0000
  Mg  Mg45      1.0  0.39655  0.98615  0.09648  1.0000
  Mg  Mg46      1.0  0.01695  0.12592  0.71030  1.0000
  C  Sn93      1.0  0.92631  0.91483  0.83202  1.0000
  C   C167      1.0  0.95474  0.93253  0.89719  1.0000
  C  Sn94      1.0  0.97166  0.91971  0.94710  1.0000
  C  Sn95      1.0  0.95992  0.88857  0.93145  1.0000
  C   C168      1.0  0.93150  0.87089  0.86628  1.0000
  C  Sn96      1.0  0.91456  0.88368  0.81636  1.0000
  O  Te93      1.0  0.90979  0.92811  0.78291  1.0000
  O  Te94      1.0  0.00044  0.94026  0.01195  1.0000
  O  Te95      1.0  0.97646  0.87529  0.98063  1.0000
  O  Te96      1.0  0.88621  0.86555  0.75152  1.0000
  Mg  Mg47      1.0  0.01437  0.91175  0.06150  1.0000
  Mg  Mg48      1.0  0.87227  0.89403  0.70186  1.0000
