data_image0
_chemical_formula_structural       H176C174N36C2Sn2C2HTe2HMgC2Sn2C2HTe2HMgC2Sn2C2HTe2HMgC2Sn2C2HTe2HMgC2Sn2C2HTe2HMgC2Sn2C2HTe2HMgC2Sn2C2HTe2HMgC2Sn2C2HTe2HMgC2Sn2C2HTe2HMgC2Sn2C2HTe2HMgC2Sn2C2HTe2HMgC2Sn2C2HTe2HMgC2Sn2C2HTe2HMgC2Sn2C2HTe2HMgC2Sn2C2HTe2HMgC2Sn2C2HTe2HMg
_chemical_formula_sum              "H208 C238 N36 Sn32 Te32 Mg16"
_cell_length_a       51.296
_cell_length_b       51.1751
_cell_length_c       8.2163
_cell_angle_alpha    90.8329
_cell_angle_beta     90.4982
_cell_angle_gamma    120.203

_symmetry_space_group_name_H-M    'P1'
_space_group_IT_number       1

loop_
  _space_group_symop_operation_xyz
  'x, y, z'

loop_
  _atom_site_type_symbol
  _atom_site_label
  _atom_site_symmetry_multiplicity
  _atom_site_fract_x
  _atom_site_fract_y
  _atom_site_fract_z
  _atom_site_occupancy
  H   H1        1.0  0.30690  0.12110  0.04113  1.0000
  H   H2        1.0  0.88049  0.18712  0.03216  1.0000
  H   H3        1.0  0.81523  0.69236  0.01691  1.0000
  H   H4        1.0  0.36026  0.14327  0.11909  1.0000
  H   H5        1.0  0.85972  0.21925  0.10809  1.0000
  H   H6        1.0  0.78313  0.63960  0.09042  1.0000
  H   H7        1.0  0.28684  0.19785  0.31214  1.0000
  H   H8        1.0  0.80681  0.09356  0.32885  1.0000
  H   H9        1.0  0.90905  0.71404  0.33473  1.0000
  H   H10       1.0  0.35110  0.26254  0.01530  1.0000
  H   H11       1.0  0.73691  0.08776  0.00466  1.0000
  H   H12       1.0  0.91230  0.65035  0.01933  1.0000
  H   H13       1.0  0.91710  0.73074  0.09756  1.0000
  H   H14       1.0  0.83641  0.05335  0.49384  1.0000
  H   H15       1.0  0.94665  0.78386  0.49884  1.0000
  H   H16       1.0  0.86953  0.79263  0.98946  1.0000
  H   H17       1.0  0.83795  0.73963  0.07665  1.0000
  H   H18       1.0  0.39163  0.15274  0.35671  1.0000
  H   H19       1.0  0.75957  0.60823  0.33030  1.0000
  H   H20       1.0  0.44602  0.17401  0.42537  1.0000
  H   H21       1.0  0.72794  0.55461  0.41016  1.0000
  H   H22       1.0  0.46409  0.26213  0.28721  1.0000
  H   H23       1.0  0.79913  0.53757  0.28271  1.0000
  H   H24       1.0  0.40922  0.24088  0.22152  1.0000
  H   H25       1.0  0.83126  0.59171  0.20522  1.0000
  H   H26       1.0  0.16765  0.11784  0.41922  1.0000
  H   H27       1.0  0.87928  0.04859  0.42331  1.0000
  H   H28       1.0  0.95088  0.83119  0.42404  1.0000
  H   H29       1.0  0.49750  0.21589  0.43830  1.0000
  H   H30       1.0  0.78720  0.28286  0.45445  1.0000
  H   H31       1.0  0.72002  0.50443  0.44113  1.0000
  H   H32       1.0  0.31626  0.26134  0.25378  1.0000
  H   H33       1.0  0.94243  0.68281  0.26036  1.0000
  H   H34       1.0  0.99610  0.06901  0.20292  1.0000
  H   H35       1.0  0.92692  0.92575  0.19634  1.0000
  H   H36       1.0  0.97131  0.09925  0.24990  1.0000
  H   H37       1.0  0.89837  0.87023  0.23718  1.0000
  H   H38       1.0  0.76191  0.30397  0.30789  1.0000
  H   H39       1.0  0.69619  0.45577  0.29942  1.0000
  H   H40       1.0  0.73633  0.33358  0.34019  1.0000
  H   H41       1.0  0.66719  0.40068  0.33692  1.0000
  H   H42       1.0  0.59698  0.33349  0.13694  1.0000
  H   H43       1.0  0.66718  0.26348  0.15202  1.0000
  H   H44       1.0  0.73736  0.40521  0.14817  1.0000
  H   H45       1.0  0.54171  0.30949  0.09056  1.0000
  H   H46       1.0  0.69094  0.23195  0.10631  1.0000
  H   H47       1.0  0.76871  0.46023  0.10143  1.0000
  H   H48       1.0  0.02513  0.05498  0.33801  1.0000
  H   H49       1.0  0.94138  0.97048  0.33683  1.0000
  H   H50       1.0  0.02540  0.97115  0.34011  1.0000
  H   H51       1.0  0.64068  0.27759  0.48932  1.0000
  H   H52       1.0  0.72451  0.36204  0.50334  1.0000
  H   H53       1.0  0.64039  0.36132  0.48825  1.0000
  H   H54       1.0  0.31207  0.31478  0.26086  1.0000
  H   H55       1.0  0.68886  0.00341  0.22987  1.0000
  H   H56       1.0  0.99677  0.68302  0.25414  1.0000
  H   H57       1.0  0.32136  0.33399  0.45031  1.0000
  H   H58       1.0  0.26591  0.30397  0.40099  1.0000
  H   H59       1.0  0.69491  0.96548  0.38051  1.0000
  H   H60       1.0  0.03601  0.72722  0.40716  1.0000
  H   H61       1.0  0.27942  0.29526  0.07719  1.0000
  H   H62       1.0  0.70644  0.98327  0.06261  1.0000
  H   H63       1.0  0.01709  0.71990  0.08684  1.0000
  H   H64       1.0  0.26113  0.25935  0.25120  1.0000
  H   H65       1.0  0.74144  0.00393  0.24612  1.0000
  H   H66       1.0  0.24034  0.24697  0.43085  1.0000
  H   H67       1.0  0.75170  0.99482  0.43271  1.0000
  H   H68       1.0  0.00860  0.75647  0.45606  1.0000
  H   H69       1.0  0.28241  0.24573  0.07054  1.0000
  H   H70       1.0  0.75536  0.03661  0.06433  1.0000
  H   H71       1.0  0.96548  0.71892  0.08081  1.0000
  H   H72       1.0  0.27159  0.22291  0.38982  1.0000
  H   H73       1.0  0.40089  0.32017  0.26971  1.0000
  H   H74       1.0  0.68671  0.08833  0.23395  1.0000
  H   H75       1.0  0.91124  0.59785  0.24054  1.0000
  H   H76       1.0  0.37134  0.28225  0.27883  1.0000
  H   H77       1.0  0.72369  0.09443  0.25363  1.0000
  H   H78       1.0  0.90714  0.63011  0.25230  1.0000
  H   H79       1.0  0.38969  0.30282  0.46138  1.0000
  H   H80       1.0  0.70429  0.09583  0.42877  1.0000
  H   H81       1.0  0.90324  0.60914  0.42978  1.0000
  H   H82       1.0  0.39775  0.35972  0.33739  1.0000
  H   H83       1.0  0.64545  0.04747  0.31032  1.0000
  H   H84       1.0  0.95082  0.59570  0.33752  1.0000
  H   H85       1.0  0.38286  0.34891  0.53676  1.0000
  H   H86       1.0  0.65681  0.04461  0.51194  1.0000
  H   H87       1.0  0.95315  0.61104  0.53800  1.0000
  H   H88       1.0  0.36394  0.35885  0.38802  1.0000
  H   H89       1.0  0.64435  0.01391  0.36914  1.0000
  H   H90       1.0  0.98458  0.62800  0.40608  1.0000
  H   H91       1.0  0.30429  0.11748  0.56179  1.0000
  H   H92       1.0  0.87620  0.18525  0.53684  1.0000
  H   H93       1.0  0.81548  0.69193  0.53033  1.0000
  H   H94       1.0  0.35819  0.14048  0.62992  1.0000
  H   H95       1.0  0.85367  0.21595  0.61230  1.0000
  H   H96       1.0  0.78459  0.63881  0.59987  1.0000
  H   H97       1.0  0.28566  0.19621  0.81735  1.0000
  H   H98       1.0  0.80507  0.09088  0.83561  1.0000
  H   H99       1.0  0.91001  0.71517  0.84410  1.0000
  H   H100      1.0  0.35141  0.26385  0.51715  1.0000
  H   H101      1.0  0.74108  0.09276  0.50966  1.0000
  H   H102      1.0  0.90921  0.64929  0.52374  1.0000
  H   H103      1.0  0.81397  0.08358  0.58753  1.0000
  H   H104      1.0  0.91712  0.73146  0.59422  1.0000
  H   H105      1.0  0.94804  0.78319  0.00844  1.0000
  H   H106      1.0  0.92439  0.13282  0.50826  1.0000
  H   H107      1.0  0.86720  0.79179  0.50250  1.0000
  H   H108      1.0  0.90212  0.16354  0.60286  1.0000
  H   H109      1.0  0.83738  0.73932  0.60146  1.0000
  H   H110      1.0  0.39113  0.15251  0.86842  1.0000
  H   H111      1.0  0.44548  0.17519  0.94099  1.0000
  H   H112      1.0  0.46237  0.26128  0.77251  1.0000
  H   H113      1.0  0.40753  0.23867  0.70246  1.0000
  H   H114      1.0  0.16764  0.11997  0.95220  1.0000
  H   H115      1.0  0.87762  0.04591  0.94208  1.0000
  H   H116      1.0  0.95368  0.83163  0.93337  1.0000
  H   H117      1.0  0.49678  0.21721  0.94255  1.0000
  H   H118      1.0  0.78234  0.27884  0.95877  1.0000
  H   H119      1.0  0.72090  0.50326  0.92406  1.0000
  H   H120      1.0  0.31654  0.26125  0.75154  1.0000
  H   H121      1.0  0.73857  0.05439  0.74424  1.0000
  H   H122      1.0  0.94533  0.68352  0.75873  1.0000
  H   H123      1.0  0.33618  0.30001  0.56523  1.0000
  H   H124      1.0  0.70246  0.04074  0.54445  1.0000
  H   H125      1.0  0.90494  0.02841  0.54230  1.0000
  H   H126      1.0  0.97079  0.87802  0.53984  1.0000
  H   H127      1.0  0.93003  0.99876  0.50054  1.0000
  H   H128      1.0  0.99873  0.93303  0.50315  1.0000
  H   H129      1.0  0.54313  0.24178  0.78174  1.0000
  H   H130      1.0  0.75832  0.30156  0.81344  1.0000
  H   H131      1.0  0.69924  0.45586  0.78644  1.0000
  H   H132      1.0  0.59834  0.26632  0.82190  1.0000
  H   H133      1.0  0.73417  0.33238  0.85252  1.0000
  H   H134      1.0  0.66883  0.40089  0.82473  1.0000
  H   H135      1.0  0.66959  0.26402  0.63755  1.0000
  H   H136      1.0  0.73930  0.40629  0.63485  1.0000
  H   H137      1.0  0.69474  0.23381  0.59929  1.0000
  H   H138      1.0  0.76912  0.46154  0.58895  1.0000
  H   H139      1.0  0.02603  0.05546  0.84731  1.0000
  H   H140      1.0  0.94343  0.96981  0.84790  1.0000
  H   H141      1.0  0.02864  0.97285  0.84312  1.0000
  H   H142      1.0  0.63842  0.27742  0.00114  1.0000
  H   H143      1.0  0.72293  0.36114  0.01642  1.0000
  H   H144      1.0  0.63961  0.36185  0.98611  1.0000
  H   H145      1.0  0.31437  0.31575  0.75882  1.0000
  H   H146      1.0  0.68535  0.99719  0.74106  1.0000
  H   H147      1.0  0.00074  0.68457  0.76106  1.0000
  H   H148      1.0  0.26865  0.30627  0.89915  1.0000
  H   H149      1.0  0.69541  0.96119  0.88230  1.0000
  H   H150      1.0  0.03886  0.72988  0.91029  1.0000
  H   H151      1.0  0.27726  0.29363  0.57912  1.0000
  H   H152      1.0  0.01471  0.71654  0.58526  1.0000
  H   H153      1.0  0.24159  0.24923  0.92961  1.0000
  H   H154      1.0  0.75238  0.99239  0.92116  1.0000
  H   H155      1.0  0.01062  0.75859  0.94439  1.0000
  H   H156      1.0  0.28164  0.24438  0.57129  1.0000
  H   H157      1.0  0.75624  0.04009  0.56865  1.0000
  H   H158      1.0  0.96291  0.71690  0.58629  1.0000
  H   H159      1.0  0.40179  0.31817  0.76564  1.0000
  H   H160      1.0  0.68123  0.08038  0.73803  1.0000
  H   H161      1.0  0.91477  0.59889  0.74935  1.0000
  H   H162      1.0  0.37171  0.28059  0.77856  1.0000
  H   H163      1.0  0.71867  0.08773  0.75633  1.0000
  H   H164      1.0  0.90963  0.63048  0.76526  1.0000
  H   H165      1.0  0.39086  0.30144  0.95893  1.0000
  H   H166      1.0  0.69921  0.08885  0.93241  1.0000
  H   H167      1.0  0.90783  0.61000  0.94168  1.0000
  H   H168      1.0  0.40006  0.35856  0.83640  1.0000
  H   H169      1.0  0.64084  0.03881  0.82711  1.0000
  H   H170      1.0  0.95529  0.59804  0.83588  1.0000
  H   H171      1.0  0.38438  0.34836  0.03420  1.0000
  H   H172      1.0  0.65453  0.03774  0.02619  1.0000
  H   H173      1.0  0.95696  0.61233  0.03805  1.0000
  H   H174      1.0  0.36655  0.35866  0.88085  1.0000
  H   H175      1.0  0.64175  0.00632  0.88757  1.0000
  H   H176      1.0  0.98865  0.63029  0.90835  1.0000
  C   C1        1.0  0.31782  0.14197  0.11356  1.0000
  C   C2        1.0  0.86011  0.17754  0.10370  1.0000
  C   C3        1.0  0.82467  0.68204  0.09442  1.0000
  C   C4        1.0  0.34826  0.15474  0.15718  1.0000
  C   C5        1.0  0.84808  0.19581  0.14551  1.0000
  C   C6        1.0  0.80637  0.65178  0.13526  1.0000
  C   C7        1.0  0.36464  0.18265  0.24209  1.0000
  C   C8        1.0  0.82064  0.18485  0.22762  1.0000
  C   C9        1.0  0.81721  0.63572  0.22387  1.0000
  C   C10       1.0  0.34854  0.19739  0.28333  1.0000
  C   C11       1.0  0.80601  0.15415  0.26994  1.0000
  C   C12       1.0  0.84780  0.65223  0.27347  1.0000
  C   C13       1.0  0.31767  0.18396  0.23709  1.0000
  C   C14       1.0  0.81898  0.13617  0.22950  1.0000
  C   C15       1.0  0.86589  0.68310  0.23257  1.0000
  C   C16       1.0  0.30123  0.15628  0.15236  1.0000
  C   C17       1.0  0.84580  0.14662  0.14320  1.0000
  C   C18       1.0  0.85551  0.69908  0.14085  1.0000
  C   C19       1.0  0.33326  0.22668  0.38130  1.0000
  C   C20       1.0  0.77714  0.11047  0.37302  1.0000
  C   C21       1.0  0.89160  0.66745  0.38333  1.0000
  C   C22       1.0  0.87477  0.73068  0.09312  1.0000
  C   C23       1.0  0.39672  0.19535  0.28428  1.0000
  C   C24       1.0  0.79778  0.60375  0.26452  1.0000
  C   C25       1.0  0.90630  0.74401  0.07485  1.0000
  C   C26       1.0  0.92386  0.77367  0.02383  1.0000
  C   C27       1.0  0.91084  0.79160  0.99213  1.0000
  C   C28       1.0  0.87949  0.77859  0.01189  1.0000
  C   C29       1.0  0.86202  0.74898  0.06024  1.0000
  C   C30       1.0  0.40753  0.17665  0.34033  1.0000
  C   C31       1.0  0.76820  0.59275  0.31890  1.0000
  C   C32       1.0  0.43799  0.18859  0.37880  1.0000
  C   C33       1.0  0.75051  0.56271  0.36385  1.0000
  C   C34       1.0  0.45855  0.21959  0.36095  1.0000
  C   C35       1.0  0.76178  0.54273  0.35409  1.0000
  C   C36       1.0  0.44783  0.23828  0.30274  1.0000
  C   C37       1.0  0.79098  0.55345  0.29378  1.0000
  C   C38       1.0  0.41745  0.22644  0.26655  1.0000
  C   C39       1.0  0.80869  0.58342  0.25101  1.0000
  C   C40       1.0  0.17490  0.10170  0.45339  1.0000
  C   C41       1.0  0.89518  0.07292  0.44373  1.0000
  C   C42       1.0  0.92661  0.82251  0.44002  1.0000
  C   C43       1.0  0.49038  0.23208  0.40297  1.0000
  C   C44       1.0  0.77109  0.25914  0.41982  1.0000
  C   C45       1.0  0.74325  0.51152  0.40512  1.0000
  C   C46       1.0  0.31543  0.26362  0.38676  1.0000
  C   C47       1.0  0.33146  0.29776  0.43240  1.0000
  C   C48       1.0  0.93587  0.06571  0.39503  1.0000
  C   C49       1.0  0.93282  0.87004  0.38681  1.0000
  C   C50       1.0  0.73033  0.26695  0.45389  1.0000
  C   C51       1.0  0.73475  0.46260  0.44290  1.0000
  C   C52       1.0  0.92413  0.03679  0.46190  1.0000
  C   C53       1.0  0.96169  0.88816  0.45847  1.0000
  C   C54       1.0  0.93850  0.02013  0.43884  1.0000
  C   C55       1.0  0.97739  0.91929  0.43817  1.0000
  C   C56       1.0  0.96503  0.03150  0.34821  1.0000
  C   C57       1.0  0.96514  0.93362  0.34601  1.0000
  C   C58       1.0  0.97632  0.06016  0.27912  1.0000
  C   C59       1.0  0.93649  0.91536  0.27268  1.0000
  C   C60       1.0  0.96236  0.07714  0.30374  1.0000
  C   C61       1.0  0.92049  0.88426  0.29402  1.0000
  C   C62       1.0  0.74235  0.29575  0.38534  1.0000
  C   C63       1.0  0.70530  0.44513  0.37721  1.0000
  C   C64       1.0  0.72782  0.31236  0.40345  1.0000
  C   C65       1.0  0.68899  0.41397  0.39838  1.0000
  C   C66       1.0  0.70101  0.30115  0.49125  1.0000
  C   C67       1.0  0.70105  0.39910  0.48734  1.0000
  C   C68       1.0  0.58531  0.31365  0.05693  1.0000
  C   C69       1.0  0.68690  0.27168  0.07576  1.0000
  C   C70       1.0  0.72911  0.41615  0.06684  1.0000
  C   C71       1.0  0.55434  0.30021  0.03245  1.0000
  C   C72       1.0  0.70016  0.25403  0.05177  1.0000
  C   C73       1.0  0.74666  0.44704  0.04255  1.0000
  C   C74       1.0  0.02937  0.01508  0.33736  1.0000
  C   C75       1.0  0.98140  0.01467  0.33540  1.0000
  C   C76       1.0  0.98150  0.96691  0.33512  1.0000
  C   C77       1.0  0.63664  0.31754  0.49079  1.0000
  C   C78       1.0  0.68453  0.31792  0.49899  1.0000
  C   C79       1.0  0.68445  0.36576  0.49765  1.0000
  C   C80       1.0  0.01308  0.03038  0.33483  1.0000
  C   C81       1.0  0.96591  0.98292  0.33416  1.0000
  C   C82       1.0  0.01313  0.98334  0.33617  1.0000
  C   C83       1.0  0.65285  0.30218  0.49417  1.0000
  C   C84       1.0  0.69997  0.34967  0.50180  1.0000
  C   C85       1.0  0.65281  0.34928  0.49342  1.0000
  C   C86       1.0  0.31121  0.31139  0.39295  1.0000
  C   C87       1.0  0.27834  0.29310  0.44565  1.0000
  C   C88       1.0  0.26337  0.26030  0.38468  1.0000
  C   C89       1.0  0.28210  0.24625  0.43820  1.0000
  C   C90       1.0  0.38120  0.30443  0.33981  1.0000
  C   C91       1.0  0.70162  0.08391  0.31088  1.0000
  C   C92       1.0  0.91615  0.61768  0.31668  1.0000
  C   C93       1.0  0.37687  0.34738  0.40607  1.0000
  C   C94       1.0  0.65725  0.03860  0.38263  1.0000
  C   C95       1.0  0.95991  0.61675  0.41016  1.0000
  C   C96       1.0  0.31572  0.13922  0.62622  1.0000
  C   C97       1.0  0.85606  0.17527  0.61039  1.0000
  C   C98       1.0  0.82545  0.68176  0.60515  1.0000
  C   C99       1.0  0.34641  0.15233  0.66538  1.0000
  C   C100      1.0  0.84304  0.19267  0.65182  1.0000
  C   C101      1.0  0.80789  0.65131  0.64361  1.0000
  C   C102      1.0  0.36328  0.18097  0.74236  1.0000
  C   C103      1.0  0.81566  0.18093  0.73503  1.0000
  C   C104      1.0  0.81943  0.63547  0.72838  1.0000
  C   C105      1.0  0.34729  0.19591  0.78130  1.0000
  C   C106      1.0  0.80193  0.15029  0.77716  1.0000
  C   C107      1.0  0.85011  0.65250  0.77646  1.0000
  C   C108      1.0  0.31624  0.18229  0.73867  1.0000
  C   C109      1.0  0.81595  0.13322  0.73774  1.0000
  C   C110      1.0  0.86742  0.68363  0.73911  1.0000
  C   C111      1.0  0.29936  0.15398  0.66054  1.0000
  C   C112      1.0  0.84289  0.14453  0.65136  1.0000
  C   C113      1.0  0.85625  0.69933  0.65099  1.0000
  C   C114      1.0  0.33241  0.22561  0.87765  1.0000
  C   C115      1.0  0.77385  0.10617  0.87723  1.0000
  C   C116      1.0  0.89433  0.66861  0.88365  1.0000
  C   C117      1.0  0.85617  0.12611  0.60142  1.0000
  C   C118      1.0  0.87469  0.73098  0.60266  1.0000
  C   C119      1.0  0.39553  0.19414  0.78249  1.0000
  C   C120      1.0  0.83823  0.09461  0.57176  1.0000
  C   C121      1.0  0.90596  0.74452  0.57546  1.0000
  C   C122      1.0  0.85084  0.07755  0.51808  1.0000
  C   C123      1.0  0.92260  0.77400  0.52054  1.0000
  C   C124      1.0  0.88207  0.09115  0.49388  1.0000
  C   C125      1.0  0.90881  0.79135  0.49210  1.0000
  C   C126      1.0  0.90019  0.12250  0.52510  1.0000
  C   C127      1.0  0.87772  0.77816  0.52175  1.0000
  C   C128      1.0  0.88756  0.13947  0.57720  1.0000
  C   C129      1.0  0.86120  0.74881  0.57577  1.0000
  C   C130      1.0  0.40672  0.17632  0.84694  1.0000
  C   C131      1.0  0.43721  0.18905  0.88740  1.0000
  C   C132      1.0  0.45744  0.21992  0.86293  1.0000
  C   C133      1.0  0.44638  0.23762  0.79481  1.0000
  C   C134      1.0  0.41597  0.22503  0.75635  1.0000
  C   C135      1.0  0.17585  0.10398  0.96774  1.0000
  C   C136      1.0  0.89378  0.07041  0.94900  1.0000
  C   C137      1.0  0.92932  0.82299  0.94513  1.0000
  C   C138      1.0  0.48928  0.23312  0.90738  1.0000
  C   C139      1.0  0.76599  0.25541  0.92061  1.0000
  C   C140      1.0  0.74471  0.51076  0.89965  1.0000
  C   C141      1.0  0.53850  0.27364  0.93630  1.0000
  C   C142      1.0  0.72642  0.26473  0.95925  1.0000
  C   C143      1.0  0.73597  0.46212  0.94457  1.0000
  C   C144      1.0  0.55479  0.26123  0.86430  1.0000
  C   C145      1.0  0.73905  0.29374  0.89288  1.0000
  C   C146      1.0  0.70712  0.44504  0.87098  1.0000
  C   C147      1.0  0.58596  0.27521  0.88677  1.0000
  C   C148      1.0  0.72527  0.31101  0.91471  1.0000
  C   C149      1.0  0.68999  0.41395  0.89259  1.0000
  C   C150      1.0  0.60188  0.30176  0.98264  1.0000
  C   C151      1.0  0.69872  0.30023  0.00448  1.0000
  C   C152      1.0  0.70062  0.39878  0.99003  1.0000
  C   C153      1.0  0.68960  0.27271  0.56324  1.0000
  C   C154      1.0  0.73002  0.41693  0.55835  1.0000
  C   C155      1.0  0.70365  0.25572  0.54315  1.0000
  C   C156      1.0  0.74674  0.44790  0.53434  1.0000
  C   C157      1.0  0.03117  0.01618  0.84310  1.0000
  C   C158      1.0  0.98264  0.01450  0.84500  1.0000
  C   C159      1.0  0.98417  0.96747  0.84280  1.0000
  C   C160      1.0  0.63513  0.31779  0.99783  1.0000
  C   C161      1.0  0.68258  0.31734  0.01131  1.0000
  C   C162      1.0  0.68332  0.36552  0.00323  1.0000
  C   C163      1.0  0.01431  0.03087  0.84392  1.0000
  C   C164      1.0  0.96792  0.98281  0.84363  1.0000
  C   C165      1.0  0.01577  0.98445  0.84118  1.0000
  C   C166      1.0  0.65091  0.30202  0.00508  1.0000
  C   C167      1.0  0.69840  0.34905  0.01279  1.0000
  C   C168      1.0  0.65168  0.34951  0.99655  1.0000
  C   C169      1.0  0.38215  0.30297  0.83774  1.0000
  C   C170      1.0  0.69673  0.07681  0.81512  1.0000
  C   C171      1.0  0.91969  0.61869  0.82582  1.0000
  C   C172      1.0  0.37887  0.34667  0.90270  1.0000
  C   C173      1.0  0.65391  0.03107  0.89706  1.0000
  C   C174      1.0  0.96399  0.61876  0.91120  1.0000
  N   N1        1.0  0.35776  0.22437  0.37107  1.0000
  N   N2        1.0  0.77948  0.13721  0.35610  1.0000
  N   N3        1.0  0.86470  0.64301  0.36508  1.0000
  N   N4        1.0  0.30864  0.20348  0.29932  1.0000
  N   N5        1.0  0.79975  0.10803  0.29536  1.0000
  N   N6        1.0  0.89405  0.69223  0.30326  1.0000
  N   N7        1.0  0.33104  0.24907  0.46522  1.0000
  N   N8        1.0  0.75492  0.08643  0.45628  1.0000
  N   N9        1.0  0.91571  0.66944  0.47046  1.0000
  N   N10       1.0  0.36024  0.31600  0.34344  1.0000
  N   N11       1.0  0.68798  0.05104  0.32128  1.0000
  N   N12       1.0  0.94894  0.63575  0.33975  1.0000
  N   N13       1.0  0.15676  0.07279  0.44278  1.0000
  N   N14       1.0  0.92388  0.08450  0.42501  1.0000
  N   N15       1.0  0.91468  0.83918  0.41584  1.0000
  N   N16       1.0  0.50915  0.26081  0.40129  1.0000
  N   N17       1.0  0.74226  0.24812  0.42484  1.0000
  N   N18       1.0  0.75361  0.49318  0.40984  1.0000
  N   N19       1.0  0.35684  0.22323  0.86573  1.0000
  N   N20       1.0  0.77527  0.13250  0.86067  1.0000
  N   N21       1.0  0.86779  0.64372  0.86410  1.0000
  N   N22       1.0  0.30744  0.20216  0.79877  1.0000
  N   N23       1.0  0.79734  0.10485  0.80283  1.0000
  N   N24       1.0  0.89587  0.69337  0.80803  1.0000
  N   N25       1.0  0.33069  0.24823  0.96222  1.0000
  N   N26       1.0  0.75159  0.08180  0.95860  1.0000
  N   N27       1.0  0.91867  0.67074  0.96944  1.0000
  N   N28       1.0  0.36177  0.31526  0.84102  1.0000
  N   N29       1.0  0.68422  0.04414  0.82824  1.0000
  N   N30       1.0  0.95253  0.63752  0.84304  1.0000
  N   N31       1.0  0.15857  0.07526  0.94148  1.0000
  N   N32       1.0  0.92213  0.08162  0.92039  1.0000
  N   N33       1.0  0.91757  0.83977  0.91918  1.0000
  N   N34       1.0  0.50765  0.26195  0.90723  1.0000
  N   N35       1.0  0.73730  0.24512  0.92525  1.0000
  N   N36       1.0  0.75537  0.49277  0.91467  1.0000
  C   C175      1.0  0.82846  0.24117  0.35289  1.0000
  C   C176      1.0  0.81350  0.21140  0.29231  1.0000
  C  Sn1       1.0  0.78244  0.19641  0.26046  1.0000
  C  Sn2       1.0  0.76612  0.21157  0.28989  1.0000
  C   C177      1.0  0.78130  0.24137  0.35040  1.0000
  C   C178      1.0  0.81238  0.25615  0.38189  1.0000
  H   H177      1.0  0.85251  0.25261  0.37718  1.0000
  O  Te1       1.0  0.76785  0.16666  0.20001  1.0000
  O  Te2       1.0  0.73507  0.19713  0.25907  1.0000
  H   H178      1.0  0.82396  0.27920  0.42870  1.0000
  Mg  Mg1       1.0  0.72529  0.15656  0.17725  1.0000
  C   C179      1.0  0.99349  0.68039  0.92397  1.0000
  C   C180      1.0  0.00765  0.70430  0.81652  1.0000
  C  Sn3       1.0  0.99566  0.72302  0.78670  1.0000
  C  Sn4       1.0  0.96901  0.71764  0.86615  1.0000
  C   C181      1.0  0.95503  0.69367  0.97352  1.0000
  C   C182      1.0  0.96378  0.67101  0.00243  1.0000
  H   H179      1.0  0.00292  0.66601  0.94642  1.0000
  O  Te3       1.0  0.01008  0.74680  0.67894  1.0000
  O  Te4       1.0  0.95655  0.73600  0.83861  1.0000
  H   H180      1.0  0.95282  0.65251  0.08572  1.0000
  Mg  Mg2       1.0  0.98444  0.76556  0.68116  1.0000
  C   C183      1.0  0.84407  0.07776  0.03874  1.0000
  C   C184      1.0  0.87682  0.09005  0.99369  1.0000
  C  Sn5       1.0  0.89645  0.11619  0.00577  1.0000
  C  Sn6       1.0  0.88998  0.13851  0.06410  1.0000
  C   C185      1.0  0.86058  0.13004  0.10897  1.0000
  C   C186      1.0  0.83766  0.09975  0.09635  1.0000
  H   H181      1.0  0.82634  0.05432  0.02906  1.0000
  O  Te5       1.0  0.92905  0.12809  0.96019  1.0000
  O  Te6       1.0  0.91261  0.16886  0.07745  1.0000
  H   H182      1.0  0.81497  0.09338  0.13133  1.0000
  Mg  Mg3       1.0  0.94881  0.16834  0.00030  1.0000
  C   C187      1.0  0.25057  0.16245  0.05247  1.0000
  C   C188      1.0  0.26601  0.14820  0.10828  1.0000
  C  Sn7       1.0  0.25138  0.11668  0.11374  1.0000
  C  Sn8       1.0  0.22073  0.09916  0.06225  1.0000
  C   C189      1.0  0.20550  0.11363  0.00651  1.0000
  C   C190      1.0  0.22035  0.14519  0.00160  1.0000
  H   H183      1.0  0.26207  0.18686  0.04859  1.0000
  O  Te7       1.0  0.26713  0.10281  0.16989  1.0000
  O  Te8       1.0  0.20557  0.06762  0.06637  1.0000
  H   H184      1.0  0.21184  0.16028  0.95829  1.0000
  Mg  Mg4       1.0  0.23668  0.05917  0.15273  1.0000
  C   C191      1.0  0.23934  0.10252  0.61952  1.0000
  C   C192      1.0  0.26284  0.13247  0.61079  1.0000
  C  Sn9       1.0  0.25718  0.15487  0.55559  1.0000
  C  Sn10      1.0  0.22741  0.14708  0.50840  1.0000
  C   C193      1.0  0.20406  0.11706  0.51769  1.0000
  C   C194      1.0  0.20998  0.09482  0.57305  1.0000
  H   H185      1.0  0.24392  0.08532  0.66244  1.0000
  O  Te9       1.0  0.28092  0.18468  0.54757  1.0000
  O  Te10      1.0  0.22112  0.16902  0.45284  1.0000
  H   H186      1.0  0.19177  0.07164  0.57990  1.0000
  Mg  Mg5       1.0  0.26103  0.20652  0.46371  1.0000
  C   C195      1.0  0.10221  0.07423  0.46683  1.0000
  C   C196      1.0  0.12238  0.06448  0.42581  1.0000
  C  Sn11      1.0  0.11246  0.03781  0.33432  1.0000
  C  Sn12      1.0  0.08178  0.02063  0.28309  1.0000
  C   C197      1.0  0.06179  0.03058  0.32465  1.0000
  C   C198      1.0  0.07194  0.05730  0.41629  1.0000
  H   H187      1.0  0.11007  0.09491  0.53765  1.0000
  O  Te11      1.0  0.13291  0.02839  0.29445  1.0000
  O  Te12      1.0  0.57316  0.99389  0.19149  1.0000
  H   H188      1.0  0.05633  0.06485  0.44794  1.0000
  Mg  Mg6       1.0  0.60967  0.99040  0.16762  1.0000
  C   C199      1.0  0.75479  0.04339  0.40132  1.0000
  C   C200      1.0  0.74478  0.02098  0.51842  1.0000
  C  Sn13      1.0  0.21581  0.00187  0.54177  1.0000
  C  Sn14      1.0  0.69275  0.00531  0.44590  1.0000
  C   C201      1.0  0.70299  0.02779  0.32899  1.0000
  C   C202      1.0  0.73392  0.04679  0.30667  1.0000
  H   H189      1.0  0.77872  0.05808  0.38398  1.0000
  O  Te13      1.0  0.20619  0.97960  0.65933  1.0000
  O  Te14      1.0  0.16366  0.98651  0.46667  1.0000
  H   H190      1.0  0.74166  0.06413  0.21593  1.0000
  Mg  Mg7       1.0  0.16165  0.95951  0.64235  1.0000
  C   C203      1.0  0.18664  0.00496  0.90443  1.0000
  C   C204      1.0  0.69925  0.99133  0.79646  1.0000
  C  Sn15      1.0  0.22825  0.00478  0.76797  1.0000
  C  Sn16      1.0  0.24872  0.03240  0.84930  1.0000
  C   C205      1.0  0.23776  0.04584  0.95717  1.0000
  C   C206      1.0  0.20682  0.03219  0.98475  1.0000
  H   H191      1.0  0.66458  0.99439  0.92584  1.0000
  O  Te15      1.0  0.74046  0.99087  0.65966  1.0000
  O  Te16      1.0  0.27970  0.04632  0.82312  1.0000
  H   H192      1.0  0.19509  0.03867  0.06843  1.0000
  Mg  Mg8       1.0  0.28282  0.01861  0.66424  1.0000
  C   C207      1.0  0.31896  0.31233  0.92077  1.0000
  C   C208      1.0  0.29435  0.30180  0.81281  1.0000
  C  Sn17      1.0  0.27617  0.27085  0.77917  1.0000
  C  Sn18      1.0  0.28281  0.25010  0.85525  1.0000
  C   C209      1.0  0.30746  0.26085  0.96316  1.0000
  C   C210      1.0  0.32551  0.29188  0.99591  1.0000
  H   H193      1.0  0.33291  0.33633  0.94619  1.0000
  O  Te17      1.0  0.25168  0.26072  0.67095  1.0000
  O  Te18      1.0  0.26500  0.21904  0.82386  1.0000
  H   H194      1.0  0.34112  0.29595  0.07959  1.0000
  Mg  Mg9       1.0  0.23410  0.21626  0.66732  1.0000
  C   C211      1.0  0.92398  0.02763  0.97438  1.0000
  C   C212      1.0  0.93169  0.05632  0.91962  1.0000
  C  Sn19      1.0  0.95648  0.07200  0.81926  1.0000
  C  Sn20      1.0  0.97383  0.05865  0.77303  1.0000
  C   C213      1.0  0.96592  0.02992  0.82837  1.0000
  C   C214      1.0  0.94107  0.01444  0.92880  1.0000
  H   H195      1.0  0.90131  0.01157  0.05201  1.0000
  O  Te19      1.0  0.96388  0.10066  0.76569  1.0000
  O  Te20      1.0  0.99872  0.07382  0.67279  1.0000
  H   H196      1.0  0.43698  0.99221  0.97109  1.0000
  Mg  Mg10      1.0  0.99982  0.11237  0.63107  1.0000
  C   C215      1.0  0.56260  0.30542  0.54441  1.0000
  C   C216      1.0  0.54375  0.28082  0.44238  1.0000
  C  Sn21      1.0  0.55517  0.26480  0.35962  1.0000
  C  Sn22      1.0  0.58604  0.27362  0.37966  1.0000
  C   C217      1.0  0.60471  0.29824  0.48210  1.0000
  C   C218      1.0  0.59305  0.31412  0.56429  1.0000
  H   H197      1.0  0.55358  0.31770  0.60808  1.0000
  O  Te21      1.0  0.53602  0.24029  0.25811  1.0000
  O  Te22      1.0  0.59804  0.25799  0.29844  1.0000
  H   H198      1.0  0.60765  0.33316  0.64336  1.0000
  Mg  Mg11      1.0  0.56294  0.22613  0.17346  1.0000
  C   C219      1.0  0.10308  0.07388  0.99110  1.0000
  C   C220      1.0  0.12392  0.06617  0.93318  1.0000
  C  Sn23      1.0  0.11474  0.04189  0.82327  1.0000
  C  Sn24      1.0  0.08412  0.02507  0.77055  1.0000
  C   C221      1.0  0.06345  0.03298  0.82912  1.0000
  C   C222      1.0  0.07287  0.05731  0.93911  1.0000
  H   H199      1.0  0.10694  0.08864  0.07614  1.0000
  O  Te23      1.0  0.13586  0.03448  0.76667  1.0000
  O  Te24      1.0  0.57622  0.00071  0.66072  1.0000
  H   H200      1.0  0.05673  0.06328  0.98385  1.0000
  Mg  Mg12      1.0  0.61348  0.99938  0.61829  1.0000
  C   C223      1.0  0.92386  0.89175  0.78165  1.0000
  C   C224      1.0  0.93258  0.87362  0.86426  1.0000
  C  Sn25      1.0  0.95993  0.88677  0.95131  1.0000
  C  Sn26      1.0  0.97886  0.91868  0.95553  1.0000
  C   C225      1.0  0.96993  0.93663  0.87257  1.0000
  C   C226      1.0  0.94251  0.92323  0.78580  1.0000
  H   H201      1.0  0.90264  0.88139  0.71458  1.0000
  O  Te25      1.0  0.96487  0.86425  0.03312  1.0000
  O  Te26      1.0  0.00289  0.92835  0.04164  1.0000
  H   H202      1.0  0.93576  0.93728  0.72193  1.0000
  Mg  Mg13      1.0  0.00443  0.89360  0.13363  1.0000
  C   C227      1.0  0.99021  0.67826  0.41826  1.0000
  C   C228      1.0  0.00413  0.70215  0.31047  1.0000
  C  Sn27      1.0  0.99257  0.72136  0.28559  1.0000
  C  Sn28      1.0  0.96658  0.71652  0.37041  1.0000
  C   C229      1.0  0.95282  0.69257  0.47807  1.0000
  C   C230      1.0  0.96458  0.67348  0.50201  1.0000
  H   H203      1.0  0.99931  0.66349  0.43686  1.0000
  O  Te27      1.0  0.00675  0.74511  0.17741  1.0000
  O  Te28      1.0  0.95455  0.73540  0.34787  1.0000
  H   H204      1.0  0.95381  0.65499  0.58556  1.0000
  Mg  Mg14      1.0  0.98188  0.76469  0.18766  1.0000
  C   C231      1.0  0.75299  0.56961  0.85244  1.0000
  C   C232      1.0  0.75948  0.54617  0.84530  1.0000
  C  Sn29      1.0  0.78821  0.55207  0.80250  1.0000
  C  Sn30      1.0  0.81083  0.58201  0.76629  1.0000
  C   C233      1.0  0.80412  0.60531  0.77389  1.0000
  C   C234      1.0  0.77529  0.59916  0.81681  1.0000
  H   H205      1.0  0.73069  0.56486  0.88573  1.0000
  O  Te29      1.0  0.79431  0.52838  0.79590  1.0000
  O  Te30      1.0  0.83974  0.58854  0.72323  1.0000
  H   H206      1.0  0.77028  0.61731  0.82243  1.0000
  Mg  Mg15      1.0  0.83710  0.54862  0.73104  1.0000
  C   C235      1.0  0.76482  0.18995  0.76526  1.0000
  C   C236      1.0  0.79495  0.19711  0.76591  1.0000
  C  Sn31      1.0  0.81759  0.22515  0.82694  1.0000
  C  Sn32      1.0  0.80986  0.24638  0.88843  1.0000
  C   C237      1.0  0.77965  0.23899  0.88735  1.0000
  C   C238      1.0  0.75717  0.21087  0.82594  1.0000
  H   H207      1.0  0.74742  0.16819  0.71783  1.0000
  O  Te31      1.0  0.84758  0.23194  0.82663  1.0000
  O  Te32      1.0  0.83204  0.27457  0.95020  1.0000
  H   H208      1.0  0.73384  0.20533  0.82555  1.0000
  Mg  Mg16      1.0  0.86972  0.27331  0.92362  1.0000
