data_image0
_chemical_formula_structural       H114C114N30C2Sn2C2HTe2HMgC2Sn2C2HTe2HMgC2Sn2C2HTe2HMgC2Sn2C2HTe2HMgC2Sn2C2HTe2HMgC2Sn2C2HTe2HMgC2Sn2C2HTe2HMgC2Sn2C2HTe2HMgC2Sn2C2HTe2HMgC2Sn2C2HTe2HMgC2Sn2C2HTe2HMgC2Sn2C2HTe2HMgC2Sn2C2HTe2HMgC2Sn2C2HTe2HMgC2Sn2C2HTe2HMgC2Sn2C2HTe2HMgC2Sn2C2HTe2HMgC2Sn2C2HTe2HMgC2Sn2C2HTe2HMgC2Sn2C2HTe2HMgC2Sn2C2HTe2HMgC2Sn2C2HTe2HMgC2Sn2C2HTe2HMgC2Sn2C2HTe2HMg
_chemical_formula_sum              "H162 C210 N30 Sn48 Te48 Mg24"
_cell_length_a       52.4186
_cell_length_b       52.3102
_cell_length_c       10.8805
_cell_angle_alpha    89.1383
_cell_angle_beta     91.834
_cell_angle_gamma    120.411

_symmetry_space_group_name_H-M    'P1'
_space_group_IT_number       1

loop_
  _space_group_symop_operation_xyz
  'x, y, z'

loop_
  _atom_site_type_symbol
  _atom_site_label
  _atom_site_symmetry_multiplicity
  _atom_site_fract_x
  _atom_site_fract_y
  _atom_site_fract_z
  _atom_site_occupancy
  H   H1        1.0  0.30206  0.12400  0.15879  1.0000
  H   H2        1.0  0.87880  0.18301  0.14405  1.0000
  H   H3        1.0  0.82293  0.69628  0.15312  1.0000
  H   H4        1.0  0.35619  0.14915  0.18368  1.0000
  H   H5        1.0  0.85223  0.21002  0.16968  1.0000
  H   H6        1.0  0.79482  0.64226  0.16999  1.0000
  H   H7        1.0  0.16347  0.09727  0.44827  1.0000
  H   H8        1.0  0.90148  0.06806  0.42337  1.0000
  H   H9        1.0  0.93017  0.83298  0.43700  1.0000
  H   H10       1.0  0.49912  0.24462  0.26141  1.0000
  H   H11       1.0  0.75525  0.25183  0.26252  1.0000
  H   H12       1.0  0.74709  0.50114  0.25715  1.0000
  H   H13       1.0  0.02628  0.05597  0.08014  1.0000
  H   H14       1.0  0.94426  0.97269  0.08805  1.0000
  H   H15       1.0  0.02678  0.97403  0.07121  1.0000
  H   H16       1.0  0.63661  0.27719  0.13623  1.0000
  H   H17       1.0  0.72169  0.35716  0.13822  1.0000
  H   H18       1.0  0.64219  0.36213  0.12887  1.0000
  H   H19       1.0  0.40476  0.26552  0.49217  1.0000
  H   H20       1.0  0.73563  0.14113  0.49241  1.0000
  H   H21       1.0  0.85819  0.59489  0.45853  1.0000
  H   H22       1.0  0.39323  0.26981  0.12405  1.0000
  H   H23       1.0  0.73272  0.12192  0.11070  1.0000
  H   H24       1.0  0.86752  0.59691  0.01519  1.0000
  H   H25       1.0  0.32873  0.26905  0.43340  1.0000
  H   H26       1.0  0.73085  0.06119  0.42785  1.0000
  H   H27       1.0  0.93854  0.67093  0.43224  1.0000
  H   H28       1.0  0.34944  0.31986  0.49985  1.0000
  H   H29       1.0  0.68086  0.03124  0.50234  1.0000
  H   H30       1.0  0.95402  0.63114  0.33008  1.0000
  H   H31       1.0  0.36812  0.32654  0.35902  1.0000
  H   H32       1.0  0.67482  0.04244  0.35439  1.0000
  H   H33       1.0  0.96739  0.61534  0.44142  1.0000
  H   H34       1.0  0.38305  0.35353  0.47761  1.0000
  H   H35       1.0  0.64747  0.03097  0.46710  1.0000
  H   H36       1.0  0.96831  0.64883  0.47461  1.0000
  H   H37       1.0  0.42203  0.33313  0.37050  1.0000
  H   H38       1.0  0.66918  0.09024  0.34380  1.0000
  H   H39       1.0  0.92057  0.56689  0.44205  1.0000
  H   H40       1.0  0.43394  0.32292  0.50772  1.0000
  H   H41       1.0  0.67876  0.11314  0.47620  1.0000
  H   H42       1.0  0.90179  0.57764  0.33326  1.0000
  H   H43       1.0  0.43217  0.35583  0.50315  1.0000
  H   H44       1.0  0.64562  0.07825  0.47135  1.0000
  H   H45       1.0  0.88648  0.56385  0.47948  1.0000
  H   H46       1.0  0.39161  0.33652  0.18956  1.0000
  H   H47       1.0  0.66773  0.05116  0.17165  1.0000
  H   H48       1.0  0.93457  0.60956  0.17175  1.0000
  H   H49       1.0  0.39871  0.30703  0.20575  1.0000
  H   H50       1.0  0.69726  0.08787  0.19199  1.0000
  H   H51       1.0  0.89981  0.60723  0.15433  1.0000
  H   H52       1.0  0.36171  0.29918  0.18020  1.0000
  H   H53       1.0  0.70490  0.05907  0.16123  1.0000
  H   H54       1.0  0.93286  0.64234  0.14405  1.0000
  H   H55       1.0  0.37799  0.28302  0.37351  1.0000
  H   H56       1.0  0.71845  0.09839  0.36623  1.0000
  H   H57       1.0  0.90221  0.62293  0.35237  1.0000
  H   H58       1.0  0.30242  0.12328  0.65463  1.0000
  H   H59       1.0  0.87945  0.18081  0.63338  1.0000
  H   H60       1.0  0.82044  0.69531  0.64975  1.0000
  H   H61       1.0  0.35645  0.14849  0.67699  1.0000
  H   H62       1.0  0.85494  0.20967  0.66052  1.0000
  H   H63       1.0  0.79144  0.64118  0.66724  1.0000
  H   H64       1.0  0.16501  0.09817  0.92675  1.0000
  H   H65       1.0  0.90485  0.07261  0.93040  1.0000
  H   H66       1.0  0.93023  0.83456  0.93161  1.0000
  H   H67       1.0  0.49910  0.24315  0.76165  1.0000
  H   H68       1.0  0.75951  0.25477  0.76040  1.0000
  H   H69       1.0  0.74390  0.49969  0.76036  1.0000
  H   H70       1.0  0.02564  0.05449  0.60262  1.0000
  H   H71       1.0  0.94391  0.97097  0.58824  1.0000
  H   H72       1.0  0.02706  0.97300  0.60086  1.0000
  H   H73       1.0  0.63646  0.27561  0.62987  1.0000
  H   H74       1.0  0.72145  0.35578  0.63218  1.0000
  H   H75       1.0  0.64185  0.36041  0.63301  1.0000
  H   H76       1.0  0.40516  0.26521  0.97948  1.0000
  H   H77       1.0  0.73543  0.14009  0.96824  1.0000
  H   H78       1.0  0.85910  0.60618  0.86736  1.0000
  H   H79       1.0  0.39236  0.27050  0.63512  1.0000
  H   H80       1.0  0.73170  0.12143  0.63183  1.0000
  H   H81       1.0  0.87583  0.60247  0.60630  1.0000
  H   H82       1.0  0.32954  0.26857  0.91589  1.0000
  H   H83       1.0  0.73476  0.06336  0.89284  1.0000
  H   H84       1.0  0.93403  0.67322  0.85666  1.0000
  H   H85       1.0  0.34929  0.31912  0.98511  1.0000
  H   H86       1.0  0.65068  0.02713  0.97484  1.0000
  H   H87       1.0  0.96735  0.65411  0.96719  1.0000
  H   H88       1.0  0.37308  0.33043  0.85770  1.0000
  H   H89       1.0  0.68554  0.03003  0.95950  1.0000
  H   H90       1.0  0.95856  0.62763  0.84845  1.0000
  H   H91       1.0  0.38315  0.35327  0.98969  1.0000
  H   H92       1.0  0.67072  0.04260  0.83948  1.0000
  H   H93       1.0  0.96822  0.62116  0.99842  1.0000
  H   H94       1.0  0.42495  0.33407  0.88824  1.0000
  H   H95       1.0  0.64810  0.07461  0.02376  1.0000
  H   H96       1.0  0.91007  0.57707  0.85617  1.0000
  H   H97       1.0  0.43343  0.32192  0.02909  1.0000
  H   H98       1.0  0.66381  0.08654  0.87721  1.0000
  H   H99       1.0  0.88602  0.56841  0.98113  1.0000
  H   H100      1.0  0.43195  0.35501  0.02461  1.0000
  H   H101      1.0  0.68039  0.10972  0.00803  1.0000
  H   H102      1.0  0.92107  0.57167  0.00521  1.0000
  H   H103      1.0  0.39588  0.34109  0.68060  1.0000
  H   H104      1.0  0.65924  0.05737  0.66430  1.0000
  H   H105      1.0  0.94362  0.59918  0.64442  1.0000
  H   H106      1.0  0.40453  0.31275  0.70103  1.0000
  H   H107      1.0  0.68759  0.09483  0.68091  1.0000
  H   H108      1.0  0.90792  0.59337  0.66924  1.0000
  H   H109      1.0  0.36677  0.30349  0.68947  1.0000
  H   H110      1.0  0.69671  0.06629  0.68428  1.0000
  H   H111      1.0  0.93883  0.63017  0.66443  1.0000
  H   H112      1.0  0.38002  0.28500  0.86637  1.0000
  H   H113      1.0  0.71601  0.09636  0.85075  1.0000
  H   H114      1.0  0.90734  0.62259  0.81151  1.0000
  C   C1        1.0  0.31531  0.14709  0.13153  1.0000
  C   C2        1.0  0.85554  0.17242  0.11622  1.0000
  C   C3        1.0  0.83290  0.68366  0.12317  1.0000
  C   C4        1.0  0.34603  0.16131  0.14546  1.0000
  C   C5        1.0  0.84050  0.18776  0.13106  1.0000
  C   C6        1.0  0.81689  0.65289  0.13300  1.0000
  C   C7        1.0  0.36476  0.19082  0.10714  1.0000
  C   C8        1.0  0.81055  0.17587  0.09379  1.0000
  C   C9        1.0  0.82748  0.63455  0.09189  1.0000
  C   C10       1.0  0.35030  0.20523  0.05764  1.0000
  C   C11       1.0  0.79682  0.14736  0.04226  1.0000
  C   C12       1.0  0.85565  0.64964  0.03987  1.0000
  C   C13       1.0  0.31876  0.19105  0.04474  1.0000
  C   C14       1.0  0.81188  0.13119  0.02754  1.0000
  C   C15       1.0  0.87271  0.68139  0.03256  1.0000
  C   C16       1.0  0.30070  0.16123  0.07953  1.0000
  C   C17       1.0  0.84192  0.14385  0.06381  1.0000
  C   C18       1.0  0.86125  0.69900  0.07268  1.0000
  C   C19       1.0  0.33501  0.23601  0.99543  1.0000
  C   C20       1.0  0.76695  0.10129  0.97628  1.0000
  C   C21       1.0  0.90077  0.66634  0.96899  1.0000
  C   C22       1.0  0.17369  0.09705  0.01901  1.0000
  C   C23       1.0  0.90628  0.08215  0.02172  1.0000
  C   C24       1.0  0.92129  0.82609  0.02308  1.0000
  C   C25       1.0  0.49153  0.24654  0.16800  1.0000
  C   C26       1.0  0.75303  0.24346  0.16817  1.0000
  C   C27       1.0  0.75634  0.50807  0.16505  1.0000
  C   C28       1.0  0.03034  0.01696  0.07487  1.0000
  C   C29       1.0  0.98335  0.01621  0.08304  1.0000
  C   C30       1.0  0.98368  0.96964  0.07935  1.0000
  C   C31       1.0  0.63563  0.31794  0.13471  1.0000
  C   C32       1.0  0.68084  0.31518  0.13878  1.0000
  C   C33       1.0  0.68399  0.36343  0.13526  1.0000
  C   C34       1.0  0.01438  0.03185  0.07890  1.0000
  C   C35       1.0  0.96827  0.98508  0.08355  1.0000
  C   C36       1.0  0.01467  0.98584  0.07414  1.0000
  C   C37       1.0  0.64985  0.30128  0.13781  1.0000
  C   C38       1.0  0.69766  0.34626  0.13874  1.0000
  C   C39       1.0  0.65297  0.34899  0.13363  1.0000
  C   C40       1.0  0.38586  0.26410  0.53839  1.0000
  C   C41       1.0  0.73739  0.12297  0.53463  1.0000
  C   C42       1.0  0.87609  0.61204  0.51541  1.0000
  C   C43       1.0  0.37426  0.28306  0.47256  1.0000
  C   C44       1.0  0.71805  0.09319  0.46496  1.0000
  C   C45       1.0  0.90653  0.62488  0.45258  1.0000
  C   C46       1.0  0.38894  0.31577  0.51474  1.0000
  C   C47       1.0  0.68524  0.07507  0.50135  1.0000
  C   C48       1.0  0.92437  0.60936  0.48485  1.0000
  C   C49       1.0  0.37130  0.32961  0.45887  1.0000
  C   C50       1.0  0.67142  0.04312  0.45284  1.0000
  C   C51       1.0  0.95523  0.62724  0.42875  1.0000
  C   C52       1.0  0.42106  0.33275  0.47113  1.0000
  C   C53       1.0  0.66886  0.09010  0.44464  1.0000
  C   C54       1.0  0.90727  0.57766  0.43159  1.0000
  C   C55       1.0  0.38486  0.31421  0.15633  1.0000
  C   C56       1.0  0.68981  0.06741  0.13971  1.0000
  C   C57       1.0  0.92254  0.61870  0.12132  1.0000
  C   C58       1.0  0.31543  0.14659  0.63028  1.0000
  C   C59       1.0  0.85581  0.17040  0.61338  1.0000
  C   C60       1.0  0.83059  0.68239  0.62652  1.0000
  C   C61       1.0  0.34617  0.16090  0.64309  1.0000
  C   C62       1.0  0.84191  0.18683  0.62901  1.0000
  C   C63       1.0  0.81409  0.65161  0.63663  1.0000
  C   C64       1.0  0.36471  0.19076  0.60867  1.0000
  C   C65       1.0  0.81162  0.17535  0.59982  1.0000
  C   C66       1.0  0.82511  0.63310  0.60319  1.0000
  C   C67       1.0  0.34995  0.20530  0.56439  1.0000
  C   C68       1.0  0.79631  0.14602  0.55650  1.0000
  C   C69       1.0  0.85418  0.64789  0.56056  1.0000
  C   C70       1.0  0.31832  0.19105  0.55276  1.0000
  C   C71       1.0  0.81012  0.12864  0.54240  1.0000
  C   C72       1.0  0.87171  0.67962  0.55308  1.0000
  C   C73       1.0  0.30045  0.16086  0.58352  1.0000
  C   C74       1.0  0.84060  0.14100  0.56923  1.0000
  C   C75       1.0  0.85970  0.69744  0.58340  1.0000
  C   C76       1.0  0.33446  0.23637  0.50912  1.0000
  C   C77       1.0  0.76441  0.09949  0.50207  1.0000
  C   C78       1.0  0.90050  0.66387  0.50777  1.0000
  C   C79       1.0  0.17296  0.09562  0.53777  1.0000
  C   C80       1.0  0.90388  0.07853  0.51336  1.0000
  C   C81       1.0  0.92010  0.82445  0.52682  1.0000
  C   C82       1.0  0.49147  0.24573  0.66926  1.0000
  C   C83       1.0  0.75495  0.24387  0.67003  1.0000
  C   C84       1.0  0.75372  0.50659  0.66921  1.0000
  C   C85       1.0  0.03018  0.01571  0.60183  1.0000
  C   C86       1.0  0.98289  0.01457  0.59427  1.0000
  C   C87       1.0  0.98363  0.96819  0.59462  1.0000
  C   C88       1.0  0.63538  0.31627  0.63185  1.0000
  C   C89       1.0  0.68066  0.31363  0.63239  1.0000
  C   C90       1.0  0.68369  0.36184  0.63406  1.0000
  C   C91       1.0  0.01397  0.03039  0.59980  1.0000
  C   C92       1.0  0.96799  0.98347  0.59168  1.0000
  C   C93       1.0  0.01469  0.98458  0.59895  1.0000
  C   C94       1.0  0.64966  0.29969  0.63203  1.0000
  C   C95       1.0  0.69742  0.34474  0.63366  1.0000
  C   C96       1.0  0.65268  0.34733  0.63413  1.0000
  C   C97       1.0  0.38640  0.26373  0.02734  1.0000
  C   C98       1.0  0.73805  0.12268  0.01337  1.0000
  C   C99       1.0  0.87438  0.61475  0.94756  1.0000
  C   C100      1.0  0.37489  0.28316  0.96450  1.0000
  C   C101      1.0  0.71897  0.09206  0.94794  1.0000
  C   C102      1.0  0.90716  0.62742  0.90901  1.0000
  C   C103      1.0  0.38846  0.31490  0.01708  1.0000
  C   C104      1.0  0.68790  0.07198  0.00109  1.0000
  C   C105      1.0  0.92370  0.61434  0.98316  1.0000
  C   C106      1.0  0.37251  0.33017  0.95826  1.0000
  C   C107      1.0  0.67297  0.04124  0.93939  1.0000
  C   C108      1.0  0.95635  0.63032  0.94664  1.0000
  C   C109      1.0  0.42157  0.33238  0.98778  1.0000
  C   C110      1.0  0.66910  0.08664  0.97575  1.0000
  C   C111      1.0  0.90925  0.58103  0.95440  1.0000
  C   C112      1.0  0.38901  0.31824  0.65478  1.0000
  C   C113      1.0  0.68217  0.07346  0.64101  1.0000
  C   C114      1.0  0.92883  0.60794  0.62396  1.0000
  N   N1        1.0  0.36017  0.23426  0.01848  1.0000
  N   N2        1.0  0.76781  0.12751  0.00207  1.0000
  N   N3        1.0  0.87503  0.64070  0.99891  1.0000
  N   N4        1.0  0.30987  0.21105  0.00570  1.0000
  N   N5        1.0  0.79241  0.10225  0.98616  1.0000
  N   N6        1.0  0.90094  0.69108  0.98816  1.0000
  N   N7        1.0  0.15667  0.08144  0.10693  1.0000
  N   N8        1.0  0.92150  0.07983  0.11260  1.0000
  N   N9        1.0  0.92339  0.84324  0.11215  1.0000
  N   N10       1.0  0.50964  0.26096  0.08106  1.0000
  N   N11       1.0  0.73817  0.24795  0.08197  1.0000
  N   N12       1.0  0.75247  0.48924  0.08025  1.0000
  N   N13       1.0  0.34194  0.26571  0.49402  1.0000
  N   N14       1.0  0.73487  0.07763  0.48787  1.0000
  N   N15       1.0  0.92215  0.65670  0.48809  1.0000
  N   N16       1.0  0.35965  0.23458  0.52983  1.0000
  N   N17       1.0  0.76669  0.12654  0.52378  1.0000
  N   N18       1.0  0.87361  0.63850  0.52574  1.0000
  N   N19       1.0  0.30935  0.21127  0.51782  1.0000
  N   N20       1.0  0.78937  0.09941  0.50850  1.0000
  N   N21       1.0  0.90074  0.68887  0.52015  1.0000
  N   N22       1.0  0.15672  0.07995  0.62766  1.0000
  N   N23       1.0  0.92013  0.07741  0.60285  1.0000
  N   N24       1.0  0.92133  0.84156  0.61431  1.0000
  N   N25       1.0  0.50954  0.26071  0.58308  1.0000
  N   N26       1.0  0.73737  0.24538  0.58770  1.0000
  N   N27       1.0  0.75069  0.48785  0.58551  1.0000
  N   N28       1.0  0.34240  0.26520  0.97833  1.0000
  N   N29       1.0  0.73800  0.07863  0.95751  1.0000
  N   N30       1.0  0.92134  0.65995  0.92539  1.0000
  C   C115      1.0  0.22941  0.13893  0.44778  1.0000
  C   C116      1.0  0.20905  0.11567  0.52035  1.0000
  C  Sn1       1.0  0.21857  0.10755  0.62754  1.0000
  C  Sn2       1.0  0.24905  0.12305  0.66251  1.0000
  C   C117      1.0  0.26923  0.14630  0.58933  1.0000
  C   C118      1.0  0.25947  0.15424  0.48223  1.0000
  H   H115      1.0  0.22185  0.14508  0.36495  1.0000
  O  Te1       1.0  0.19794  0.08426  0.69896  1.0000
  O  Te2       1.0  0.25916  0.11541  0.76920  1.0000
  H   H116      1.0  0.27523  0.17226  0.42610  1.0000
  Mg  Mg1       1.0  0.22252  0.08208  0.83620  1.0000
  C   C119      1.0  0.85952  0.09175  0.43001  1.0000
  C   C120      1.0  0.88371  0.09448  0.49914  1.0000
  C  Sn3       1.0  0.89354  0.11192  0.60541  1.0000
  C  Sn4       1.0  0.87883  0.12687  0.64295  1.0000
  C   C121      1.0  0.85464  0.12398  0.57321  1.0000
  C   C122      1.0  0.84499  0.10648  0.46701  1.0000
  H   H117      1.0  0.85205  0.07821  0.34788  1.0000
  O  Te3       1.0  0.91775  0.11441  0.67337  1.0000
  O  Te4       1.0  0.88819  0.14443  0.74880  1.0000
  H   H118      1.0  0.82625  0.10436  0.41355  1.0000
  Mg  Mg2       1.0  0.92222  0.14093  0.81074  1.0000
  C   C123      1.0  0.90791  0.76748  0.44744  1.0000
  C   C124      1.0  0.90467  0.78823  0.51421  1.0000
  C  Sn5       1.0  0.88741  0.77953  0.61871  1.0000
  C  Sn6       1.0  0.87316  0.74947  0.65686  1.0000
  C   C125      1.0  0.87655  0.72889  0.58949  1.0000
  C   C126      1.0  0.89387  0.73784  0.48504  1.0000
  H   H119      1.0  0.92132  0.77441  0.36667  1.0000
  O  Te5       1.0  0.88440  0.80054  0.68433  1.0000
  O  Te6       1.0  0.85579  0.74017  0.76098  1.0000
  H   H120      1.0  0.89639  0.72177  0.43341  1.0000
  Mg  Mg3       1.0  0.85840  0.77707  0.81997  1.0000
  C   C127      1.0  0.23094  0.13917  0.93299  1.0000
  C   C128      1.0  0.20305  0.11680  0.00779  1.0000
  C  Sn7       1.0  0.21163  0.10991  0.12052  1.0000
  C  Sn8       1.0  0.24189  0.12543  0.15884  1.0000
  C   C129      1.0  0.26281  0.14747  0.08338  1.0000
  C   C130      1.0  0.26079  0.15450  0.97073  1.0000
  H   H121      1.0  0.22411  0.14438  0.84586  1.0000
  O  Te7       1.0  0.19029  0.08781  0.19411  1.0000
  O  Te8       1.0  0.25108  0.11900  0.27109  1.0000
  H   H122      1.0  0.27711  0.17159  0.91287  1.0000
  Mg  Mg4       1.0  0.21371  0.08704  0.33915  1.0000
  C   C131      1.0  0.89280  0.12081  0.15504  1.0000
  C   C132      1.0  0.89051  0.10101  0.06463  1.0000
  C  Sn9       1.0  0.87875  0.09577  0.96119  1.0000
  C  Sn10      1.0  0.86220  0.11036  0.94827  1.0000
  C   C133      1.0  0.85785  0.12982  0.03920  1.0000
  C   C134      1.0  0.87649  0.13521  0.14235  1.0000
  H   H123      1.0  0.90724  0.12500  0.23483  1.0000
  O  Te9       1.0  0.87671  0.07591  0.87174  1.0000
  O  Te10      1.0  0.84348  0.10522  0.84579  1.0000
  H   H124      1.0  0.87828  0.15057  0.21230  1.0000
  Mg  Mg5       1.0  0.84819  0.07623  0.74873  1.0000
  C   C135      1.0  0.89949  0.75253  0.94057  1.0000
  C   C136      1.0  0.87682  0.73451  0.03942  1.0000
  C  Sn11      1.0  0.87098  0.74705  0.13933  1.0000
  C  Sn12      1.0  0.88123  0.77788  0.14003  1.0000
  C   C137      1.0  0.89706  0.79539  0.04066  1.0000
  C   C138      1.0  0.90960  0.78294  0.94116  1.0000
  H   H125      1.0  0.90391  0.74264  0.86356  1.0000
  O  Te11      1.0  0.85511  0.72905  0.23736  1.0000
  O  Te12      1.0  0.87569  0.79099  0.23869  1.0000
  H   H126      1.0  0.92186  0.79665  0.86461  1.0000
  Mg  Mg6       1.0  0.85314  0.75721  0.35083  1.0000
  C   C139      1.0  0.43334  0.20931  0.25538  1.0000
  C   C140      1.0  0.45526  0.22588  0.17085  1.0000
  C  Sn13      1.0  0.44771  0.23304  0.05639  1.0000
  C  Sn14      1.0  0.41764  0.22340  0.02627  1.0000
  C   C141      1.0  0.39588  0.20685  0.11150  1.0000
  C   C142      1.0  0.40368  0.19980  0.22576  1.0000
  H   H127      1.0  0.43937  0.20387  0.34381  1.0000
  O  Te13      1.0  0.47670  0.24993  0.97301  1.0000
  O  Te14      1.0  0.41630  0.23058  0.91255  1.0000
  H   H128      1.0  0.38670  0.18699  0.29121  1.0000
  Mg  Mg7       1.0  0.45454  0.25368  0.82974  1.0000
  C   C143      1.0  0.79969  0.21443  0.23997  1.0000
  C   C144      1.0  0.79625  0.19584  0.14211  1.0000
  C  Sn15      1.0  0.77871  0.19375  0.03902  1.0000
  C  Sn16      1.0  0.76437  0.21062  0.03405  1.0000
  C   C145      1.0  0.76797  0.22917  0.13239  1.0000
  C   C146      1.0  0.78557  0.23108  0.23512  1.0000
  H   H129      1.0  0.81332  0.21592  0.31943  1.0000
  O  Te15      1.0  0.78230  0.17539  0.94208  1.0000
  O  Te16      1.0  0.75353  0.20929  0.93210  1.0000
  H   H130      1.0  0.78825  0.24549  0.31084  1.0000
  Mg  Mg8       1.0  0.75595  0.18067  0.82306  1.0000
  C   C147      1.0  0.79446  0.55777  0.01472  1.0000
  C   C148      1.0  0.77959  0.54233  0.11956  1.0000
  C  Sn17      1.0  0.77824  0.55764  0.22094  1.0000
  C  Sn18      1.0  0.79205  0.58899  0.21701  1.0000
  C   C149      1.0  0.80685  0.60424  0.11166  1.0000
  C   C150      1.0  0.80807  0.58869  0.01074  1.0000
  H   H131      1.0  0.80219  0.54608  0.93660  1.0000
  O  Te17      1.0  0.76331  0.54187  0.32497  1.0000
  O  Te18      1.0  0.79104  0.60485  0.31702  1.0000
  H   H132      1.0  0.82638  0.60098  0.92955  1.0000
  Mg  Mg9       1.0  0.76803  0.57341  0.43801  1.0000
  C   C151      1.0  0.08597  0.02509  0.16705  1.0000
  C   C152      1.0  0.06646  0.03138  0.10127  1.0000
  C  Sn19      1.0  0.07734  0.05580  0.02252  1.0000
  C  Sn20      1.0  0.10833  0.07422  0.00955  1.0000
  C   C153      1.0  0.12766  0.06772  0.07570  1.0000
  C   C154      1.0  0.11654  0.04323  0.15428  1.0000
  H   H133      1.0  0.07736  0.00613  0.22780  1.0000
  O  Te19      1.0  0.06435  0.06210  0.95751  1.0000
  O  Te20      1.0  0.12661  0.09908  0.93144  1.0000
  H   H134      1.0  0.13164  0.03835  0.20514  1.0000
  Mg  Mg10      1.0  0.09071  0.09810  0.86244  1.0000
  C   C155      1.0  0.96717  0.07059  0.18786  1.0000
  C   C156      1.0  0.94275  0.06665  0.11677  1.0000
  C  Sn21      1.0  0.92917  0.04357  0.03125  1.0000
  C  Sn22      1.0  0.94028  0.02409  0.01687  1.0000
  C   C157      1.0  0.96470  0.02820  0.08849  1.0000
  C   C158      1.0  0.97813  0.05138  0.17377  1.0000
  H   H135      1.0  0.97755  0.08851  0.25389  1.0000
  O  Te21      1.0  0.91162  0.04029  0.96094  1.0000
  O  Te22      1.0  0.93393  0.00115  0.93211  1.0000
  H   H136      1.0  0.99702  0.05441  0.22885  1.0000
  Mg  Mg11      1.0  0.90127  0.00531  0.85758  1.0000
  C   C159      1.0  0.97229  0.89706  0.99242  1.0000
  C   C160      1.0  0.94535  0.87759  0.07822  1.0000
  C  Sn23      1.0  0.93496  0.88861  0.16803  1.0000
  C  Sn24      1.0  0.94495  0.91937  0.17176  1.0000
  C   C161      1.0  0.96507  0.93834  0.08546  1.0000
  C   C162      1.0  0.98213  0.92741  0.99600  1.0000
  H   H137      1.0  0.98021  0.88835  0.92316  1.0000
  O  Te23      1.0  0.91487  0.86917  0.25308  1.0000
  O  Te24      1.0  0.93491  0.93097  0.26052  1.0000
  H   H138      1.0  0.99770  0.94223  0.92954  1.0000
  Mg  Mg12      1.0  0.90762  0.89557  0.35648  1.0000
  C   C163      1.0  0.58254  0.31063  0.01643  1.0000
  C   C164      1.0  0.60010  0.30696  0.10621  1.0000
  C  Sn25      1.0  0.58706  0.28472  0.19472  1.0000
  C  Sn26      1.0  0.55587  0.26582  0.19308  1.0000
  C   C165      1.0  0.53850  0.26965  0.10283  1.0000
  C   C166      1.0  0.55178  0.29199  0.01472  1.0000
  H   H139      1.0  0.59962  0.32822  0.94821  1.0000
  O  Te25      1.0  0.60493  0.28137  0.28379  1.0000
  O  Te26      1.0  0.54227  0.24340  0.28043  1.0000
  H   H140      1.0  0.54499  0.29514  0.94517  1.0000
  Mg  Mg13      1.0  0.57604  0.24761  0.38329  1.0000
  C   C167      1.0  0.72565  0.30130  0.22014  1.0000
  C   C168      1.0  0.70293  0.30066  0.14696  1.0000
  C  Sn27      1.0  0.69011  0.28046  0.04993  1.0000
  C  Sn28      1.0  0.70027  0.26056  0.02596  1.0000
  C   C169      1.0  0.72300  0.26137  0.09975  1.0000
  C   C170      1.0  0.73568  0.28168  0.19659  1.0000
  H   H141      1.0  0.73545  0.31701  0.29511  1.0000
  O  Te27      1.0  0.67424  0.28044  0.97769  1.0000
  O  Te28      1.0  0.69465  0.24046  0.92960  1.0000
  H   H142      1.0  0.75326  0.28216  0.25328  1.0000
  Mg  Mg14      1.0  0.66433  0.24855  0.85695  1.0000
  C   C171      1.0  0.73967  0.43279  0.01926  1.0000
  C   C172      1.0  0.73565  0.45428  0.07557  1.0000
  C  Sn29      1.0  0.71450  0.44617  0.16575  1.0000
  C  Sn30      1.0  0.69711  0.41596  0.20004  1.0000
  C   C173      1.0  0.70132  0.39463  0.14323  1.0000
  C   C174      1.0  0.72253  0.40299  0.05306  1.0000
  H   H143      1.0  0.76290  0.43959  0.94955  1.0000
  O  Te29      1.0  0.71076  0.46792  0.22104  1.0000
  O  Te30      1.0  0.67583  0.40723  0.28994  1.0000
  H   H144      1.0  0.72565  0.38635  0.00954  1.0000
  Mg  Mg15      1.0  0.67894  0.44505  0.33873  1.0000
  C   C175      1.0  0.44017  0.23472  0.52256  1.0000
  C   C176      1.0  0.45686  0.23463  0.62515  1.0000
  C  Sn31      1.0  0.44282  0.21744  0.72787  1.0000
  C  Sn32      1.0  0.41148  0.20002  0.72758  1.0000
  C   C177      1.0  0.39498  0.20025  0.62446  1.0000
  C   C178      1.0  0.40926  0.21754  0.52219  1.0000
  H   H145      1.0  0.45121  0.24808  0.44340  1.0000
  O  Te31      1.0  0.45983  0.21761  0.82961  1.0000
  O  Te32      1.0  0.39687  0.18263  0.82900  1.0000
  H   H146      1.0  0.39633  0.21759  0.44274  1.0000
  Mg  Mg16      1.0  0.42973  0.19025  0.94581  1.0000
  C   C179      1.0  0.79491  0.22472  0.75048  1.0000
  C   C180      1.0  0.77653  0.22939  0.66892  1.0000
  C  Sn33      1.0  0.76750  0.21445  0.55636  1.0000
  C  Sn34      1.0  0.77707  0.19446  0.52515  1.0000
  C   C181      1.0  0.79545  0.18993  0.60742  1.0000
  C   C182      1.0  0.80436  0.20501  0.71979  1.0000
  H   H147      1.0  0.80179  0.23637  0.83745  1.0000
  O  Te33      1.0  0.74913  0.21938  0.47593  1.0000
  O  Te34      1.0  0.76837  0.17923  0.41329  1.0000
  H   H148      1.0  0.81858  0.20137  0.78296  1.0000
  Mg  Mg17      1.0  0.74324  0.19340  0.33432  1.0000
  C   C183      1.0  0.77533  0.56579  0.75103  1.0000
  C   C184      1.0  0.76912  0.54296  0.66879  1.0000
  C  Sn35      1.0  0.78310  0.54936  0.55599  1.0000
  C  Sn36      1.0  0.80366  0.57918  0.52523  1.0000
  C   C185      1.0  0.80973  0.60186  0.60817  1.0000
  C   C186      1.0  0.79561  0.59521  0.72078  1.0000
  H   H149      1.0  0.76442  0.56064  0.83818  1.0000
  O  Te35      1.0  0.77664  0.52628  0.47488  1.0000
  O  Te36      1.0  0.81796  0.58620  0.41313  1.0000
  H   H150      1.0  0.80044  0.61289  0.78446  1.0000
  Mg  Mg18      1.0  0.80179  0.54704  0.33320  1.0000
  C   C187      1.0  0.08612  0.02398  0.69430  1.0000
  C   C188      1.0  0.06636  0.03048  0.63191  1.0000
  C  Sn37      1.0  0.07691  0.05507  0.55425  1.0000
  C  Sn38      1.0  0.10782  0.07346  0.53894  1.0000
  C   C189      1.0  0.12740  0.06677  0.60170  1.0000
  C   C190      1.0  0.11661  0.04211  0.67921  1.0000
  H   H151      1.0  0.07777  0.00490  0.75422  1.0000
  O  Te37      1.0  0.05686  0.06125  0.49265  1.0000
  O  Te38      1.0  0.11896  0.09818  0.46185  1.0000
  H   H152      1.0  0.13191  0.03708  0.72744  1.0000
  Mg  Mg19      1.0  0.08281  0.09743  0.39775  1.0000
  C   C191      1.0  0.96506  0.06840  0.68850  1.0000
  C   C192      1.0  0.94164  0.06465  0.61091  1.0000
  C  Sn39      1.0  0.92933  0.04185  0.52383  1.0000
  C  Sn40      1.0  0.94073  0.02248  0.51449  1.0000
  C   C193      1.0  0.96415  0.02641  0.59259  1.0000
  C   C194      1.0  0.97630  0.04930  0.67938  1.0000
  H   H153      1.0  0.97445  0.08610  0.75570  1.0000
  O  Te39      1.0  0.90595  0.03842  0.44700  1.0000
  O  Te40      1.0  0.43399  0.99951  0.42830  1.0000
  H   H154      1.0  0.99442  0.05219  0.73949  1.0000
  Mg  Mg20      1.0  0.89717  0.00383  0.34415  1.0000
  C   C195      1.0  0.97625  0.91233  0.51409  1.0000
  C   C196      1.0  0.96955  0.93175  0.57250  1.0000
  C  Sn41      1.0  0.94639  0.92089  0.65467  1.0000
  C  Sn42      1.0  0.92967  0.89002  0.67864  1.0000
  C   C197      1.0  0.93656  0.87078  0.61980  1.0000
  C   C198      1.0  0.95978  0.88188  0.53772  1.0000
  H   H155      1.0  0.99423  0.92092  0.45063  1.0000
  O  Te41      1.0  0.93999  0.94059  0.71220  1.0000
  O  Te42      1.0  0.90641  0.87858  0.76037  1.0000
  H   H156      1.0  0.96497  0.86685  0.49257  1.0000
  Mg  Mg21      1.0  0.90619  0.91432  0.81612  1.0000
  C   C199      1.0  0.57720  0.27053  0.70527  1.0000
  C   C200      1.0  0.59861  0.29408  0.63712  1.0000
  C  Sn43      1.0  0.59022  0.30844  0.54952  1.0000
  C  Sn44      1.0  0.55982  0.29900  0.53002  1.0000
  C   C201      1.0  0.53857  0.27543  0.59874  1.0000
  C   C202      1.0  0.54721  0.26121  0.68613  1.0000
  H   H157      1.0  0.58389  0.25954  0.77294  1.0000
  O  Te43      1.0  0.61189  0.33192  0.48220  1.0000
  O  Te44      1.0  0.55082  0.31296  0.44309  1.0000
  H   H158      1.0  0.53064  0.24299  0.73894  1.0000
  Mg  Mg22      1.0  0.58862  0.34391  0.37417  1.0000
  C   C203      1.0  0.73538  0.29360  0.70034  1.0000
  C   C204      1.0  0.72691  0.26789  0.63266  1.0000
  C  Sn45      1.0  0.70200  0.25629  0.55372  1.0000
  C  Sn46      1.0  0.68532  0.27076  0.54250  1.0000
  C   C205      1.0  0.69398  0.29648  0.61054  1.0000
  C   C206      1.0  0.71894  0.30789  0.68929  1.0000
  H   H159      1.0  0.75469  0.30244  0.76122  1.0000
  O  Te45      1.0  0.69385  0.23058  0.48681  1.0000
  O  Te46      1.0  0.66034  0.25965  0.46424  1.0000
  H   H160      1.0  0.72550  0.32781  0.74162  1.0000
  Mg  Mg23      1.0  0.65809  0.22399  0.39231  1.0000
  C   C207      1.0  0.73899  0.43195  0.52279  1.0000
  C   C208      1.0  0.73452  0.45298  0.58061  1.0000
  C  Sn47      1.0  0.71325  0.44426  0.67060  1.0000
  C  Sn48      1.0  0.69617  0.41390  0.70315  1.0000
  C   C209      1.0  0.70083  0.39303  0.64483  1.0000
  C   C210      1.0  0.72217  0.40200  0.55487  1.0000
  H   H161      1.0  0.75551  0.43889  0.45324  1.0000
  O  Te47      1.0  0.70906  0.46557  0.72742  1.0000
  O  Te48      1.0  0.67477  0.40458  0.79282  1.0000
  H   H162      1.0  0.72564  0.38571  0.51019  1.0000
  Mg  Mg24      1.0  0.67723  0.44194  0.84409  1.0000
