data_image0
_chemical_formula_structural       H204C210N36O12C2Sn2C2HTe2HMgC2Sn2C2HTe2HMgC2Sn2C2HTe2HMgC2Sn2C2HTe2HMgC2Sn2C2HTe2HMgC2Sn2C2HTe2HMgC2Sn2C2HTe2HMgC2Sn2C2HTe2HMgC2Sn2C2HTe2HMgC2Sn2C2HTe2HMgC2Sn2C2HTe2HMgC2Sn2C2HTe2HMg
_chemical_formula_sum              "H228 C258 N36 O12 Sn24 Te24 Mg12"
_cell_length_a       51.8223
_cell_length_b       51.5626
_cell_length_c       8.46391
_cell_angle_alpha    89.4791
_cell_angle_beta     90.9705
_cell_angle_gamma    119.957

_symmetry_space_group_name_H-M    'P1'
_space_group_IT_number       1

loop_
  _space_group_symop_operation_xyz
  'x, y, z'

loop_
  _atom_site_type_symbol
  _atom_site_label
  _atom_site_symmetry_multiplicity
  _atom_site_fract_x
  _atom_site_fract_y
  _atom_site_fract_z
  _atom_site_occupancy
  H   H1        1.0  0.04745  0.06468  0.07926  1.0000
  H   H2        1.0  0.96120  0.98557  0.08520  1.0000
  H   H3        1.0  0.03962  0.97766  0.05534  1.0000
  H   H4        1.0  0.28536  0.10640  0.27307  1.0000
  H   H5        1.0  0.87773  0.18418  0.34190  1.0000
  H   H6        1.0  0.81311  0.69000  0.31332  1.0000
  H   H7        1.0  0.62231  0.26643  0.14420  1.0000
  H   H8        1.0  0.70660  0.34799  0.13411  1.0000
  H   H9        1.0  0.62589  0.35138  0.17993  1.0000
  H   H10       1.0  0.33851  0.12831  0.23704  1.0000
  H   H11       1.0  0.85729  0.21585  0.27318  1.0000
  H   H12       1.0  0.78138  0.63720  0.26223  1.0000
  H   H13       1.0  0.38723  0.27491  0.20380  1.0000
  H   H14       1.0  0.75192  0.11241  0.26791  1.0000
  H   H15       1.0  0.88676  0.63922  0.26269  1.0000
  H   H16       1.0  0.40673  0.23864  0.09742  1.0000
  H   H17       1.0  0.78015  0.15975  0.12960  1.0000
  H   H18       1.0  0.83651  0.62167  0.14407  1.0000
  H   H19       1.0  0.32897  0.23257  0.33790  1.0000
  H   H20       1.0  0.78078  0.07605  0.29186  1.0000
  H   H21       1.0  0.92056  0.70419  0.30539  1.0000
  H   H22       1.0  0.25640  0.16688  0.51479  1.0000
  H   H23       1.0  0.82297  0.10389  0.68059  1.0000
  H   H24       1.0  0.90191  0.71937  0.57979  1.0000
  H   H25       1.0  0.35481  0.26550  0.44076  1.0000
  H   H26       1.0  0.75904  0.07615  0.45075  1.0000
  H   H27       1.0  0.91981  0.68046  0.45942  1.0000
  H   H28       1.0  0.20186  0.14314  0.55224  1.0000
  H   H29       1.0  0.84543  0.07157  0.71533  1.0000
  H   H30       1.0  0.93113  0.77446  0.61758  1.0000
  H   H31       1.0  0.33802  0.27273  0.10676  1.0000
  H   H32       1.0  0.73838  0.06249  0.10518  1.0000
  H   H33       1.0  0.94123  0.68243  0.12163  1.0000
  H   H34       1.0  0.32694  0.31245  0.47043  1.0000
  H   H35       1.0  0.67426  0.03249  0.44673  1.0000
  H   H36       1.0  0.97421  0.65558  0.46701  1.0000
  H   H37       1.0  0.24570  0.08089  0.40059  1.0000
  H   H38       1.0  0.88700  0.15312  0.31937  1.0000
  H   H39       1.0  0.82645  0.72736  0.42913  1.0000
  H   H40       1.0  0.33387  0.33658  0.30620  1.0000
  H   H41       1.0  0.66519  0.01527  0.25752  1.0000
  H   H42       1.0  0.98261  0.64570  0.28241  1.0000
  H   H43       1.0  0.38291  0.13915  0.29270  1.0000
  H   H44       1.0  0.29569  0.29606  0.14593  1.0000
  H   H45       1.0  0.68687  0.98764  0.37975  1.0000
  H   H46       1.0  0.00426  0.69646  0.18431  1.0000
  H   H47       1.0  0.43616  0.16349  0.22761  1.0000
  H   H48       1.0  0.27843  0.28653  0.33342  1.0000
  H   H49       1.0  0.71098  0.01841  0.50081  1.0000
  H   H50       1.0  0.01389  0.70420  0.38687  1.0000
  H   H51       1.0  0.44818  0.24862  0.36897  1.0000
  H   H52       1.0  0.28694  0.24458  0.18252  1.0000
  H   H53       1.0  0.71755  0.01105  0.14859  1.0000
  H   H54       1.0  0.98087  0.72628  0.24596  1.0000
  H   H55       1.0  0.39464  0.22503  0.42434  1.0000
  H   H56       1.0  0.29600  0.25108  0.38550  1.0000
  H   H57       1.0  0.74527  0.02228  0.29864  1.0000
  H   H58       1.0  0.97098  0.71007  0.43621  1.0000
  H   H59       1.0  0.15303  0.10104  0.54780  1.0000
  H   H60       1.0  0.88086  0.05597  0.64014  1.0000
  H   H61       1.0  0.93639  0.82374  0.59977  1.0000
  H   H62       1.0  0.44647  0.38426  0.34435  1.0000
  H   H63       1.0  0.69344  0.12201  0.02805  1.0000
  H   H64       1.0  0.88254  0.57684  0.02191  1.0000
  H   H65       1.0  0.48554  0.20683  0.21922  1.0000
  H   H66       1.0  0.76967  0.27616  0.15718  1.0000
  H   H67       1.0  0.71007  0.48946  0.23492  1.0000
  H   H68       1.0  0.45537  0.40459  0.16416  1.0000
  H   H69       1.0  0.65701  0.11717  0.00791  1.0000
  H   H70       1.0  0.88764  0.54551  0.99366  1.0000
  H   H71       1.0  0.10962  0.07463  0.37671  1.0000
  H   H72       1.0  0.89388  0.02550  0.40639  1.0000
  H   H73       1.0  0.95496  0.86665  0.43182  1.0000
  H   H74       1.0  0.42025  0.33673  0.45236  1.0000
  H   H75       1.0  0.63817  0.07897  0.65303  1.0000
  H   H76       1.0  0.92415  0.56154  0.65567  1.0000
  H   H77       1.0  0.05497  0.05208  0.39548  1.0000
  H   H78       1.0  0.91732  0.99389  0.42444  1.0000
  H   H79       1.0  0.98323  0.92178  0.44169  1.0000
  H   H80       1.0  0.43247  0.38190  0.63507  1.0000
  H   H81       1.0  0.63516  0.03695  0.47123  1.0000
  H   H82       1.0  0.96343  0.60172  0.46853  1.0000
  H   H83       1.0  0.08298  0.00283  0.19383  1.0000
  H   H84       1.0  0.94705  0.94390  0.22917  1.0000
  H   H85       1.0  0.41333  0.40131  0.98292  1.0000
  H   H86       1.0  0.61835  0.08937  0.19866  1.0000
  H   H87       1.0  0.91787  0.53418  0.16883  1.0000
  H   H88       1.0  0.13771  0.02558  0.16751  1.0000
  H   H89       1.0  0.91104  0.88965  0.19365  1.0000
  H   H90       1.0  0.37571  0.37784  0.04021  1.0000
  H   H91       1.0  0.62141  0.06525  0.33980  1.0000
  H   H92       1.0  0.94051  0.55907  0.32086  1.0000
  H   H93       1.0  0.74234  0.28994  0.31679  1.0000
  H   H94       1.0  0.38614  0.40384  0.30290  1.0000
  H   H95       1.0  0.67117  0.10652  0.45146  1.0000
  H   H96       1.0  0.89854  0.56475  0.43981  1.0000
  H   H97       1.0  0.71547  0.31820  0.30200  1.0000
  H   H98       1.0  0.41459  0.40547  0.43053  1.0000
  H   H99       1.0  0.69997  0.13018  0.31925  1.0000
  H   H100      1.0  0.87383  0.56994  0.31129  1.0000
  H   H101      1.0  0.65302  0.25439  0.96836  1.0000
  H   H102      1.0  0.42430  0.42769  0.25597  1.0000
  H   H103      1.0  0.66651  0.13178  0.32406  1.0000
  H   H104      1.0  0.87458  0.53587  0.30559  1.0000
  H   H105      1.0  0.67988  0.22562  0.98566  1.0000
  H   H106      1.0  0.01580  0.04612  0.55211  1.0000
  H   H107      1.0  0.93037  0.96550  0.56973  1.0000
  H   H108      1.0  0.01088  0.96087  0.59643  1.0000
  H   H109      1.0  0.31543  0.12532  0.80405  1.0000
  H   H110      1.0  0.88792  0.18236  0.77868  1.0000
  H   H111      1.0  0.81780  0.70801  0.76298  1.0000
  H   H112      1.0  0.64989  0.28622  0.66996  1.0000
  H   H113      1.0  0.73467  0.36764  0.67624  1.0000
  H   H114      1.0  0.65355  0.37104  0.63700  1.0000
  H   H115      1.0  0.36776  0.14737  0.74998  1.0000
  H   H116      1.0  0.86390  0.21187  0.73663  1.0000
  H   H117      1.0  0.78707  0.65433  0.72719  1.0000
  H   H118      1.0  0.35805  0.24578  0.75325  1.0000
  H   H119      1.0  0.72637  0.11065  0.70067  1.0000
  H   H120      1.0  0.88984  0.61634  0.70842  1.0000
  H   H121      1.0  0.37344  0.21231  0.63539  1.0000
  H   H122      1.0  0.76571  0.16619  0.60770  1.0000
  H   H123      1.0  0.83368  0.59811  0.61666  1.0000
  H   H124      1.0  0.29347  0.21759  0.79024  1.0000
  H   H125      1.0  0.76489  0.09112  0.85800  1.0000
  H   H126      1.0  0.90909  0.67538  0.84931  1.0000
  H   H127      1.0  0.31760  0.23885  0.94697  1.0000
  H   H128      1.0  0.73232  0.08703  0.94795  1.0000
  H   H129      1.0  0.91465  0.64809  0.94926  1.0000
  H   H130      1.0  0.31831  0.26148  0.60997  1.0000
  H   H131      1.0  0.72516  0.06063  0.62390  1.0000
  H   H132      1.0  0.93856  0.66523  0.61909  1.0000
  H   H133      1.0  0.19130  0.05724  0.44175  1.0000
  H   H134      1.0  0.91003  0.12214  0.36127  1.0000
  H   H135      1.0  0.85561  0.78198  0.46832  1.0000
  H   H136      1.0  0.34451  0.31945  0.96085  1.0000
  H   H137      1.0  0.68288  0.01686  0.00530  1.0000
  H   H138      1.0  0.98968  0.67296  0.98255  1.0000
  H   H139      1.0  0.35565  0.33829  0.77667  1.0000
  H   H140      1.0  0.65849  0.99717  0.84568  1.0000
  H   H141      1.0  0.00489  0.66508  0.81557  1.0000
  H   H142      1.0  0.75493  0.60879  0.76907  1.0000
  H   H143      1.0  0.30567  0.31180  0.66990  1.0000
  H   H144      1.0  0.69634  0.99164  0.71178  1.0000
  H   H145      1.0  0.00358  0.70460  0.66056  1.0000
  H   H146      1.0  0.72959  0.55596  0.68548  1.0000
  H   H147      1.0  0.29697  0.31235  0.87049  1.0000
  H   H148      1.0  0.70642  0.98910  0.90972  1.0000
  H   H149      1.0  0.01368  0.72192  0.84920  1.0000
  H   H150      1.0  0.80404  0.54800  0.85193  1.0000
  H   H151      1.0  0.27438  0.25813  0.72167  1.0000
  H   H152      1.0  0.74790  0.03286  0.71504  1.0000
  H   H153      1.0  0.96329  0.71628  0.70680  1.0000
  H   H154      1.0  0.83046  0.60127  0.92745  1.0000
  H   H155      1.0  0.28893  0.26225  0.91608  1.0000
  H   H156      1.0  0.74561  0.04092  0.91401  1.0000
  H   H157      1.0  0.96154  0.70598  0.90761  1.0000
  H   H158      1.0  0.18348  0.11816  0.09446  1.0000
  H   H159      1.0  0.90421  0.06220  0.09003  1.0000
  H   H160      1.0  0.94956  0.84073  0.02087  1.0000
  H   H161      1.0  0.42246  0.30590  0.53247  1.0000
  H   H162      1.0  0.61824  0.06842  0.83357  1.0000
  H   H163      1.0  0.93669  0.55344  0.83667  1.0000
  H   H164      1.0  0.51383  0.22880  0.69094  1.0000
  H   H165      1.0  0.78956  0.28309  0.72696  1.0000
  H   H166      1.0  0.72658  0.50796  0.67042  1.0000
  H   H167      1.0  0.45518  0.34155  0.51545  1.0000
  H   H168      1.0  0.59841  0.05852  0.65081  1.0000
  H   H169      1.0  0.94573  0.54328  0.65472  1.0000
  H   H170      1.0  0.14059  0.09833  0.90179  1.0000
  H   H171      1.0  0.96910  0.88403  0.85628  1.0000
  H   H172      1.0  0.43920  0.36484  0.16137  1.0000
  H   H173      1.0  0.66369  0.08797  0.95192  1.0000
  H   H174      1.0  0.91623  0.58194  0.94165  1.0000
  H   H175      1.0  0.08572  0.07464  0.91830  1.0000
  H   H176      1.0  0.00468  0.93825  0.88833  1.0000
  H   H177      1.0  0.39728  0.36170  0.97648  1.0000
  H   H178      1.0  0.61815  0.05645  0.13450  1.0000
  H   H179      1.0  0.94996  0.56878  0.11896  1.0000
  H   H180      1.0  0.05320  0.99113  0.75098  1.0000
  H   H181      1.0  0.99257  0.06493  0.66918  1.0000
  H   H182      1.0  0.91445  0.92161  0.71989  1.0000
  H   H183      1.0  0.46632  0.38305  0.69086  1.0000
  H   H184      1.0  0.59585  0.01487  0.48581  1.0000
  H   H185      1.0  0.98620  0.58493  0.47638  1.0000
  H   H186      1.0  0.10801  0.01340  0.72980  1.0000
  H   H187      1.0  0.97016  0.09717  0.63903  1.0000
  H   H188      1.0  0.88553  0.86615  0.70406  1.0000
  H   H189      1.0  0.44106  0.38026  0.83852  1.0000
  H   H190      1.0  0.61851  0.99969  0.54676  1.0000
  H   H191      1.0  0.00119  0.62273  0.53548  1.0000
  H   H192      1.0  0.70651  0.46373  0.82010  1.0000
  H   H193      1.0  0.43255  0.33054  0.95404  1.0000
  H   H194      1.0  0.59255  0.98691  0.81028  1.0000
  H   H195      1.0  0.01716  0.61039  0.79580  1.0000
  H   H196      1.0  0.67893  0.40885  0.79419  1.0000
  H   H197      1.0  0.42909  0.30210  0.82259  1.0000
  H   H198      1.0  0.59465  0.01592  0.93191  1.0000
  H   H199      1.0  0.98987  0.58352  0.92420  1.0000
  H   H200      1.0  0.75139  0.41262  0.53470  1.0000
  H   H201      1.0  0.46306  0.33696  0.83212  1.0000
  H   H202      1.0  0.57134  0.00445  0.76002  1.0000
  H   H203      1.0  0.00001  0.57152  0.75138  1.0000
  H   H204      1.0  0.77962  0.46788  0.56688  1.0000
  C   C1        1.0  0.30025  0.12650  0.33938  1.0000
  C   C2        1.0  0.85617  0.17827  0.38957  1.0000
  C   C3        1.0  0.81844  0.67458  0.37383  1.0000
  C   C4        1.0  0.09738  0.05703  0.46264  1.0000
  C   C5        1.0  0.91544  0.03397  0.46502  1.0000
  C   C6        1.0  0.94651  0.87859  0.49952  1.0000
  C   C7        1.0  0.33080  0.13887  0.31983  1.0000
  C   C8        1.0  0.84480  0.19700  0.35191  1.0000
  C   C9        1.0  0.80011  0.64420  0.34389  1.0000
  C   C10       1.0  0.06659  0.04425  0.47328  1.0000
  C   C11       1.0  0.92877  0.01620  0.47591  1.0000
  C   C12       1.0  0.96241  0.90975  0.50512  1.0000
  C   C13       1.0  0.35199  0.16574  0.39532  1.0000
  C   C14       1.0  0.81637  0.19057  0.40207  1.0000
  C   C15       1.0  0.80657  0.62249  0.40525  1.0000
  C   C16       1.0  0.08017  0.03703  0.05823  1.0000
  C   C17       1.0  0.97851  0.94505  0.06118  1.0000
  C   C18       1.0  0.33942  0.17836  0.49188  1.0000
  C   C19       1.0  0.80231  0.16571  0.50181  1.0000
  C   C20       1.0  0.83226  0.63409  0.50084  1.0000
  C   C21       1.0  0.09542  0.02343  0.12675  1.0000
  C   C22       1.0  0.95174  0.93089  0.14583  1.0000
  C   C23       1.0  0.34005  0.18800  0.02400  1.0000
  C   C24       1.0  0.82926  0.14377  0.01875  1.0000
  C   C25       1.0  0.85543  0.68640  0.01029  1.0000
  C   C26       1.0  0.12610  0.03616  0.11360  1.0000
  C   C27       1.0  0.93156  0.90055  0.12706  1.0000
  C   C28       1.0  0.28764  0.13981  0.43323  1.0000
  C   C29       1.0  0.84090  0.15168  0.48022  1.0000
  C   C30       1.0  0.84435  0.68642  0.47115  1.0000
  C   C31       1.0  0.72356  0.28286  0.23530  1.0000
  C   C32       1.0  0.70831  0.29864  0.22734  1.0000
  C   C33       1.0  0.36336  0.23069  0.14508  1.0000
  C   C34       1.0  0.79083  0.12514  0.16902  1.0000
  C   C35       1.0  0.87329  0.66582  0.16653  1.0000
  C   C36       1.0  0.68250  0.28859  0.13282  1.0000
  C   C37       1.0  0.67257  0.26215  0.04495  1.0000
  C   C38       1.0  0.25526  0.12589  0.45354  1.0000
  C   C39       1.0  0.85351  0.13175  0.50117  1.0000
  C   C40       1.0  0.86219  0.71897  0.49747  1.0000
  C   C41       1.0  0.68751  0.24601  0.05375  1.0000
  C   C42       1.0  0.38413  0.17985  0.36586  1.0000
  C   C43       1.0  0.04744  0.02283  0.06794  1.0000
  C   C44       1.0  0.00270  0.02719  0.08457  1.0000
  C   C45       1.0  0.99820  0.97779  0.07117  1.0000
  C   C46       1.0  0.24212  0.14301  0.49658  1.0000
  C   C47       1.0  0.84191  0.10780  0.61017  1.0000
  C   C48       1.0  0.89197  0.73312  0.55232  1.0000
  C   C49       1.0  0.62025  0.30715  0.16104  1.0000
  C   C50       1.0  0.66625  0.30532  0.13541  1.0000
  C   C51       1.0  0.66838  0.35363  0.15613  1.0000
  C   C52       1.0  0.21158  0.12955  0.51857  1.0000
  C   C53       1.0  0.85463  0.08965  0.62906  1.0000
  C   C54       1.0  0.90821  0.76403  0.57414  1.0000
  C   C55       1.0  0.03377  0.04040  0.07833  1.0000
  C   C56       1.0  0.98531  0.99595  0.08182  1.0000
  C   C57       1.0  0.02934  0.99151  0.06458  1.0000
  C   C58       1.0  0.19287  0.09847  0.50094  1.0000
  C   C59       1.0  0.87968  0.09483  0.54238  1.0000
  C   C60       1.0  0.89544  0.78213  0.54442  1.0000
  C   C61       1.0  0.63510  0.29078  0.14518  1.0000
  C   C62       1.0  0.68245  0.33664  0.13960  1.0000
  C   C63       1.0  0.63719  0.33856  0.16574  1.0000
  C   C64       1.0  0.23622  0.09473  0.43279  1.0000
  C   C65       1.0  0.87813  0.13605  0.41073  1.0000
  C   C66       1.0  0.84956  0.73742  0.46803  1.0000
  C   C67       1.0  0.34688  0.25580  0.32302  1.0000
  C   C68       1.0  0.76209  0.07932  0.32243  1.0000
  C   C69       1.0  0.91794  0.68206  0.33070  1.0000
  C   C70       1.0  0.39690  0.16318  0.30880  1.0000
  C   C71       1.0  0.33447  0.27353  0.23379  1.0000
  C   C72       1.0  0.73406  0.05663  0.23025  1.0000
  C   C73       1.0  0.94340  0.68031  0.24978  1.0000
  C   C74       1.0  0.42699  0.17688  0.27265  1.0000
  C   C75       1.0  0.44594  0.20792  0.29238  1.0000
  C   C76       1.0  0.32737  0.31364  0.34054  1.0000
  C   C77       1.0  0.68355  0.02803  0.34205  1.0000
  C   C78       1.0  0.97529  0.65988  0.33915  1.0000
  C   C79       1.0  0.43359  0.22466  0.35201  1.0000
  C   C80       1.0  0.29783  0.28964  0.26761  1.0000
  C   C81       1.0  0.70107  0.01206  0.38200  1.0000
  C   C82       1.0  0.99506  0.69327  0.30334  1.0000
  C   C83       1.0  0.40356  0.21100  0.38728  1.0000
  C   C84       1.0  0.30134  0.26178  0.26845  1.0000
  C   C85       1.0  0.72583  0.02385  0.25894  1.0000
  C   C86       1.0  0.97356  0.70548  0.31257  1.0000
  C   C87       1.0  0.19162  0.10361  0.04938  1.0000
  C   C88       1.0  0.91839  0.08616  0.06309  1.0000
  C   C89       1.0  0.92585  0.83366  0.00266  1.0000
  C   C90       1.0  0.37718  0.32550  0.23643  1.0000
  C   C91       1.0  0.69974  0.07803  0.21999  1.0000
  C   C92       1.0  0.92482  0.62490  0.22504  1.0000
  C   C93       1.0  0.47730  0.22201  0.25161  1.0000
  C   C94       1.0  0.75562  0.25192  0.17723  1.0000
  C   C95       1.0  0.73404  0.49743  0.24934  1.0000
  C   C96       1.0  0.40843  0.38079  0.21261  1.0000
  C   C97       1.0  0.66162  0.09284  0.20496  1.0000
  C   C98       1.0  0.91217  0.57262  0.19383  1.0000
  C   C99       1.0  0.14298  0.06378  0.03618  1.0000
  C   C100      1.0  0.93792  0.88310  0.02554  1.0000
  C   C101      1.0  0.43923  0.38357  0.22133  1.0000
  C   C102      1.0  0.66967  0.10589  0.03806  1.0000
  C   C103      1.0  0.89877  0.56922  0.02760  1.0000
  C   C104      1.0  0.71339  0.25625  0.14843  1.0000
  C   C105      1.0  0.39799  0.38024  0.04238  1.0000
  C   C106      1.0  0.62777  0.07474  0.22108  1.0000
  C   C107      1.0  0.93144  0.55785  0.20171  1.0000
  C   C108      1.0  0.40827  0.40592  0.30652  1.0000
  C   C109      1.0  0.67579  0.11675  0.33352  1.0000
  C   C110      1.0  0.88837  0.56021  0.32116  1.0000
  C   C111      1.0  0.33057  0.14628  0.86250  1.0000
  C   C112      1.0  0.86809  0.17665  0.84587  1.0000
  C   C113      1.0  0.82309  0.69341  0.83260  1.0000
  C   C114      1.0  0.12794  0.07769  0.96835  1.0000
  C   C115      1.0  0.96483  0.89700  0.94190  1.0000
  C   C116      1.0  0.36075  0.15883  0.83106  1.0000
  C   C117      1.0  0.85454  0.19387  0.82302  1.0000
  C   C118      1.0  0.80518  0.66257  0.81370  1.0000
  C   C119      1.0  0.09708  0.06433  0.97829  1.0000
  C   C120      1.0  0.98470  0.92750  0.95955  1.0000
  C   C121      1.0  0.38213  0.18727  0.88897  1.0000
  C   C122      1.0  0.82790  0.18753  0.89920  1.0000
  C   C123      1.0  0.81131  0.64181  0.89231  1.0000
  C   C124      1.0  0.04997  0.01996  0.57471  1.0000
  C   C125      1.0  0.95688  0.02676  0.54837  1.0000
  C   C126      1.0  0.95132  0.92609  0.58320  1.0000
  C   C127      1.0  0.37064  0.20081  0.98621  1.0000
  C   C128      1.0  0.81629  0.16231  0.99815  1.0000
  C   C129      1.0  0.83609  0.65501  0.99514  1.0000
  C   C130      1.0  0.06548  0.00921  0.66755  1.0000
  C   C131      1.0  0.97130  0.05629  0.60723  1.0000
  C   C132      1.0  0.92331  0.90972  0.65504  1.0000
  C   C133      1.0  0.30826  0.16681  0.50846  1.0000
  C   C134      1.0  0.81340  0.14625  0.54241  1.0000
  C   C135      1.0  0.85098  0.66498  0.53626  1.0000
  C   C136      1.0  0.09616  0.02161  0.65639  1.0000
  C   C137      1.0  0.95868  0.07450  0.59229  1.0000
  C   C138      1.0  0.90702  0.87861  0.64731  1.0000
  C   C139      1.0  0.31869  0.16004  0.95843  1.0000
  C   C140      1.0  0.85632  0.15117  0.94512  1.0000
  C   C141      1.0  0.84920  0.70658  0.92805  1.0000
  C   C142      1.0  0.71591  0.45268  0.75231  1.0000
  C   C143      1.0  0.70041  0.42167  0.73767  1.0000
  C   C144      1.0  0.32998  0.20597  0.65720  1.0000
  C   C145      1.0  0.77056  0.12847  0.65463  1.0000
  C   C146      1.0  0.87041  0.64142  0.65636  1.0000
  C   C147      1.0  0.71280  0.40641  0.66106  1.0000
  C   C148      1.0  0.74154  0.42371  0.59839  1.0000
  C   C149      1.0  0.75742  0.45471  0.61514  1.0000
  C   C150      1.0  0.79479  0.60961  0.85630  1.0000
  C   C151      1.0  0.01709  0.00525  0.57707  1.0000
  C   C152      1.0  0.97128  0.00813  0.56167  1.0000
  C   C153      1.0  0.96853  0.95926  0.58303  1.0000
  C   C154      1.0  0.64795  0.32688  0.65079  1.0000
  C   C155      1.0  0.69405  0.32477  0.67185  1.0000
  C   C156      1.0  0.69615  0.37330  0.65518  1.0000
  C   C157      1.0  0.00251  0.02192  0.56303  1.0000
  C   C158      1.0  0.95458  0.97667  0.57204  1.0000
  C   C159      1.0  0.99978  0.97401  0.58752  1.0000
  C   C160      1.0  0.66284  0.31051  0.66370  1.0000
  C   C161      1.0  0.71048  0.35626  0.66767  1.0000
  C   C162      1.0  0.66493  0.35816  0.64521  1.0000
  C   C163      1.0  0.20577  0.08126  0.45632  1.0000
  C   C164      1.0  0.89112  0.11840  0.43184  1.0000
  C   C165      1.0  0.86563  0.76810  0.49070  1.0000
  C   C166      1.0  0.31594  0.23613  0.81788  1.0000
  C   C167      1.0  0.74236  0.08730  0.83470  1.0000
  C   C168      1.0  0.91321  0.65668  0.83247  1.0000
  C   C169      1.0  0.76601  0.59578  0.78710  1.0000
  C   C170      1.0  0.31945  0.26469  0.73868  1.0000
  C   C171      1.0  0.72342  0.05681  0.75200  1.0000
  C   C172      1.0  0.94303  0.66806  0.74693  1.0000
  C   C173      1.0  0.75164  0.56594  0.74044  1.0000
  C   C174      1.0  0.76517  0.54828  0.76142  1.0000
  C   C175      1.0  0.34076  0.31676  0.83236  1.0000
  C   C176      1.0  0.68164  0.01319  0.87699  1.0000
  C   C177      1.0  0.98957  0.67260  0.85249  1.0000
  C   C178      1.0  0.79358  0.56162  0.83382  1.0000
  C   C179      1.0  0.30787  0.30449  0.78904  1.0000
  C   C180      1.0  0.70397  0.00387  0.82396  1.0000
  C   C181      1.0  0.99620  0.70283  0.78324  1.0000
  C   C182      1.0  0.80793  0.59140  0.87981  1.0000
  C   C183      1.0  0.29465  0.27046  0.79415  1.0000
  C   C184      1.0  0.73295  0.03384  0.80215  1.0000
  C   C185      1.0  0.96570  0.70088  0.78796  1.0000
  C   C186      1.0  0.16110  0.08516  0.53016  1.0000
  C   C187      1.0  0.89320  0.07601  0.56586  1.0000
  C   C188      1.0  0.91262  0.81442  0.56978  1.0000
  C   C189      1.0  0.37505  0.30003  0.72991  1.0000
  C   C190      1.0  0.67293  0.05145  0.73766  1.0000
  C   C191      1.0  0.95030  0.62406  0.73511  1.0000
  C   C192      1.0  0.50490  0.24405  0.70455  1.0000
  C   C193      1.0  0.77359  0.25946  0.75330  1.0000
  C   C194      1.0  0.74972  0.51706  0.71248  1.0000
  C   C195      1.0  0.42748  0.33911  0.70751  1.0000
  C   C196      1.0  0.61833  0.03166  0.71085  1.0000
  C   C197      1.0  0.97153  0.59041  0.70554  1.0000
  C   C198      1.0  0.11265  0.04579  0.55373  1.0000
  C   C199      1.0  0.93021  0.06349  0.52327  1.0000
  C   C200      1.0  0.91844  0.86237  0.57085  1.0000
  C   C201      1.0  0.43130  0.33002  0.54178  1.0000
  C   C202      1.0  0.61850  0.06139  0.71218  1.0000
  C   C203      1.0  0.94257  0.56037  0.71365  1.0000
  C   C204      1.0  0.74486  0.46984  0.69202  1.0000
  C   C205      1.0  0.44266  0.37321  0.71921  1.0000
  C   C206      1.0  0.61707  0.02021  0.54351  1.0000
  C   C207      1.0  0.98105  0.60058  0.53607  1.0000
  C   C208      1.0  0.43870  0.32629  0.83761  1.0000
  C   C209      1.0  0.59266  0.00824  0.80947  1.0000
  C   C210      1.0  0.99621  0.58897  0.80010  1.0000
  N   N1        1.0  0.38504  0.22865  0.06144  1.0000
  N   N2        1.0  0.79139  0.14943  0.09392  1.0000
  N   N3        1.0  0.84844  0.64229  0.09466  1.0000
  N   N4        1.0  0.33635  0.20749  0.12267  1.0000
  N   N5        1.0  0.81236  0.12039  0.12253  1.0000
  N   N6        1.0  0.87888  0.69235  0.11478  1.0000
  N   N7        1.0  0.37093  0.25457  0.24336  1.0000
  N   N8        1.0  0.77027  0.10994  0.28252  1.0000
  N   N9        1.0  0.88834  0.65964  0.28003  1.0000
  N   N10       1.0  0.34886  0.30552  0.28024  1.0000
  N   N11       1.0  0.70605  0.05655  0.27155  1.0000
  N   N12       1.0  0.94561  0.65270  0.27831  1.0000
  N   N13       1.0  0.17370  0.07551  0.02275  1.0000
  N   N14       1.0  0.94707  0.09856  0.06245  1.0000
  N   N15       1.0  0.91668  0.85276  0.00822  1.0000
  N   N16       1.0  0.49454  0.25076  0.25053  1.0000
  N   N17       1.0  0.72693  0.23874  0.16473  1.0000
  N   N18       1.0  0.74450  0.47948  0.23591  1.0000
  N   N19       1.0  0.35281  0.20393  0.58593  1.0000
  N   N20       1.0  0.77452  0.15346  0.57247  1.0000
  N   N21       1.0  0.84564  0.61950  0.57617  1.0000
  N   N22       1.0  0.30317  0.18512  0.60891  1.0000
  N   N23       1.0  0.79263  0.12285  0.63680  1.0000
  N   N24       1.0  0.87475  0.66873  0.63349  1.0000
  N   N25       1.0  0.33713  0.22761  0.76715  1.0000
  N   N26       1.0  0.74580  0.11300  0.74597  1.0000
  N   N27       1.0  0.88722  0.63340  0.74978  1.0000
  N   N28       1.0  0.34727  0.29362  0.77613  1.0000
  N   N29       1.0  0.69138  0.04157  0.79270  1.0000
  N   N30       1.0  0.95929  0.65205  0.79168  1.0000
  N   N31       1.0  0.14324  0.05662  0.53857  1.0000
  N   N32       1.0  0.91854  0.08273  0.50608  1.0000
  N   N33       1.0  0.90066  0.83121  0.56012  1.0000
  N   N34       1.0  0.52169  0.27266  0.68874  1.0000
  N   N35       1.0  0.74519  0.24934  0.74912  1.0000
  N   N36       1.0  0.76219  0.50069  0.71798  1.0000
  O   O1        1.0  0.39312  0.31887  0.15921  1.0000
  O   O2        1.0  0.71859  0.10274  0.16681  1.0000
  O   O3        1.0  0.89966  0.61836  0.17483  1.0000
  O   O4        1.0  0.38547  0.35344  0.29380  1.0000
  O   O5        1.0  0.67048  0.06937  0.23218  1.0000
  O   O6        1.0  0.93454  0.60485  0.23045  1.0000
  O   O7        1.0  0.38127  0.28107  0.68335  1.0000
  O   O8        1.0  0.68101  0.07355  0.65075  1.0000
  O   O9        1.0  0.92782  0.60954  0.65132  1.0000
  O   O10       1.0  0.39541  0.32964  0.73855  1.0000
  O   O11       1.0  0.64476  0.03387  0.79473  1.0000
  O   O12       1.0  0.96924  0.61444  0.78838  1.0000
  C   C211      1.0  0.54915  0.25111  0.29799  1.0000
  C   C212      1.0  0.52893  0.25998  0.24700  1.0000
  C  Sn1       1.0  0.53830  0.28508  0.14998  1.0000
  C  Sn2       1.0  0.56849  0.30156  0.10330  1.0000
  C   C213      1.0  0.58854  0.29250  0.15485  1.0000
  C   C214      1.0  0.57893  0.26735  0.25195  1.0000
  H   H205      1.0  0.54171  0.23165  0.37305  1.0000
  O  Te1       1.0  0.51780  0.29363  0.10015  1.0000
  O  Te2       1.0  0.57845  0.32674  0.00634  1.0000
  H   H206      1.0  0.59459  0.26049  0.29133  1.0000
  Mg  Mg1       1.0  0.54478  0.32939  0.96911  1.0000
  C   C215      1.0  0.77572  0.19458  0.87949  1.0000
  C   C216      1.0  0.80531  0.20161  0.86317  1.0000
  C  Sn3       1.0  0.82700  0.23041  0.81792  1.0000
  C  Sn4       1.0  0.81885  0.25252  0.78859  1.0000
  C   C217      1.0  0.78919  0.24527  0.80535  1.0000
  C   C218      1.0  0.76766  0.21638  0.85064  1.0000
  H   H207      1.0  0.75907  0.17223  0.91461  1.0000
  O  Te3       1.0  0.85646  0.23705  0.80211  1.0000
  O  Te4       1.0  0.84008  0.28148  0.74327  1.0000
  H   H208      1.0  0.74476  0.21095  0.86337  1.0000
  Mg  Mg2       1.0  0.87733  0.27968  0.73759  1.0000
  C   C219      1.0  0.68117  0.40934  0.30022  1.0000
  C   C220      1.0  0.68350  0.39038  0.19162  1.0000
  C  Sn5       1.0  0.70835  0.40119  0.09470  1.0000
  C  Sn6       1.0  0.73125  0.43154  0.10704  1.0000
  C   C221      1.0  0.72872  0.45032  0.21614  1.0000
  C   C222      1.0  0.70376  0.43928  0.31251  1.0000
  H   H209      1.0  0.66187  0.40079  0.37485  1.0000
  O  Te5       1.0  0.71301  0.38181  0.98679  1.0000
  O  Te6       1.0  0.75633  0.44293  0.01166  1.0000
  H   H210      1.0  0.70197  0.45396  0.39666  1.0000
  Mg  Mg3       1.0  0.75152  0.40779  0.88262  1.0000
  C   C223      1.0  0.43351  0.18411  0.79451  1.0000
  C   C224      1.0  0.41689  0.19726  0.84060  1.0000
  C  Sn7       1.0  0.42893  0.22823  0.82962  1.0000
  C  Sn8       1.0  0.45815  0.24631  0.77133  1.0000
  C   C225      1.0  0.47459  0.23294  0.72541  1.0000
  C   C226      1.0  0.46233  0.20193  0.73694  1.0000
  H   H211      1.0  0.42401  0.16012  0.80334  1.0000
  O  Te7       1.0  0.41202  0.24100  0.87625  1.0000
  O  Te8       1.0  0.47073  0.27732  0.75906  1.0000
  H   H212      1.0  0.47519  0.19175  0.70114  1.0000
  Mg  Mg4       1.0  0.43889  0.28426  0.83739  1.0000
  C   C227      1.0  0.85651  0.09719  0.03681  1.0000
  C   C228      1.0  0.87067  0.12708  0.99532  1.0000
  C  Sn9       1.0  0.90089  0.14506  0.96205  1.0000
  C  Sn10      1.0  0.91994  0.13268  0.97053  1.0000
  C   C229      1.0  0.90556  0.10274  0.01203  1.0000
  C   C230      1.0  0.87528  0.08495  0.04514  1.0000
  H   H213      1.0  0.83308  0.08341  0.06235  1.0000
  O  Te9       1.0  0.91197  0.17503  0.92084  1.0000
  O  Te10      1.0  0.95023  0.15015  0.93781  1.0000
  H   H214      1.0  0.86641  0.06170  0.07716  1.0000
  Mg  Mg5       1.0  0.95483  0.18979  0.88697  1.0000
  C   C231      1.0  0.75476  0.19810  0.27313  1.0000
  C   C232      1.0  0.76627  0.22848  0.24001  1.0000
  C  Sn11      1.0  0.79693  0.24832  0.25009  1.0000
  C  Sn12      1.0  0.81638  0.23748  0.29412  1.0000
  C   C233      1.0  0.80465  0.20704  0.32690  1.0000
  C   C234      1.0  0.77393  0.18738  0.31651  1.0000
  H   H215      1.0  0.73100  0.18289  0.26501  1.0000
  O  Te11      1.0  0.80805  0.27861  0.21666  1.0000
  O  Te12      1.0  0.84711  0.25682  0.30504  1.0000
  H   H216      1.0  0.76503  0.16386  0.34206  1.0000
  Mg  Mg6       1.0  0.85158  0.29617  0.24798  1.0000
  C   C235      1.0  0.24260  0.10220  0.93188  1.0000
  C   C236      1.0  0.22371  0.11288  0.01306  1.0000
  C  Sn13      1.0  0.23810  0.14177  0.07616  1.0000
  C  Sn14      1.0  0.26926  0.16041  0.05741  1.0000
  C   C237      1.0  0.28795  0.14952  0.97590  1.0000
  C   C238      1.0  0.27334  0.12057  0.91328  1.0000
  H   H217      1.0  0.23129  0.07981  0.88336  1.0000
  O  Te13      1.0  0.22159  0.15195  0.15698  1.0000
  O  Te14      1.0  0.28419  0.18938  0.11923  1.0000
  H   H218      1.0  0.28587  0.11242  0.85034  1.0000
  Mg  Mg7       1.0  0.25199  0.19311  0.21993  1.0000
  C   C239      1.0  0.80041  0.56442  0.34783  1.0000
  C   C240      1.0  0.79261  0.58674  0.35029  1.0000
  C  Sn15      1.0  0.76303  0.57944  0.32504  1.0000
  C  Sn16      1.0  0.74089  0.54922  0.29687  1.0000
  C   C241      1.0  0.74891  0.52706  0.29475  1.0000
  C   C242      1.0  0.77858  0.53461  0.32011  1.0000
  H   H219      1.0  0.82336  0.57026  0.36754  1.0000
  O  Te15      1.0  0.75562  0.60201  0.32783  1.0000
  O  Te16      1.0  0.71115  0.54131  0.27132  1.0000
  H   H220      1.0  0.78461  0.51732  0.31830  1.0000
  Mg  Mg8       1.0  0.71209  0.58007  0.28649  1.0000
  C   C243      1.0  0.85807  0.76649  0.92404  1.0000
  C   C244      1.0  0.86551  0.74391  0.92662  1.0000
  C  Sn17      1.0  0.89467  0.75074  0.96211  1.0000
  C  Sn18      1.0  0.91673  0.78076  0.99565  1.0000
  C   C245      1.0  0.90905  0.80319  0.99287  1.0000
  C   C246      1.0  0.87981  0.79610  0.95716  1.0000
  H   H221      1.0  0.83544  0.76100  0.89649  1.0000
  O  Te17      1.0  0.90173  0.72791  0.96412  1.0000
  O  Te18      1.0  0.94334  0.78835  0.03155  1.0000
  H   H222      1.0  0.87405  0.81359  0.95527  1.0000
  Mg  Mg9       1.0  0.94204  0.74939  0.01953  1.0000
  C   C247      1.0  0.73960  0.31383  0.80544  1.0000
  C   C248      1.0  0.71604  0.30985  0.70645  1.0000
  C  Sn19      1.0  0.70023  0.28365  0.61771  1.0000
  C  Sn20      1.0  0.70820  0.26106  0.62855  1.0000
  C   C249      1.0  0.73179  0.26525  0.72802  1.0000
  C   C250      1.0  0.74746  0.29155  0.81626  1.0000
  H   H223      1.0  0.75172  0.33417  0.87379  1.0000
  O  Te19      1.0  0.67676  0.28005  0.51935  1.0000
  O  Te20      1.0  0.69276  0.23466  0.54122  1.0000
  H   H224      1.0  0.76569  0.29462  0.89297  1.0000
  Mg  Mg10      1.0  0.66246  0.24015  0.42377  1.0000
  C   C251      1.0  0.99942  0.07903  0.18464  1.0000
  C   C252      1.0  0.99037  0.05113  0.11656  1.0000
  C  Sn21      1.0  0.96553  0.03800  0.01533  1.0000
  C  Sn22      1.0  0.95221  0.05300  0.98182  1.0000
  C   C253      1.0  0.95877  0.08105  0.05043  1.0000
  C   C254      1.0  0.98365  0.09398  0.15160  1.0000
  H   H225      1.0  0.01868  0.08904  0.26285  1.0000
  O  Te21      1.0  0.95947  0.00998  0.94837  1.0000
  O  Te22      1.0  0.92732  0.04039  0.88101  1.0000
  H   H226      1.0  0.99067  0.11559  0.20420  1.0000
  Mg  Mg11      1.0  0.92409  0.00196  0.81852  1.0000
  C   C255      1.0  0.59213  0.32191  0.54767  1.0000
  C   C256      1.0  0.61183  0.31604  0.63442  1.0000
  C  Sn23      1.0  0.60099  0.29250  0.74317  1.0000
  C  Sn24      1.0  0.56984  0.27455  0.76521  1.0000
  C   C257      1.0  0.55030  0.28059  0.67776  1.0000
  C   C258      1.0  0.56139  0.30420  0.56928  1.0000
  H   H227      1.0  0.60070  0.34017  0.46367  1.0000
  O  Te23      1.0  0.62099  0.28695  0.82891  1.0000
  O  Te24      1.0  0.55840  0.25088  0.87308  1.0000
  H   H228      1.0  0.54613  0.30873  0.50206  1.0000
  Mg  Mg12      1.0  0.59461  0.25216  0.96205  1.0000
