data_image0
_chemical_formula_structural       H156C138N36O12SnCSn2CSnTe4Mg2SnCSn2CSnTe4Mg2SnCSn2CSnTe4Mg2SnCSn2CSnTe4Mg2SnCSn2CSnTe4Mg2SnCSn2CSnTe4Mg2SnCSn2CSnTe4Mg2SnCSn2CSnTe4Mg2SnCSn2CSnTe4Mg2SnCSn2CSnTe4Mg2SnCSn2CSnTe4Mg2SnCSn2CSnTe4Mg2SnCSn2CSnTe4Mg2SnCSn2CSnTe4Mg2SnCSn2CSnTe4Mg2SnCSn2CSnTe4Mg2SnCSn2CSnTe4Mg2SnCSn2CSnTe4Mg2SnCSn2CSnTe4Mg2SnCSn2CSnTe4Mg2SnCSn2CSnTe4Mg2SnCSn2CSnTe4Mg2SnCSn2CSnTe4Mg2SnCSn2CSnTe4Mg2
_chemical_formula_sum              "H156 C186 N36 O12 Sn96 Te96 Mg48"
_cell_length_a       51.8223
_cell_length_b       51.5626
_cell_length_c       8.46391
_cell_angle_alpha    89.4791
_cell_angle_beta     90.9705
_cell_angle_gamma    119.957

_symmetry_space_group_name_H-M    'P1'
_space_group_IT_number       1

loop_
  _space_group_symop_operation_xyz
  'x, y, z'

loop_
  _atom_site_type_symbol
  _atom_site_label
  _atom_site_symmetry_multiplicity
  _atom_site_fract_x
  _atom_site_fract_y
  _atom_site_fract_z
  _atom_site_occupancy
  H   H1        1.0  0.04745  0.06468  0.07926  1.0000
  H   H2        1.0  0.96120  0.98557  0.08520  1.0000
  H   H3        1.0  0.03962  0.97766  0.05534  1.0000
  H   H4        1.0  0.28536  0.10640  0.27307  1.0000
  H   H5        1.0  0.87773  0.18418  0.34190  1.0000
  H   H6        1.0  0.81311  0.69000  0.31332  1.0000
  H   H7        1.0  0.62231  0.26643  0.14420  1.0000
  H   H8        1.0  0.70660  0.34799  0.13411  1.0000
  H   H9        1.0  0.62589  0.35138  0.17993  1.0000
  H   H10       1.0  0.33851  0.12831  0.23704  1.0000
  H   H11       1.0  0.85729  0.21585  0.27318  1.0000
  H   H12       1.0  0.78138  0.63720  0.26223  1.0000
  H   H13       1.0  0.38723  0.27491  0.20380  1.0000
  H   H14       1.0  0.75192  0.11241  0.26791  1.0000
  H   H15       1.0  0.88676  0.63922  0.26269  1.0000
  H   H16       1.0  0.40673  0.23864  0.09742  1.0000
  H   H17       1.0  0.78015  0.15975  0.12960  1.0000
  H   H18       1.0  0.83651  0.62167  0.14407  1.0000
  H   H19       1.0  0.32897  0.23257  0.33790  1.0000
  H   H20       1.0  0.78078  0.07605  0.29186  1.0000
  H   H21       1.0  0.92056  0.70419  0.30539  1.0000
  H   H22       1.0  0.35481  0.26550  0.44076  1.0000
  H   H23       1.0  0.75904  0.07615  0.45075  1.0000
  H   H24       1.0  0.91981  0.68046  0.45942  1.0000
  H   H25       1.0  0.33802  0.27273  0.10676  1.0000
  H   H26       1.0  0.73838  0.06249  0.10518  1.0000
  H   H27       1.0  0.94123  0.68243  0.12163  1.0000
  H   H28       1.0  0.32694  0.31245  0.47043  1.0000
  H   H29       1.0  0.67426  0.03249  0.44673  1.0000
  H   H30       1.0  0.97421  0.65558  0.46701  1.0000
  H   H31       1.0  0.33387  0.33658  0.30620  1.0000
  H   H32       1.0  0.66519  0.01527  0.25752  1.0000
  H   H33       1.0  0.98261  0.64570  0.28241  1.0000
  H   H34       1.0  0.29569  0.29606  0.14593  1.0000
  H   H35       1.0  0.68687  0.98764  0.37975  1.0000
  H   H36       1.0  0.00426  0.69646  0.18431  1.0000
  H   H37       1.0  0.27843  0.28653  0.33342  1.0000
  H   H38       1.0  0.71098  0.01841  0.50081  1.0000
  H   H39       1.0  0.01389  0.70420  0.38687  1.0000
  H   H40       1.0  0.28694  0.24458  0.18252  1.0000
  H   H41       1.0  0.71755  0.01105  0.14859  1.0000
  H   H42       1.0  0.98087  0.72628  0.24596  1.0000
  H   H43       1.0  0.29600  0.25108  0.38550  1.0000
  H   H44       1.0  0.74527  0.02228  0.29864  1.0000
  H   H45       1.0  0.97098  0.71007  0.43621  1.0000
  H   H46       1.0  0.15303  0.10104  0.54780  1.0000
  H   H47       1.0  0.88086  0.05597  0.64014  1.0000
  H   H48       1.0  0.93639  0.82374  0.59977  1.0000
  H   H49       1.0  0.44647  0.38426  0.34435  1.0000
  H   H50       1.0  0.69344  0.12201  0.02805  1.0000
  H   H51       1.0  0.88254  0.57684  0.02191  1.0000
  H   H52       1.0  0.48554  0.20683  0.21922  1.0000
  H   H53       1.0  0.76967  0.27616  0.15718  1.0000
  H   H54       1.0  0.71007  0.48946  0.23492  1.0000
  H   H55       1.0  0.45537  0.40459  0.16416  1.0000
  H   H56       1.0  0.65701  0.11717  0.00791  1.0000
  H   H57       1.0  0.88764  0.54551  0.99366  1.0000
  H   H58       1.0  0.42025  0.33673  0.45236  1.0000
  H   H59       1.0  0.63817  0.07897  0.65303  1.0000
  H   H60       1.0  0.92415  0.56154  0.65567  1.0000
  H   H61       1.0  0.43247  0.38190  0.63507  1.0000
  H   H62       1.0  0.63516  0.03695  0.47123  1.0000
  H   H63       1.0  0.96343  0.60172  0.46853  1.0000
  H   H64       1.0  0.41333  0.40131  0.98292  1.0000
  H   H65       1.0  0.61835  0.08937  0.19866  1.0000
  H   H66       1.0  0.91787  0.53418  0.16883  1.0000
  H   H67       1.0  0.37571  0.37784  0.04021  1.0000
  H   H68       1.0  0.62141  0.06525  0.33980  1.0000
  H   H69       1.0  0.94051  0.55907  0.32086  1.0000
  H   H70       1.0  0.38614  0.40384  0.30290  1.0000
  H   H71       1.0  0.67117  0.10652  0.45146  1.0000
  H   H72       1.0  0.89854  0.56475  0.43981  1.0000
  H   H73       1.0  0.41459  0.40547  0.43053  1.0000
  H   H74       1.0  0.69997  0.13018  0.31925  1.0000
  H   H75       1.0  0.87383  0.56994  0.31129  1.0000
  H   H76       1.0  0.42430  0.42769  0.25597  1.0000
  H   H77       1.0  0.66651  0.13178  0.32406  1.0000
  H   H78       1.0  0.87458  0.53587  0.30559  1.0000
  H   H79       1.0  0.01580  0.04612  0.55211  1.0000
  H   H80       1.0  0.93037  0.96550  0.56973  1.0000
  H   H81       1.0  0.01088  0.96087  0.59643  1.0000
  H   H82       1.0  0.31543  0.12532  0.80405  1.0000
  H   H83       1.0  0.88792  0.18236  0.77868  1.0000
  H   H84       1.0  0.81780  0.70801  0.76298  1.0000
  H   H85       1.0  0.64989  0.28622  0.66996  1.0000
  H   H86       1.0  0.73467  0.36764  0.67624  1.0000
  H   H87       1.0  0.65355  0.37104  0.63700  1.0000
  H   H88       1.0  0.36776  0.14737  0.74998  1.0000
  H   H89       1.0  0.86390  0.21187  0.73663  1.0000
  H   H90       1.0  0.78707  0.65433  0.72719  1.0000
  H   H91       1.0  0.35805  0.24578  0.75325  1.0000
  H   H92       1.0  0.72637  0.11065  0.70067  1.0000
  H   H93       1.0  0.88984  0.61634  0.70842  1.0000
  H   H94       1.0  0.37344  0.21231  0.63539  1.0000
  H   H95       1.0  0.76571  0.16619  0.60770  1.0000
  H   H96       1.0  0.83368  0.59811  0.61666  1.0000
  H   H97       1.0  0.29347  0.21759  0.79024  1.0000
  H   H98       1.0  0.76489  0.09112  0.85800  1.0000
  H   H99       1.0  0.90909  0.67538  0.84931  1.0000
  H   H100      1.0  0.31760  0.23885  0.94697  1.0000
  H   H101      1.0  0.73232  0.08703  0.94795  1.0000
  H   H102      1.0  0.91465  0.64809  0.94926  1.0000
  H   H103      1.0  0.31831  0.26148  0.60997  1.0000
  H   H104      1.0  0.72516  0.06063  0.62390  1.0000
  H   H105      1.0  0.93856  0.66523  0.61909  1.0000
  H   H106      1.0  0.34451  0.31945  0.96085  1.0000
  H   H107      1.0  0.68288  0.01686  0.00530  1.0000
  H   H108      1.0  0.98968  0.67296  0.98255  1.0000
  H   H109      1.0  0.35565  0.33829  0.77667  1.0000
  H   H110      1.0  0.65849  0.99717  0.84568  1.0000
  H   H111      1.0  0.00489  0.66508  0.81557  1.0000
  H   H112      1.0  0.30567  0.31180  0.66990  1.0000
  H   H113      1.0  0.69634  0.99164  0.71178  1.0000
  H   H114      1.0  0.00358  0.70460  0.66056  1.0000
  H   H115      1.0  0.29697  0.31235  0.87049  1.0000
  H   H116      1.0  0.70642  0.98910  0.90972  1.0000
  H   H117      1.0  0.01368  0.72192  0.84920  1.0000
  H   H118      1.0  0.27438  0.25813  0.72167  1.0000
  H   H119      1.0  0.74790  0.03286  0.71504  1.0000
  H   H120      1.0  0.96329  0.71628  0.70680  1.0000
  H   H121      1.0  0.28893  0.26225  0.91608  1.0000
  H   H122      1.0  0.74561  0.04092  0.91401  1.0000
  H   H123      1.0  0.96154  0.70598  0.90761  1.0000
  H   H124      1.0  0.18348  0.11816  0.09446  1.0000
  H   H125      1.0  0.90421  0.06220  0.09003  1.0000
  H   H126      1.0  0.94956  0.84073  0.02087  1.0000
  H   H127      1.0  0.42246  0.30590  0.53247  1.0000
  H   H128      1.0  0.61824  0.06842  0.83357  1.0000
  H   H129      1.0  0.93669  0.55344  0.83667  1.0000
  H   H130      1.0  0.51383  0.22880  0.69094  1.0000
  H   H131      1.0  0.78956  0.28309  0.72696  1.0000
  H   H132      1.0  0.72658  0.50796  0.67042  1.0000
  H   H133      1.0  0.45518  0.34155  0.51545  1.0000
  H   H134      1.0  0.59841  0.05852  0.65081  1.0000
  H   H135      1.0  0.94573  0.54328  0.65472  1.0000
  H   H136      1.0  0.43920  0.36484  0.16137  1.0000
  H   H137      1.0  0.66369  0.08797  0.95192  1.0000
  H   H138      1.0  0.91623  0.58194  0.94165  1.0000
  H   H139      1.0  0.39728  0.36170  0.97648  1.0000
  H   H140      1.0  0.61815  0.05645  0.13450  1.0000
  H   H141      1.0  0.94996  0.56878  0.11896  1.0000
  H   H142      1.0  0.46632  0.38305  0.69086  1.0000
  H   H143      1.0  0.59585  0.01487  0.48581  1.0000
  H   H144      1.0  0.98620  0.58493  0.47638  1.0000
  H   H145      1.0  0.44106  0.38026  0.83852  1.0000
  H   H146      1.0  0.61851  0.99969  0.54676  1.0000
  H   H147      1.0  0.00119  0.62273  0.53548  1.0000
  H   H148      1.0  0.43255  0.33054  0.95404  1.0000
  H   H149      1.0  0.59255  0.98691  0.81028  1.0000
  H   H150      1.0  0.01716  0.61039  0.79580  1.0000
  H   H151      1.0  0.42909  0.30210  0.82259  1.0000
  H   H152      1.0  0.59465  0.01592  0.93191  1.0000
  H   H153      1.0  0.98987  0.58352  0.92420  1.0000
  H   H154      1.0  0.46306  0.33696  0.83212  1.0000
  H   H155      1.0  0.57134  0.00445  0.76002  1.0000
  H   H156      1.0  0.00001  0.57152  0.75138  1.0000
  C   C1        1.0  0.30025  0.12650  0.33938  1.0000
  C   C2        1.0  0.85617  0.17827  0.38957  1.0000
  C   C3        1.0  0.81844  0.67458  0.37383  1.0000
  C   C4        1.0  0.33080  0.13887  0.31983  1.0000
  C   C5        1.0  0.84480  0.19700  0.35191  1.0000
  C   C6        1.0  0.80011  0.64420  0.34389  1.0000
  C   C7        1.0  0.35199  0.16574  0.39532  1.0000
  C   C8        1.0  0.81637  0.19057  0.40207  1.0000
  C   C9        1.0  0.80657  0.62249  0.40525  1.0000
  C   C10       1.0  0.33942  0.17836  0.49188  1.0000
  C   C11       1.0  0.80231  0.16571  0.50181  1.0000
  C   C12       1.0  0.83226  0.63409  0.50084  1.0000
  C   C13       1.0  0.34005  0.18800  0.02400  1.0000
  C   C14       1.0  0.82926  0.14377  0.01875  1.0000
  C   C15       1.0  0.85543  0.68640  0.01029  1.0000
  C   C16       1.0  0.28764  0.13981  0.43323  1.0000
  C   C17       1.0  0.84090  0.15168  0.48022  1.0000
  C   C18       1.0  0.84435  0.68642  0.47115  1.0000
  C   C19       1.0  0.36336  0.23069  0.14508  1.0000
  C   C20       1.0  0.79083  0.12514  0.16902  1.0000
  C   C21       1.0  0.87329  0.66582  0.16653  1.0000
  C   C22       1.0  0.04744  0.02283  0.06794  1.0000
  C   C23       1.0  0.00270  0.02719  0.08457  1.0000
  C   C24       1.0  0.99820  0.97779  0.07117  1.0000
  C   C25       1.0  0.62025  0.30715  0.16104  1.0000
  C   C26       1.0  0.66625  0.30532  0.13541  1.0000
  C   C27       1.0  0.66838  0.35363  0.15613  1.0000
  C   C28       1.0  0.03377  0.04040  0.07833  1.0000
  C   C29       1.0  0.98531  0.99595  0.08182  1.0000
  C   C30       1.0  0.02934  0.99151  0.06458  1.0000
  C   C31       1.0  0.63510  0.29078  0.14518  1.0000
  C   C32       1.0  0.68245  0.33664  0.13960  1.0000
  C   C33       1.0  0.63719  0.33856  0.16574  1.0000
  C   C34       1.0  0.34688  0.25580  0.32302  1.0000
  C   C35       1.0  0.76209  0.07932  0.32243  1.0000
  C   C36       1.0  0.91794  0.68206  0.33070  1.0000
  C   C37       1.0  0.33447  0.27353  0.23379  1.0000
  C   C38       1.0  0.73406  0.05663  0.23025  1.0000
  C   C39       1.0  0.94340  0.68031  0.24978  1.0000
  C   C40       1.0  0.32737  0.31364  0.34054  1.0000
  C   C41       1.0  0.68355  0.02803  0.34205  1.0000
  C   C42       1.0  0.97529  0.65988  0.33915  1.0000
  C   C43       1.0  0.29783  0.28964  0.26761  1.0000
  C   C44       1.0  0.70107  0.01206  0.38200  1.0000
  C   C45       1.0  0.99506  0.69327  0.30334  1.0000
  C   C46       1.0  0.30134  0.26178  0.26845  1.0000
  C   C47       1.0  0.72583  0.02385  0.25894  1.0000
  C   C48       1.0  0.97356  0.70548  0.31257  1.0000
  C   C49       1.0  0.19162  0.10361  0.04938  1.0000
  C   C50       1.0  0.91839  0.08616  0.06309  1.0000
  C   C51       1.0  0.92585  0.83366  0.00266  1.0000
  C   C52       1.0  0.37718  0.32550  0.23643  1.0000
  C   C53       1.0  0.69974  0.07803  0.21999  1.0000
  C   C54       1.0  0.92482  0.62490  0.22504  1.0000
  C   C55       1.0  0.47730  0.22201  0.25161  1.0000
  C   C56       1.0  0.75562  0.25192  0.17723  1.0000
  C   C57       1.0  0.73404  0.49743  0.24934  1.0000
  C   C58       1.0  0.40843  0.38079  0.21261  1.0000
  C   C59       1.0  0.66162  0.09284  0.20496  1.0000
  C   C60       1.0  0.91217  0.57262  0.19383  1.0000
  C   C61       1.0  0.43923  0.38357  0.22133  1.0000
  C   C62       1.0  0.66967  0.10589  0.03806  1.0000
  C   C63       1.0  0.89877  0.56922  0.02760  1.0000
  C   C64       1.0  0.39799  0.38024  0.04238  1.0000
  C   C65       1.0  0.62777  0.07474  0.22108  1.0000
  C   C66       1.0  0.93144  0.55785  0.20171  1.0000
  C   C67       1.0  0.40827  0.40592  0.30652  1.0000
  C   C68       1.0  0.67579  0.11675  0.33352  1.0000
  C   C69       1.0  0.88837  0.56021  0.32116  1.0000
  C   C70       1.0  0.33057  0.14628  0.86250  1.0000
  C   C71       1.0  0.86809  0.17665  0.84587  1.0000
  C   C72       1.0  0.82309  0.69341  0.83260  1.0000
  C   C73       1.0  0.36075  0.15883  0.83106  1.0000
  C   C74       1.0  0.85454  0.19387  0.82302  1.0000
  C   C75       1.0  0.80518  0.66257  0.81370  1.0000
  C   C76       1.0  0.38213  0.18727  0.88897  1.0000
  C   C77       1.0  0.82790  0.18753  0.89920  1.0000
  C   C78       1.0  0.81131  0.64181  0.89231  1.0000
  C   C79       1.0  0.37064  0.20081  0.98621  1.0000
  C   C80       1.0  0.81629  0.16231  0.99815  1.0000
  C   C81       1.0  0.83609  0.65501  0.99514  1.0000
  C   C82       1.0  0.30826  0.16681  0.50846  1.0000
  C   C83       1.0  0.81340  0.14625  0.54241  1.0000
  C   C84       1.0  0.85098  0.66498  0.53626  1.0000
  C   C85       1.0  0.31869  0.16004  0.95843  1.0000
  C   C86       1.0  0.85632  0.15117  0.94512  1.0000
  C   C87       1.0  0.84920  0.70658  0.92805  1.0000
  C   C88       1.0  0.32998  0.20597  0.65720  1.0000
  C   C89       1.0  0.77056  0.12847  0.65463  1.0000
  C   C90       1.0  0.87041  0.64142  0.65636  1.0000
  C   C91       1.0  0.01709  0.00525  0.57707  1.0000
  C   C92       1.0  0.97128  0.00813  0.56167  1.0000
  C   C93       1.0  0.96853  0.95926  0.58303  1.0000
  C   C94       1.0  0.64795  0.32688  0.65079  1.0000
  C   C95       1.0  0.69405  0.32477  0.67185  1.0000
  C   C96       1.0  0.69615  0.37330  0.65518  1.0000
  C   C97       1.0  0.00251  0.02192  0.56303  1.0000
  C   C98       1.0  0.95458  0.97667  0.57204  1.0000
  C   C99       1.0  0.99978  0.97401  0.58752  1.0000
  C   C100      1.0  0.66284  0.31051  0.66370  1.0000
  C   C101      1.0  0.71048  0.35626  0.66767  1.0000
  C   C102      1.0  0.66493  0.35816  0.64521  1.0000
  C   C103      1.0  0.31594  0.23613  0.81788  1.0000
  C   C104      1.0  0.74236  0.08730  0.83470  1.0000
  C   C105      1.0  0.91321  0.65668  0.83247  1.0000
  C   C106      1.0  0.31945  0.26469  0.73868  1.0000
  C   C107      1.0  0.72342  0.05681  0.75200  1.0000
  C   C108      1.0  0.94303  0.66806  0.74693  1.0000
  C   C109      1.0  0.34076  0.31676  0.83236  1.0000
  C   C110      1.0  0.68164  0.01319  0.87699  1.0000
  C   C111      1.0  0.98957  0.67260  0.85249  1.0000
  C   C112      1.0  0.30787  0.30449  0.78904  1.0000
  C   C113      1.0  0.70397  0.00387  0.82396  1.0000
  C   C114      1.0  0.99620  0.70283  0.78324  1.0000
  C   C115      1.0  0.29465  0.27046  0.79415  1.0000
  C   C116      1.0  0.73295  0.03384  0.80215  1.0000
  C   C117      1.0  0.96570  0.70088  0.78796  1.0000
  C   C118      1.0  0.16110  0.08516  0.53016  1.0000
  C   C119      1.0  0.89320  0.07601  0.56586  1.0000
  C   C120      1.0  0.91262  0.81442  0.56978  1.0000
  C   C121      1.0  0.37505  0.30003  0.72991  1.0000
  C   C122      1.0  0.67293  0.05145  0.73766  1.0000
  C   C123      1.0  0.95030  0.62406  0.73511  1.0000
  C   C124      1.0  0.50490  0.24405  0.70455  1.0000
  C   C125      1.0  0.77359  0.25946  0.75330  1.0000
  C   C126      1.0  0.74972  0.51706  0.71248  1.0000
  C   C127      1.0  0.42748  0.33911  0.70751  1.0000
  C   C128      1.0  0.61833  0.03166  0.71085  1.0000
  C   C129      1.0  0.97153  0.59041  0.70554  1.0000
  C   C130      1.0  0.43130  0.33002  0.54178  1.0000
  C   C131      1.0  0.61850  0.06139  0.71218  1.0000
  C   C132      1.0  0.94257  0.56037  0.71365  1.0000
  C   C133      1.0  0.44266  0.37321  0.71921  1.0000
  C   C134      1.0  0.61707  0.02021  0.54351  1.0000
  C   C135      1.0  0.98105  0.60058  0.53607  1.0000
  C   C136      1.0  0.43870  0.32629  0.83761  1.0000
  C   C137      1.0  0.59266  0.00824  0.80947  1.0000
  C   C138      1.0  0.99621  0.58897  0.80010  1.0000
  N   N1        1.0  0.38504  0.22865  0.06144  1.0000
  N   N2        1.0  0.79139  0.14943  0.09392  1.0000
  N   N3        1.0  0.84844  0.64229  0.09466  1.0000
  N   N4        1.0  0.33635  0.20749  0.12267  1.0000
  N   N5        1.0  0.81236  0.12039  0.12253  1.0000
  N   N6        1.0  0.87888  0.69235  0.11478  1.0000
  N   N7        1.0  0.37093  0.25457  0.24336  1.0000
  N   N8        1.0  0.77027  0.10994  0.28252  1.0000
  N   N9        1.0  0.88834  0.65964  0.28003  1.0000
  N   N10       1.0  0.34886  0.30552  0.28024  1.0000
  N   N11       1.0  0.70605  0.05655  0.27155  1.0000
  N   N12       1.0  0.94561  0.65270  0.27831  1.0000
  N   N13       1.0  0.17370  0.07551  0.02275  1.0000
  N   N14       1.0  0.94707  0.09856  0.06245  1.0000
  N   N15       1.0  0.91668  0.85276  0.00822  1.0000
  N   N16       1.0  0.49454  0.25076  0.25053  1.0000
  N   N17       1.0  0.72693  0.23874  0.16473  1.0000
  N   N18       1.0  0.74450  0.47948  0.23591  1.0000
  N   N19       1.0  0.35281  0.20393  0.58593  1.0000
  N   N20       1.0  0.77452  0.15346  0.57247  1.0000
  N   N21       1.0  0.84564  0.61950  0.57617  1.0000
  N   N22       1.0  0.30317  0.18512  0.60891  1.0000
  N   N23       1.0  0.79263  0.12285  0.63680  1.0000
  N   N24       1.0  0.87475  0.66873  0.63349  1.0000
  N   N25       1.0  0.33713  0.22761  0.76715  1.0000
  N   N26       1.0  0.74580  0.11300  0.74597  1.0000
  N   N27       1.0  0.88722  0.63340  0.74978  1.0000
  N   N28       1.0  0.34727  0.29362  0.77613  1.0000
  N   N29       1.0  0.69138  0.04157  0.79270  1.0000
  N   N30       1.0  0.95929  0.65205  0.79168  1.0000
  N   N31       1.0  0.14324  0.05662  0.53857  1.0000
  N   N32       1.0  0.91854  0.08273  0.50608  1.0000
  N   N33       1.0  0.90066  0.83121  0.56012  1.0000
  N   N34       1.0  0.52169  0.27266  0.68874  1.0000
  N   N35       1.0  0.74519  0.24934  0.74912  1.0000
  N   N36       1.0  0.76219  0.50069  0.71798  1.0000
  O   O1        1.0  0.39312  0.31887  0.15921  1.0000
  O   O2        1.0  0.71859  0.10274  0.16681  1.0000
  O   O3        1.0  0.89966  0.61836  0.17483  1.0000
  O   O4        1.0  0.38547  0.35344  0.29380  1.0000
  O   O5        1.0  0.67048  0.06937  0.23218  1.0000
  O   O6        1.0  0.93454  0.60485  0.23045  1.0000
  O   O7        1.0  0.38127  0.28107  0.68335  1.0000
  O   O8        1.0  0.68101  0.07355  0.65075  1.0000
  O   O9        1.0  0.92782  0.60954  0.65132  1.0000
  O   O10       1.0  0.39541  0.32964  0.73855  1.0000
  O   O11       1.0  0.64476  0.03387  0.79473  1.0000
  O   O12       1.0  0.96924  0.61444  0.78838  1.0000
  C  Sn1       1.0  0.08837  0.01158  0.63287  1.0000
  C   C139      1.0  0.10794  0.03542  0.53769  1.0000
  C  Sn2       1.0  0.09893  0.05422  0.46670  1.0000
  C  Sn3       1.0  0.06975  0.04911  0.49144  1.0000
  C   C140      1.0  0.05019  0.02529  0.58658  1.0000
  C  Sn4       1.0  0.05919  0.00647  0.65760  1.0000
  O  Te1       1.0  0.59470  0.99307  0.70266  1.0000
  O  Te2       1.0  0.11889  0.07790  0.37200  1.0000
  O  Te3       1.0  0.06027  0.06764  0.42154  1.0000
  O  Te4       1.0  0.53609  0.98281  0.75227  1.0000
  Mg  Mg1       1.0  0.09558  0.09695  0.30260  1.0000
  Mg  Mg2       1.0  0.55939  0.96376  0.82179  1.0000
  C  Sn5       1.0  0.96631  0.05885  0.65113  1.0000
  C   C141      1.0  0.95502  0.02948  0.59846  1.0000
  C  Sn6       1.0  0.93170  0.01712  0.48757  1.0000
  C  Sn7       1.0  0.91941  0.03449  0.42800  1.0000
  C   C142      1.0  0.93070  0.06384  0.48064  1.0000
  C  Sn8       1.0  0.95402  0.07622  0.59155  1.0000
  O  Te5       1.0  0.98964  0.07075  0.76203  1.0000
  O  Te6       1.0  0.41762  0.98771  0.43674  1.0000
  O  Te7       1.0  0.89606  0.02256  0.31701  1.0000
  O  Te8       1.0  0.96494  0.10561  0.64236  1.0000
  Mg  Mg3       1.0  0.38565  0.98148  0.28415  1.0000
  Mg  Mg4       1.0  0.99692  0.11187  0.79487  1.0000
  C  Sn9       1.0  0.95565  0.88485  0.53452  1.0000
  C   C143      1.0  0.92779  0.86545  0.59848  1.0000
  C  Sn10      1.0  0.90937  0.87634  0.64757  1.0000
  C  Sn11      1.0  0.91901  0.90726  0.63233  1.0000
  C   C144      1.0  0.94685  0.92664  0.56838  1.0000
  C  Sn12      1.0  0.96528  0.91577  0.51928  1.0000
  O  Te9       1.0  0.97369  0.87347  0.48621  1.0000
  O  Te10      1.0  0.88161  0.85652  0.71121  1.0000
  O  Te11      1.0  0.90094  0.91863  0.68071  1.0000
  O  Te12      1.0  0.99303  0.93557  0.45565  1.0000
  Mg  Mg5       1.0  0.86504  0.88274  0.76001  1.0000
  Mg  Mg6       1.0  0.00961  0.90937  0.40673  1.0000
  C  Sn13      1.0  0.10275  0.06431  0.92960  1.0000
  C   C145      1.0  0.08028  0.03797  0.00701  1.0000
  C  Sn14      1.0  0.09085  0.02502  0.11717  1.0000
  C  Sn15      1.0  0.12183  0.03885  0.15076  1.0000
  C   C146      1.0  0.14158  0.06532  0.07340  1.0000
  C  Sn16      1.0  0.13373  0.07814  0.96319  1.0000
  O  Te13      1.0  0.09170  0.07686  0.81991  1.0000
  O  Te14      1.0  0.56749  0.99854  0.19301  1.0000
  O  Te15      1.0  0.13288  0.02627  0.26055  1.0000
  O  Te16      1.0  0.15392  0.10461  0.88740  1.0000
  Mg  Mg7       1.0  0.59338  0.99005  0.33312  1.0000
  Mg  Mg8       1.0  0.12805  0.11312  0.74733  1.0000
  C  Sn17      1.0  0.94153  0.04358  0.01832  1.0000
  C   C147      1.0  0.94992  0.07050  0.09600  1.0000
  C  Sn18      1.0  0.97834  0.08705  0.16376  1.0000
  C  Sn19      1.0  0.99881  0.07648  0.15360  1.0000
  C   C148      1.0  0.99042  0.04957  0.07594  1.0000
  C  Sn20      1.0  0.96200  0.03300  0.00816  1.0000
  O  Te17      1.0  0.91570  0.02726  0.95143  1.0000
  O  Te18      1.0  0.98621  0.11390  0.24086  1.0000
  O  Te19      1.0  0.02735  0.09268  0.22058  1.0000
  O  Te20      1.0  0.95683  0.00603  0.93108  1.0000
  Mg  Mg9       1.0  0.02764  0.12794  0.31314  1.0000
  Mg  Mg10      1.0  0.41225  0.99198  0.85869  1.0000
  C  Sn21      1.0  0.95030  0.92264  0.18454  1.0000
  C   C149      1.0  0.97725  0.94016  0.10743  1.0000
  C  Sn22      1.0  0.98647  0.92954  0.97078  1.0000
  C  Sn23      1.0  0.96561  0.90094  0.90986  1.0000
  C   C150      1.0  0.93868  0.88344  0.98693  1.0000
  C  Sn24      1.0  0.92944  0.89404  0.12361  1.0000
  O  Te21      1.0  0.94425  0.93357  0.32097  1.0000
  O  Te22      1.0  0.01357  0.94746  0.89579  1.0000
  O  Te23      1.0  0.97168  0.89002  0.77331  1.0000
  O  Te24      1.0  0.90236  0.87614  0.19856  1.0000
  Mg  Mg11      1.0  0.01160  0.92274  0.71337  1.0000
  Mg  Mg12      1.0  0.90430  0.90084  0.38093  1.0000
  C  Sn25      1.0  0.56501  0.25588  0.24320  1.0000
  C   C151      1.0  0.58298  0.28205  0.15845  1.0000
  C  Sn26      1.0  0.57227  0.30113  0.11355  1.0000
  C  Sn27      1.0  0.54299  0.29391  0.15429  1.0000
  C   C152      1.0  0.52503  0.26775  0.23900  1.0000
  C  Sn28      1.0  0.53572  0.24866  0.28393  1.0000
  O  Te25      1.0  0.57618  0.23714  0.28686  1.0000
  O  Te26      1.0  0.59066  0.32716  0.02884  1.0000
  O  Te27      1.0  0.53183  0.31267  0.11054  1.0000
  O  Te28      1.0  0.51736  0.22264  0.36861  1.0000
  Mg  Mg13      1.0  0.56807  0.34543  0.99622  1.0000
  Mg  Mg14      1.0  0.54262  0.20422  0.40136  1.0000
  C  Sn29      1.0  0.71815  0.30163  0.20035  1.0000
  C   C153      1.0  0.69229  0.29465  0.11370  1.0000
  C  Sn30      1.0  0.67460  0.26603  0.05048  1.0000
  C  Sn31      1.0  0.68292  0.24391  0.07444  1.0000
  C   C154      1.0  0.70876  0.25089  0.16106  1.0000
  C  Sn32      1.0  0.72646  0.27951  0.22431  1.0000
  O  Te29      1.0  0.73549  0.33038  0.26247  1.0000
  O  Te30      1.0  0.65155  0.25945  0.96424  1.0000
  O  Te31      1.0  0.66554  0.21514  0.01223  1.0000
  O  Te32      1.0  0.75219  0.28595  0.31053  1.0000
  Mg  Mg15      1.0  0.63520  0.21705  0.90330  1.0000
  Mg  Mg16      1.0  0.76855  0.32834  0.37158  1.0000
  C  Sn33      1.0  0.67745  0.41066  0.25407  1.0000
  C   C155      1.0  0.68182  0.39154  0.15621  1.0000
  C  Sn34      1.0  0.70988  0.40068  0.09394  1.0000
  C  Sn35      1.0  0.73408  0.42953  0.13031  1.0000
  C   C156      1.0  0.72970  0.44862  0.22813  1.0000
  C  Sn36      1.0  0.70164  0.43950  0.29044  1.0000
  O  Te33      1.0  0.64921  0.40105  0.31501  1.0000
  O  Te34      1.0  0.71641  0.38105  0.99635  1.0000
  O  Te35      1.0  0.76234  0.43912  0.06927  1.0000
  O  Te36      1.0  0.69781  0.45898  0.38800  1.0000
  Mg  Mg17      1.0  0.75910  0.40435  0.94206  1.0000
  Mg  Mg18      1.0  0.65513  0.43569  0.44241  1.0000
  C  Sn37      1.0  0.21320  0.08081  0.49503  1.0000
  C   C157      1.0  0.19688  0.09466  0.53443  1.0000
  C  Sn38      1.0  0.20950  0.12565  0.52012  1.0000
  C  Sn39      1.0  0.23905  0.14316  0.46519  1.0000
  C   C158      1.0  0.25535  0.12931  0.42580  1.0000
  C  Sn40      1.0  0.24274  0.09832  0.44010  1.0000
  O  Te37      1.0  0.20013  0.04979  0.51025  1.0000
  O  Te38      1.0  0.19276  0.13898  0.56028  1.0000
  O  Te39      1.0  0.25211  0.17420  0.45000  1.0000
  O  Te40      1.0  0.25947  0.08498  0.39995  1.0000
  Mg  Mg19      1.0  0.22033  0.18201  0.51934  1.0000
  Mg  Mg20      1.0  0.23191  0.04197  0.44076  1.0000
  C  Sn41      1.0  0.87690  0.12766  0.37428  1.0000
  C   C159      1.0  0.85273  0.12630  0.45260  1.0000
  C  Sn42      1.0  0.84285  0.11042  0.59408  1.0000
  C  Sn43      1.0  0.85744  0.09559  0.65870  1.0000
  C   C160      1.0  0.88160  0.09695  0.58041  1.0000
  C  Sn44      1.0  0.89149  0.11283  0.43890  1.0000
  O  Te41      1.0  0.88640  0.14367  0.23300  1.0000
  O  Te42      1.0  0.81863  0.10937  0.67019  1.0000
  O  Te43      1.0  0.84792  0.07956  0.80010  1.0000
  O  Te44      1.0  0.91570  0.11388  0.36282  1.0000
  Mg  Mg21      1.0  0.81398  0.08470  0.85974  1.0000
  Mg  Mg22      1.0  0.92038  0.13856  0.17332  1.0000
  C  Sn45      1.0  0.89443  0.73847  0.60557  1.0000
  C   C161      1.0  0.86510  0.72136  0.55003  1.0000
  C  Sn46      1.0  0.85091  0.73511  0.47425  1.0000
  C  Sn47      1.0  0.86636  0.76662  0.45345  1.0000
  C   C162      1.0  0.89567  0.78370  0.50894  1.0000
  C  Sn48      1.0  0.90987  0.76997  0.58477  1.0000
  O  Te45      1.0  0.90817  0.72425  0.68098  1.0000
  O  Te46      1.0  0.82158  0.71754  0.41978  1.0000
  O  Te47      1.0  0.85258  0.78083  0.37797  1.0000
  O  Te48      1.0  0.93919  0.78753  0.63919  1.0000
  Mg  Mg23      1.0  0.81242  0.74728  0.32441  1.0000
  Mg  Mg24      1.0  0.94838  0.75781  0.73450  1.0000
  C  Sn49      1.0  0.25910  0.11477  0.88666  1.0000
  C   C163      1.0  0.28128  0.14323  0.93505  1.0000
  C  Sn50      1.0  0.27239  0.15940  0.04562  1.0000
  C  Sn51      1.0  0.24342  0.14671  0.10925  1.0000
  C   C164      1.0  0.22126  0.11827  0.06090  1.0000
  C  Sn52      1.0  0.23013  0.10208  0.95029  1.0000
  O  Te49      1.0  0.26579  0.09915  0.77598  1.0000
  O  Te50      1.0  0.29493  0.18782  0.09213  1.0000
  O  Te51      1.0  0.23675  0.16236  0.22001  1.0000
  O  Te52      1.0  0.20761  0.07368  0.90381  1.0000
  Mg  Mg25      1.0  0.27491  0.20031  0.24619  1.0000
  Mg  Mg26      1.0  0.22761  0.06116  0.74983  1.0000
  C  Sn53      1.0  0.90627  0.14323  0.90390  1.0000
  C   C165      1.0  0.87617  0.13352  0.92753  1.0000
  C  Sn54      1.0  0.85607  0.10823  0.01863  1.0000
  C  Sn55      1.0  0.86904  0.09217  0.08764  1.0000
  C   C166      1.0  0.89912  0.10188  0.06402  1.0000
  C  Sn56      1.0  0.91923  0.12717  0.97292  1.0000
  O  Te53      1.0  0.92324  0.16871  0.81241  1.0000
  O  Te54      1.0  0.82603  0.09895  0.04053  1.0000
  O  Te55      1.0  0.85204  0.06667  0.17918  1.0000
  O  Te56      1.0  0.94927  0.13645  0.95102  1.0000
  Mg  Mg27      1.0  0.81211  0.06290  0.17490  1.0000
  Mg  Mg28      1.0  0.96321  0.17250  0.81675  1.0000
  C  Sn57      1.0  0.90025  0.75732  0.03123  1.0000
  C   C167      1.0  0.87264  0.74154  0.99129  1.0000
  C  Sn58      1.0  0.85880  0.75660  0.92674  1.0000
  C  Sn59      1.0  0.87561  0.78795  0.90148  1.0000
  C   C168      1.0  0.90589  0.80358  0.94138  1.0000
  C  Sn60      1.0  0.91705  0.78868  0.00597  1.0000
  O  Te57      1.0  0.91362  0.74181  0.09561  1.0000
  O  Te58      1.0  0.82848  0.74048  0.88780  1.0000
  O  Te59      1.0  0.86220  0.80346  0.83705  1.0000
  O  Te60      1.0  0.94736  0.80478  0.04487  1.0000
  Mg  Mg29      1.0  0.82031  0.77163  0.80317  1.0000
  Mg  Mg30      1.0  0.95555  0.77365  0.12943  1.0000
  C  Sn61      1.0  0.40867  0.21734  0.33872  1.0000
  C   C169      1.0  0.38690  0.18714  0.32608  1.0000
  C  Sn62      1.0  0.39509  0.16523  0.31267  1.0000
  C  Sn63      1.0  0.42567  0.17368  0.31199  1.0000
  C   C170      1.0  0.44741  0.20386  0.32465  1.0000
  C  Sn64      1.0  0.43925  0.22579  0.33804  1.0000
  O  Te61      1.0  0.39997  0.23886  0.35202  1.0000
  O  Te62      1.0  0.37293  0.13519  0.30012  1.0000
  O  Te63      1.0  0.43435  0.15213  0.29867  1.0000
  O  Te64      1.0  0.46139  0.25581  0.35061  1.0000
  Mg  Mg31      1.0  0.39594  0.11412  0.28467  1.0000
  Mg  Mg32      1.0  0.43841  0.27690  0.36615  1.0000
  C  Sn65      1.0  0.76572  0.19011  0.26386  1.0000
  C   C171      1.0  0.79620  0.20202  0.29259  1.0000
  C  Sn66      1.0  0.81518  0.23297  0.30045  1.0000
  C  Sn67      1.0  0.80345  0.25244  0.27925  1.0000
  C   C172      1.0  0.77298  0.24053  0.25057  1.0000
  C  Sn68      1.0  0.75398  0.20958  0.24266  1.0000
  O  Te65      1.0  0.74715  0.15910  0.25650  1.0000
  O  Te66      1.0  0.84559  0.24435  0.32926  1.0000
  O  Te67      1.0  0.82204  0.28348  0.28663  1.0000
  O  Te68      1.0  0.72360  0.19820  0.21390  1.0000
  Mg  Mg33      1.0  0.86186  0.28820  0.32872  1.0000
  Mg  Mg34      1.0  0.70730  0.15435  0.21449  1.0000
  C  Sn69      1.0  0.78775  0.54611  0.36715  1.0000
  C   C173      1.0  0.75724  0.53016  0.33246  1.0000
  C  Sn70      1.0  0.74183  0.54530  0.29602  1.0000
  C  Sn71      1.0  0.75726  0.57705  0.29411  1.0000
  C   C174      1.0  0.78775  0.59298  0.32876  1.0000
  C  Sn72      1.0  0.80317  0.57785  0.36524  1.0000
  O  Te69      1.0  0.80270  0.53051  0.40325  1.0000
  O  Te70      1.0  0.71133  0.52887  0.26180  1.0000
  O  Te71      1.0  0.74228  0.59264  0.25798  1.0000
  O  Te72      1.0  0.83366  0.59427  0.39943  1.0000
  Mg  Mg35      1.0  0.70077  0.56029  0.21953  1.0000
  Mg  Mg36      1.0  0.84424  0.56287  0.44163  1.0000
  C  Sn73      1.0  0.57564  0.28048  0.80178  1.0000
  C   C175      1.0  0.55650  0.28756  0.71794  1.0000
  C  Sn74      1.0  0.56633  0.30556  0.58315  1.0000
  C  Sn75      1.0  0.59590  0.31672  0.53100  1.0000
  C   C176      1.0  0.61502  0.30964  0.61481  1.0000
  C  Sn76      1.0  0.60521  0.29164  0.74964  1.0000
  O  Te73      1.0  0.56534  0.26244  0.93620  1.0000
  O  Te74      1.0  0.54679  0.31234  0.50131  1.0000
  O  Te75      1.0  0.60619  0.33478  0.39646  1.0000
  O  Te76      1.0  0.62473  0.28486  0.83143  1.0000
  Mg  Mg37      1.0  0.57120  0.33777  0.32494  1.0000
  Mg  Mg38      1.0  0.59764  0.25956  0.00776  1.0000
  C  Sn77      1.0  0.74034  0.29842  0.84279  1.0000
  C   C177      1.0  0.73180  0.27096  0.77077  1.0000
  C  Sn78      1.0  0.71255  0.26161  0.63964  1.0000
  C  Sn79      1.0  0.70162  0.28009  0.57914  1.0000
  C   C178      1.0  0.71016  0.30753  0.65113  1.0000
  C  Sn80      1.0  0.72941  0.31691  0.78230  1.0000
  O  Te77      1.0  0.75960  0.30733  0.97376  1.0000
  O  Te78      1.0  0.70433  0.23406  0.56967  1.0000
  O  Te79      1.0  0.68234  0.27116  0.44807  1.0000
  O  Te80      1.0  0.73764  0.34444  0.85222  1.0000
  Mg  Mg39      1.0  0.67759  0.23174  0.39370  1.0000
  Mg  Mg40      1.0  0.76168  0.34693  0.02814  1.0000
  C  Sn81      1.0  0.69841  0.42889  0.70519  1.0000
  C   C179      1.0  0.70771  0.41056  0.63501  1.0000
  C  Sn82      1.0  0.73773  0.42176  0.60114  1.0000
  C  Sn83      1.0  0.75891  0.45189  0.63828  1.0000
  C   C180      1.0  0.74960  0.47020  0.70844  1.0000
  C  Sn84      1.0  0.71958  0.45902  0.74232  1.0000
  O  Te81      1.0  0.66828  0.41722  0.73800  1.0000
  O  Te82      1.0  0.74650  0.40301  0.53091  1.0000
  O  Te83      1.0  0.78905  0.46354  0.60540  1.0000
  O  Te84      1.0  0.71081  0.47775  0.81254  1.0000
  Mg  Mg41      1.0  0.79006  0.42922  0.50919  1.0000
  Mg  Mg42      1.0  0.66726  0.45156  0.83438  1.0000
  C  Sn85      1.0  0.44761  0.19292  0.72684  1.0000
  C   C181      1.0  0.46741  0.22340  0.70342  1.0000
  C  Sn86      1.0  0.46113  0.24483  0.76252  1.0000
  C  Sn87      1.0  0.43450  0.23559  0.84689  1.0000
  C   C182      1.0  0.41472  0.20513  0.87030  1.0000
  C  Sn88      1.0  0.42098  0.18369  0.81121  1.0000
  O  Te85      1.0  0.45434  0.17189  0.66672  1.0000
  O  Te86      1.0  0.48127  0.27517  0.73756  1.0000
  O  Te87      1.0  0.42778  0.25665  0.90701  1.0000
  O  Te88      1.0  0.40086  0.15337  0.83616  1.0000
  Mg  Mg43      1.0  0.46220  0.29534  0.84252  1.0000
  Mg  Mg44      1.0  0.41991  0.13318  0.73133  1.0000
  C  Sn89      1.0  0.77674  0.19316  0.82783  1.0000
  C   C183      1.0  0.80691  0.20167  0.82628  1.0000
  C  Sn90      1.0  0.82873  0.23192  0.82325  1.0000
  C  Sn91      1.0  0.82022  0.25414  0.82184  1.0000
  C   C184      1.0  0.79006  0.24563  0.82341  1.0000
  C  Sn92      1.0  0.76823  0.21538  0.82641  1.0000
  O  Te89      1.0  0.75531  0.16278  0.83087  1.0000
  O  Te90      1.0  0.85875  0.23988  0.82170  1.0000
  O  Te91      1.0  0.84168  0.28453  0.81879  1.0000
  O  Te92      1.0  0.73822  0.20742  0.82799  1.0000
  Mg  Mg45      1.0  0.87969  0.28417  0.81769  1.0000
  Mg  Mg46      1.0  0.71727  0.16313  0.83209  1.0000
  C  Sn93      1.0  0.79492  0.56559  0.89017  1.0000
  C   C185      1.0  0.76675  0.54895  0.81949  1.0000
  C  Sn94      1.0  0.75269  0.56337  0.74969  1.0000
  C  Sn95      1.0  0.76709  0.59508  0.75044  1.0000
  C   C186      1.0  0.79523  0.61170  0.82106  1.0000
  C  Sn96      1.0  0.80931  0.59730  0.89093  1.0000
  O  Te93      1.0  0.80856  0.55070  0.95925  1.0000
  O  Te94      1.0  0.72453  0.54626  0.67980  1.0000
  O  Te95      1.0  0.75342  0.60996  0.68129  1.0000
  O  Te96      1.0  0.83745  0.61439  0.96076  1.0000
  Mg  Mg47      1.0  0.71504  0.57685  0.60088  1.0000
  Mg  Mg48      1.0  0.84428  0.58397  0.03963  1.0000
