data_image0
_chemical_formula_structural       H204C210N36O12SnCSn2CSnTe4Mg2SnCSn2CSnTe4Mg2SnCSn2CSnTe4Mg2SnCSn2CSnTe4Mg2SnCSn2CSnTe4Mg2SnCSn2CSnTe4Mg2SnCSn2CSnTe4Mg2SnCSn2CSnTe4Mg2SnCSn2CSnTe4Mg2SnCSn2CSnTe4Mg2SnCSn2CSnTe4Mg2SnCSn2CSnTe4Mg2
_chemical_formula_sum              "H204 C234 N36 O12 Sn48 Te48 Mg24"
_cell_length_a       51.8223
_cell_length_b       51.5626
_cell_length_c       8.46391
_cell_angle_alpha    89.4791
_cell_angle_beta     90.9705
_cell_angle_gamma    119.957

_symmetry_space_group_name_H-M    'P1'
_space_group_IT_number       1

loop_
  _space_group_symop_operation_xyz
  'x, y, z'

loop_
  _atom_site_type_symbol
  _atom_site_label
  _atom_site_symmetry_multiplicity
  _atom_site_fract_x
  _atom_site_fract_y
  _atom_site_fract_z
  _atom_site_occupancy
  H   H1        1.0  0.04745  0.06468  0.07926  1.0000
  H   H2        1.0  0.96120  0.98557  0.08520  1.0000
  H   H3        1.0  0.03962  0.97766  0.05534  1.0000
  H   H4        1.0  0.28536  0.10640  0.27307  1.0000
  H   H5        1.0  0.87773  0.18418  0.34190  1.0000
  H   H6        1.0  0.81311  0.69000  0.31332  1.0000
  H   H7        1.0  0.62231  0.26643  0.14420  1.0000
  H   H8        1.0  0.70660  0.34799  0.13411  1.0000
  H   H9        1.0  0.62589  0.35138  0.17993  1.0000
  H   H10       1.0  0.33851  0.12831  0.23704  1.0000
  H   H11       1.0  0.85729  0.21585  0.27318  1.0000
  H   H12       1.0  0.78138  0.63720  0.26223  1.0000
  H   H13       1.0  0.38723  0.27491  0.20380  1.0000
  H   H14       1.0  0.75192  0.11241  0.26791  1.0000
  H   H15       1.0  0.88676  0.63922  0.26269  1.0000
  H   H16       1.0  0.40673  0.23864  0.09742  1.0000
  H   H17       1.0  0.78015  0.15975  0.12960  1.0000
  H   H18       1.0  0.83651  0.62167  0.14407  1.0000
  H   H19       1.0  0.32897  0.23257  0.33790  1.0000
  H   H20       1.0  0.78078  0.07605  0.29186  1.0000
  H   H21       1.0  0.92056  0.70419  0.30539  1.0000
  H   H22       1.0  0.25640  0.16688  0.51479  1.0000
  H   H23       1.0  0.35481  0.26550  0.44076  1.0000
  H   H24       1.0  0.75904  0.07615  0.45075  1.0000
  H   H25       1.0  0.91981  0.68046  0.45942  1.0000
  H   H26       1.0  0.20186  0.14314  0.55224  1.0000
  H   H27       1.0  0.33802  0.27273  0.10676  1.0000
  H   H28       1.0  0.73838  0.06249  0.10518  1.0000
  H   H29       1.0  0.94123  0.68243  0.12163  1.0000
  H   H30       1.0  0.22148  0.07965  0.91012  1.0000
  H   H31       1.0  0.32694  0.31245  0.47043  1.0000
  H   H32       1.0  0.67426  0.03249  0.44673  1.0000
  H   H33       1.0  0.97421  0.65558  0.46701  1.0000
  H   H34       1.0  0.24570  0.08089  0.40059  1.0000
  H   H35       1.0  0.33387  0.33658  0.30620  1.0000
  H   H36       1.0  0.66519  0.01527  0.25752  1.0000
  H   H37       1.0  0.98261  0.64570  0.28241  1.0000
  H   H38       1.0  0.38291  0.13915  0.29270  1.0000
  H   H39       1.0  0.84127  0.24922  0.31175  1.0000
  H   H40       1.0  0.74742  0.59172  0.33926  1.0000
  H   H41       1.0  0.29569  0.29606  0.14593  1.0000
  H   H42       1.0  0.68687  0.98764  0.37975  1.0000
  H   H43       1.0  0.00426  0.69646  0.18431  1.0000
  H   H44       1.0  0.43616  0.16349  0.22761  1.0000
  H   H45       1.0  0.81489  0.27487  0.20823  1.0000
  H   H46       1.0  0.71662  0.53822  0.26787  1.0000
  H   H47       1.0  0.27843  0.28653  0.33342  1.0000
  H   H48       1.0  0.71098  0.01841  0.50081  1.0000
  H   H49       1.0  0.01389  0.70420  0.38687  1.0000
  H   H50       1.0  0.44818  0.24862  0.36897  1.0000
  H   H51       1.0  0.73103  0.19343  0.24752  1.0000
  H   H52       1.0  0.79353  0.52755  0.30377  1.0000
  H   H53       1.0  0.28694  0.24458  0.18252  1.0000
  H   H54       1.0  0.71755  0.01105  0.14859  1.0000
  H   H55       1.0  0.98087  0.72628  0.24596  1.0000
  H   H56       1.0  0.39464  0.22503  0.42434  1.0000
  H   H57       1.0  0.75714  0.16728  0.34729  1.0000
  H   H58       1.0  0.82490  0.58139  0.36943  1.0000
  H   H59       1.0  0.29600  0.25108  0.38550  1.0000
  H   H60       1.0  0.74527  0.02228  0.29864  1.0000
  H   H61       1.0  0.97098  0.71007  0.43621  1.0000
  H   H62       1.0  0.15303  0.10104  0.54780  1.0000
  H   H63       1.0  0.88086  0.05597  0.64014  1.0000
  H   H64       1.0  0.93639  0.82374  0.59977  1.0000
  H   H65       1.0  0.44647  0.38426  0.34435  1.0000
  H   H66       1.0  0.69344  0.12201  0.02805  1.0000
  H   H67       1.0  0.88254  0.57684  0.02191  1.0000
  H   H68       1.0  0.48554  0.20683  0.21922  1.0000
  H   H69       1.0  0.76967  0.27616  0.15718  1.0000
  H   H70       1.0  0.71007  0.48946  0.23492  1.0000
  H   H71       1.0  0.45537  0.40459  0.16416  1.0000
  H   H72       1.0  0.65701  0.11717  0.00791  1.0000
  H   H73       1.0  0.88764  0.54551  0.99366  1.0000
  H   H74       1.0  0.10962  0.07463  0.37671  1.0000
  H   H75       1.0  0.89388  0.02550  0.40639  1.0000
  H   H76       1.0  0.95496  0.86665  0.43182  1.0000
  H   H77       1.0  0.42025  0.33673  0.45236  1.0000
  H   H78       1.0  0.63817  0.07897  0.65303  1.0000
  H   H79       1.0  0.92415  0.56154  0.65567  1.0000
  H   H80       1.0  0.05497  0.05208  0.39548  1.0000
  H   H81       1.0  0.91732  0.99389  0.42444  1.0000
  H   H82       1.0  0.98323  0.92178  0.44169  1.0000
  H   H83       1.0  0.43247  0.38190  0.63507  1.0000
  H   H84       1.0  0.63516  0.03695  0.47123  1.0000
  H   H85       1.0  0.96343  0.60172  0.46853  1.0000
  H   H86       1.0  0.01873  0.07869  0.24983  1.0000
  H   H87       1.0  0.41333  0.40131  0.98292  1.0000
  H   H88       1.0  0.61835  0.08937  0.19866  1.0000
  H   H89       1.0  0.91787  0.53418  0.16883  1.0000
  H   H90       1.0  0.99417  0.10972  0.23611  1.0000
  H   H91       1.0  0.37571  0.37784  0.04021  1.0000
  H   H92       1.0  0.62141  0.06525  0.33980  1.0000
  H   H93       1.0  0.94051  0.55907  0.32086  1.0000
  H   H94       1.0  0.53124  0.23191  0.37002  1.0000
  H   H95       1.0  0.38614  0.40384  0.30290  1.0000
  H   H96       1.0  0.67117  0.10652  0.45146  1.0000
  H   H97       1.0  0.89854  0.56475  0.43981  1.0000
  H   H98       1.0  0.58569  0.25700  0.33121  1.0000
  H   H99       1.0  0.41459  0.40547  0.43053  1.0000
  H   H100      1.0  0.69997  0.13018  0.31925  1.0000
  H   H101      1.0  0.87383  0.56994  0.31129  1.0000
  H   H102      1.0  0.58121  0.32275  0.03391  1.0000
  H   H103      1.0  0.42430  0.42769  0.25597  1.0000
  H   H104      1.0  0.66651  0.13178  0.32406  1.0000
  H   H105      1.0  0.87458  0.53587  0.30559  1.0000
  H   H106      1.0  0.52670  0.29820  0.07823  1.0000
  H   H107      1.0  0.01580  0.04612  0.55211  1.0000
  H   H108      1.0  0.93037  0.96550  0.56973  1.0000
  H   H109      1.0  0.01088  0.96087  0.59643  1.0000
  H   H110      1.0  0.31543  0.12532  0.80405  1.0000
  H   H111      1.0  0.88792  0.18236  0.77868  1.0000
  H   H112      1.0  0.81780  0.70801  0.76298  1.0000
  H   H113      1.0  0.64989  0.28622  0.66996  1.0000
  H   H114      1.0  0.73467  0.36764  0.67624  1.0000
  H   H115      1.0  0.65355  0.37104  0.63700  1.0000
  H   H116      1.0  0.36776  0.14737  0.74998  1.0000
  H   H117      1.0  0.86390  0.21187  0.73663  1.0000
  H   H118      1.0  0.78707  0.65433  0.72719  1.0000
  H   H119      1.0  0.35805  0.24578  0.75325  1.0000
  H   H120      1.0  0.72637  0.11065  0.70067  1.0000
  H   H121      1.0  0.88984  0.61634  0.70842  1.0000
  H   H122      1.0  0.37344  0.21231  0.63539  1.0000
  H   H123      1.0  0.76571  0.16619  0.60770  1.0000
  H   H124      1.0  0.83368  0.59811  0.61666  1.0000
  H   H125      1.0  0.29347  0.21759  0.79024  1.0000
  H   H126      1.0  0.76489  0.09112  0.85800  1.0000
  H   H127      1.0  0.90909  0.67538  0.84931  1.0000
  H   H128      1.0  0.28797  0.18345  0.10001  1.0000
  H   H129      1.0  0.31760  0.23885  0.94697  1.0000
  H   H130      1.0  0.73232  0.08703  0.94795  1.0000
  H   H131      1.0  0.91465  0.64809  0.94926  1.0000
  H   H132      1.0  0.23335  0.15910  0.13625  1.0000
  H   H133      1.0  0.31831  0.26148  0.60997  1.0000
  H   H134      1.0  0.72516  0.06063  0.62390  1.0000
  H   H135      1.0  0.93856  0.66523  0.61909  1.0000
  H   H136      1.0  0.19130  0.05724  0.44175  1.0000
  H   H137      1.0  0.34451  0.31945  0.96085  1.0000
  H   H138      1.0  0.68288  0.01686  0.00530  1.0000
  H   H139      1.0  0.98968  0.67296  0.98255  1.0000
  H   H140      1.0  0.27550  0.10351  0.87263  1.0000
  H   H141      1.0  0.35565  0.33829  0.77667  1.0000
  H   H142      1.0  0.65849  0.99717  0.84568  1.0000
  H   H143      1.0  0.00489  0.66508  0.81557  1.0000
  H   H144      1.0  0.41476  0.16085  0.82698  1.0000
  H   H145      1.0  0.85491  0.24594  0.81455  1.0000
  H   H146      1.0  0.30567  0.31180  0.66990  1.0000
  H   H147      1.0  0.69634  0.99164  0.71178  1.0000
  H   H148      1.0  0.00358  0.70460  0.66056  1.0000
  H   H149      1.0  0.46724  0.18542  0.74089  1.0000
  H   H150      1.0  0.83142  0.27608  0.74565  1.0000
  H   H151      1.0  0.29697  0.31235  0.87049  1.0000
  H   H152      1.0  0.70642  0.98910  0.90972  1.0000
  H   H153      1.0  0.01368  0.72192  0.84920  1.0000
  H   H154      1.0  0.47272  0.27125  0.75586  1.0000
  H   H155      1.0  0.74531  0.20143  0.85041  1.0000
  H   H156      1.0  0.27438  0.25813  0.72167  1.0000
  H   H157      1.0  0.74790  0.03286  0.71504  1.0000
  H   H158      1.0  0.96329  0.71628  0.70680  1.0000
  H   H159      1.0  0.41983  0.24681  0.83675  1.0000
  H   H160      1.0  0.76835  0.17039  0.91116  1.0000
  H   H161      1.0  0.28893  0.26225  0.91608  1.0000
  H   H162      1.0  0.74561  0.04092  0.91401  1.0000
  H   H163      1.0  0.96154  0.70598  0.90761  1.0000
  H   H164      1.0  0.18348  0.11816  0.09446  1.0000
  H   H165      1.0  0.90421  0.06220  0.09003  1.0000
  H   H166      1.0  0.94956  0.84073  0.02087  1.0000
  H   H167      1.0  0.42246  0.30590  0.53247  1.0000
  H   H168      1.0  0.61824  0.06842  0.83357  1.0000
  H   H169      1.0  0.93669  0.55344  0.83667  1.0000
  H   H170      1.0  0.51383  0.22880  0.69094  1.0000
  H   H171      1.0  0.78956  0.28309  0.72696  1.0000
  H   H172      1.0  0.72658  0.50796  0.67042  1.0000
  H   H173      1.0  0.45518  0.34155  0.51545  1.0000
  H   H174      1.0  0.59841  0.05852  0.65081  1.0000
  H   H175      1.0  0.94573  0.54328  0.65472  1.0000
  H   H176      1.0  0.92903  0.04696  0.90903  1.0000
  H   H177      1.0  0.43920  0.36484  0.16137  1.0000
  H   H178      1.0  0.66369  0.08797  0.95192  1.0000
  H   H179      1.0  0.91623  0.58194  0.94165  1.0000
  H   H180      1.0  0.95378  0.01656  0.91911  1.0000
  H   H181      1.0  0.39728  0.36170  0.97648  1.0000
  H   H182      1.0  0.61815  0.05645  0.13450  1.0000
  H   H183      1.0  0.94996  0.56878  0.11896  1.0000
  H   H184      1.0  0.05320  0.99113  0.75098  1.0000
  H   H185      1.0  0.99257  0.06493  0.66918  1.0000
  H   H186      1.0  0.91445  0.92161  0.71989  1.0000
  H   H187      1.0  0.46632  0.38305  0.69086  1.0000
  H   H188      1.0  0.59585  0.01487  0.48581  1.0000
  H   H189      1.0  0.98620  0.58493  0.47638  1.0000
  H   H190      1.0  0.10801  0.01340  0.72980  1.0000
  H   H191      1.0  0.97016  0.09717  0.63903  1.0000
  H   H192      1.0  0.88553  0.86615  0.70406  1.0000
  H   H193      1.0  0.44106  0.38026  0.83852  1.0000
  H   H194      1.0  0.61851  0.99969  0.54676  1.0000
  H   H195      1.0  0.00119  0.62273  0.53548  1.0000
  H   H196      1.0  0.43255  0.33054  0.95404  1.0000
  H   H197      1.0  0.59255  0.98691  0.81028  1.0000
  H   H198      1.0  0.01716  0.61039  0.79580  1.0000
  H   H199      1.0  0.42909  0.30210  0.82259  1.0000
  H   H200      1.0  0.59465  0.01592  0.93191  1.0000
  H   H201      1.0  0.98987  0.58352  0.92420  1.0000
  H   H202      1.0  0.46306  0.33696  0.83212  1.0000
  H   H203      1.0  0.57134  0.00445  0.76002  1.0000
  H   H204      1.0  0.00001  0.57152  0.75138  1.0000
  C   C1        1.0  0.30025  0.12650  0.33938  1.0000
  C   C2        1.0  0.85617  0.17827  0.38957  1.0000
  C   C3        1.0  0.81844  0.67458  0.37383  1.0000
  C   C4        1.0  0.09738  0.05703  0.46264  1.0000
  C   C5        1.0  0.91544  0.03397  0.46502  1.0000
  C   C6        1.0  0.94651  0.87859  0.49952  1.0000
  C   C7        1.0  0.33080  0.13887  0.31983  1.0000
  C   C8        1.0  0.84480  0.19700  0.35191  1.0000
  C   C9        1.0  0.80011  0.64420  0.34389  1.0000
  C   C10       1.0  0.06659  0.04425  0.47328  1.0000
  C   C11       1.0  0.92877  0.01620  0.47591  1.0000
  C   C12       1.0  0.96241  0.90975  0.50512  1.0000
  C   C13       1.0  0.35199  0.16574  0.39532  1.0000
  C   C14       1.0  0.81637  0.19057  0.40207  1.0000
  C   C15       1.0  0.80657  0.62249  0.40525  1.0000
  C   C16       1.0  0.98787  0.04527  0.08634  1.0000
  C   C17       1.0  0.33942  0.17836  0.49188  1.0000
  C   C18       1.0  0.80231  0.16571  0.50181  1.0000
  C   C19       1.0  0.83226  0.63409  0.50084  1.0000
  C   C20       1.0  0.99912  0.07182  0.17471  1.0000
  C   C21       1.0  0.34005  0.18800  0.02400  1.0000
  C   C22       1.0  0.82926  0.14377  0.01875  1.0000
  C   C23       1.0  0.85543  0.68640  0.01029  1.0000
  C   C24       1.0  0.98547  0.08919  0.16800  1.0000
  C   C25       1.0  0.28764  0.13981  0.43323  1.0000
  C   C26       1.0  0.84090  0.15168  0.48022  1.0000
  C   C27       1.0  0.84435  0.68642  0.47115  1.0000
  C   C28       1.0  0.54207  0.25133  0.29285  1.0000
  C   C29       1.0  0.57273  0.26549  0.27066  1.0000
  C   C30       1.0  0.36336  0.23069  0.14508  1.0000
  C   C31       1.0  0.79083  0.12514  0.16902  1.0000
  C   C32       1.0  0.87329  0.66582  0.16653  1.0000
  C   C33       1.0  0.58755  0.29164  0.17888  1.0000
  C   C34       1.0  0.57037  0.30306  0.10931  1.0000
  C   C35       1.0  0.25526  0.12589  0.45354  1.0000
  C   C36       1.0  0.53982  0.28932  0.13306  1.0000
  C   C37       1.0  0.38413  0.17985  0.36586  1.0000
  C   C38       1.0  0.80132  0.20646  0.34202  1.0000
  C   C39       1.0  0.78845  0.59070  0.36306  1.0000
  C   C40       1.0  0.04744  0.02283  0.06794  1.0000
  C   C41       1.0  0.00270  0.02719  0.08457  1.0000
  C   C42       1.0  0.99820  0.97779  0.07117  1.0000
  C   C43       1.0  0.24212  0.14301  0.49658  1.0000
  C   C44       1.0  0.62025  0.30715  0.16104  1.0000
  C   C45       1.0  0.66625  0.30532  0.13541  1.0000
  C   C46       1.0  0.66838  0.35363  0.15613  1.0000
  C   C47       1.0  0.21158  0.12955  0.51857  1.0000
  C   C48       1.0  0.03377  0.04040  0.07833  1.0000
  C   C49       1.0  0.98531  0.99595  0.08182  1.0000
  C   C50       1.0  0.02934  0.99151  0.06458  1.0000
  C   C51       1.0  0.19287  0.09847  0.50094  1.0000
  C   C52       1.0  0.63510  0.29078  0.14518  1.0000
  C   C53       1.0  0.68245  0.33664  0.13960  1.0000
  C   C54       1.0  0.63719  0.33856  0.16574  1.0000
  C   C55       1.0  0.23623  0.10243  0.95073  1.0000
  C   C56       1.0  0.23622  0.09473  0.43279  1.0000
  C   C57       1.0  0.34688  0.25580  0.32302  1.0000
  C   C58       1.0  0.76209  0.07932  0.32243  1.0000
  C   C59       1.0  0.91794  0.68206  0.33070  1.0000
  C   C60       1.0  0.39690  0.16318  0.30880  1.0000
  C   C61       1.0  0.81716  0.23683  0.29750  1.0000
  C   C62       1.0  0.75772  0.57788  0.33025  1.0000
  C   C63       1.0  0.33447  0.27353  0.23379  1.0000
  C   C64       1.0  0.73406  0.05663  0.23025  1.0000
  C   C65       1.0  0.94340  0.68031  0.24978  1.0000
  C   C66       1.0  0.42699  0.17688  0.27265  1.0000
  C   C67       1.0  0.80230  0.25124  0.23967  1.0000
  C   C68       1.0  0.74039  0.54778  0.29120  1.0000
  C   C69       1.0  0.44594  0.20792  0.29238  1.0000
  C   C70       1.0  0.77106  0.23595  0.22389  1.0000
  C   C71       1.0  0.75299  0.52917  0.28341  1.0000
  C   C72       1.0  0.32737  0.31364  0.34054  1.0000
  C   C73       1.0  0.68355  0.02803  0.34205  1.0000
  C   C74       1.0  0.97529  0.65988  0.33915  1.0000
  C   C75       1.0  0.43359  0.22466  0.35201  1.0000
  C   C76       1.0  0.75514  0.20535  0.26265  1.0000
  C   C77       1.0  0.78378  0.54191  0.31208  1.0000
  C   C78       1.0  0.29783  0.28964  0.26761  1.0000
  C   C79       1.0  0.70107  0.01206  0.38200  1.0000
  C   C80       1.0  0.99506  0.69327  0.30334  1.0000
  C   C81       1.0  0.40356  0.21100  0.38728  1.0000
  C   C82       1.0  0.76995  0.19102  0.31973  1.0000
  C   C83       1.0  0.80106  0.57197  0.35051  1.0000
  C   C84       1.0  0.30134  0.26178  0.26845  1.0000
  C   C85       1.0  0.72583  0.02385  0.25894  1.0000
  C   C86       1.0  0.97356  0.70548  0.31257  1.0000
  C   C87       1.0  0.19162  0.10361  0.04938  1.0000
  C   C88       1.0  0.91839  0.08616  0.06309  1.0000
  C   C89       1.0  0.92585  0.83366  0.00266  1.0000
  C   C90       1.0  0.37718  0.32550  0.23643  1.0000
  C   C91       1.0  0.69974  0.07803  0.21999  1.0000
  C   C92       1.0  0.92482  0.62490  0.22504  1.0000
  C   C93       1.0  0.47730  0.22201  0.25161  1.0000
  C   C94       1.0  0.75562  0.25192  0.17723  1.0000
  C   C95       1.0  0.73404  0.49743  0.24934  1.0000
  C   C96       1.0  0.40843  0.38079  0.21261  1.0000
  C   C97       1.0  0.66162  0.09284  0.20496  1.0000
  C   C98       1.0  0.91217  0.57262  0.19383  1.0000
  C   C99       1.0  0.95957  0.08004  0.07512  1.0000
  C   C100      1.0  0.43923  0.38357  0.22133  1.0000
  C   C101      1.0  0.66967  0.10589  0.03806  1.0000
  C   C102      1.0  0.89877  0.56922  0.02760  1.0000
  C   C103      1.0  0.52504  0.26303  0.22422  1.0000
  C   C104      1.0  0.39799  0.38024  0.04238  1.0000
  C   C105      1.0  0.62777  0.07474  0.22108  1.0000
  C   C106      1.0  0.93144  0.55785  0.20171  1.0000
  C   C107      1.0  0.40827  0.40592  0.30652  1.0000
  C   C108      1.0  0.67579  0.11675  0.33352  1.0000
  C   C109      1.0  0.88837  0.56021  0.32116  1.0000
  C   C110      1.0  0.33057  0.14628  0.86250  1.0000
  C   C111      1.0  0.86809  0.17665  0.84587  1.0000
  C   C112      1.0  0.82309  0.69341  0.83260  1.0000
  C   C113      1.0  0.94799  0.05327  0.98821  1.0000
  C   C114      1.0  0.36075  0.15883  0.83106  1.0000
  C   C115      1.0  0.85454  0.19387  0.82302  1.0000
  C   C116      1.0  0.80518  0.66257  0.81370  1.0000
  C   C117      1.0  0.96203  0.03631  0.99358  1.0000
  C   C118      1.0  0.38213  0.18727  0.88897  1.0000
  C   C119      1.0  0.82790  0.18753  0.89920  1.0000
  C   C120      1.0  0.81131  0.64181  0.89231  1.0000
  C   C121      1.0  0.04997  0.01996  0.57471  1.0000
  C   C122      1.0  0.95688  0.02676  0.54837  1.0000
  C   C123      1.0  0.95132  0.92609  0.58320  1.0000
  C   C124      1.0  0.37064  0.20081  0.98621  1.0000
  C   C125      1.0  0.81629  0.16231  0.99815  1.0000
  C   C126      1.0  0.83609  0.65501  0.99514  1.0000
  C   C127      1.0  0.06548  0.00921  0.66755  1.0000
  C   C128      1.0  0.97130  0.05629  0.60723  1.0000
  C   C129      1.0  0.92331  0.90972  0.65504  1.0000
  C   C130      1.0  0.30826  0.16681  0.50846  1.0000
  C   C131      1.0  0.81340  0.14625  0.54241  1.0000
  C   C132      1.0  0.85098  0.66498  0.53626  1.0000
  C   C133      1.0  0.09616  0.02161  0.65639  1.0000
  C   C134      1.0  0.95868  0.07450  0.59229  1.0000
  C   C135      1.0  0.90702  0.87861  0.64731  1.0000
  C   C136      1.0  0.31869  0.16004  0.95843  1.0000
  C   C137      1.0  0.85632  0.15117  0.94512  1.0000
  C   C138      1.0  0.84920  0.70658  0.92805  1.0000
  C   C139      1.0  0.32998  0.20597  0.65720  1.0000
  C   C140      1.0  0.77056  0.12847  0.65463  1.0000
  C   C141      1.0  0.87041  0.64142  0.65636  1.0000
  C   C142      1.0  0.28629  0.14585  0.98167  1.0000
  C   C143      1.0  0.41341  0.20192  0.84125  1.0000
  C   C144      1.0  0.81369  0.20568  0.86810  1.0000
  C   C145      1.0  0.01709  0.00525  0.57707  1.0000
  C   C146      1.0  0.97128  0.00813  0.56167  1.0000
  C   C147      1.0  0.96853  0.95926  0.58303  1.0000
  C   C148      1.0  0.27341  0.16094  0.05619  1.0000
  C   C149      1.0  0.64795  0.32688  0.65079  1.0000
  C   C150      1.0  0.69405  0.32477  0.67185  1.0000
  C   C151      1.0  0.69615  0.37330  0.65518  1.0000
  C   C152      1.0  0.24275  0.14715  0.07659  1.0000
  C   C153      1.0  0.00251  0.02192  0.56303  1.0000
  C   C154      1.0  0.95458  0.97667  0.57204  1.0000
  C   C155      1.0  0.99978  0.97401  0.58752  1.0000
  C   C156      1.0  0.22361  0.11769  0.02514  1.0000
  C   C157      1.0  0.66284  0.31051  0.66370  1.0000
  C   C158      1.0  0.71048  0.35626  0.66767  1.0000
  C   C159      1.0  0.66493  0.35816  0.64521  1.0000
  C   C160      1.0  0.20577  0.08126  0.45632  1.0000
  C   C161      1.0  0.26673  0.11621  0.92966  1.0000
  C   C162      1.0  0.31594  0.23613  0.81788  1.0000
  C   C163      1.0  0.74236  0.08730  0.83470  1.0000
  C   C164      1.0  0.91321  0.65668  0.83247  1.0000
  C   C165      1.0  0.42727  0.18498  0.81025  1.0000
  C   C166      1.0  0.83085  0.23584  0.82032  1.0000
  C   C167      1.0  0.31945  0.26469  0.73868  1.0000
  C   C168      1.0  0.72342  0.05681  0.75200  1.0000
  C   C169      1.0  0.94303  0.66806  0.74693  1.0000
  C   C170      1.0  0.45673  0.19880  0.76258  1.0000
  C   C171      1.0  0.81763  0.25287  0.78244  1.0000
  C   C172      1.0  0.47357  0.23007  0.74445  1.0000
  C   C173      1.0  0.78659  0.24075  0.79142  1.0000
  C   C174      1.0  0.34076  0.31676  0.83236  1.0000
  C   C175      1.0  0.68164  0.01319  0.87699  1.0000
  C   C176      1.0  0.98957  0.67260  0.85249  1.0000
  C   C177      1.0  0.45973  0.24712  0.77221  1.0000
  C   C178      1.0  0.76927  0.21079  0.84121  1.0000
  C   C179      1.0  0.30787  0.30449  0.78904  1.0000
  C   C180      1.0  0.70397  0.00387  0.82396  1.0000
  C   C181      1.0  0.99620  0.70283  0.78324  1.0000
  C   C182      1.0  0.43030  0.23330  0.81926  1.0000
  C   C183      1.0  0.78250  0.19376  0.87850  1.0000
  C   C184      1.0  0.29465  0.27046  0.79415  1.0000
  C   C185      1.0  0.73295  0.03384  0.80215  1.0000
  C   C186      1.0  0.96570  0.70088  0.78796  1.0000
  C   C187      1.0  0.16110  0.08516  0.53016  1.0000
  C   C188      1.0  0.89320  0.07601  0.56586  1.0000
  C   C189      1.0  0.91262  0.81442  0.56978  1.0000
  C   C190      1.0  0.37505  0.30003  0.72991  1.0000
  C   C191      1.0  0.67293  0.05145  0.73766  1.0000
  C   C192      1.0  0.95030  0.62406  0.73511  1.0000
  C   C193      1.0  0.50490  0.24405  0.70455  1.0000
  C   C194      1.0  0.77359  0.25946  0.75330  1.0000
  C   C195      1.0  0.74972  0.51706  0.71248  1.0000
  C   C196      1.0  0.42748  0.33911  0.70751  1.0000
  C   C197      1.0  0.61833  0.03166  0.71085  1.0000
  C   C198      1.0  0.97153  0.59041  0.70554  1.0000
  C   C199      1.0  0.11265  0.04579  0.55373  1.0000
  C   C200      1.0  0.93021  0.06349  0.52327  1.0000
  C   C201      1.0  0.91844  0.86237  0.57085  1.0000
  C   C202      1.0  0.43130  0.33002  0.54178  1.0000
  C   C203      1.0  0.61850  0.06139  0.71218  1.0000
  C   C204      1.0  0.94257  0.56037  0.71365  1.0000
  C   C205      1.0  0.44266  0.37321  0.71921  1.0000
  C   C206      1.0  0.61707  0.02021  0.54351  1.0000
  C   C207      1.0  0.98105  0.60058  0.53607  1.0000
  C   C208      1.0  0.43870  0.32629  0.83761  1.0000
  C   C209      1.0  0.59266  0.00824  0.80947  1.0000
  C   C210      1.0  0.99621  0.58897  0.80010  1.0000
  N   N1        1.0  0.38504  0.22865  0.06144  1.0000
  N   N2        1.0  0.79139  0.14943  0.09392  1.0000
  N   N3        1.0  0.84844  0.64229  0.09466  1.0000
  N   N4        1.0  0.33635  0.20749  0.12267  1.0000
  N   N5        1.0  0.81236  0.12039  0.12253  1.0000
  N   N6        1.0  0.87888  0.69235  0.11478  1.0000
  N   N7        1.0  0.37093  0.25457  0.24336  1.0000
  N   N8        1.0  0.77027  0.10994  0.28252  1.0000
  N   N9        1.0  0.88834  0.65964  0.28003  1.0000
  N   N10       1.0  0.34886  0.30552  0.28024  1.0000
  N   N11       1.0  0.70605  0.05655  0.27155  1.0000
  N   N12       1.0  0.94561  0.65270  0.27831  1.0000
  N   N13       1.0  0.17370  0.07551  0.02275  1.0000
  N   N14       1.0  0.94707  0.09856  0.06245  1.0000
  N   N15       1.0  0.91668  0.85276  0.00822  1.0000
  N   N16       1.0  0.49454  0.25076  0.25053  1.0000
  N   N17       1.0  0.72693  0.23874  0.16473  1.0000
  N   N18       1.0  0.74450  0.47948  0.23591  1.0000
  N   N19       1.0  0.35281  0.20393  0.58593  1.0000
  N   N20       1.0  0.77452  0.15346  0.57247  1.0000
  N   N21       1.0  0.84564  0.61950  0.57617  1.0000
  N   N22       1.0  0.30317  0.18512  0.60891  1.0000
  N   N23       1.0  0.79263  0.12285  0.63680  1.0000
  N   N24       1.0  0.87475  0.66873  0.63349  1.0000
  N   N25       1.0  0.33713  0.22761  0.76715  1.0000
  N   N26       1.0  0.74580  0.11300  0.74597  1.0000
  N   N27       1.0  0.88722  0.63340  0.74978  1.0000
  N   N28       1.0  0.34727  0.29362  0.77613  1.0000
  N   N29       1.0  0.69138  0.04157  0.79270  1.0000
  N   N30       1.0  0.95929  0.65205  0.79168  1.0000
  N   N31       1.0  0.14324  0.05662  0.53857  1.0000
  N   N32       1.0  0.91854  0.08273  0.50608  1.0000
  N   N33       1.0  0.90066  0.83121  0.56012  1.0000
  N   N34       1.0  0.52169  0.27266  0.68874  1.0000
  N   N35       1.0  0.74519  0.24934  0.74912  1.0000
  N   N36       1.0  0.76219  0.50069  0.71798  1.0000
  O   O1        1.0  0.39312  0.31887  0.15921  1.0000
  O   O2        1.0  0.71859  0.10274  0.16681  1.0000
  O   O3        1.0  0.89966  0.61836  0.17483  1.0000
  O   O4        1.0  0.38547  0.35344  0.29380  1.0000
  O   O5        1.0  0.67048  0.06937  0.23218  1.0000
  O   O6        1.0  0.93454  0.60485  0.23045  1.0000
  O   O7        1.0  0.38127  0.28107  0.68335  1.0000
  O   O8        1.0  0.68101  0.07355  0.65075  1.0000
  O   O9        1.0  0.92782  0.60954  0.65132  1.0000
  O   O10       1.0  0.39541  0.32964  0.73855  1.0000
  O   O11       1.0  0.64476  0.03387  0.79473  1.0000
  O   O12       1.0  0.96924  0.61444  0.78838  1.0000
  C  Sn1       1.0  0.57392  0.30793  0.52934  1.0000
  C   C211      1.0  0.55487  0.28432  0.62729  1.0000
  C  Sn2       1.0  0.56634  0.27554  0.75421  1.0000
  C  Sn3       1.0  0.59751  0.29068  0.78392  1.0000
  C   C212      1.0  0.61654  0.31428  0.68602  1.0000
  C  Sn4       1.0  0.60508  0.32308  0.55905  1.0000
  O  Te1       1.0  0.56195  0.31634  0.40314  1.0000
  O  Te2       1.0  0.54686  0.25186  0.85046  1.0000
  O  Te3       1.0  0.60946  0.28226  0.91024  1.0000
  O  Te4       1.0  0.62455  0.34674  0.46285  1.0000
  Mg  Mg1       1.0  0.57116  0.24884  0.00783  1.0000
  Mg  Mg2       1.0  0.59757  0.34993  0.30551  1.0000
  C  Sn5       1.0  0.91580  0.14067  0.01063  1.0000
  C   C213      1.0  0.90410  0.11108  0.06138  1.0000
  C  Sn6       1.0  0.87340  0.09130  0.05587  1.0000
  C  Sn7       1.0  0.85668  0.10116  0.99834  1.0000
  C   C214      1.0  0.86838  0.13073  0.94760  1.0000
  C  Sn8       1.0  0.89908  0.15053  0.95310  1.0000
  O  Te5       1.0  0.94656  0.16006  0.01718  1.0000
  O  Te6       1.0  0.86223  0.06183  0.10731  1.0000
  O  Te7       1.0  0.82590  0.08174  0.99182  1.0000
  O  Te8       1.0  0.91025  0.17998  0.90167  1.0000
  Mg  Mg3       1.0  0.81869  0.04386  0.07519  1.0000
  Mg  Mg4       1.0  0.95379  0.19796  0.93366  1.0000
  C  Sn9       1.0  0.74359  0.31702  0.75715  1.0000
  C   C215      1.0  0.71809  0.31111  0.66992  1.0000
  C  Sn10      1.0  0.69820  0.28209  0.61792  1.0000
  C  Sn11      1.0  0.70390  0.25848  0.65394  1.0000
  C   C216      1.0  0.72938  0.26439  0.74114  1.0000
  C  Sn12      1.0  0.74929  0.29341  0.79317  1.0000
  O  Te9       1.0  0.76317  0.34620  0.80793  1.0000
  O  Te10      1.0  0.67286  0.27673  0.53084  1.0000
  O  Te11      1.0  0.68429  0.22928  0.60307  1.0000
  O  Te12      1.0  0.77461  0.29877  0.88022  1.0000
  Mg  Mg5       1.0  0.65284  0.23321  0.48805  1.0000
  Mg  Mg6       1.0  0.79463  0.34227  0.92314  1.0000
  C  Sn13      1.0  0.72552  0.42818  0.06435  1.0000
  C   C217      1.0  0.72211  0.44691  0.16982  1.0000
  C  Sn14      1.0  0.70170  0.43479  0.29245  1.0000
  C  Sn15      1.0  0.68436  0.40328  0.31010  1.0000
  C   C218      1.0  0.68778  0.38456  0.20469  1.0000
  C  Sn16      1.0  0.70817  0.39667  0.08200  1.0000
  O  Te13      1.0  0.74875  0.44065  0.94262  1.0000
  O  Te14      1.0  0.69868  0.45398  0.39639  1.0000
  O  Te15      1.0  0.66382  0.39068  0.43195  1.0000
  O  Te16      1.0  0.71390  0.37736  0.97812  1.0000
  Mg  Mg7       1.0  0.66776  0.42608  0.54349  1.0000
  Mg  Mg8       1.0  0.74482  0.40523  0.83104  1.0000
  C  Sn17      1.0  0.90025  0.75732  0.03123  1.0000
  C   C219      1.0  0.87264  0.74154  0.99129  1.0000
  C  Sn18      1.0  0.85880  0.75660  0.92674  1.0000
  C  Sn19      1.0  0.87561  0.78795  0.90148  1.0000
  C   C220      1.0  0.90589  0.80358  0.94138  1.0000
  C  Sn20      1.0  0.91705  0.78868  0.00597  1.0000
  O  Te17      1.0  0.91362  0.74181  0.09561  1.0000
  O  Te18      1.0  0.82848  0.74048  0.88780  1.0000
  O  Te19      1.0  0.86220  0.80346  0.83705  1.0000
  O  Te20      1.0  0.94736  0.80478  0.04487  1.0000
  Mg  Mg9       1.0  0.82031  0.77163  0.80317  1.0000
  Mg  Mg10      1.0  0.95555  0.77365  0.12943  1.0000
  C  Sn21      1.0  0.93035  0.90906  0.10389  1.0000
  C   C221      1.0  0.93296  0.88864  0.00761  1.0000
  C  Sn22      1.0  0.96318  0.89565  0.94463  1.0000
  C  Sn23      1.0  0.98863  0.92380  0.97865  1.0000
  C   C222      1.0  0.98331  0.94434  0.07490  1.0000
  C  Sn24      1.0  0.95580  0.93721  0.13792  1.0000
  O  Te21      1.0  0.90261  0.90144  0.16559  1.0000
  O  Te22      1.0  0.96524  0.87487  0.84864  1.0000
  O  Te23      1.0  0.01638  0.93141  0.91686  1.0000
  O  Te24      1.0  0.95373  0.95797  0.23387  1.0000
  Mg  Mg11      1.0  0.00789  0.89561  0.79249  1.0000
  Mg  Mg12      1.0  0.91110  0.93725  0.29015  1.0000
  C  Sn25      1.0  0.10312  0.02911  0.17021  1.0000
  C   C223      1.0  0.08474  0.03943  0.10772  1.0000
  C  Sn26      1.0  0.09780  0.06110  0.98937  1.0000
  C  Sn27      1.0  0.12713  0.07284  0.93220  1.0000
  C   C224      1.0  0.14548  0.06252  0.99466  1.0000
  C  Sn28      1.0  0.13245  0.04085  0.11304  1.0000
  O  Te25      1.0  0.09230  0.00730  0.28845  1.0000
  O  Te26      1.0  0.07901  0.07107  0.92877  1.0000
  O  Te27      1.0  0.13794  0.09468  0.81386  1.0000
  O  Te28      1.0  0.15121  0.03088  0.17360  1.0000
  Mg  Mg13      1.0  0.10392  0.10107  0.76880  1.0000
  Mg  Mg14      1.0  0.12633  0.00087  0.33351  1.0000
  C  Sn29      1.0  0.85766  0.76068  0.52790  1.0000
  C   C225      1.0  0.88743  0.77795  0.57612  1.0000
  C  Sn30      1.0  0.90639  0.76600  0.57370  1.0000
  C  Sn31      1.0  0.89537  0.73616  0.52191  1.0000
  C   C226      1.0  0.86561  0.71890  0.47370  1.0000
  C  Sn32      1.0  0.84664  0.73084  0.47610  1.0000
  O  Te29      1.0  0.83911  0.77309  0.53128  1.0000
  O  Te30      1.0  0.93606  0.78370  0.62252  1.0000
  O  Te31      1.0  0.91395  0.72375  0.51856  1.0000
  O  Te32      1.0  0.81698  0.71316  0.42729  1.0000
  Mg  Mg15      1.0  0.95263  0.75675  0.59648  1.0000
  Mg  Mg16      1.0  0.80040  0.74008  0.45320  1.0000
  C  Sn33      1.0  0.87690  0.12766  0.37428  1.0000
  C   C227      1.0  0.85273  0.12630  0.45260  1.0000
  C  Sn34      1.0  0.84285  0.11042  0.59408  1.0000
  C  Sn35      1.0  0.85744  0.09559  0.65870  1.0000
  C   C228      1.0  0.88160  0.09695  0.58041  1.0000
  C  Sn36      1.0  0.89149  0.11283  0.43890  1.0000
  O  Te33      1.0  0.88640  0.14367  0.23300  1.0000
  O  Te34      1.0  0.81863  0.10937  0.67019  1.0000
  O  Te35      1.0  0.84792  0.07956  0.80010  1.0000
  O  Te36      1.0  0.91570  0.11388  0.36282  1.0000
  Mg  Mg17      1.0  0.81398  0.08470  0.85974  1.0000
  Mg  Mg18      1.0  0.92038  0.13856  0.17332  1.0000
  C  Sn37      1.0  0.66908  0.25242  0.07572  1.0000
  C   C229      1.0  0.67626  0.27924  0.15124  1.0000
  C  Sn38      1.0  0.70438  0.29678  0.22068  1.0000
  C  Sn39      1.0  0.72578  0.28734  0.21442  1.0000
  C   C230      1.0  0.71860  0.26054  0.13891  1.0000
  C  Sn40      1.0  0.69048  0.24298  0.06946  1.0000
  O  Te37      1.0  0.64083  0.23524  0.00710  1.0000
  O  Te38      1.0  0.71103  0.32350  0.29556  1.0000
  O  Te39      1.0  0.75404  0.30455  0.28312  1.0000
  O  Te40      1.0  0.68652  0.21615  0.99459  1.0000
  Mg  Mg19      1.0  0.75254  0.33917  0.37148  1.0000
  Mg  Mg20      1.0  0.64502  0.20046  0.91856  1.0000
  C  Sn41      1.0  0.75011  0.42943  0.63766  1.0000
  C   C231      1.0  0.72128  0.40928  0.68766  1.0000
  C  Sn42      1.0  0.70216  0.41958  0.73281  1.0000
  C  Sn43      1.0  0.71205  0.45065  0.72779  1.0000
  C   C232      1.0  0.74085  0.47078  0.67780  1.0000
  C  Sn44      1.0  0.75999  0.46051  0.63265  1.0000
  O  Te41      1.0  0.76884  0.41864  0.59306  1.0000
  O  Te42      1.0  0.67345  0.39901  0.78242  1.0000
  O  Te43      1.0  0.69328  0.46143  0.77245  1.0000
  O  Te44      1.0  0.78869  0.48106  0.58304  1.0000
  Mg  Mg21      1.0  0.65619  0.42462  0.83134  1.0000
  Mg  Mg22      1.0  0.80597  0.45546  0.53401  1.0000
  C  Sn45      1.0  0.79492  0.56559  0.89017  1.0000
  C   C233      1.0  0.76675  0.54895  0.81949  1.0000
  C  Sn46      1.0  0.75269  0.56337  0.74969  1.0000
  C  Sn47      1.0  0.76709  0.59508  0.75044  1.0000
  C   C234      1.0  0.79523  0.61170  0.82106  1.0000
  C  Sn48      1.0  0.80931  0.59730  0.89093  1.0000
  O  Te45      1.0  0.80856  0.55070  0.95925  1.0000
  O  Te46      1.0  0.72453  0.54626  0.67980  1.0000
  O  Te47      1.0  0.75342  0.60996  0.68129  1.0000
  O  Te48      1.0  0.83745  0.61439  0.96076  1.0000
  Mg  Mg23      1.0  0.71504  0.57685  0.60088  1.0000
  Mg  Mg24      1.0  0.84428  0.58397  0.03963  1.0000
