data_image0
_chemical_formula_structural       H116C90N36C2Sn2C2HTe2HMgC2Sn2C2HTe2HMgC2Sn2C2HTe2HMgC2Sn2C2HTe2HMgC2Sn2C2HTe2HMgC2Sn2C2HTe2HMgC2Sn2C2HTe2HMgC2Sn2C2HTe2HMgC2Sn2C2HTe2HMgC2Sn2C2HTe2HMgC2Sn2C2HTe2HMgC2Sn2C2HTe2HMgC2Sn2C2HTe2HMgC2Sn2C2HTe2HMgC2Sn2C2HTe2HMgC2Sn2C2HTe2HMgC2Sn2C2HTe2HMgC2Sn2C2HTe2HMgC2Sn2C2HTe2HMgC2Sn2C2HTe2HMgC2Sn2C2HTe2HMgC2Sn2C2HTe2HMgC2Sn2C2HTe2HMgC2Sn2C2HTe2HMgC2Sn2C2HTe2HMgC2Sn2C2HTe2HMgC2Sn2C2HTe2HMgC2Sn2C2HTe2HMgC2Sn2C2HTe2HMgC2Sn2C2HTe2HMgC2Sn2C2HTe2HMgC2Sn2C2HTe2HMg
_chemical_formula_sum              "H180 C218 N36 Sn64 Te64 Mg32"
_cell_length_a       51.296
_cell_length_b       51.1751
_cell_length_c       8.2163
_cell_angle_alpha    90.8329
_cell_angle_beta     90.4982
_cell_angle_gamma    120.203

_symmetry_space_group_name_H-M    'P1'
_space_group_IT_number       1

loop_
  _space_group_symop_operation_xyz
  'x, y, z'

loop_
  _atom_site_type_symbol
  _atom_site_label
  _atom_site_symmetry_multiplicity
  _atom_site_fract_x
  _atom_site_fract_y
  _atom_site_fract_z
  _atom_site_occupancy
  H   H1        1.0  0.30690  0.12110  0.04113  1.0000
  H   H2        1.0  0.88049  0.18712  0.03216  1.0000
  H   H3        1.0  0.81523  0.69236  0.01691  1.0000
  H   H4        1.0  0.36026  0.14327  0.11909  1.0000
  H   H5        1.0  0.85972  0.21925  0.10809  1.0000
  H   H6        1.0  0.78313  0.63960  0.09042  1.0000
  H   H7        1.0  0.28684  0.19785  0.31214  1.0000
  H   H8        1.0  0.80681  0.09356  0.32885  1.0000
  H   H9        1.0  0.90905  0.71404  0.33473  1.0000
  H   H10       1.0  0.35110  0.26254  0.01530  1.0000
  H   H11       1.0  0.73691  0.08776  0.00466  1.0000
  H   H12       1.0  0.91230  0.65035  0.01933  1.0000
  H   H13       1.0  0.16765  0.11784  0.41922  1.0000
  H   H14       1.0  0.87928  0.04859  0.42331  1.0000
  H   H15       1.0  0.95088  0.83119  0.42404  1.0000
  H   H16       1.0  0.49750  0.21589  0.43830  1.0000
  H   H17       1.0  0.78720  0.28286  0.45445  1.0000
  H   H18       1.0  0.72002  0.50443  0.44113  1.0000
  H   H19       1.0  0.31626  0.26134  0.25378  1.0000
  H   H20       1.0  0.02513  0.05498  0.33801  1.0000
  H   H21       1.0  0.94138  0.97048  0.33683  1.0000
  H   H22       1.0  0.02540  0.97115  0.34011  1.0000
  H   H23       1.0  0.64068  0.27759  0.48932  1.0000
  H   H24       1.0  0.72451  0.36204  0.50334  1.0000
  H   H25       1.0  0.64039  0.36132  0.48825  1.0000
  H   H26       1.0  0.31207  0.31478  0.26086  1.0000
  H   H27       1.0  0.68886  0.00341  0.22987  1.0000
  H   H28       1.0  0.99677  0.68302  0.25414  1.0000
  H   H29       1.0  0.26591  0.30397  0.40099  1.0000
  H   H30       1.0  0.69491  0.96548  0.38051  1.0000
  H   H31       1.0  0.03601  0.72722  0.40716  1.0000
  H   H32       1.0  0.27942  0.29526  0.07719  1.0000
  H   H33       1.0  0.70644  0.98327  0.06261  1.0000
  H   H34       1.0  0.01709  0.71990  0.08684  1.0000
  H   H35       1.0  0.24034  0.24697  0.43085  1.0000
  H   H36       1.0  0.75170  0.99482  0.43271  1.0000
  H   H37       1.0  0.00860  0.75647  0.45606  1.0000
  H   H38       1.0  0.28241  0.24573  0.07054  1.0000
  H   H39       1.0  0.75536  0.03661  0.06433  1.0000
  H   H40       1.0  0.96548  0.71892  0.08081  1.0000
  H   H41       1.0  0.40089  0.32017  0.26971  1.0000
  H   H42       1.0  0.68671  0.08833  0.23395  1.0000
  H   H43       1.0  0.91124  0.59785  0.24054  1.0000
  H   H44       1.0  0.37134  0.28225  0.27883  1.0000
  H   H45       1.0  0.72369  0.09443  0.25363  1.0000
  H   H46       1.0  0.90714  0.63011  0.25230  1.0000
  H   H47       1.0  0.38969  0.30282  0.46138  1.0000
  H   H48       1.0  0.70429  0.09583  0.42877  1.0000
  H   H49       1.0  0.90324  0.60914  0.42978  1.0000
  H   H50       1.0  0.39775  0.35972  0.33739  1.0000
  H   H51       1.0  0.64545  0.04747  0.31032  1.0000
  H   H52       1.0  0.95082  0.59570  0.33752  1.0000
  H   H53       1.0  0.38286  0.34891  0.53676  1.0000
  H   H54       1.0  0.65681  0.04461  0.51194  1.0000
  H   H55       1.0  0.95315  0.61104  0.53800  1.0000
  H   H56       1.0  0.36394  0.35885  0.38802  1.0000
  H   H57       1.0  0.64435  0.01391  0.36914  1.0000
  H   H58       1.0  0.98458  0.62800  0.40608  1.0000
  H   H59       1.0  0.30429  0.11748  0.56179  1.0000
  H   H60       1.0  0.87620  0.18525  0.53684  1.0000
  H   H61       1.0  0.81548  0.69193  0.53033  1.0000
  H   H62       1.0  0.35819  0.14048  0.62992  1.0000
  H   H63       1.0  0.85367  0.21595  0.61230  1.0000
  H   H64       1.0  0.78459  0.63881  0.59987  1.0000
  H   H65       1.0  0.28566  0.19621  0.81735  1.0000
  H   H66       1.0  0.80507  0.09088  0.83561  1.0000
  H   H67       1.0  0.91001  0.71517  0.84410  1.0000
  H   H68       1.0  0.35141  0.26385  0.51715  1.0000
  H   H69       1.0  0.74108  0.09276  0.50966  1.0000
  H   H70       1.0  0.90921  0.64929  0.52374  1.0000
  H   H71       1.0  0.16764  0.11997  0.95220  1.0000
  H   H72       1.0  0.87762  0.04591  0.94208  1.0000
  H   H73       1.0  0.95368  0.83163  0.93337  1.0000
  H   H74       1.0  0.49678  0.21721  0.94255  1.0000
  H   H75       1.0  0.78234  0.27884  0.95877  1.0000
  H   H76       1.0  0.72090  0.50326  0.92406  1.0000
  H   H77       1.0  0.31654  0.26125  0.75154  1.0000
  H   H78       1.0  0.73857  0.05439  0.74424  1.0000
  H   H79       1.0  0.94533  0.68352  0.75873  1.0000
  H   H80       1.0  0.02603  0.05546  0.84731  1.0000
  H   H81       1.0  0.94343  0.96981  0.84790  1.0000
  H   H82       1.0  0.02864  0.97285  0.84312  1.0000
  H   H83       1.0  0.63842  0.27742  0.00114  1.0000
  H   H84       1.0  0.72293  0.36114  0.01642  1.0000
  H   H85       1.0  0.63961  0.36185  0.98611  1.0000
  H   H86       1.0  0.31437  0.31575  0.75882  1.0000
  H   H87       1.0  0.68535  0.99719  0.74106  1.0000
  H   H88       1.0  0.00074  0.68457  0.76106  1.0000
  H   H89       1.0  0.26865  0.30627  0.89915  1.0000
  H   H90       1.0  0.69541  0.96119  0.88230  1.0000
  H   H91       1.0  0.03886  0.72988  0.91029  1.0000
  H   H92       1.0  0.27726  0.29363  0.57912  1.0000
  H   H93       1.0  0.24159  0.24923  0.92961  1.0000
  H   H94       1.0  0.75238  0.99239  0.92116  1.0000
  H   H95       1.0  0.01062  0.75859  0.94439  1.0000
  H   H96       1.0  0.28164  0.24438  0.57129  1.0000
  H   H97       1.0  0.75624  0.04009  0.56865  1.0000
  H   H98       1.0  0.96291  0.71690  0.58629  1.0000
  H   H99       1.0  0.40179  0.31817  0.76564  1.0000
  H   H100      1.0  0.68123  0.08038  0.73803  1.0000
  H   H101      1.0  0.91477  0.59889  0.74935  1.0000
  H   H102      1.0  0.37171  0.28059  0.77856  1.0000
  H   H103      1.0  0.71867  0.08773  0.75633  1.0000
  H   H104      1.0  0.90963  0.63048  0.76526  1.0000
  H   H105      1.0  0.39086  0.30144  0.95893  1.0000
  H   H106      1.0  0.69921  0.08885  0.93241  1.0000
  H   H107      1.0  0.90783  0.61000  0.94168  1.0000
  H   H108      1.0  0.40006  0.35856  0.83640  1.0000
  H   H109      1.0  0.64084  0.03881  0.82711  1.0000
  H   H110      1.0  0.95529  0.59804  0.83588  1.0000
  H   H111      1.0  0.38438  0.34836  0.03420  1.0000
  H   H112      1.0  0.65453  0.03774  0.02619  1.0000
  H   H113      1.0  0.95696  0.61233  0.03805  1.0000
  H   H114      1.0  0.36655  0.35866  0.88085  1.0000
  H   H115      1.0  0.64175  0.00632  0.88757  1.0000
  H   H116      1.0  0.98865  0.63029  0.90835  1.0000
  C   C1        1.0  0.31782  0.14197  0.11356  1.0000
  C   C2        1.0  0.86011  0.17754  0.10370  1.0000
  C   C3        1.0  0.82467  0.68204  0.09442  1.0000
  C   C4        1.0  0.34826  0.15474  0.15718  1.0000
  C   C5        1.0  0.84808  0.19581  0.14551  1.0000
  C   C6        1.0  0.80637  0.65178  0.13526  1.0000
  C   C7        1.0  0.36464  0.18265  0.24209  1.0000
  C   C8        1.0  0.82064  0.18485  0.22762  1.0000
  C   C9        1.0  0.81721  0.63572  0.22387  1.0000
  C   C10       1.0  0.34854  0.19739  0.28333  1.0000
  C   C11       1.0  0.80601  0.15415  0.26994  1.0000
  C   C12       1.0  0.84780  0.65223  0.27347  1.0000
  C   C13       1.0  0.31767  0.18396  0.23709  1.0000
  C   C14       1.0  0.81898  0.13617  0.22950  1.0000
  C   C15       1.0  0.86589  0.68310  0.23257  1.0000
  C   C16       1.0  0.30123  0.15628  0.15236  1.0000
  C   C17       1.0  0.84580  0.14662  0.14320  1.0000
  C   C18       1.0  0.85551  0.69908  0.14085  1.0000
  C   C19       1.0  0.33326  0.22668  0.38130  1.0000
  C   C20       1.0  0.77714  0.11047  0.37302  1.0000
  C   C21       1.0  0.89160  0.66745  0.38333  1.0000
  C   C22       1.0  0.17490  0.10170  0.45339  1.0000
  C   C23       1.0  0.89518  0.07292  0.44373  1.0000
  C   C24       1.0  0.92661  0.82251  0.44002  1.0000
  C   C25       1.0  0.49038  0.23208  0.40297  1.0000
  C   C26       1.0  0.77109  0.25914  0.41982  1.0000
  C   C27       1.0  0.74325  0.51152  0.40512  1.0000
  C   C28       1.0  0.02937  0.01508  0.33736  1.0000
  C   C29       1.0  0.98140  0.01467  0.33540  1.0000
  C   C30       1.0  0.98150  0.96691  0.33512  1.0000
  C   C31       1.0  0.63664  0.31754  0.49079  1.0000
  C   C32       1.0  0.68453  0.31792  0.49899  1.0000
  C   C33       1.0  0.68445  0.36576  0.49765  1.0000
  C   C34       1.0  0.01308  0.03038  0.33483  1.0000
  C   C35       1.0  0.96591  0.98292  0.33416  1.0000
  C   C36       1.0  0.01313  0.98334  0.33617  1.0000
  C   C37       1.0  0.65285  0.30218  0.49417  1.0000
  C   C38       1.0  0.69997  0.34967  0.50180  1.0000
  C   C39       1.0  0.65281  0.34928  0.49342  1.0000
  C   C40       1.0  0.38120  0.30443  0.33981  1.0000
  C   C41       1.0  0.70162  0.08391  0.31088  1.0000
  C   C42       1.0  0.91615  0.61768  0.31668  1.0000
  C   C43       1.0  0.37687  0.34738  0.40607  1.0000
  C   C44       1.0  0.65725  0.03860  0.38263  1.0000
  C   C45       1.0  0.95991  0.61675  0.41016  1.0000
  C   C46       1.0  0.31572  0.13922  0.62622  1.0000
  C   C47       1.0  0.85606  0.17527  0.61039  1.0000
  C   C48       1.0  0.82545  0.68176  0.60515  1.0000
  C   C49       1.0  0.34641  0.15233  0.66538  1.0000
  C   C50       1.0  0.84304  0.19267  0.65182  1.0000
  C   C51       1.0  0.80789  0.65131  0.64361  1.0000
  C   C52       1.0  0.36328  0.18097  0.74236  1.0000
  C   C53       1.0  0.81566  0.18093  0.73503  1.0000
  C   C54       1.0  0.81943  0.63547  0.72838  1.0000
  C   C55       1.0  0.34729  0.19591  0.78130  1.0000
  C   C56       1.0  0.80193  0.15029  0.77716  1.0000
  C   C57       1.0  0.85011  0.65250  0.77646  1.0000
  C   C58       1.0  0.31624  0.18229  0.73867  1.0000
  C   C59       1.0  0.81595  0.13322  0.73774  1.0000
  C   C60       1.0  0.86742  0.68363  0.73911  1.0000
  C   C61       1.0  0.29936  0.15398  0.66054  1.0000
  C   C62       1.0  0.84289  0.14453  0.65136  1.0000
  C   C63       1.0  0.85625  0.69933  0.65099  1.0000
  C   C64       1.0  0.33241  0.22561  0.87765  1.0000
  C   C65       1.0  0.77385  0.10617  0.87723  1.0000
  C   C66       1.0  0.89433  0.66861  0.88365  1.0000
  C   C67       1.0  0.17585  0.10398  0.96774  1.0000
  C   C68       1.0  0.89378  0.07041  0.94900  1.0000
  C   C69       1.0  0.92932  0.82299  0.94513  1.0000
  C   C70       1.0  0.48928  0.23312  0.90738  1.0000
  C   C71       1.0  0.76599  0.25541  0.92061  1.0000
  C   C72       1.0  0.74471  0.51076  0.89965  1.0000
  C   C73       1.0  0.03117  0.01618  0.84310  1.0000
  C   C74       1.0  0.98264  0.01450  0.84500  1.0000
  C   C75       1.0  0.98417  0.96747  0.84280  1.0000
  C   C76       1.0  0.63513  0.31779  0.99783  1.0000
  C   C77       1.0  0.68258  0.31734  0.01131  1.0000
  C   C78       1.0  0.68332  0.36552  0.00323  1.0000
  C   C79       1.0  0.01431  0.03087  0.84392  1.0000
  C   C80       1.0  0.96792  0.98281  0.84363  1.0000
  C   C81       1.0  0.01577  0.98445  0.84118  1.0000
  C   C82       1.0  0.65091  0.30202  0.00508  1.0000
  C   C83       1.0  0.69840  0.34905  0.01279  1.0000
  C   C84       1.0  0.65168  0.34951  0.99655  1.0000
  C   C85       1.0  0.38215  0.30297  0.83774  1.0000
  C   C86       1.0  0.69673  0.07681  0.81512  1.0000
  C   C87       1.0  0.91969  0.61869  0.82582  1.0000
  C   C88       1.0  0.37887  0.34667  0.90270  1.0000
  C   C89       1.0  0.65391  0.03107  0.89706  1.0000
  C   C90       1.0  0.96399  0.61876  0.91120  1.0000
  N   N1        1.0  0.35776  0.22437  0.37107  1.0000
  N   N2        1.0  0.77948  0.13721  0.35610  1.0000
  N   N3        1.0  0.86470  0.64301  0.36508  1.0000
  N   N4        1.0  0.30864  0.20348  0.29932  1.0000
  N   N5        1.0  0.79975  0.10803  0.29536  1.0000
  N   N6        1.0  0.89405  0.69223  0.30326  1.0000
  N   N7        1.0  0.33104  0.24907  0.46522  1.0000
  N   N8        1.0  0.75492  0.08643  0.45628  1.0000
  N   N9        1.0  0.91571  0.66944  0.47046  1.0000
  N   N10       1.0  0.36024  0.31600  0.34344  1.0000
  N   N11       1.0  0.68798  0.05104  0.32128  1.0000
  N   N12       1.0  0.94894  0.63575  0.33975  1.0000
  N   N13       1.0  0.15676  0.07279  0.44278  1.0000
  N   N14       1.0  0.92388  0.08450  0.42501  1.0000
  N   N15       1.0  0.91468  0.83918  0.41584  1.0000
  N   N16       1.0  0.50915  0.26081  0.40129  1.0000
  N   N17       1.0  0.74226  0.24812  0.42484  1.0000
  N   N18       1.0  0.75361  0.49318  0.40984  1.0000
  N   N19       1.0  0.35684  0.22323  0.86573  1.0000
  N   N20       1.0  0.77527  0.13250  0.86067  1.0000
  N   N21       1.0  0.86779  0.64372  0.86410  1.0000
  N   N22       1.0  0.30744  0.20216  0.79877  1.0000
  N   N23       1.0  0.79734  0.10485  0.80283  1.0000
  N   N24       1.0  0.89587  0.69337  0.80803  1.0000
  N   N25       1.0  0.33069  0.24823  0.96222  1.0000
  N   N26       1.0  0.75159  0.08180  0.95860  1.0000
  N   N27       1.0  0.91867  0.67074  0.96944  1.0000
  N   N28       1.0  0.36177  0.31526  0.84102  1.0000
  N   N29       1.0  0.68422  0.04414  0.82824  1.0000
  N   N30       1.0  0.95253  0.63752  0.84304  1.0000
  N   N31       1.0  0.15857  0.07526  0.94148  1.0000
  N   N32       1.0  0.92213  0.08162  0.92039  1.0000
  N   N33       1.0  0.91757  0.83977  0.91918  1.0000
  N   N34       1.0  0.50765  0.26195  0.90723  1.0000
  N   N35       1.0  0.73730  0.24512  0.92525  1.0000
  N   N36       1.0  0.75537  0.49277  0.91467  1.0000
  C   C91       1.0  0.24201  0.10447  0.09987  1.0000
  C   C92       1.0  0.26489  0.13479  0.10044  1.0000
  C  Sn1       1.0  0.25821  0.15737  0.06362  1.0000
  C  Sn2       1.0  0.22802  0.14938  0.02561  1.0000
  C   C93       1.0  0.20528  0.11898  0.02549  1.0000
  C   C94       1.0  0.21222  0.09657  0.06246  1.0000
  H   H117      1.0  0.24737  0.08712  0.12856  1.0000
  O  Te1       1.0  0.28135  0.18755  0.06468  1.0000
  O  Te2       1.0  0.22414  0.17556  0.98842  1.0000
  H   H118      1.0  0.19449  0.07310  0.06212  1.0000
  Mg  Mg1       1.0  0.26010  0.20951  0.00579  1.0000
  C   C95       1.0  0.84407  0.07776  0.03874  1.0000
  C   C96       1.0  0.87682  0.09005  0.99369  1.0000
  C  Sn3       1.0  0.89645  0.11619  0.00577  1.0000
  C  Sn4       1.0  0.88998  0.13851  0.06410  1.0000
  C   C97       1.0  0.86058  0.13004  0.10897  1.0000
  C   C98       1.0  0.83766  0.09975  0.09635  1.0000
  H   H119      1.0  0.82634  0.05432  0.02906  1.0000
  O  Te3       1.0  0.92905  0.12809  0.96019  1.0000
  O  Te4       1.0  0.91261  0.16886  0.07745  1.0000
  H   H120      1.0  0.81497  0.09338  0.13133  1.0000
  Mg  Mg2       1.0  0.94881  0.16834  0.00030  1.0000
  C   C99       1.0  0.87177  0.77195  0.01797  1.0000
  C   C100      1.0  0.90309  0.78930  0.00420  1.0000
  C  Sn5       1.0  0.92101  0.77624  0.02912  1.0000
  C  Sn6       1.0  0.90725  0.74523  0.06851  1.0000
  C   C101      1.0  0.87590  0.72807  0.08189  1.0000
  C   C102      1.0  0.85818  0.74136  0.05675  1.0000
  H   H121      1.0  0.86149  0.78630  0.99843  1.0000
  O  Te5       1.0  0.95226  0.79391  0.01495  1.0000
  O  Te6       1.0  0.92462  0.73161  0.09399  1.0000
  H   H122      1.0  0.83393  0.72792  0.06731  1.0000
  Mg  Mg3       1.0  0.96633  0.76507  0.06099  1.0000
  C   C103      1.0  0.42509  0.23331  0.27261  1.0000
  C   C104      1.0  0.40169  0.20322  0.27265  1.0000
  C  Sn7       1.0  0.40706  0.18053  0.32630  1.0000
  C  Sn8       1.0  0.43643  0.18820  0.38090  1.0000
  C   C105      1.0  0.45968  0.21837  0.38049  1.0000
  C   C106      1.0  0.45406  0.24089  0.32650  1.0000
  H   H123      1.0  0.42074  0.25073  0.23092  1.0000
  O  Te7       1.0  0.38342  0.15058  0.32549  1.0000
  O  Te8       1.0  0.44242  0.16598  0.43522  1.0000
  H   H124      1.0  0.47218  0.26419  0.32658  1.0000
  Mg  Mg4       1.0  0.40280  0.12836  0.41100  1.0000
  C   C107      1.0  0.82159  0.25027  0.38697  1.0000
  C   C108      1.0  0.79221  0.24485  0.36517  1.0000
  C  Sn9       1.0  0.76974  0.21735  0.29754  1.0000
  C  Sn10      1.0  0.77687  0.19490  0.25103  1.0000
  C   C109      1.0  0.80632  0.20052  0.27345  1.0000
  C   C110      1.0  0.82864  0.22813  0.34119  1.0000
  H   H125      1.0  0.83885  0.27161  0.43946  1.0000
  O  Te9       1.0  0.74051  0.21232  0.27655  1.0000
  O  Te10      1.0  0.75485  0.16721  0.18321  1.0000
  H   H126      1.0  0.85137  0.23230  0.35816  1.0000
  Mg  Mg5       1.0  0.71829  0.17100  0.17891  1.0000
  C   C111      1.0  0.79802  0.55935  0.27421  1.0000
  C   C112      1.0  0.76957  0.54512  0.34459  1.0000
  C  Sn11      1.0  0.75419  0.56089  0.36873  1.0000
  C  Sn12      1.0  0.76760  0.59147  0.32136  1.0000
  C   C113      1.0  0.79607  0.60550  0.25094  1.0000
  C   C114      1.0  0.81127  0.58951  0.22740  1.0000
  H   H127      1.0  0.80978  0.54697  0.25591  1.0000
  O  Te11      1.0  0.72578  0.54634  0.43927  1.0000
  O  Te12      1.0  0.75273  0.60777  0.34403  1.0000
  H   H128      1.0  0.83329  0.60052  0.17280  1.0000
  Mg  Mg6       1.0  0.71444  0.57805  0.44513  1.0000
  C   C115      1.0  0.75479  0.04339  0.40132  1.0000
  C   C116      1.0  0.74478  0.02098  0.51842  1.0000
  C  Sn13      1.0  0.21581  0.00187  0.54177  1.0000
  C  Sn14      1.0  0.69275  0.00531  0.44590  1.0000
  C   C117      1.0  0.70299  0.02779  0.32899  1.0000
  C   C118      1.0  0.73392  0.04679  0.30667  1.0000
  H   H129      1.0  0.77872  0.05808  0.38398  1.0000
  O  Te13      1.0  0.20619  0.97960  0.65933  1.0000
  O  Te14      1.0  0.16366  0.98651  0.46667  1.0000
  H   H130      1.0  0.74166  0.06413  0.21593  1.0000
  Mg  Mg7       1.0  0.16165  0.95951  0.64235  1.0000
  C   C119      1.0  0.95914  0.71165  0.41871  1.0000
  C   C120      1.0  0.98192  0.72399  0.53853  1.0000
  C  Sn15      1.0  0.00018  0.71138  0.56560  1.0000
  C  Sn16      1.0  0.99549  0.68593  0.47073  1.0000
  C   C121      1.0  0.97265  0.67376  0.35107  1.0000
  C   C122      1.0  0.95451  0.68656  0.32504  1.0000
  H   H131      1.0  0.94511  0.72156  0.39849  1.0000
  O  Te15      1.0  0.02282  0.72399  0.68585  1.0000
  O  Te16      1.0  0.01341  0.67288  0.49520  1.0000
  H   H132      1.0  0.93689  0.67700  0.23219  1.0000
  Mg  Mg8       1.0  0.04138  0.69818  0.67353  1.0000
  C   C123      1.0  0.31684  0.31159  0.42299  1.0000
  C   C124      1.0  0.29227  0.30055  0.31442  1.0000
  C  Sn17      1.0  0.27482  0.26955  0.27994  1.0000
  C  Sn18      1.0  0.28216  0.24928  0.35579  1.0000
  C   C125      1.0  0.30677  0.26055  0.46431  1.0000
  C   C126      1.0  0.32408  0.29161  0.49790  1.0000
  H   H133      1.0  0.33023  0.33562  0.44906  1.0000
  O  Te17      1.0  0.25035  0.25890  0.17112  1.0000
  O  Te18      1.0  0.26509  0.21819  0.32356  1.0000
  H   H134      1.0  0.34310  0.30015  0.58205  1.0000
  Mg  Mg9       1.0  0.23391  0.21461  0.16643  1.0000
  C   C127      1.0  0.69023  0.01037  0.39491  1.0000
  C   C128      1.0  0.20281  0.99691  0.28564  1.0000
  C  Sn19      1.0  0.73191  0.00949  0.26372  1.0000
  C  Sn20      1.0  0.75251  0.03602  0.35305  1.0000
  C   C129      1.0  0.74158  0.04931  0.46215  1.0000
  C   C130      1.0  0.71053  0.03654  0.48311  1.0000
  H   H135      1.0  0.16809  0.00049  0.41120  1.0000
  O  Te19      1.0  0.24411  0.99575  0.15402  1.0000
  O  Te20      1.0  0.78359  0.04906  0.33353  1.0000
  H   H136      1.0  0.70225  0.04696  0.56780  1.0000
  Mg  Mg10      1.0  0.78664  0.02201  0.16965  1.0000
  C   C131      1.0  0.99021  0.67826  0.41826  1.0000
  C   C132      1.0  0.00413  0.70215  0.31047  1.0000
  C  Sn21      1.0  0.99257  0.72136  0.28559  1.0000
  C  Sn22      1.0  0.96658  0.71652  0.37041  1.0000
  C   C133      1.0  0.95282  0.69257  0.47807  1.0000
  C   C134      1.0  0.96458  0.67348  0.50201  1.0000
  H   H137      1.0  0.99931  0.66349  0.43686  1.0000
  O  Te21      1.0  0.00675  0.74511  0.17741  1.0000
  O  Te22      1.0  0.95455  0.73540  0.34787  1.0000
  H   H138      1.0  0.95381  0.65499  0.58556  1.0000
  Mg  Mg11      1.0  0.98188  0.76469  0.18766  1.0000
  C   C135      1.0  0.08509  0.06550  0.45987  1.0000
  C   C136      1.0  0.06646  0.03973  0.36468  1.0000
  C  Sn23      1.0  0.07824  0.02324  0.29063  1.0000
  C  Sn24      1.0  0.10925  0.03277  0.31253  1.0000
  C   C137      1.0  0.12770  0.05857  0.40808  1.0000
  C   C138      1.0  0.11568  0.07491  0.48159  1.0000
  H   H139      1.0  0.07579  0.07813  0.51682  1.0000
  O  Te23      1.0  0.56119  0.99756  0.19587  1.0000
  O  Te24      1.0  0.12161  0.01671  0.23996  1.0000
  H   H140      1.0  0.13011  0.09485  0.55537  1.0000
  Mg  Mg12      1.0  0.58858  0.98320  0.12194  1.0000
  C   C139      1.0  0.96899  0.07678  0.28780  1.0000
  C   C140      1.0  0.94228  0.06898  0.36879  1.0000
  C  Sn25      1.0  0.92688  0.04153  0.44900  1.0000
  C  Sn26      1.0  0.93849  0.02155  0.44793  1.0000
  C   C141      1.0  0.96524  0.02956  0.36665  1.0000
  C   C142      1.0  0.98047  0.05709  0.28674  1.0000
  H   H141      1.0  0.98078  0.09808  0.22604  1.0000
  O  Te25      1.0  0.90022  0.03409  0.52928  1.0000
  O  Te26      1.0  0.42545  0.99397  0.52717  1.0000
  H   H142      1.0  0.00116  0.06312  0.22413  1.0000
  Mg  Mg13      1.0  0.38992  0.99395  0.61966  1.0000
  C   C143      1.0  0.92054  0.89112  0.27842  1.0000
  C   C144      1.0  0.92943  0.87299  0.35964  1.0000
  C  Sn27      1.0  0.95707  0.88613  0.44392  1.0000
  C  Sn28      1.0  0.97611  0.91802  0.44676  1.0000
  C   C145      1.0  0.96700  0.93597  0.36522  1.0000
  C   C146      1.0  0.93930  0.92258  0.28121  1.0000
  H   H143      1.0  0.89910  0.88077  0.21349  1.0000
  O  Te27      1.0  0.96560  0.86768  0.52437  1.0000
  O  Te28      1.0  0.00384  0.93175  0.53012  1.0000
  H   H144      1.0  0.93242  0.93663  0.21842  1.0000
  Mg  Mg14      1.0  0.00553  0.89701  0.62114  1.0000
  C   C147      1.0  0.58032  0.26705  0.37129  1.0000
  C   C148      1.0  0.60001  0.29493  0.44670  1.0000
  C  Sn29      1.0  0.58870  0.31138  0.52600  1.0000
  C  Sn30      1.0  0.55708  0.29964  0.52970  1.0000
  C   C149      1.0  0.53757  0.27172  0.45399  1.0000
  C   C150      1.0  0.54914  0.25545  0.37494  1.0000
  H   H145      1.0  0.58927  0.25445  0.31021  1.0000
  O  Te29      1.0  0.60868  0.33920  0.60066  1.0000
  O  Te30      1.0  0.54517  0.31560  0.60815  1.0000
  H   H146      1.0  0.53389  0.23385  0.31666  1.0000
  Mg  Mg15      1.0  0.58155  0.35251  0.69217  1.0000
  C   C151      1.0  0.69787  0.25680  0.56502  1.0000
  C   C152      1.0  0.72219  0.26245  0.46674  1.0000
  C  Sn31      1.0  0.73742  0.28948  0.38250  1.0000
  C  Sn32      1.0  0.72807  0.31120  0.39720  1.0000
  C   C153      1.0  0.70373  0.30534  0.49591  1.0000
  C   C154      1.0  0.68865  0.27822  0.57963  1.0000
  H   H147      1.0  0.68621  0.23582  0.62986  1.0000
  O  Te31      1.0  0.76166  0.29476  0.28479  1.0000
  O  Te32      1.0  0.74290  0.33840  0.31440  1.0000
  H   H148      1.0  0.66984  0.27385  0.65579  1.0000
  Mg  Mg16      1.0  0.77468  0.33521  0.19606  1.0000
  C   C155      1.0  0.69862  0.43765  0.36505  1.0000
  C   C156      1.0  0.72615  0.45918  0.43641  1.0000
  C  Sn33      1.0  0.74231  0.45013  0.53565  1.0000
  C  Sn34      1.0  0.73064  0.41892  0.56370  1.0000
  C   C157      1.0  0.70309  0.39756  0.49165  1.0000
  C   C158      1.0  0.68711  0.40686  0.39260  1.0000
  H   H149      1.0  0.68626  0.44485  0.28833  1.0000
  O  Te33      1.0  0.76976  0.47194  0.60605  1.0000
  O  Te34      1.0  0.74633  0.40925  0.66232  1.0000
  H   H150      1.0  0.66581  0.39019  0.33728  1.0000
  Mg  Mg17      1.0  0.78278  0.44756  0.73113  1.0000
  C   C159      1.0  0.56207  0.26182  0.85182  1.0000
  C   C160      1.0  0.54165  0.26851  0.92620  1.0000
  C  Sn35      1.0  0.54862  0.28957  0.03120  1.0000
  C  Sn36      1.0  0.58005  0.30831  0.06204  1.0000
  C   C161      1.0  0.60372  0.30550  0.98694  1.0000
  C   C162      1.0  0.59307  0.28029  0.88212  1.0000
  H   H151      1.0  0.55383  0.24232  0.77065  1.0000
  O  Te35      1.0  0.52792  0.29593  0.10454  1.0000
  O  Te36      1.0  0.59106  0.33357  0.16641  1.0000
  H   H152      1.0  0.60888  0.27512  0.82447  1.0000
  Mg  Mg18      1.0  0.55393  0.33287  0.23742  1.0000
  C   C163      1.0  0.69458  0.25527  0.07463  1.0000
  C   C164      1.0  0.72181  0.26447  0.97335  1.0000
  C  Sn37      1.0  0.73736  0.29156  0.88998  1.0000
  C  Sn38      1.0  0.72889  0.31388  0.90863  1.0000
  C   C165      1.0  0.70164  0.30448  0.01033  1.0000
  C   C166      1.0  0.68622  0.27728  0.09314  1.0000
  H   H153      1.0  0.68266  0.23424  0.13879  1.0000
  O  Te37      1.0  0.76108  0.29632  0.78923  1.0000
  O  Te38      1.0  0.74406  0.34117  0.82677  1.0000
  H   H154      1.0  0.66780  0.27332  0.17163  1.0000
  Mg  Mg19      1.0  0.77486  0.33711  0.70327  1.0000
  C   C167      1.0  0.69042  0.42098  0.87677  1.0000
  C   C168      1.0  0.69793  0.40195  0.95969  1.0000
  C  Sn39      1.0  0.72175  0.40996  0.04702  1.0000
  C  Sn40      1.0  0.74181  0.44169  0.05124  1.0000
  C   C169      1.0  0.73752  0.46460  0.96798  1.0000
  C   C170      1.0  0.71019  0.45228  0.88092  1.0000
  H   H155      1.0  0.66927  0.41145  0.80948  1.0000
  O  Te39      1.0  0.72890  0.39062  0.12913  1.0000
  O  Te40      1.0  0.76920  0.45436  0.13764  1.0000
  H   H156      1.0  0.70438  0.46702  0.81683  1.0000
  Mg  Mg20      1.0  0.76886  0.41867  0.22997  1.0000
  C   C171      1.0  0.22352  0.09540  0.58431  1.0000
  C   C172      1.0  0.20792  0.10985  0.53459  1.0000
  C  Sn41      1.0  0.22316  0.14124  0.51898  1.0000
  C  Sn42      1.0  0.25459  0.15841  0.55383  1.0000
  C   C173      1.0  0.26999  0.14373  0.60338  1.0000
  C   C174      1.0  0.25452  0.11232  0.61865  1.0000
  H   H157      1.0  0.21156  0.07109  0.59605  1.0000
  O  Te41      1.0  0.20722  0.15532  0.46922  1.0000
  O  Te42      1.0  0.27037  0.18981  0.53917  1.0000
  H   H158      1.0  0.26661  0.10113  0.65705  1.0000
  Mg  Mg21      1.0  0.23871  0.19865  0.46730  1.0000
  C   C175      1.0  0.83701  0.08723  0.55491  1.0000
  C   C176      1.0  0.85140  0.11766  0.60407  1.0000
  C  Sn43      1.0  0.88265  0.13590  0.59146  1.0000
  C  Sn44      1.0  0.89976  0.12338  0.52837  1.0000
  C   C177      1.0  0.88515  0.09292  0.47941  1.0000
  C   C178      1.0  0.85387  0.07487  0.49261  1.0000
  H   H159      1.0  0.81281  0.07327  0.56503  1.0000
  O  Te43      1.0  0.89666  0.16626  0.64119  1.0000
  O  Te44      1.0  0.93102  0.14110  0.51438  1.0000
  H   H160      1.0  0.84274  0.05132  0.45444  1.0000
  Mg  Mg22      1.0  0.93980  0.18124  0.59831  1.0000
  C   C179      1.0  0.87014  0.77153  0.53064  1.0000
  C   C180      1.0  0.90115  0.78900  0.50555  1.0000
  C  Sn45      1.0  0.91961  0.77638  0.52419  1.0000
  C  Sn46      1.0  0.90670  0.74569  0.56873  1.0000
  C   C181      1.0  0.87565  0.72840  0.59344  1.0000
  C   C182      1.0  0.85739  0.74126  0.57451  1.0000
  H   H161      1.0  0.85601  0.78147  0.51591  1.0000
  O  Te45      1.0  0.95055  0.79415  0.49872  1.0000
  O  Te46      1.0  0.92462  0.73250  0.58813  1.0000
  H   H162      1.0  0.83337  0.72772  0.59383  1.0000
  Mg  Mg23      1.0  0.96561  0.76596  0.53999  1.0000
  C   C183      1.0  0.42938  0.18241  0.88966  1.0000
  C   C184      1.0  0.45319  0.21160  0.86216  1.0000
  C  Sn47      1.0  0.44754  0.23330  0.79603  1.0000
  C  Sn48      1.0  0.41747  0.22558  0.75687  1.0000
  C   C185      1.0  0.39380  0.19633  0.78496  1.0000
  C   C186      1.0  0.39971  0.17478  0.85114  1.0000
  H   H163      1.0  0.43394  0.16574  0.94095  1.0000
  O  Te47      1.0  0.47159  0.26236  0.76928  1.0000
  O  Te48      1.0  0.41119  0.24684  0.69071  1.0000
  H   H164      1.0  0.38127  0.15219  0.87251  1.0000
  Mg  Mg24      1.0  0.45158  0.28345  0.67667  1.0000
  C   C187      1.0  0.75857  0.20032  0.78077  1.0000
  C   C188      1.0  0.77291  0.22884  0.85747  1.0000
  C  Sn49      1.0  0.80395  0.24386  0.88982  1.0000
  C  Sn50      1.0  0.82089  0.23002  0.84435  1.0000
  C   C189      1.0  0.80634  0.20150  0.76757  1.0000
  C   C190      1.0  0.77526  0.18666  0.73583  1.0000
  H   H165      1.0  0.73453  0.18885  0.75613  1.0000
  O  Te49      1.0  0.81792  0.27233  0.96659  1.0000
  O  Te50      1.0  0.85194  0.24454  0.87517  1.0000
  H   H166      1.0  0.76417  0.16459  0.67635  1.0000
  Mg  Mg25      1.0  0.86075  0.28308  0.98262  1.0000
  C   C191      1.0  0.80089  0.55938  0.78735  1.0000
  C   C192      1.0  0.77155  0.54466  0.84670  1.0000
  C  Sn51      1.0  0.75553  0.56000  0.86045  1.0000
  C  Sn52      1.0  0.76919  0.59064  0.81378  1.0000
  C   C193      1.0  0.79855  0.60516  0.75444  1.0000
  C   C194      1.0  0.81438  0.58960  0.74123  1.0000
  H   H167      1.0  0.81313  0.54734  0.77704  1.0000
  O  Te51      1.0  0.72624  0.54496  0.92005  1.0000
  O  Te52      1.0  0.75369  0.60650  0.82621  1.0000
  H   H168      1.0  0.83708  0.60099  0.69517  1.0000
  Mg  Mg26      1.0  0.71429  0.57620  0.91447  1.0000
  C   C195      1.0  0.31896  0.31233  0.92077  1.0000
  C   C196      1.0  0.29435  0.30180  0.81281  1.0000
  C  Sn53      1.0  0.27617  0.27085  0.77917  1.0000
  C  Sn54      1.0  0.28281  0.25010  0.85525  1.0000
  C   C197      1.0  0.30746  0.26085  0.96316  1.0000
  C   C198      1.0  0.32551  0.29188  0.99591  1.0000
  H   H169      1.0  0.33291  0.33633  0.94619  1.0000
  O  Te53      1.0  0.25168  0.26072  0.67095  1.0000
  O  Te54      1.0  0.26500  0.21904  0.82386  1.0000
  H   H170      1.0  0.34112  0.29595  0.07959  1.0000
  Mg  Mg27      1.0  0.23410  0.21626  0.66732  1.0000
  C   C199      1.0  0.18664  0.00496  0.90443  1.0000
  C   C200      1.0  0.69925  0.99133  0.79646  1.0000
  C  Sn55      1.0  0.22825  0.00478  0.76797  1.0000
  C  Sn56      1.0  0.24872  0.03240  0.84930  1.0000
  C   C201      1.0  0.23776  0.04584  0.95717  1.0000
  C   C202      1.0  0.20682  0.03219  0.98475  1.0000
  H   H171      1.0  0.66458  0.99439  0.92584  1.0000
  O  Te55      1.0  0.74046  0.99087  0.65966  1.0000
  O  Te56      1.0  0.27970  0.04632  0.82312  1.0000
  H   H172      1.0  0.19509  0.03867  0.06843  1.0000
  Mg  Mg28      1.0  0.28282  0.01861  0.66424  1.0000
  C   C203      1.0  0.99349  0.68039  0.92397  1.0000
  C   C204      1.0  0.00765  0.70430  0.81652  1.0000
  C  Sn57      1.0  0.99566  0.72302  0.78670  1.0000
  C  Sn58      1.0  0.96901  0.71764  0.86615  1.0000
  C   C205      1.0  0.95503  0.69367  0.97352  1.0000
  C   C206      1.0  0.96378  0.67101  0.00243  1.0000
  H   H173      1.0  0.00292  0.66601  0.94642  1.0000
  O  Te57      1.0  0.01008  0.74680  0.67894  1.0000
  O  Te58      1.0  0.95655  0.73600  0.83861  1.0000
  H   H174      1.0  0.95282  0.65251  0.08572  1.0000
  Mg  Mg29      1.0  0.98444  0.76556  0.68116  1.0000
  C   C207      1.0  0.10618  0.03102  0.78636  1.0000
  C   C208      1.0  0.12474  0.05719  0.87883  1.0000
  C  Sn59      1.0  0.11218  0.07128  0.96968  1.0000
  C  Sn60      1.0  0.08045  0.05888  0.96769  1.0000
  C   C209      1.0  0.06207  0.03268  0.87487  1.0000
  C   C210      1.0  0.07487  0.01876  0.78438  1.0000
  H   H175      1.0  0.11608  0.02024  0.71641  1.0000
  O  Te59      1.0  0.12763  0.09336  0.06135  1.0000
  O  Te60      1.0  0.06387  0.06844  0.05740  1.0000
  H   H176      1.0  0.56237  0.99849  0.71288  1.0000
  Mg  Mg30      1.0  0.09903  0.10371  0.16336  1.0000
  C   C211      1.0  0.97466  0.06495  0.76846  1.0000
  C   C212      1.0  0.96955  0.03839  0.84243  1.0000
  C  Sn61      1.0  0.94505  0.02295  0.94497  1.0000
  C  Sn62      1.0  0.92533  0.03436  0.97371  1.0000
  C   C213      1.0  0.93063  0.06093  0.89904  1.0000
  C   C214      1.0  0.95522  0.07621  0.79670  1.0000
  H   H177      1.0  0.99367  0.07676  0.68920  1.0000
  O  Te61      1.0  0.43873  0.99240  0.01794  1.0000
  O  Te62      1.0  0.89724  0.01531  0.07560  1.0000
  H   H178      1.0  0.95916  0.09675  0.73936  1.0000
  Mg  Mg31      1.0  0.40205  0.98008  0.14707  1.0000
  C   C215      1.0  0.92386  0.89175  0.78165  1.0000
  C   C216      1.0  0.93258  0.87362  0.86426  1.0000
  C  Sn63      1.0  0.95993  0.88677  0.95131  1.0000
  C  Sn64      1.0  0.97886  0.91868  0.95553  1.0000
  C   C217      1.0  0.96993  0.93663  0.87257  1.0000
  C   C218      1.0  0.94251  0.92323  0.78580  1.0000
  H   H179      1.0  0.90264  0.88139  0.71458  1.0000
  O  Te63      1.0  0.96487  0.86425  0.03312  1.0000
  O  Te64      1.0  0.00289  0.92835  0.04164  1.0000
  H   H180      1.0  0.93576  0.93728  0.72193  1.0000
  Mg  Mg32      1.0  0.00443  0.89360  0.13363  1.0000
