data_image0
_chemical_formula_structural       H174C186N30O6C2Sn2C2HTe2HMgC2Sn2C2HTe2HMgC2Sn2C2HTe2HMgC2Sn2C2HTe2HMgC2Sn2C2HTe2HMgC2Sn2C2HTe2HMgC2Sn2C2HTe2HMgC2Sn2C2HTe2HMgC2Sn2C2HTe2HMgC2Sn2C2HTe2HMgC2Sn2C2HTe2HMgC2Sn2C2HTe2HMg
_chemical_formula_sum              "H198 C234 N30 O6 Sn24 Te24 Mg12"
_cell_length_a       50.9278
_cell_length_b       50.9496
_cell_length_c       10.1547
_cell_angle_alpha    94.7145
_cell_angle_beta     84.7931
_cell_angle_gamma    120.938

_symmetry_space_group_name_H-M    'P1'
_space_group_IT_number       1

loop_
  _space_group_symop_operation_xyz
  'x, y, z'

loop_
  _atom_site_type_symbol
  _atom_site_label
  _atom_site_symmetry_multiplicity
  _atom_site_fract_x
  _atom_site_fract_y
  _atom_site_fract_z
  _atom_site_occupancy
  H   H1        1.0  0.30787  0.12729  0.46301  1.0000
  H   H2        1.0  0.88245  0.18670  0.54221  1.0000
  H   H3        1.0  0.82874  0.68523  0.40009  1.0000
  H   H4        1.0  0.35369  0.13436  0.08349  1.0000
  H   H5        1.0  0.85610  0.21394  0.01446  1.0000
  H   H6        1.0  0.77440  0.63507  0.00460  1.0000
  H   H7        1.0  0.38272  0.24439  0.14821  1.0000
  H   H8        1.0  0.76250  0.12734  0.24382  1.0000
  H   H9        1.0  0.85684  0.61971  0.15465  1.0000
  H   H10       1.0  0.27257  0.18995  0.40590  1.0000
  H   H11       1.0  0.22045  0.16364  0.32099  1.0000
  H   H12       1.0  0.20458  0.07762  0.44270  1.0000
  H   H13       1.0  0.25717  0.10388  0.52451  1.0000
  H   H14       1.0  0.84343  0.23340  0.20699  1.0000
  H   H15       1.0  0.81931  0.26447  0.27413  1.0000
  H   H16       1.0  0.73114  0.18801  0.17923  1.0000
  H   H17       1.0  0.75532  0.15708  0.10618  1.0000
  H   H18       1.0  0.17107  0.11837  0.28819  1.0000
  H   H19       1.0  0.88235  0.05038  0.30906  1.0000
  H   H20       1.0  0.93579  0.83968  0.42909  1.0000
  H   H21       1.0  0.48573  0.22811  0.39629  1.0000
  H   H22       1.0  0.77601  0.27154  0.29010  1.0000
  H   H23       1.0  0.72203  0.50109  0.30652  1.0000
  H   H24       1.0  0.53295  0.23582  0.38492  1.0000
  H   H25       1.0  0.71735  0.46698  0.46166  1.0000
  H   H26       1.0  0.58756  0.26133  0.43004  1.0000
  H   H27       1.0  0.68668  0.41169  0.50781  1.0000
  H   H28       1.0  0.60430  0.34213  0.24641  1.0000
  H   H29       1.0  0.72853  0.39106  0.15982  1.0000
  H   H30       1.0  0.54914  0.31648  0.20374  1.0000
  H   H31       1.0  0.75899  0.44660  0.11238  1.0000
  H   H32       1.0  0.02843  0.05238  0.25976  1.0000
  H   H33       1.0  0.94306  0.96679  0.22371  1.0000
  H   H34       1.0  0.02797  0.96769  0.21943  1.0000
  H   H35       1.0  0.63293  0.27530  0.33569  1.0000
  H   H36       1.0  0.72266  0.35585  0.34055  1.0000
  H   H37       1.0  0.64311  0.36483  0.36480  1.0000
  H   H38       1.0  0.36521  0.28220  0.12422  1.0000
  H   H39       1.0  0.73105  0.06962  0.25180  1.0000
  H   H40       1.0  0.91431  0.64202  0.14679  1.0000
  H   H41       1.0  0.29686  0.25632  0.56620  1.0000
  H   H42       1.0  0.74290  0.04708  0.51214  1.0000
  H   H43       1.0  0.96160  0.71009  0.57182  1.0000
  H   H44       1.0  0.32400  0.31600  0.06304  1.0000
  H   H45       1.0  0.69093  0.00310  0.06016  1.0000
  H   H46       1.0  0.99023  0.68205  0.04937  1.0000
  H   H47       1.0  0.34054  0.30568  0.55410  1.0000
  H   H48       1.0  0.69499  0.03958  0.46780  1.0000
  H   H49       1.0  0.96266  0.66437  0.53978  1.0000
  H   H50       1.0  0.31688  0.31151  0.29595  1.0000
  H   H51       1.0  0.69531  0.97952  0.23151  1.0000
  H   H52       1.0  0.98745  0.68872  0.28473  1.0000
  H   H53       1.0  0.33146  0.28920  0.35288  1.0000
  H   H54       1.0  0.71490  0.00652  0.36324  1.0000
  H   H55       1.0  0.94979  0.67746  0.35772  1.0000
  H   H56       1.0  0.29416  0.28174  0.40410  1.0000
  H   H57       1.0  0.72291  0.97724  0.31486  1.0000
  H   H58       1.0  0.98181  0.71394  0.39483  1.0000
  H   H59       1.0  0.25814  0.24801  0.08183  1.0000
  H   H60       1.0  0.76297  0.00726  0.98838  1.0000
  H   H61       1.0  0.99212  0.74743  0.06673  1.0000
  H   H62       1.0  0.26029  0.28437  0.57504  1.0000
  H   H63       1.0  0.71023  0.97920  0.54369  1.0000
  H   H64       1.0  0.02664  0.74300  0.54184  1.0000
  H   H65       1.0  0.25232  0.25953  0.24609  1.0000
  H   H66       1.0  0.75009  0.97740  0.10004  1.0000
  H   H67       1.0  0.00594  0.75479  0.22737  1.0000
  H   H68       1.0  0.30496  0.23187  0.29467  1.0000
  H   H69       1.0  0.77305  0.04511  0.33227  1.0000
  H   H70       1.0  0.92224  0.70472  0.29915  1.0000
  H   H71       1.0  0.27700  0.21520  0.17475  1.0000
  H   H72       1.0  0.79231  0.04707  0.17615  1.0000
  H   H73       1.0  0.93893  0.73273  0.17769  1.0000
  H   H74       1.0  0.26834  0.22755  0.33384  1.0000
  H   H75       1.0  0.77957  0.01486  0.27546  1.0000
  H   H76       1.0  0.95508  0.74048  0.33464  1.0000
  H   H77       1.0  0.35911  0.32688  0.21641  1.0000
  H   H78       1.0  0.68198  0.01233  0.27923  1.0000
  H   H79       1.0  0.96262  0.64810  0.21298  1.0000
  H   H80       1.0  0.30299  0.11343  0.99535  1.0000
  H   H81       1.0  0.87855  0.18475  0.90627  1.0000
  H   H82       1.0  0.80622  0.68725  0.93140  1.0000
  H   H83       1.0  0.35779  0.15041  0.55971  1.0000
  H   H84       1.0  0.85933  0.21692  0.63263  1.0000
  H   H85       1.0  0.79878  0.63441  0.49572  1.0000
  H   H86       1.0  0.35990  0.24344  0.78751  1.0000
  H   H87       1.0  0.75130  0.13071  0.72845  1.0000
  H   H88       1.0  0.87967  0.64140  0.77919  1.0000
  H   H89       1.0  0.28262  0.17934  0.82569  1.0000
  H   H90       1.0  0.81558  0.08437  0.83739  1.0000
  H   H91       1.0  0.91178  0.72762  0.91375  1.0000
  H   H92       1.0  0.23081  0.15360  0.74034  1.0000
  H   H93       1.0  0.84140  0.05637  0.74365  1.0000
  H   H94       1.0  0.94221  0.78286  0.87154  1.0000
  H   H95       1.0  0.20283  0.07644  0.97862  1.0000
  H   H96       1.0  0.92816  0.13178  0.86142  1.0000
  H   H97       1.0  0.86004  0.78758  0.90379  1.0000
  H   H98       1.0  0.25523  0.10181  0.06130  1.0000
  H   H99       1.0  0.90225  0.15981  0.95675  1.0000
  H   H100      1.0  0.82962  0.73282  0.95344  1.0000
  H   H101      1.0  0.38303  0.16243  0.75197  1.0000
  H   H102      1.0  0.43673  0.18474  0.81222  1.0000
  H   H103      1.0  0.45714  0.27378  0.71049  1.0000
  H   H104      1.0  0.40367  0.25136  0.64386  1.0000
  H   H105      1.0  0.17765  0.11177  0.74289  1.0000
  H   H106      1.0  0.88618  0.05001  0.73332  1.0000
  H   H107      1.0  0.94680  0.83155  0.85847  1.0000
  H   H108      1.0  0.48909  0.22669  0.81526  1.0000
  H   H109      1.0  0.75887  0.25898  0.92103  1.0000
  H   H110      1.0  0.73347  0.51152  0.83112  1.0000
  H   H111      1.0  0.12793  0.09738  0.86437  1.0000
  H   H112      1.0  0.91416  0.03877  0.88945  1.0000
  H   H113      1.0  0.07274  0.07203  0.82703  1.0000
  H   H114      1.0  0.93962  0.00827  0.88019  1.0000
  H   H115      1.0  0.07257  0.98973  0.68964  1.0000
  H   H116      1.0  0.00276  0.06356  0.56965  1.0000
  H   H117      1.0  0.12732  0.01458  0.73728  1.0000
  H   H118      1.0  0.97752  0.09454  0.58132  1.0000
  H   H119      1.0  0.75622  0.30032  0.87455  1.0000
  H   H120      1.0  0.70353  0.46541  0.73363  1.0000
  H   H121      1.0  0.73162  0.33141  0.90139  1.0000
  H   H122      1.0  0.66865  0.41001  0.75296  1.0000
  H   H123      1.0  0.65130  0.25777  0.72380  1.0000
  H   H124      1.0  0.74203  0.40200  0.88601  1.0000
  H   H125      1.0  0.67584  0.22620  0.70076  1.0000
  H   H126      1.0  0.77732  0.45751  0.86033  1.0000
  H   H127      1.0  0.03399  0.05436  0.70963  1.0000
  H   H128      1.0  0.94571  0.97237  0.74174  1.0000
  H   H129      1.0  0.02701  0.96848  0.77516  1.0000
  H   H130      1.0  0.62862  0.27903  0.83879  1.0000
  H   H131      1.0  0.71883  0.35839  0.79998  1.0000
  H   H132      1.0  0.63951  0.36827  0.84169  1.0000
  H   H133      1.0  0.33779  0.27850  0.77308  1.0000
  H   H134      1.0  0.71573  0.07257  0.69464  1.0000
  H   H135      1.0  0.93850  0.66939  0.78347  1.0000
  H   H136      1.0  0.30824  0.25883  0.99765  1.0000
  H   H137      1.0  0.74863  0.04399  0.02592  1.0000
  H   H138      1.0  0.94908  0.69720  0.00400  1.0000
  H   H139      1.0  0.31036  0.31333  0.59239  1.0000
  H   H140      1.0  0.68415  0.00329  0.52727  1.0000
  H   H141      1.0  0.00173  0.69274  0.55764  1.0000
  H   H142      1.0  0.34820  0.30895  0.94741  1.0000
  H   H143      1.0  0.70105  0.04135  0.03592  1.0000
  H   H144      1.0  0.95972  0.65754  0.94626  1.0000
  H   H145      1.0  0.27955  0.30742  0.80159  1.0000
  H   H146      1.0  0.68370  0.98844  0.74658  1.0000
  H   H147      1.0  0.02714  0.72165  0.75750  1.0000
  H   H148      1.0  0.28738  0.28697  0.91209  1.0000
  H   H149      1.0  0.70372  0.02221  0.85064  1.0000
  H   H150      1.0  0.99964  0.71649  0.89097  1.0000
  H   H151      1.0  0.24932  0.27706  0.89094  1.0000
  H   H152      1.0  0.71072  0.99160  0.85303  1.0000
  H   H153      1.0  0.03073  0.75342  0.85549  1.0000
  H   H154      1.0  0.24653  0.24474  0.53917  1.0000
  H   H155      1.0  0.75034  0.00376  0.51129  1.0000
  H   H156      1.0  0.00307  0.75905  0.53181  1.0000
  H   H157      1.0  0.27499  0.28756  0.12900  1.0000
  H   H158      1.0  0.72309  0.98033  0.01443  1.0000
  H   H159      1.0  0.01222  0.73003  0.11413  1.0000
  H   H160      1.0  0.22712  0.25639  0.66193  1.0000
  H   H161      1.0  0.73645  0.97957  0.64761  1.0000
  H   H162      1.0  0.03424  0.77660  0.63662  1.0000
  H   H163      1.0  0.26558  0.22764  0.85826  1.0000
  H   H164      1.0  0.76381  0.05494  0.81827  1.0000
  H   H165      1.0  0.96520  0.74078  0.87383  1.0000
  H   H166      1.0  0.25162  0.21241  0.70041  1.0000
  H   H167      1.0  0.78156  0.04944  0.66966  1.0000
  H   H168      1.0  0.96485  0.75464  0.72070  1.0000
  H   H169      1.0  0.22984  0.22252  0.81886  1.0000
  H   H170      1.0  0.76707  0.02178  0.79398  1.0000
  H   H171      1.0  0.99732  0.77590  0.81921  1.0000
  H   H172      1.0  0.32631  0.32486  0.80443  1.0000
  H   H173      1.0  0.66911  0.01871  0.72257  1.0000
  H   H174      1.0  0.99525  0.67623  0.76843  1.0000
  C   C1        1.0  0.31683  0.14940  0.51587  1.0000
  C   C2        1.0  0.85817  0.17478  0.57260  1.0000
  C   C3        1.0  0.83962  0.67818  0.46526  1.0000
  C   C4        1.0  0.34551  0.14973  0.06725  1.0000
  C   C5        1.0  0.84414  0.18932  0.02577  1.0000
  C   C6        1.0  0.79915  0.64643  0.00967  1.0000
  C   C7        1.0  0.36480  0.18135  0.09389  1.0000
  C   C8        1.0  0.81561  0.17522  0.09844  1.0000
  C   C9        1.0  0.81176  0.63010  0.05560  1.0000
  C   C10       1.0  0.35274  0.19947  0.06781  1.0000
  C   C11       1.0  0.80151  0.14334  0.10540  1.0000
  C   C12       1.0  0.84378  0.64629  0.05485  1.0000
  C   C13       1.0  0.32332  0.18808  0.01979  1.0000
  C   C14       1.0  0.81344  0.12575  0.03874  1.0000
  C   C15       1.0  0.86306  0.67672  0.01280  1.0000
  C   C16       1.0  0.29974  0.16421  0.52054  1.0000
  C   C17       1.0  0.84108  0.14263  0.55296  1.0000
  C   C18       1.0  0.87042  0.69884  0.49302  1.0000
  C   C19       1.0  0.34116  0.23621  0.06894  1.0000
  C   C20       1.0  0.77193  0.09355  0.14717  1.0000
  C   C21       1.0  0.89296  0.66319  0.08471  1.0000
  C   C22       1.0  0.26902  0.14889  0.46816  1.0000
  C   C23       1.0  0.80120  0.19282  0.15194  1.0000
  C   C24       1.0  0.25789  0.16537  0.41200  1.0000
  C   C25       1.0  0.22853  0.15050  0.36537  1.0000
  C   C26       1.0  0.20896  0.11870  0.37568  1.0000
  C   C27       1.0  0.21996  0.10211  0.43257  1.0000
  C   C28       1.0  0.24939  0.11690  0.47727  1.0000
  C   C29       1.0  0.81889  0.22340  0.19979  1.0000
  C   C30       1.0  0.80532  0.24078  0.23816  1.0000
  C   C31       1.0  0.77355  0.22819  0.23145  1.0000
  C   C32       1.0  0.75562  0.19745  0.18638  1.0000
  C   C33       1.0  0.76922  0.18023  0.14756  1.0000
  C   C34       1.0  0.17754  0.10375  0.33377  1.0000
  C   C35       1.0  0.89784  0.07307  0.35455  1.0000
  C   C36       1.0  0.92728  0.82369  0.34238  1.0000
  C   C37       1.0  0.48403  0.23814  0.30767  1.0000
  C   C38       1.0  0.75998  0.24717  0.26615  1.0000
  C   C39       1.0  0.74466  0.50837  0.25612  1.0000
  C   C40       1.0  0.53698  0.27476  0.29318  1.0000
  C   C41       1.0  0.73910  0.46030  0.27895  1.0000
  C   C42       1.0  0.54833  0.25942  0.35758  1.0000
  C   C43       1.0  0.71904  0.45029  0.39291  1.0000
  C   C44       1.0  0.57930  0.27377  0.38163  1.0000
  C   C45       1.0  0.70196  0.41920  0.41927  1.0000
  C   C46       1.0  0.60030  0.30388  0.34294  1.0000
  C   C47       1.0  0.70471  0.39733  0.33491  1.0000
  C   C48       1.0  0.58863  0.31924  0.28125  1.0000
  C   C49       1.0  0.72620  0.40773  0.22611  1.0000
  C   C50       1.0  0.55781  0.30500  0.25629  1.0000
  C   C51       1.0  0.74322  0.43862  0.19909  1.0000
  C   C52       1.0  0.03200  0.01205  0.23642  1.0000
  C   C53       1.0  0.98370  0.01174  0.24094  1.0000
  C   C54       1.0  0.98363  0.96350  0.21793  1.0000
  C   C55       1.0  0.63368  0.31817  0.35516  1.0000
  C   C56       1.0  0.67925  0.31317  0.34243  1.0000
  C   C57       1.0  0.68496  0.36391  0.35126  1.0000
  C   C58       1.0  0.01587  0.02763  0.24335  1.0000
  C   C59       1.0  0.96790  0.97956  0.22788  1.0000
  C   C60       1.0  0.01572  0.98003  0.22221  1.0000
  C   C61       1.0  0.64728  0.30004  0.34755  1.0000
  C   C62       1.0  0.69784  0.34521  0.34409  1.0000
  C   C63       1.0  0.65296  0.35022  0.36028  1.0000
  C   C64       1.0  0.32116  0.27225  0.08388  1.0000
  C   C65       1.0  0.73631  0.03817  0.12345  1.0000
  C   C66       1.0  0.94917  0.68550  0.09024  1.0000
  C   C67       1.0  0.33918  0.30643  0.05058  1.0000
  C   C68       1.0  0.70232  0.02650  0.10417  1.0000
  C   C69       1.0  0.96521  0.66710  0.04734  1.0000
  C   C70       1.0  0.29735  0.26486  0.20471  1.0000
  C   C71       1.0  0.74296  0.01441  0.17858  1.0000
  C   C72       1.0  0.96490  0.71027  0.20264  1.0000
  C   C73       1.0  0.31108  0.28839  0.31996  1.0000
  C   C74       1.0  0.71744  0.99338  0.27748  1.0000
  C   C75       1.0  0.97118  0.69648  0.31569  1.0000
  C   C76       1.0  0.26926  0.26514  0.16211  1.0000
  C   C77       1.0  0.74488  0.99379  0.06307  1.0000
  C   C78       1.0  0.99552  0.73696  0.14880  1.0000
  C   C79       1.0  0.28628  0.23295  0.25428  1.0000
  C   C80       1.0  0.77381  0.03138  0.24460  1.0000
  C   C81       1.0  0.94410  0.72278  0.25620  1.0000
  C   C82       1.0  0.31663  0.13793  0.01759  1.0000
  C   C83       1.0  0.85686  0.17265  0.96369  1.0000
  C   C84       1.0  0.81755  0.67636  0.96792  1.0000
  C   C85       1.0  0.34512  0.16239  0.57205  1.0000
  C   C86       1.0  0.84512  0.19211  0.62441  1.0000
  C   C87       1.0  0.82240  0.64959  0.52190  1.0000
  C   C88       1.0  0.35862  0.19120  0.64066  1.0000
  C   C89       1.0  0.81362  0.17839  0.66083  1.0000
  C   C90       1.0  0.83472  0.63926  0.61021  1.0000
  C   C91       1.0  0.34138  0.20568  0.64679  1.0000
  C   C92       1.0  0.79691  0.14650  0.64428  1.0000
  C   C93       1.0  0.86571  0.65941  0.63384  1.0000
  C   C94       1.0  0.31327  0.19352  0.58495  1.0000
  C   C95       1.0  0.80946  0.12850  0.59012  1.0000
  C   C96       1.0  0.88361  0.68842  0.57633  1.0000
  C   C97       1.0  0.30437  0.15629  0.99283  1.0000
  C   C98       1.0  0.84205  0.14049  0.96641  1.0000
  C   C99       1.0  0.84997  0.69300  0.96929  1.0000
  C   C100      1.0  0.32153  0.23599  0.68536  1.0000
  C   C101      1.0  0.76186  0.09662  0.64470  1.0000
  C   C102      1.0  0.91433  0.68348  0.69190  1.0000
  C   C103      1.0  0.27314  0.14217  0.94663  1.0000
  C   C104      1.0  0.85696  0.12406  0.90350  1.0000
  C   C105      1.0  0.86823  0.72549  0.93542  1.0000
  C   C106      1.0  0.38936  0.20506  0.69149  1.0000
  C   C107      1.0  0.26539  0.15677  0.85861  1.0000
  C   C108      1.0  0.84016  0.09473  0.84257  1.0000
  C   C109      1.0  0.90035  0.74057  0.91132  1.0000
  C   C110      1.0  0.23606  0.14231  0.81160  1.0000
  C   C111      1.0  0.85477  0.07909  0.79027  1.0000
  C   C112      1.0  0.91738  0.77173  0.88791  1.0000
  C   C113      1.0  0.21332  0.11306  0.85318  1.0000
  C   C114      1.0  0.88661  0.09227  0.79695  1.0000
  C   C115      1.0  0.90318  0.78909  0.88422  1.0000
  C   C116      1.0  0.22073  0.09869  0.94404  1.0000
  C   C117      1.0  0.90362  0.12196  0.85473  1.0000
  C   C118      1.0  0.87106  0.77414  0.90567  1.0000
  C   C119      1.0  0.25007  0.11293  0.98916  1.0000
  C   C120      1.0  0.88904  0.13750  0.90692  1.0000
  C   C121      1.0  0.85417  0.74325  0.93187  1.0000
  C   C122      1.0  0.39935  0.18669  0.74003  1.0000
  C   C123      1.0  0.42948  0.19928  0.77436  1.0000
  C   C124      1.0  0.45070  0.23082  0.76392  1.0000
  C   C125      1.0  0.44061  0.24946  0.71942  1.0000
  C   C126      1.0  0.41059  0.23683  0.68417  1.0000
  C   C127      1.0  0.18251  0.09822  0.80514  1.0000
  C   C128      1.0  0.90144  0.07471  0.75428  1.0000
  C   C129      1.0  0.92180  0.82176  0.86128  1.0000
  C   C130      1.0  0.48242  0.24342  0.79683  1.0000
  C   C131      1.0  0.75136  0.24428  0.83027  1.0000
  C   C132      1.0  0.75665  0.51701  0.79365  1.0000
  C   C133      1.0  0.13169  0.05791  0.80095  1.0000
  C   C134      1.0  0.94364  0.06829  0.73347  1.0000
  C   C135      1.0  0.71732  0.26056  0.78842  1.0000
  C   C136      1.0  0.74297  0.46567  0.79846  1.0000
  C   C137      1.0  0.11588  0.07399  0.82327  1.0000
  C   C138      1.0  0.93283  0.04341  0.81614  1.0000
  C   C139      1.0  0.08475  0.05961  0.80168  1.0000
  C   C140      1.0  0.94730  0.02643  0.81120  1.0000
  C   C141      1.0  0.06822  0.02892  0.75432  1.0000
  C   C142      1.0  0.97284  0.03339  0.72336  1.0000
  C   C143      1.0  0.08442  0.01324  0.72945  1.0000
  C   C144      1.0  0.98344  0.05816  0.64039  1.0000
  C   C145      1.0  0.11525  0.02711  0.75449  1.0000
  C   C146      1.0  0.96935  0.07554  0.64603  1.0000
  C   C147      1.0  0.73291  0.29061  0.84459  1.0000
  C   C148      1.0  0.71186  0.45165  0.76993  1.0000
  C   C149      1.0  0.71914  0.30831  0.85758  1.0000
  C   C150      1.0  0.69220  0.42024  0.78067  1.0000
  C   C151      1.0  0.68946  0.29707  0.81497  1.0000
  C   C152      1.0  0.70240  0.40132  0.82095  1.0000
  C   C153      1.0  0.67394  0.26691  0.76045  1.0000
  C   C154      1.0  0.73340  0.41565  0.85142  1.0000
  C   C155      1.0  0.68757  0.24914  0.74650  1.0000
  C   C156      1.0  0.75334  0.44688  0.83851  1.0000
  C   C157      1.0  0.03477  0.01324  0.74013  1.0000
  C   C158      1.0  0.98820  0.01548  0.72636  1.0000
  C   C159      1.0  0.98432  0.96639  0.75591  1.0000
  C   C160      1.0  0.63046  0.32213  0.83573  1.0000
  C   C161      1.0  0.67557  0.31650  0.82238  1.0000
  C   C162      1.0  0.68190  0.36773  0.82664  1.0000
  C   C163      1.0  0.02027  0.02979  0.72230  1.0000
  C   C164      1.0  0.97055  0.98374  0.74223  1.0000
  C   C165      1.0  0.01640  0.98148  0.75534  1.0000
  C   C166      1.0  0.64359  0.30365  0.83157  1.0000
  C   C167      1.0  0.69422  0.34846  0.81711  1.0000
  C   C168      1.0  0.64983  0.35407  0.83646  1.0000
  C   C169      1.0  0.30141  0.26968  0.66071  1.0000
  C   C170      1.0  0.72707  0.04142  0.60053  1.0000
  C   C171      1.0  0.96891  0.70427  0.65770  1.0000
  C   C172      1.0  0.32304  0.30372  0.63041  1.0000
  C   C173      1.0  0.69423  0.02777  0.55489  1.0000
  C   C174      1.0  0.97894  0.68117  0.60973  1.0000
  C   C175      1.0  0.26931  0.26158  0.72613  1.0000
  C   C176      1.0  0.73176  0.01954  0.68137  1.0000
  C   C177      1.0  0.99453  0.73542  0.71573  1.0000
  C   C178      1.0  0.27178  0.28471  0.83871  1.0000
  C   C179      1.0  0.70586  0.00468  0.78874  1.0000
  C   C180      1.0  0.01395  0.73130  0.81027  1.0000
  C   C181      1.0  0.24988  0.26191  0.61906  1.0000
  C   C182      1.0  0.73207  0.99410  0.58997  1.0000
  C   C183      1.0  0.01575  0.75443  0.59949  1.0000
  C   C184      1.0  0.25311  0.22913  0.77929  1.0000
  C   C185      1.0  0.76289  0.03754  0.74462  1.0000
  C   C186      1.0  0.97966  0.75277  0.78694  1.0000
  N   N1        1.0  0.36421  0.23070  0.09424  1.0000
  N   N2        1.0  0.77466  0.12203  0.17345  1.0000
  N   N3        1.0  0.86361  0.63796  0.09845  1.0000
  N   N4        1.0  0.31702  0.21175  0.01903  1.0000
  N   N5        1.0  0.79429  0.09484  0.06537  1.0000
  N   N6        1.0  0.89364  0.68636  0.03073  1.0000
  N   N7        1.0  0.15823  0.07530  0.35530  1.0000
  N   N8        1.0  0.92674  0.08312  0.36082  1.0000
  N   N9        1.0  0.92960  0.83378  0.22661  1.0000
  N   N10       1.0  0.50712  0.26163  0.25270  1.0000
  N   N11       1.0  0.73072  0.23609  0.26865  1.0000
  N   N12       1.0  0.75566  0.49040  0.23654  1.0000
  N   N13       1.0  0.34446  0.26434  0.09890  1.0000
  N   N14       1.0  0.74805  0.06737  0.20133  1.0000
  N   N15       1.0  0.91734  0.66262  0.12569  1.0000
  N   N16       1.0  0.34643  0.23327  0.70952  1.0000
  N   N17       1.0  0.76622  0.12547  0.67774  1.0000
  N   N18       1.0  0.88601  0.65684  0.70834  1.0000
  N   N19       1.0  0.30184  0.21327  0.60879  1.0000
  N   N20       1.0  0.78688  0.09754  0.58947  1.0000
  N   N21       1.0  0.91372  0.70266  0.61369  1.0000
  N   N22       1.0  0.16203  0.07041  0.83346  1.0000
  N   N23       1.0  0.93090  0.08709  0.74619  1.0000
  N   N24       1.0  0.90995  0.83846  0.84765  1.0000
  N   N25       1.0  0.50181  0.27256  0.80347  1.0000
  N   N26       1.0  0.73018  0.24209  0.76106  1.0000
  N   N27       1.0  0.76461  0.49655  0.77982  1.0000
  N   N28       1.0  0.31864  0.26037  0.73513  1.0000
  N   N29       1.0  0.73449  0.07044  0.67224  1.0000
  N   N30       1.0  0.94062  0.68818  0.74390  1.0000
  O   O1        1.0  0.36600  0.32447  0.12623  1.0000
  O   O2        1.0  0.68563  0.02859  0.22325  1.0000
  O   O3        1.0  0.95467  0.64069  0.12576  1.0000
  O   O4        1.0  0.34035  0.32229  0.74083  1.0000
  O   O5        1.0  0.67429  0.03251  0.65140  1.0000
  O   O6        1.0  0.97808  0.66305  0.71401  1.0000
  C   C187      1.0  0.11281  0.06393  0.17562  1.0000
  C   C188      1.0  0.12623  0.06400  0.28984  1.0000
  C  Sn1       1.0  0.10826  0.04469  0.39205  1.0000
  C  Sn2       1.0  0.07628  0.02497  0.37937  1.0000
  C   C189      1.0  0.06308  0.02506  0.26467  1.0000
  C   C190      1.0  0.08127  0.04448  0.16302  1.0000
  H   H175      1.0  0.12689  0.07894  0.09693  1.0000
  O  Te1       1.0  0.12204  0.04506  0.50551  1.0000
  O  Te2       1.0  0.05779  0.00543  0.48000  1.0000
  H   H176      1.0  0.07088  0.04441  0.07456  1.0000
  Mg  Mg1       1.0  0.08721  0.01426  0.61553  1.0000
  C   C191      1.0  0.90092  0.12565  0.49798  1.0000
  C   C192      1.0  0.88825  0.09739  0.42809  1.0000
  C  Sn3       1.0  0.85822  0.08306  0.38811  1.0000
  C  Sn4       1.0  0.84062  0.09734  0.41877  1.0000
  C   C193      1.0  0.85351  0.12562  0.48864  1.0000
  C   C194      1.0  0.88357  0.13976  0.52822  1.0000
  H   H177      1.0  0.92418  0.13660  0.52854  1.0000
  O  Te3       1.0  0.84591  0.05482  0.31840  1.0000
  O  Te4       1.0  0.81056  0.08353  0.37996  1.0000
  H   H178      1.0  0.89339  0.16165  0.58225  1.0000
  Mg  Mg2       1.0  0.80394  0.04506  0.28698  1.0000
  C   C195      1.0  0.42022  0.19201  0.31614  1.0000
  C   C196      1.0  0.44823  0.21582  0.26634  1.0000
  C  Sn5       1.0  0.44946  0.23074  0.15450  1.0000
  C  Sn6       1.0  0.42209  0.22161  0.09158  1.0000
  C   C197      1.0  0.39418  0.19778  0.14221  1.0000
  C   C198      1.0  0.39322  0.18300  0.25416  1.0000
  H   H179      1.0  0.41947  0.18059  0.40279  1.0000
  O  Te5       1.0  0.47764  0.25448  0.10603  1.0000
  O  Te6       1.0  0.40951  0.24576  0.97968  1.0000
  H   H180      1.0  0.37152  0.16457  0.29274  1.0000
  Mg  Mg3       1.0  0.45348  0.27687  0.95087  1.0000
  C   C199      1.0  0.80696  0.22234  0.83921  1.0000
  C   C200      1.0  0.80035  0.20001  0.73738  1.0000
  C  Sn7       1.0  0.77664  0.19208  0.65474  1.0000
  C  Sn8       1.0  0.75927  0.20682  0.67465  1.0000
  C   C201      1.0  0.76608  0.22914  0.77674  1.0000
  C   C202      1.0  0.78985  0.23690  0.85887  1.0000
  H   H181      1.0  0.82537  0.22835  0.90271  1.0000
  O  Te7       1.0  0.77033  0.16971  0.55351  1.0000
  O  Te8       1.0  0.73546  0.19934  0.59348  1.0000
  H   H182      1.0  0.79498  0.25420  0.93765  1.0000
  Mg  Mg4       1.0  0.73561  0.16740  0.46893  1.0000
  C   C203      1.0  0.93012  0.91455  0.86693  1.0000
  C   C204      1.0  0.95911  0.93086  0.80239  1.0000
  C  Sn9       1.0  0.97283  0.91534  0.73697  1.0000
  C  Sn10      1.0  0.95716  0.88289  0.73627  1.0000
  C   C205      1.0  0.92815  0.86678  0.80104  1.0000
  C   C206      1.0  0.91464  0.88254  0.86625  1.0000
  H   H183      1.0  0.91965  0.92674  0.91732  1.0000
  O  Te9       1.0  0.00182  0.93199  0.67303  1.0000
  O  Te10      1.0  0.97034  0.86680  0.67160  1.0000
  H   H184      1.0  0.89218  0.86991  0.91613  1.0000
  Mg  Mg5       1.0  0.01026  0.89972  0.59860  1.0000
  C   C207      1.0  0.82637  0.58132  0.67930  1.0000
  C   C208      1.0  0.81916  0.60386  0.66373  1.0000
  C  Sn11      1.0  0.79007  0.59894  0.70424  1.0000
  C  Sn12      1.0  0.76782  0.57091  0.76139  1.0000
  C   C209      1.0  0.77526  0.54851  0.77662  1.0000
  C   C210      1.0  0.80444  0.55367  0.73571  1.0000
  H   H185      1.0  0.84895  0.58531  0.64772  1.0000
  O  Te11      1.0  0.78325  0.62171  0.68791  1.0000
  O  Te12      1.0  0.73857  0.56540  0.80277  1.0000
  H   H186      1.0  0.81002  0.53622  0.74786  1.0000
  Mg  Mg6       1.0  0.74022  0.60344  0.75968  1.0000
  C   C211      1.0  0.92398  0.02602  0.36291  1.0000
  C   C212      1.0  0.93457  0.05647  0.33633  1.0000
  C  Sn13      1.0  0.96214  0.07340  0.26219  1.0000
  C  Sn14      1.0  0.97937  0.05953  0.21387  1.0000
  C   C213      1.0  0.96856  0.02904  0.24092  1.0000
  C   C214      1.0  0.94095  0.01231  0.31525  1.0000
  H   H187      1.0  0.90260  0.01306  0.42036  1.0000
  O  Te13      1.0  0.97240  0.10381  0.23659  1.0000
  O  Te14      1.0  0.00700  0.07592  0.13948  1.0000
  H   H188      1.0  0.44707  0.98872  0.33574  1.0000
  Mg  Mg7       1.0  0.01142  0.11670  0.13072  1.0000
  C   C215      1.0  0.57213  0.27561  0.74135  1.0000
  C   C216      1.0  0.59313  0.30231  0.80918  1.0000
  C  Sn15      1.0  0.58306  0.31936  0.88971  1.0000
  C  Sn16      1.0  0.55135  0.30943  0.90240  1.0000
  C   C217      1.0  0.53052  0.28267  0.83420  1.0000
  C   C218      1.0  0.54085  0.26579  0.75385  1.0000
  H   H189      1.0  0.58012  0.26254  0.67924  1.0000
  O  Te15      1.0  0.60435  0.34599  0.95675  1.0000
  O  Te16      1.0  0.54065  0.32603  0.98226  1.0000
  H   H190      1.0  0.52458  0.24511  0.70141  1.0000
  Mg  Mg8       1.0  0.59172  0.35117  0.05371  1.0000
  C   C219      1.0  0.73316  0.29127  0.21848  1.0000
  C   C220      1.0  0.72456  0.26406  0.27860  1.0000
  C  Sn17      1.0  0.69824  0.25050  0.36342  1.0000
  C  Sn18      1.0  0.68024  0.26449  0.38829  1.0000
  C   C221      1.0  0.68903  0.29170  0.32759  1.0000
  C   C222      1.0  0.71542  0.30508  0.24293  1.0000
  H   H191      1.0  0.75357  0.30161  0.15292  1.0000
  O  Te17      1.0  0.68999  0.22331  0.42270  1.0000
  O  Te18      1.0  0.65382  0.25142  0.47260  1.0000
  H   H192      1.0  0.72206  0.32614  0.19633  1.0000
  Mg  Mg9       1.0  0.65202  0.21429  0.53001  1.0000
  C   C223      1.0  0.75928  0.58288  0.20087  1.0000
  C   C224      1.0  0.78734  0.59715  0.12753  1.0000
  C  Sn19      1.0  0.80194  0.58083  0.08462  1.0000
  C  Sn20      1.0  0.78814  0.54964  0.11584  1.0000
  C   C225      1.0  0.76005  0.53557  0.18918  1.0000
  C   C226      1.0  0.74564  0.55212  0.23166  1.0000
  H   H193      1.0  0.74813  0.59568  0.23368  1.0000
  O  Te19      1.0  0.82998  0.59544  0.01147  1.0000
  O  Te20      1.0  0.80223  0.53279  0.07415  1.0000
  H   H194      1.0  0.72391  0.54106  0.28838  1.0000
  Mg  Mg10      1.0  0.82712  0.57246  0.97700  1.0000
  C   C227      1.0  0.88537  0.74243  0.29180  1.0000
  C   C228      1.0  0.88679  0.73124  0.41046  1.0000
  C  Sn21      1.0  0.90142  0.75144  0.51665  1.0000
  C  Sn22      1.0  0.91485  0.78342  0.50351  1.0000
  C   C229      1.0  0.91329  0.79438  0.38442  1.0000
  C   C230      1.0  0.89860  0.77396  0.27877  1.0000
  H   H195      1.0  0.87399  0.72663  0.21008  1.0000
  O  Te21      1.0  0.90264  0.73988  0.63449  1.0000
  O  Te22      1.0  0.92960  0.80412  0.60808  1.0000
  H   H196      1.0  0.89748  0.78263  0.18694  1.0000
  Mg  Mg11      1.0  0.92529  0.77724  0.74881  1.0000
  C   C231      1.0  0.97649  0.90649  0.10432  1.0000
  C   C232      1.0  0.96903  0.92587  0.18251  1.0000
  C  Sn23      1.0  0.94699  0.91436  0.28766  1.0000
  C  Sn24      1.0  0.93220  0.88284  0.31481  1.0000
  C   C233      1.0  0.93985  0.86364  0.23606  1.0000
  C   C234      1.0  0.96192  0.87540  0.13106  1.0000
  H   H197      1.0  0.99358  0.91559  0.02312  1.0000
  O  Te23      1.0  0.93980  0.93404  0.36477  1.0000
  O  Te24      1.0  0.91011  0.87073  0.41932  1.0000
  H   H198      1.0  0.96771  0.86039  0.07059  1.0000
  Mg  Mg12      1.0  0.90815  0.90673  0.49616  1.0000
