data_image0
_chemical_formula_structural       H162C186N30C2Sn2C2HTe2HMgC2Sn2C2HTe2HMgC2Sn2C2HTe2HMgC2Sn2C2HTe2HMgC2Sn2C2HTe2HMgC2Sn2C2HTe2HMgC2Sn2C2HTe2HMgC2Sn2C2HTe2HMgC2Sn2C2HTe2HMgC2Sn2C2HTe2HMgC2Sn2C2HTe2HMgC2Sn2C2HTe2HMg
_chemical_formula_sum              "H186 C234 N30 Sn24 Te24 Mg12"
_cell_length_a       52.4186
_cell_length_b       52.3102
_cell_length_c       10.8805
_cell_angle_alpha    89.1383
_cell_angle_beta     91.834
_cell_angle_gamma    120.411

_symmetry_space_group_name_H-M    'P1'
_space_group_IT_number       1

loop_
  _space_group_symop_operation_xyz
  'x, y, z'

loop_
  _atom_site_type_symbol
  _atom_site_label
  _atom_site_symmetry_multiplicity
  _atom_site_fract_x
  _atom_site_fract_y
  _atom_site_fract_z
  _atom_site_occupancy
  H   H1        1.0  0.30206  0.12400  0.15879  1.0000
  H   H2        1.0  0.87880  0.18301  0.14405  1.0000
  H   H3        1.0  0.82293  0.69628  0.15312  1.0000
  H   H4        1.0  0.35619  0.14915  0.18368  1.0000
  H   H5        1.0  0.85223  0.21002  0.16968  1.0000
  H   H6        1.0  0.79482  0.64226  0.16999  1.0000
  H   H7        1.0  0.26579  0.16515  0.40010  1.0000
  H   H8        1.0  0.89839  0.73079  0.40603  1.0000
  H   H9        1.0  0.21117  0.13590  0.37891  1.0000
  H   H10       1.0  0.92262  0.78514  0.37858  1.0000
  H   H11       1.0  0.20588  0.09566  0.21546  1.0000
  H   H12       1.0  0.88686  0.79328  0.20989  1.0000
  H   H13       1.0  0.26075  0.12363  0.24156  1.0000
  H   H14       1.0  0.86132  0.73854  0.23144  1.0000
  H   H15       1.0  0.79421  0.60561  0.28656  1.0000
  H   H16       1.0  0.76313  0.55161  0.31681  1.0000
  H   H17       1.0  0.74809  0.20945  0.47341  1.0000
  H   H18       1.0  0.77358  0.18095  0.44160  1.0000
  H   H19       1.0  0.16347  0.09727  0.44827  1.0000
  H   H20       1.0  0.90148  0.06806  0.42337  1.0000
  H   H21       1.0  0.93017  0.83298  0.43700  1.0000
  H   H22       1.0  0.49912  0.24462  0.26141  1.0000
  H   H23       1.0  0.75525  0.25183  0.26252  1.0000
  H   H24       1.0  0.74709  0.50114  0.25715  1.0000
  H   H25       1.0  0.06677  0.00525  0.21355  1.0000
  H   H26       1.0  0.94062  0.93343  0.23532  1.0000
  H   H27       1.0  0.12193  0.03445  0.22703  1.0000
  H   H28       1.0  0.91556  0.87835  0.24820  1.0000
  H   H29       1.0  0.54069  0.24674  0.25268  1.0000
  H   H30       1.0  0.75352  0.29222  0.25465  1.0000
  H   H31       1.0  0.59511  0.27237  0.27435  1.0000
  H   H32       1.0  0.72765  0.32024  0.27819  1.0000
  H   H33       1.0  0.60281  0.33157  0.48518  1.0000
  H   H34       1.0  0.72862  0.39495  0.48260  1.0000
  H   H35       1.0  0.54786  0.30641  0.46518  1.0000
  H   H36       1.0  0.75665  0.45001  0.46249  1.0000
  H   H37       1.0  0.02628  0.05597  0.08014  1.0000
  H   H38       1.0  0.94426  0.97269  0.08805  1.0000
  H   H39       1.0  0.02678  0.97403  0.07121  1.0000
  H   H40       1.0  0.63661  0.27719  0.13623  1.0000
  H   H41       1.0  0.72169  0.35716  0.13822  1.0000
  H   H42       1.0  0.64219  0.36213  0.12887  1.0000
  H   H43       1.0  0.40476  0.26552  0.49217  1.0000
  H   H44       1.0  0.73563  0.14113  0.49241  1.0000
  H   H45       1.0  0.85819  0.59489  0.45853  1.0000
  H   H46       1.0  0.39323  0.26981  0.12405  1.0000
  H   H47       1.0  0.73272  0.12192  0.11070  1.0000
  H   H48       1.0  0.86752  0.59691  0.01519  1.0000
  H   H49       1.0  0.32873  0.26905  0.43340  1.0000
  H   H50       1.0  0.73085  0.06119  0.42785  1.0000
  H   H51       1.0  0.93854  0.67093  0.43224  1.0000
  H   H52       1.0  0.34944  0.31986  0.49985  1.0000
  H   H53       1.0  0.68086  0.03124  0.50234  1.0000
  H   H54       1.0  0.95402  0.63114  0.33008  1.0000
  H   H55       1.0  0.36812  0.32654  0.35902  1.0000
  H   H56       1.0  0.67482  0.04244  0.35439  1.0000
  H   H57       1.0  0.96739  0.61534  0.44142  1.0000
  H   H58       1.0  0.38305  0.35353  0.47761  1.0000
  H   H59       1.0  0.64747  0.03097  0.46710  1.0000
  H   H60       1.0  0.96831  0.64883  0.47461  1.0000
  H   H61       1.0  0.42203  0.33313  0.37050  1.0000
  H   H62       1.0  0.66918  0.09024  0.34380  1.0000
  H   H63       1.0  0.92057  0.56689  0.44205  1.0000
  H   H64       1.0  0.43394  0.32292  0.50772  1.0000
  H   H65       1.0  0.67876  0.11314  0.47620  1.0000
  H   H66       1.0  0.90179  0.57764  0.33326  1.0000
  H   H67       1.0  0.43217  0.35583  0.50315  1.0000
  H   H68       1.0  0.64562  0.07825  0.47135  1.0000
  H   H69       1.0  0.88648  0.56385  0.47948  1.0000
  H   H70       1.0  0.39161  0.33652  0.18956  1.0000
  H   H71       1.0  0.66773  0.05116  0.17165  1.0000
  H   H72       1.0  0.93457  0.60956  0.17175  1.0000
  H   H73       1.0  0.39871  0.30703  0.20575  1.0000
  H   H74       1.0  0.69726  0.08787  0.19199  1.0000
  H   H75       1.0  0.89981  0.60723  0.15433  1.0000
  H   H76       1.0  0.36171  0.29918  0.18020  1.0000
  H   H77       1.0  0.70490  0.05907  0.16123  1.0000
  H   H78       1.0  0.93286  0.64234  0.14405  1.0000
  H   H79       1.0  0.37799  0.28302  0.37351  1.0000
  H   H80       1.0  0.71845  0.09839  0.36623  1.0000
  H   H81       1.0  0.90221  0.62293  0.35237  1.0000
  H   H82       1.0  0.30242  0.12328  0.65463  1.0000
  H   H83       1.0  0.87945  0.18081  0.63338  1.0000
  H   H84       1.0  0.82044  0.69531  0.64975  1.0000
  H   H85       1.0  0.35645  0.14849  0.67699  1.0000
  H   H86       1.0  0.85494  0.20967  0.66052  1.0000
  H   H87       1.0  0.79144  0.64118  0.66724  1.0000
  H   H88       1.0  0.26789  0.16416  0.88735  1.0000
  H   H89       1.0  0.89806  0.73278  0.89149  1.0000
  H   H90       1.0  0.21327  0.13545  0.85982  1.0000
  H   H91       1.0  0.92253  0.78720  0.86816  1.0000
  H   H92       1.0  0.20690  0.09181  0.72104  1.0000
  H   H93       1.0  0.88343  0.79201  0.70838  1.0000
  H   H94       1.0  0.26174  0.12019  0.74047  1.0000
  H   H95       1.0  0.85801  0.73739  0.73363  1.0000
  H   H96       1.0  0.81948  0.21152  0.79076  1.0000
  H   H97       1.0  0.79532  0.24115  0.81946  1.0000
  H   H98       1.0  0.78878  0.53610  0.96707  1.0000
  H   H99       1.0  0.81844  0.59018  0.93318  1.0000
  H   H100      1.0  0.16501  0.09817  0.92675  1.0000
  H   H101      1.0  0.90485  0.07261  0.93040  1.0000
  H   H102      1.0  0.93023  0.83456  0.93161  1.0000
  H   H103      1.0  0.49910  0.24315  0.76165  1.0000
  H   H104      1.0  0.75951  0.25477  0.76040  1.0000
  H   H105      1.0  0.74390  0.49969  0.76036  1.0000
  H   H106      1.0  0.12200  0.09529  0.95695  1.0000
  H   H107      1.0  0.96646  0.87786  0.94669  1.0000
  H   H108      1.0  0.06731  0.06642  0.94358  1.0000
  H   H109      1.0  0.99145  0.93230  0.93479  1.0000
  H   H110      1.0  0.54024  0.24267  0.73761  1.0000
  H   H111      1.0  0.70536  0.45646  0.74866  1.0000
  H   H112      1.0  0.59478  0.26760  0.75720  1.0000
  H   H113      1.0  0.67750  0.40204  0.76760  1.0000
  H   H114      1.0  0.60290  0.32953  0.97187  1.0000
  H   H115      1.0  0.66782  0.27133  0.97830  1.0000
  H   H116      1.0  0.54789  0.30365  0.94979  1.0000
  H   H117      1.0  0.69420  0.24332  0.95337  1.0000
  H   H118      1.0  0.02564  0.05449  0.60262  1.0000
  H   H119      1.0  0.94391  0.97097  0.58824  1.0000
  H   H120      1.0  0.02706  0.97300  0.60086  1.0000
  H   H121      1.0  0.63646  0.27561  0.62987  1.0000
  H   H122      1.0  0.72145  0.35578  0.63218  1.0000
  H   H123      1.0  0.64185  0.36041  0.63301  1.0000
  H   H124      1.0  0.40516  0.26521  0.97948  1.0000
  H   H125      1.0  0.73543  0.14009  0.96824  1.0000
  H   H126      1.0  0.85910  0.60618  0.86736  1.0000
  H   H127      1.0  0.39236  0.27050  0.63512  1.0000
  H   H128      1.0  0.73170  0.12143  0.63183  1.0000
  H   H129      1.0  0.87583  0.60247  0.60630  1.0000
  H   H130      1.0  0.32954  0.26857  0.91589  1.0000
  H   H131      1.0  0.73476  0.06336  0.89284  1.0000
  H   H132      1.0  0.93403  0.67322  0.85666  1.0000
  H   H133      1.0  0.34929  0.31912  0.98511  1.0000
  H   H134      1.0  0.65068  0.02713  0.97484  1.0000
  H   H135      1.0  0.96735  0.65411  0.96719  1.0000
  H   H136      1.0  0.37308  0.33043  0.85770  1.0000
  H   H137      1.0  0.68554  0.03003  0.95950  1.0000
  H   H138      1.0  0.95856  0.62763  0.84845  1.0000
  H   H139      1.0  0.38315  0.35327  0.98969  1.0000
  H   H140      1.0  0.67072  0.04260  0.83948  1.0000
  H   H141      1.0  0.96822  0.62116  0.99842  1.0000
  H   H142      1.0  0.42495  0.33407  0.88824  1.0000
  H   H143      1.0  0.64810  0.07461  0.02376  1.0000
  H   H144      1.0  0.91007  0.57707  0.85617  1.0000
  H   H145      1.0  0.43343  0.32192  0.02909  1.0000
  H   H146      1.0  0.66381  0.08654  0.87721  1.0000
  H   H147      1.0  0.88602  0.56841  0.98113  1.0000
  H   H148      1.0  0.43195  0.35501  0.02461  1.0000
  H   H149      1.0  0.68039  0.10972  0.00803  1.0000
  H   H150      1.0  0.92107  0.57167  0.00521  1.0000
  H   H151      1.0  0.39588  0.34109  0.68060  1.0000
  H   H152      1.0  0.65924  0.05737  0.66430  1.0000
  H   H153      1.0  0.94362  0.59918  0.64442  1.0000
  H   H154      1.0  0.40453  0.31275  0.70103  1.0000
  H   H155      1.0  0.68759  0.09483  0.68091  1.0000
  H   H156      1.0  0.90792  0.59337  0.66924  1.0000
  H   H157      1.0  0.36677  0.30349  0.68947  1.0000
  H   H158      1.0  0.69671  0.06629  0.68428  1.0000
  H   H159      1.0  0.93883  0.63017  0.66443  1.0000
  H   H160      1.0  0.38002  0.28500  0.86637  1.0000
  H   H161      1.0  0.71601  0.09636  0.85075  1.0000
  H   H162      1.0  0.90734  0.62259  0.81151  1.0000
  C   C1        1.0  0.31531  0.14709  0.13153  1.0000
  C   C2        1.0  0.85554  0.17242  0.11622  1.0000
  C   C3        1.0  0.83290  0.68366  0.12317  1.0000
  C   C4        1.0  0.34603  0.16131  0.14546  1.0000
  C   C5        1.0  0.84050  0.18776  0.13106  1.0000
  C   C6        1.0  0.81689  0.65289  0.13300  1.0000
  C   C7        1.0  0.36476  0.19082  0.10714  1.0000
  C   C8        1.0  0.81055  0.17587  0.09379  1.0000
  C   C9        1.0  0.82748  0.63455  0.09189  1.0000
  C   C10       1.0  0.35030  0.20523  0.05764  1.0000
  C   C11       1.0  0.79682  0.14736  0.04226  1.0000
  C   C12       1.0  0.85565  0.64964  0.03987  1.0000
  C   C13       1.0  0.31876  0.19105  0.04474  1.0000
  C   C14       1.0  0.81188  0.13119  0.02754  1.0000
  C   C15       1.0  0.87271  0.68139  0.03256  1.0000
  C   C16       1.0  0.30070  0.16123  0.07953  1.0000
  C   C17       1.0  0.84192  0.14385  0.06381  1.0000
  C   C18       1.0  0.86125  0.69900  0.07268  1.0000
  C   C19       1.0  0.33501  0.23601  0.99543  1.0000
  C   C20       1.0  0.76695  0.10129  0.97628  1.0000
  C   C21       1.0  0.90077  0.66634  0.96899  1.0000
  C   C22       1.0  0.26824  0.14556  0.06528  1.0000
  C   C23       1.0  0.87742  0.73154  0.06181  1.0000
  C   C24       1.0  0.80937  0.60224  0.10846  1.0000
  C   C25       1.0  0.25304  0.14901  0.47009  1.0000
  C   C26       1.0  0.89483  0.74405  0.47163  1.0000
  C   C27       1.0  0.22226  0.13260  0.45871  1.0000
  C   C28       1.0  0.90858  0.77466  0.45686  1.0000
  C   C29       1.0  0.20585  0.11363  0.03625  1.0000
  C   C30       1.0  0.90636  0.79399  0.03781  1.0000
  C   C31       1.0  0.21971  0.11053  0.14397  1.0000
  C   C32       1.0  0.88888  0.77975  0.14023  1.0000
  C   C33       1.0  0.25033  0.12602  0.15755  1.0000
  C   C34       1.0  0.87451  0.74914  0.15124  1.0000
  C   C35       1.0  0.79285  0.59049  0.21558  1.0000
  C   C36       1.0  0.77549  0.56001  0.23288  1.0000
  C   C37       1.0  0.77399  0.53993  0.14425  1.0000
  C   C38       1.0  0.79017  0.55153  0.03651  1.0000
  C   C39       1.0  0.80724  0.58191  0.01926  1.0000
  C   C40       1.0  0.17369  0.09705  0.01901  1.0000
  C   C41       1.0  0.90628  0.08215  0.02172  1.0000
  C   C42       1.0  0.92129  0.82609  0.02308  1.0000
  C   C43       1.0  0.49153  0.24654  0.16800  1.0000
  C   C44       1.0  0.75303  0.24346  0.16817  1.0000
  C   C45       1.0  0.75634  0.50807  0.16505  1.0000
  C   C46       1.0  0.12580  0.06627  0.09096  1.0000
  C   C47       1.0  0.93858  0.87414  0.09711  1.0000
  C   C48       1.0  0.54035  0.27410  0.10143  1.0000
  C   C49       1.0  0.72488  0.26490  0.10435  1.0000
  C   C50       1.0  0.11001  0.07535  0.01196  1.0000
  C   C51       1.0  0.96050  0.88981  0.00971  1.0000
  C   C52       1.0  0.07919  0.05929  0.00570  1.0000
  C   C53       1.0  0.97485  0.92058  0.00378  1.0000
  C   C54       1.0  0.06307  0.03362  0.07698  1.0000
  C   C55       1.0  0.96778  0.93687  0.08373  1.0000
  C   C56       1.0  0.07893  0.02459  0.15541  1.0000
  C   C57       1.0  0.94589  0.92119  0.17079  1.0000
  C   C58       1.0  0.10967  0.04085  0.16377  1.0000
  C   C59       1.0  0.93189  0.89044  0.17871  1.0000
  C   C60       1.0  0.55410  0.26512  0.19185  1.0000
  C   C61       1.0  0.73449  0.28717  0.19499  1.0000
  C   C62       1.0  0.58484  0.27934  0.20325  1.0000
  C   C63       1.0  0.72012  0.30324  0.20742  1.0000
  C   C64       1.0  0.60296  0.30307  0.12570  1.0000
  C   C65       1.0  0.69559  0.29750  0.13109  1.0000
  C   C66       1.0  0.58920  0.31185  0.03506  1.0000
  C   C67       1.0  0.68613  0.27534  0.04060  1.0000
  C   C68       1.0  0.55852  0.29738  0.02195  1.0000
  C   C69       1.0  0.70080  0.25970  0.02611  1.0000
  C   C70       1.0  0.03034  0.01696  0.07487  1.0000
  C   C71       1.0  0.98335  0.01621  0.08304  1.0000
  C   C72       1.0  0.98368  0.96964  0.07935  1.0000
  C   C73       1.0  0.63563  0.31794  0.13471  1.0000
  C   C74       1.0  0.68084  0.31518  0.13878  1.0000
  C   C75       1.0  0.68399  0.36343  0.13526  1.0000
  C   C76       1.0  0.01438  0.03185  0.07890  1.0000
  C   C77       1.0  0.96827  0.98508  0.08355  1.0000
  C   C78       1.0  0.01467  0.98584  0.07414  1.0000
  C   C79       1.0  0.64985  0.30128  0.13781  1.0000
  C   C80       1.0  0.69766  0.34626  0.13874  1.0000
  C   C81       1.0  0.65297  0.34899  0.13363  1.0000
  C   C82       1.0  0.38586  0.26410  0.53839  1.0000
  C   C83       1.0  0.73739  0.12297  0.53463  1.0000
  C   C84       1.0  0.87609  0.61204  0.51541  1.0000
  C   C85       1.0  0.37426  0.28306  0.47256  1.0000
  C   C86       1.0  0.71805  0.09319  0.46496  1.0000
  C   C87       1.0  0.90653  0.62488  0.45258  1.0000
  C   C88       1.0  0.38894  0.31577  0.51474  1.0000
  C   C89       1.0  0.68524  0.07507  0.50135  1.0000
  C   C90       1.0  0.92437  0.60936  0.48485  1.0000
  C   C91       1.0  0.37130  0.32961  0.45887  1.0000
  C   C92       1.0  0.67142  0.04312  0.45284  1.0000
  C   C93       1.0  0.95523  0.62724  0.42875  1.0000
  C   C94       1.0  0.42106  0.33275  0.47113  1.0000
  C   C95       1.0  0.66886  0.09010  0.44464  1.0000
  C   C96       1.0  0.90727  0.57766  0.43159  1.0000
  C   C97       1.0  0.38486  0.31421  0.15633  1.0000
  C   C98       1.0  0.68981  0.06741  0.13971  1.0000
  C   C99       1.0  0.92254  0.61870  0.12132  1.0000
  C   C100      1.0  0.31543  0.14659  0.63028  1.0000
  C   C101      1.0  0.85581  0.17040  0.61338  1.0000
  C   C102      1.0  0.83059  0.68239  0.62652  1.0000
  C   C103      1.0  0.34617  0.16090  0.64309  1.0000
  C   C104      1.0  0.84191  0.18683  0.62901  1.0000
  C   C105      1.0  0.81409  0.65161  0.63663  1.0000
  C   C106      1.0  0.36471  0.19076  0.60867  1.0000
  C   C107      1.0  0.81162  0.17535  0.59982  1.0000
  C   C108      1.0  0.82511  0.63310  0.60319  1.0000
  C   C109      1.0  0.34995  0.20530  0.56439  1.0000
  C   C110      1.0  0.79631  0.14602  0.55650  1.0000
  C   C111      1.0  0.85418  0.64789  0.56056  1.0000
  C   C112      1.0  0.31832  0.19105  0.55276  1.0000
  C   C113      1.0  0.81012  0.12864  0.54240  1.0000
  C   C114      1.0  0.87171  0.67962  0.55308  1.0000
  C   C115      1.0  0.30045  0.16086  0.58352  1.0000
  C   C116      1.0  0.84060  0.14100  0.56923  1.0000
  C   C117      1.0  0.85970  0.69744  0.58340  1.0000
  C   C118      1.0  0.33446  0.23637  0.50912  1.0000
  C   C119      1.0  0.76441  0.09949  0.50207  1.0000
  C   C120      1.0  0.90050  0.66387  0.50777  1.0000
  C   C121      1.0  0.26788  0.14461  0.57106  1.0000
  C   C122      1.0  0.87592  0.72995  0.57034  1.0000
  C   C123      1.0  0.79759  0.19327  0.61572  1.0000
  C   C124      1.0  0.25436  0.14913  0.95896  1.0000
  C   C125      1.0  0.89536  0.74589  0.96073  1.0000
  C   C126      1.0  0.22367  0.13308  0.94407  1.0000
  C   C127      1.0  0.90923  0.77654  0.94824  1.0000
  C   C128      1.0  0.20524  0.11192  0.54928  1.0000
  C   C129      1.0  0.90472  0.79232  0.54206  1.0000
  C   C130      1.0  0.22006  0.10763  0.65065  1.0000
  C   C131      1.0  0.88617  0.77831  0.64197  1.0000
  C   C132      1.0  0.25072  0.12346  0.66052  1.0000
  C   C133      1.0  0.87190  0.74775  0.65496  1.0000
  C   C134      1.0  0.80407  0.21123  0.72054  1.0000
  C   C135      1.0  0.79033  0.22775  0.73688  1.0000
  C   C136      1.0  0.76961  0.22699  0.64914  1.0000
  C   C137      1.0  0.76361  0.20961  0.54263  1.0000
  C   C138      1.0  0.77747  0.19330  0.52636  1.0000
  C   C139      1.0  0.17296  0.09562  0.53777  1.0000
  C   C140      1.0  0.90388  0.07853  0.51336  1.0000
  C   C141      1.0  0.92010  0.82445  0.52682  1.0000
  C   C142      1.0  0.49147  0.24573  0.66926  1.0000
  C   C143      1.0  0.75495  0.24387  0.67003  1.0000
  C   C144      1.0  0.75372  0.50659  0.66921  1.0000
  C   C145      1.0  0.54020  0.27339  0.60186  1.0000
  C   C146      1.0  0.73373  0.45719  0.60574  1.0000
  C   C147      1.0  0.55383  0.26232  0.68312  1.0000
  C   C148      1.0  0.71091  0.44324  0.69105  1.0000
  C   C149      1.0  0.58456  0.27616  0.69308  1.0000
  C   C150      1.0  0.69499  0.41248  0.70114  1.0000
  C   C151      1.0  0.60275  0.30155  0.62351  1.0000
  C   C152      1.0  0.70133  0.39455  0.62778  1.0000
  C   C153      1.0  0.58907  0.31246  0.54221  1.0000
  C   C154      1.0  0.72410  0.40852  0.54288  1.0000
  C   C155      1.0  0.55841  0.29841  0.53020  1.0000
  C   C156      1.0  0.73971  0.43922  0.53089  1.0000
  C   C157      1.0  0.03018  0.01571  0.60183  1.0000
  C   C158      1.0  0.98289  0.01457  0.59427  1.0000
  C   C159      1.0  0.98363  0.96819  0.59462  1.0000
  C   C160      1.0  0.63538  0.31627  0.63185  1.0000
  C   C161      1.0  0.68066  0.31363  0.63239  1.0000
  C   C162      1.0  0.68369  0.36184  0.63406  1.0000
  C   C163      1.0  0.01397  0.03039  0.59980  1.0000
  C   C164      1.0  0.96799  0.98347  0.59168  1.0000
  C   C165      1.0  0.01469  0.98458  0.59895  1.0000
  C   C166      1.0  0.64966  0.29969  0.63203  1.0000
  C   C167      1.0  0.69742  0.34474  0.63366  1.0000
  C   C168      1.0  0.65268  0.34733  0.63413  1.0000
  C   C169      1.0  0.38640  0.26373  0.02734  1.0000
  C   C170      1.0  0.73805  0.12268  0.01337  1.0000
  C   C171      1.0  0.87438  0.61475  0.94756  1.0000
  C   C172      1.0  0.37489  0.28316  0.96450  1.0000
  C   C173      1.0  0.71897  0.09206  0.94794  1.0000
  C   C174      1.0  0.90716  0.62742  0.90901  1.0000
  C   C175      1.0  0.38846  0.31490  0.01708  1.0000
  C   C176      1.0  0.68790  0.07198  0.00109  1.0000
  C   C177      1.0  0.92370  0.61434  0.98316  1.0000
  C   C178      1.0  0.37251  0.33017  0.95826  1.0000
  C   C179      1.0  0.67297  0.04124  0.93939  1.0000
  C   C180      1.0  0.95635  0.63032  0.94664  1.0000
  C   C181      1.0  0.42157  0.33238  0.98778  1.0000
  C   C182      1.0  0.66910  0.08664  0.97575  1.0000
  C   C183      1.0  0.90925  0.58103  0.95440  1.0000
  C   C184      1.0  0.38901  0.31824  0.65478  1.0000
  C   C185      1.0  0.68217  0.07346  0.64101  1.0000
  C   C186      1.0  0.92883  0.60794  0.62396  1.0000
  N   N1        1.0  0.36017  0.23426  0.01848  1.0000
  N   N2        1.0  0.76781  0.12751  0.00207  1.0000
  N   N3        1.0  0.87503  0.64070  0.99891  1.0000
  N   N4        1.0  0.30987  0.21105  0.00570  1.0000
  N   N5        1.0  0.79241  0.10225  0.98616  1.0000
  N   N6        1.0  0.90094  0.69108  0.98816  1.0000
  N   N7        1.0  0.15667  0.08144  0.10693  1.0000
  N   N8        1.0  0.92150  0.07983  0.11260  1.0000
  N   N9        1.0  0.92339  0.84324  0.11215  1.0000
  N   N10       1.0  0.50964  0.26096  0.08106  1.0000
  N   N11       1.0  0.73817  0.24795  0.08197  1.0000
  N   N12       1.0  0.75247  0.48924  0.08025  1.0000
  N   N13       1.0  0.34194  0.26571  0.49402  1.0000
  N   N14       1.0  0.73487  0.07763  0.48787  1.0000
  N   N15       1.0  0.92215  0.65670  0.48809  1.0000
  N   N16       1.0  0.35965  0.23458  0.52983  1.0000
  N   N17       1.0  0.76669  0.12654  0.52378  1.0000
  N   N18       1.0  0.87361  0.63850  0.52574  1.0000
  N   N19       1.0  0.30935  0.21127  0.51782  1.0000
  N   N20       1.0  0.78937  0.09941  0.50850  1.0000
  N   N21       1.0  0.90074  0.68887  0.52015  1.0000
  N   N22       1.0  0.15672  0.07995  0.62766  1.0000
  N   N23       1.0  0.92013  0.07741  0.60285  1.0000
  N   N24       1.0  0.92133  0.84156  0.61431  1.0000
  N   N25       1.0  0.50954  0.26071  0.58308  1.0000
  N   N26       1.0  0.73737  0.24538  0.58770  1.0000
  N   N27       1.0  0.75069  0.48785  0.58551  1.0000
  N   N28       1.0  0.34240  0.26520  0.97833  1.0000
  N   N29       1.0  0.73800  0.07863  0.95751  1.0000
  N   N30       1.0  0.92134  0.65995  0.92539  1.0000
  C   C187      1.0  0.97457  0.06136  0.68294  1.0000
  C   C188      1.0  0.96835  0.03584  0.61851  1.0000
  C  Sn1       1.0  0.94467  0.02311  0.53326  1.0000
  C  Sn2       1.0  0.92695  0.03623  0.51229  1.0000
  C   C189      1.0  0.93338  0.06177  0.57715  1.0000
  C   C190      1.0  0.95711  0.07432  0.66228  1.0000
  H   H163      1.0  0.99295  0.07108  0.74876  1.0000
  O  Te1       1.0  0.44391  0.99760  0.46971  1.0000
  O  Te2       1.0  0.90317  0.02397  0.42757  1.0000
  H   H164      1.0  0.96194  0.09410  0.71209  1.0000
  Mg  Mg1       1.0  0.40907  0.98912  0.36365  1.0000
  C   C191      1.0  0.43316  0.20837  0.75543  1.0000
  C   C192      1.0  0.45520  0.22543  0.67206  1.0000
  C  Sn3       1.0  0.44781  0.23324  0.55871  1.0000
  C  Sn4       1.0  0.41779  0.22377  0.52853  1.0000
  C   C193      1.0  0.39590  0.20673  0.61260  1.0000
  C   C194      1.0  0.40353  0.19903  0.72575  1.0000
  H   H165      1.0  0.43906  0.20243  0.84300  1.0000
  O  Te3       1.0  0.47011  0.25028  0.47648  1.0000
  O  Te4       1.0  0.40979  0.23126  0.41590  1.0000
  H   H166      1.0  0.38646  0.18584  0.79031  1.0000
  Mg  Mg2       1.0  0.44815  0.25484  0.33444  1.0000
  C   C195      1.0  0.69192  0.25603  0.52735  1.0000
  C   C196      1.0  0.71857  0.26126  0.58272  1.0000
  C  Sn5       1.0  0.73347  0.28413  0.66844  1.0000
  C  Sn6       1.0  0.72141  0.30205  0.69911  1.0000
  C   C197      1.0  0.69473  0.29663  0.64326  1.0000
  C   C198      1.0  0.68001  0.27369  0.55759  1.0000
  H   H167      1.0  0.68052  0.23827  0.46111  1.0000
  O  Te5       1.0  0.76007  0.28906  0.72286  1.0000
  O  Te6       1.0  0.73584  0.32505  0.78451  1.0000
  H   H168      1.0  0.65937  0.26963  0.51478  1.0000
  Mg  Mg3       1.0  0.77148  0.32308  0.83384  1.0000
  C   C199      1.0  0.96717  0.07059  0.18786  1.0000
  C   C200      1.0  0.94275  0.06665  0.11677  1.0000
  C  Sn7       1.0  0.92917  0.04357  0.03125  1.0000
  C  Sn8       1.0  0.94028  0.02409  0.01687  1.0000
  C   C201      1.0  0.96470  0.02820  0.08849  1.0000
  C   C202      1.0  0.97813  0.05138  0.17377  1.0000
  H   H169      1.0  0.97755  0.08851  0.25389  1.0000
  O  Te7       1.0  0.91162  0.04029  0.96094  1.0000
  O  Te8       1.0  0.93393  0.00115  0.93211  1.0000
  H   H170      1.0  0.99702  0.05441  0.22885  1.0000
  Mg  Mg4       1.0  0.90127  0.00531  0.85758  1.0000
  C   C203      1.0  0.69777  0.42200  0.21020  1.0000
  C   C204      1.0  0.69868  0.40025  0.14054  1.0000
  C  Sn9       1.0  0.71945  0.40834  0.04879  1.0000
  C  Sn10      1.0  0.73967  0.43878  0.02660  1.0000
  C   C205      1.0  0.73861  0.46036  0.09684  1.0000
  C   C206      1.0  0.71772  0.45202  0.18840  1.0000
  H   H171      1.0  0.68163  0.41555  0.28109  1.0000
  O  Te9       1.0  0.72685  0.38666  0.98002  1.0000
  O  Te10      1.0  0.76748  0.44780  0.93549  1.0000
  H   H172      1.0  0.71704  0.46886  0.24237  1.0000
  Mg  Mg5       1.0  0.75954  0.40960  0.86606  1.0000
  C   C207      1.0  0.41664  0.20058  0.24490  1.0000
  C   C208      1.0  0.39995  0.20406  0.15043  1.0000
  C  Sn11      1.0  0.41385  0.22125  0.04753  1.0000
  C  Sn12      1.0  0.44504  0.23519  0.03929  1.0000
  C   C209      1.0  0.46153  0.23155  0.13424  1.0000
  C   C210      1.0  0.44740  0.21431  0.23682  1.0000
  H   H173      1.0  0.40570  0.18722  0.32424  1.0000
  O  Te11      1.0  0.40365  0.22483  0.95400  1.0000
  O  Te12      1.0  0.46630  0.25281  0.93745  1.0000
  H   H174      1.0  0.46033  0.21160  0.30991  1.0000
  Mg  Mg6       1.0  0.43352  0.25061  0.83371  1.0000
  C   C211      1.0  0.08612  0.02398  0.69430  1.0000
  C   C212      1.0  0.06636  0.03048  0.63191  1.0000
  C  Sn13      1.0  0.07691  0.05507  0.55425  1.0000
  C  Sn14      1.0  0.10782  0.07346  0.53894  1.0000
  C   C213      1.0  0.12740  0.06677  0.60170  1.0000
  C   C214      1.0  0.11661  0.04211  0.67921  1.0000
  H   H175      1.0  0.07777  0.00490  0.75422  1.0000
  O  Te13      1.0  0.05686  0.06125  0.49265  1.0000
  O  Te14      1.0  0.11896  0.09818  0.46185  1.0000
  H   H176      1.0  0.13191  0.03708  0.72744  1.0000
  Mg  Mg7       1.0  0.08281  0.09743  0.39775  1.0000
  C   C215      1.0  0.78346  0.58241  0.73959  1.0000
  C   C216      1.0  0.80330  0.59818  0.64688  1.0000
  C  Sn15      1.0  0.80588  0.58319  0.54716  1.0000
  C  Sn16      1.0  0.78824  0.55185  0.54037  1.0000
  C   C217      1.0  0.76845  0.53628  0.63355  1.0000
  C   C218      1.0  0.76605  0.55150  0.73294  1.0000
  H   H177      1.0  0.78159  0.59418  0.81646  1.0000
  O  Te15      1.0  0.82582  0.59929  0.45535  1.0000
  O  Te16      1.0  0.79037  0.53632  0.44172  1.0000
  H   H178      1.0  0.75067  0.53929  0.80467  1.0000
  Mg  Mg8       1.0  0.82075  0.56813  0.33933  1.0000
  C   C219      1.0  0.92971  0.89562  0.68956  1.0000
  C   C220      1.0  0.93374  0.87603  0.61812  1.0000
  C  Sn17      1.0  0.95660  0.88686  0.53450  1.0000
  C  Sn18      1.0  0.97576  0.91790  0.52241  1.0000
  C   C221      1.0  0.97156  0.93732  0.59437  1.0000
  C   C222      1.0  0.94860  0.92624  0.67773  1.0000
  H   H179      1.0  0.91196  0.88705  0.75411  1.0000
  O  Te17      1.0  0.96031  0.86697  0.46380  1.0000
  O  Te18      1.0  0.99880  0.92933  0.43958  1.0000
  H   H180      1.0  0.94550  0.94141  0.73309  1.0000
  Mg  Mg9       1.0  0.99488  0.89330  0.36364  1.0000
  C   C223      1.0  0.77118  0.19633  0.00819  1.0000
  C   C224      1.0  0.79223  0.19432  0.08328  1.0000
  C  Sn19      1.0  0.80002  0.20781  0.19899  1.0000
  C  Sn20      1.0  0.78644  0.22359  0.24005  1.0000
  C   C225      1.0  0.76539  0.22546  0.16427  1.0000
  C   C226      1.0  0.75777  0.21188  0.04864  1.0000
  H   H181      1.0  0.77207  0.18614  0.91875  1.0000
  O  Te19      1.0  0.82110  0.20560  0.27282  1.0000
  O  Te20      1.0  0.79381  0.23728  0.35530  1.0000
  H   H182      1.0  0.74826  0.21375  0.99056  1.0000
  Mg  Mg10      1.0  0.82377  0.22802  0.42247  1.0000
  C   C227      1.0  0.88321  0.12761  0.16213  1.0000
  C   C228      1.0  0.86450  0.13031  0.07523  1.0000
  C  Sn21      1.0  0.86438  0.11543  0.96345  1.0000
  C  Sn22      1.0  0.87645  0.09720  0.93848  1.0000
  C   C229      1.0  0.88832  0.09430  0.02606  1.0000
  C   C230      1.0  0.89510  0.10962  0.13760  1.0000
  H   H183      1.0  0.88844  0.13945  0.24846  1.0000
  O  Te21      1.0  0.84566  0.11839  0.87763  1.0000
  O  Te22      1.0  0.86989  0.08175  0.82753  1.0000
  H   H184      1.0  0.90958  0.10750  0.20490  1.0000
  Mg  Mg11      1.0  0.84329  0.09291  0.73973  1.0000
  C   C231      1.0  0.85196  0.10090  0.43386  1.0000
  C   C232      1.0  0.85265  0.11800  0.53274  1.0000
  C  Sn23      1.0  0.87302  0.12464  0.63036  1.0000
  C  Sn24      1.0  0.89304  0.11393  0.62870  1.0000
  C   C233      1.0  0.89219  0.09686  0.52932  1.0000
  C   C234      1.0  0.87171  0.09034  0.43213  1.0000
  H   H185      1.0  0.83613  0.09587  0.35863  1.0000
  O  Te23      1.0  0.87340  0.14175  0.72845  1.0000
  O  Te24      1.0  0.91364  0.12024  0.72505  1.0000
  H   H186      1.0  0.87120  0.07711  0.35555  1.0000
  Mg  Mg12      1.0  0.90554  0.14442  0.83826  1.0000
