data_image0
_chemical_formula_structural       H192C192N36SnCSn2CSnTe4Mg2SnCSn2CSnTe4Mg2SnCSn2CSnTe4Mg2SnCSn2CSnTe4Mg2SnCSn2CSnTe4Mg2SnCSn2CSnTe4Mg2SnCSn2CSnTe4Mg2SnCSn2CSnTe4Mg2SnCSn2CSnTe4Mg2SnCSn2CSnTe4Mg2SnCSn2CSnTe4Mg2SnCSn2CSnTe4Mg2
_chemical_formula_sum              "H192 C216 N36 Sn48 Te48 Mg24"
_cell_length_a       51.8069
_cell_length_b       51.8112
_cell_length_c       8.27607
_cell_angle_alpha    89.2159
_cell_angle_beta     90.2821
_cell_angle_gamma    120.098

_symmetry_space_group_name_H-M    'P1'
_space_group_IT_number       1

loop_
  _space_group_symop_operation_xyz
  'x, y, z'

loop_
  _atom_site_type_symbol
  _atom_site_label
  _atom_site_symmetry_multiplicity
  _atom_site_fract_x
  _atom_site_fract_y
  _atom_site_fract_z
  _atom_site_occupancy
  H   H1        1.0  0.30497  0.11357  0.45553  1.0000
  H   H2        1.0  0.88650  0.19190  0.45554  1.0000
  H   H3        1.0  0.81055  0.69372  0.45986  1.0000
  H   H4        1.0  0.35801  0.13460  0.52344  1.0000
  H   H5        1.0  0.86432  0.22257  0.52586  1.0000
  H   H6        1.0  0.78007  0.64060  0.53315  1.0000
  H   H7        1.0  0.75725  0.60414  0.26186  1.0000
  H   H8        1.0  0.72727  0.54909  0.29986  1.0000
  H   H9        1.0  0.79727  0.53966  0.08448  1.0000
  H   H10       1.0  0.82691  0.59467  0.04066  1.0000
  H   H11       1.0  0.25767  0.09736  0.12013  1.0000
  H   H12       1.0  0.90431  0.16398  0.09243  1.0000
  H   H13       1.0  0.83654  0.74037  0.09615  1.0000
  H   H14       1.0  0.20322  0.07251  0.06021  1.0000
  H   H15       1.0  0.92762  0.13293  0.03847  1.0000
  H   H16       1.0  0.86584  0.79474  0.02727  1.0000
  H   H17       1.0  0.93560  0.78173  0.30598  1.0000
  H   H18       1.0  0.90664  0.72778  0.37446  1.0000
  H   H19       1.0  0.49847  0.21896  0.25153  1.0000
  H   H20       1.0  0.78071  0.28103  0.24522  1.0000
  H   H21       1.0  0.71921  0.49916  0.25008  1.0000
  H   H22       1.0  0.16797  0.11266  0.35978  1.0000
  H   H23       1.0  0.88987  0.05762  0.34090  1.0000
  H   H24       1.0  0.94413  0.83208  0.33199  1.0000
  H   H25       1.0  0.96312  0.87321  0.02247  1.0000
  H   H26       1.0  0.99396  0.92821  0.02049  1.0000
  H   H27       1.0  0.06743  0.99712  0.23753  1.0000
  H   H28       1.0  0.92987  0.93381  0.22323  1.0000
  H   H29       1.0  0.12249  0.02089  0.25967  1.0000
  H   H30       1.0  0.89841  0.87863  0.23252  1.0000
  H   H31       1.0  0.63996  0.36189  0.18857  1.0000
  H   H32       1.0  0.63684  0.27742  0.18070  1.0000
  H   H33       1.0  0.72128  0.35895  0.18653  1.0000
  H   H34       1.0  0.02511  0.96995  0.37545  1.0000
  H   H35       1.0  0.02992  0.05514  0.38619  1.0000
  H   H36       1.0  0.94465  0.97466  0.37397  1.0000
  H   H37       1.0  0.37522  0.23489  0.26179  1.0000
  H   H38       1.0  0.76693  0.14468  0.25593  1.0000
  H   H39       1.0  0.85589  0.62368  0.27013  1.0000
  H   H40       1.0  0.35235  0.26810  0.28161  1.0000
  H   H41       1.0  0.73409  0.09021  0.27771  1.0000
  H   H42       1.0  0.91060  0.64543  0.28611  1.0000
  H   H43       1.0  0.33828  0.31306  0.08520  1.0000
  H   H44       1.0  0.68808  0.03582  0.18395  1.0000
  H   H45       1.0  0.96687  0.65601  0.18225  1.0000
  H   H46       1.0  0.35082  0.30472  0.49663  1.0000
  H   H47       1.0  0.69478  0.04135  0.47307  1.0000
  H   H48       1.0  0.95511  0.65009  0.45689  1.0000
  H   H49       1.0  0.39498  0.35364  0.08521  1.0000
  H   H50       1.0  0.65311  0.05957  0.03332  1.0000
  H   H51       1.0  0.91831  0.57997  0.22567  1.0000
  H   H52       1.0  0.40780  0.34687  0.27230  1.0000
  H   H53       1.0  0.66325  0.08732  0.18342  1.0000
  H   H54       1.0  0.95432  0.61111  0.26205  1.0000
  H   H55       1.0  0.37254  0.34484  0.26311  1.0000
  H   H56       1.0  0.65600  0.05107  0.23994  1.0000
  H   H57       1.0  0.94405  0.59679  0.06278  1.0000
  H   H58       1.0  0.39741  0.30056  0.42696  1.0000
  H   H59       1.0  0.69872  0.09313  0.41028  1.0000
  H   H60       1.0  0.90356  0.59916  0.43969  1.0000
  H   H61       1.0  0.38373  0.27646  0.07208  1.0000
  H   H62       1.0  0.73628  0.11139  0.01189  1.0000
  H   H63       1.0  0.88977  0.62384  0.02541  1.0000
  H   H64       1.0  0.41358  0.30659  0.17551  1.0000
  H   H65       1.0  0.71015  0.12249  0.06352  1.0000
  H   H66       1.0  0.88044  0.58769  0.09617  1.0000
  H   H67       1.0  0.28058  0.26621  0.07143  1.0000
  H   H68       1.0  0.73739  0.02347  0.03325  1.0000
  H   H69       1.0  0.97615  0.71780  0.03855  1.0000
  H   H70       1.0  0.27554  0.28638  0.34590  1.0000
  H   H71       1.0  0.71706  0.98917  0.27695  1.0000
  H   H72       1.0  0.01221  0.73043  0.27011  1.0000
  H   H73       1.0  0.30458  0.31149  0.21717  1.0000
  H   H74       1.0  0.69106  0.99577  0.17281  1.0000
  H   H75       1.0  0.00532  0.69872  0.15926  1.0000
  H   H76       1.0  0.31269  0.29527  0.38481  1.0000
  H   H77       1.0  0.70615  0.01347  0.35939  1.0000
  H   H78       1.0  0.98887  0.69432  0.35219  1.0000
  H   H79       1.0  0.27933  0.22918  0.36553  1.0000
  H   H80       1.0  0.77150  0.05129  0.34427  1.0000
  H   H81       1.0  0.95104  0.72107  0.36613  1.0000
  H   H82       1.0  0.26473  0.21592  0.17290  1.0000
  H   H83       1.0  0.78629  0.05644  0.14802  1.0000
  H   H84       1.0  0.94289  0.73100  0.17612  1.0000
  H   H85       1.0  0.24869  0.23255  0.29392  1.0000
  H   H86       1.0  0.77004  0.02050  0.24327  1.0000
  H   H87       1.0  0.97984  0.75132  0.25545  1.0000
  H   H88       1.0  0.31371  0.25106  0.01758  1.0000
  H   H89       1.0  0.74741  0.07001  0.00627  1.0000
  H   H90       1.0  0.93090  0.67968  0.01315  1.0000
  H   H91       1.0  0.30360  0.11458  0.97461  1.0000
  H   H92       1.0  0.88681  0.19274  0.95349  1.0000
  H   H93       1.0  0.80767  0.69399  0.94782  1.0000
  H   H94       1.0  0.35691  0.13671  0.03919  1.0000
  H   H95       1.0  0.86567  0.22441  0.02393  1.0000
  H   H96       1.0  0.77626  0.64099  0.02352  1.0000
  H   H97       1.0  0.39540  0.15217  0.76806  1.0000
  H   H98       1.0  0.84652  0.24060  0.75489  1.0000
  H   H99       1.0  0.45043  0.17742  0.80368  1.0000
  H   H100      1.0  0.82213  0.27099  0.79000  1.0000
  H   H101      1.0  0.46029  0.25645  0.57165  1.0000
  H   H102      1.0  0.74202  0.20196  0.57355  1.0000
  H   H103      1.0  0.40519  0.23119  0.53393  1.0000
  H   H104      1.0  0.76661  0.17169  0.53505  1.0000
  H   H105      1.0  0.83812  0.74030  0.58667  1.0000
  H   H106      1.0  0.86735  0.79456  0.51818  1.0000
  H   H107      1.0  0.21701  0.15194  0.81299  1.0000
  H   H108      1.0  0.84559  0.06608  0.82593  1.0000
  H   H109      1.0  0.93116  0.78072  0.78803  1.0000
  H   H110      1.0  0.27122  0.17669  0.87167  1.0000
  H   H111      1.0  0.82244  0.09699  0.87825  1.0000
  H   H112      1.0  0.90213  0.72677  0.85481  1.0000
  H   H113      1.0  0.50033  0.21938  0.75465  1.0000
  H   H114      1.0  0.78007  0.27926  0.74430  1.0000
  H   H115      1.0  0.72235  0.49994  0.76192  1.0000
  H   H116      1.0  0.16661  0.11074  0.84904  1.0000
  H   H117      1.0  0.88625  0.05605  0.85989  1.0000
  H   H118      1.0  0.94111  0.83126  0.82340  1.0000
  H   H119      1.0  0.54140  0.24086  0.53803  1.0000
  H   H120      1.0  0.75872  0.29923  0.53579  1.0000
  H   H121      1.0  0.59655  0.26630  0.53747  1.0000
  H   H122      1.0  0.73374  0.32929  0.53483  1.0000
  H   H123      1.0  0.60009  0.33599  0.83011  1.0000
  H   H124      1.0  0.66337  0.26260  0.83189  1.0000
  H   H125      1.0  0.54489  0.31146  0.82052  1.0000
  H   H126      1.0  0.68746  0.23161  0.82375  1.0000
  H   H127      1.0  0.12462  0.08950  0.55474  1.0000
  H   H128      1.0  0.96391  0.87355  0.53008  1.0000
  H   H129      1.0  0.06966  0.06503  0.54096  1.0000
  H   H130      1.0  0.99470  0.92855  0.52721  1.0000
  H   H131      1.0  0.92796  0.93387  0.72894  1.0000
  H   H132      1.0  0.89628  0.87870  0.73927  1.0000
  H   H133      1.0  0.64154  0.36259  0.68759  1.0000
  H   H134      1.0  0.63730  0.27764  0.68290  1.0000
  H   H135      1.0  0.72231  0.35849  0.68774  1.0000
  H   H136      1.0  0.02354  0.96974  0.87401  1.0000
  H   H137      1.0  0.02839  0.05496  0.88739  1.0000
  H   H138      1.0  0.94309  0.97440  0.88331  1.0000
  H   H139      1.0  0.37630  0.23035  0.77986  1.0000
  H   H140      1.0  0.76645  0.14153  0.75648  1.0000
  H   H141      1.0  0.86122  0.62404  0.76376  1.0000
  H   H142      1.0  0.35572  0.26377  0.79984  1.0000
  H   H143      1.0  0.73387  0.08679  0.77504  1.0000
  H   H144      1.0  0.91581  0.64644  0.78184  1.0000
  H   H145      1.0  0.34750  0.31150  0.70211  1.0000
  H   H146      1.0  0.68786  0.02999  0.67788  1.0000
  H   H147      1.0  0.97224  0.65577  0.64791  1.0000
  H   H148      1.0  0.35075  0.29672  0.94374  1.0000
  H   H149      1.0  0.69494  0.04405  0.97555  1.0000
  H   H150      1.0  0.95530  0.65244  0.97893  1.0000
  H   H151      1.0  0.40640  0.34680  0.57004  1.0000
  H   H152      1.0  0.65098  0.05223  0.55001  1.0000
  H   H153      1.0  0.94623  0.59477  0.56619  1.0000
  H   H154      1.0  0.42395  0.33659  0.72360  1.0000
  H   H155      1.0  0.65987  0.07849  0.70737  1.0000
  H   H156      1.0  0.92280  0.58109  0.73971  1.0000
  H   H157      1.0  0.39427  0.34288  0.77498  1.0000
  H   H158      1.0  0.65487  0.04260  0.75307  1.0000
  H   H159      1.0  0.95960  0.61199  0.75763  1.0000
  H   H160      1.0  0.40348  0.31207  0.97648  1.0000
  H   H161      1.0  0.70329  0.09883  0.89368  1.0000
  H   H162      1.0  0.90382  0.60339  0.92209  1.0000
  H   H163      1.0  0.37635  0.26544  0.52864  1.0000
  H   H164      1.0  0.73259  0.10792  0.52234  1.0000
  H   H165      1.0  0.89289  0.62302  0.53465  1.0000
  H   H166      1.0  0.41326  0.29076  0.59257  1.0000
  H   H167      1.0  0.70449  0.11583  0.58308  1.0000
  H   H168      1.0  0.88355  0.58827  0.62710  1.0000
  H   H169      1.0  0.28535  0.26068  0.55069  1.0000
  H   H170      1.0  0.73942  0.02069  0.53677  1.0000
  H   H171      1.0  0.98536  0.71567  0.54376  1.0000
  H   H172      1.0  0.27122  0.28213  0.77919  1.0000
  H   H173      1.0  0.70600  0.01114  0.85490  1.0000
  H   H174      1.0  0.98529  0.69107  0.88177  1.0000
  H   H175      1.0  0.30469  0.30809  0.68158  1.0000
  H   H176      1.0  0.72056  0.98843  0.79589  1.0000
  H   H177      1.0  0.01279  0.72686  0.81479  1.0000
  H   H178      1.0  0.30573  0.29293  0.87312  1.0000
  H   H179      1.0  0.69366  0.99062  0.67400  1.0000
  H   H180      1.0  0.00818  0.69507  0.71426  1.0000
  H   H181      1.0  0.27917  0.22927  0.87512  1.0000
  H   H182      1.0  0.77089  0.04824  0.85464  1.0000
  H   H183      1.0  0.95291  0.72233  0.83445  1.0000
  H   H184      1.0  0.27082  0.21273  0.68334  1.0000
  H   H185      1.0  0.78761  0.05695  0.66171  1.0000
  H   H186      1.0  0.95042  0.73221  0.63393  1.0000
  H   H187      1.0  0.25010  0.22898  0.75955  1.0000
  H   H188      1.0  0.77289  0.02009  0.74415  1.0000
  H   H189      1.0  0.98524  0.75145  0.73765  1.0000
  H   H190      1.0  0.32288  0.25279  0.52588  1.0000
  H   H191      1.0  0.74663  0.06639  0.50201  1.0000
  H   H192      1.0  0.93647  0.68139  0.50610  1.0000
  C   C1        1.0  0.30018  0.15284  0.03715  1.0000
  C   C2        1.0  0.84854  0.15120  0.02534  1.0000
  C   C3        1.0  0.84922  0.69789  0.02183  1.0000
  C   C4        1.0  0.31685  0.13532  0.51208  1.0000
  C   C5        1.0  0.86424  0.18113  0.50809  1.0000
  C   C6        1.0  0.82139  0.68232  0.51330  1.0000
  C   C7        1.0  0.34576  0.14937  0.06154  1.0000
  C   C8        1.0  0.85289  0.20055  0.04914  1.0000
  C   C9        1.0  0.80005  0.65228  0.04868  1.0000
  C   C10       1.0  0.36276  0.17855  0.12077  1.0000
  C   C11       1.0  0.82408  0.18858  0.11500  1.0000
  C   C12       1.0  0.81214  0.63570  0.11795  1.0000
  C   C13       1.0  0.34710  0.19385  0.14019  1.0000
  C   C14       1.0  0.80861  0.15760  0.13900  1.0000
  C   C15       1.0  0.84307  0.65167  0.14143  1.0000
  C   C16       1.0  0.31684  0.18219  0.09556  1.0000
  C   C17       1.0  0.81955  0.13878  0.09017  1.0000
  C   C18       1.0  0.86182  0.68159  0.08951  1.0000
  C   C19       1.0  0.79439  0.60346  0.15067  1.0000
  C   C20       1.0  0.87016  0.73013  0.48328  1.0000
  C   C21       1.0  0.76593  0.59003  0.22199  1.0000
  C   C22       1.0  0.74923  0.55916  0.24357  1.0000
  C   C23       1.0  0.76052  0.54076  0.19587  1.0000
  C   C24       1.0  0.78904  0.55413  0.12477  1.0000
  C   C25       1.0  0.80551  0.58478  0.10270  1.0000
  C   C26       1.0  0.24873  0.10901  0.04993  1.0000
  C   C27       1.0  0.89182  0.14291  0.02979  1.0000
  C   C28       1.0  0.85694  0.74927  0.02518  1.0000
  C   C29       1.0  0.87531  0.77954  0.48410  1.0000
  C   C30       1.0  0.90318  0.79170  0.40632  1.0000
  C   C31       1.0  0.91418  0.77263  0.36756  1.0000
  C   C32       1.0  0.89804  0.74232  0.40621  1.0000
  C   C33       1.0  0.48979  0.23348  0.21061  1.0000
  C   C34       1.0  0.76673  0.25800  0.20308  1.0000
  C   C35       1.0  0.74273  0.50842  0.21480  1.0000
  C   C36       1.0  0.17603  0.09756  0.39945  1.0000
  C   C37       1.0  0.90438  0.08019  0.38815  1.0000
  C   C38       1.0  0.92099  0.82367  0.37213  1.0000
  C   C39       1.0  0.12734  0.05727  0.40386  1.0000
  C   C40       1.0  0.92932  0.87224  0.37819  1.0000
  C   C41       1.0  0.11211  0.06985  0.48063  1.0000
  C   C42       1.0  0.95700  0.88678  0.45827  1.0000
  C   C43       1.0  0.08112  0.05593  0.47282  1.0000
  C   C44       1.0  0.97425  0.91781  0.45672  1.0000
  C   C45       1.0  0.06434  0.02940  0.38647  1.0000
  C   C46       1.0  0.96483  0.93547  0.37345  1.0000
  C   C47       1.0  0.07982  0.01712  0.30923  1.0000
  C   C48       1.0  0.93725  0.92070  0.29248  1.0000
  C   C49       1.0  0.11064  0.03041  0.31996  1.0000
  C   C50       1.0  0.91957  0.88979  0.29644  1.0000
  C   C51       1.0  0.03144  0.01435  0.38055  1.0000
  C   C52       1.0  0.98559  0.01701  0.37805  1.0000
  C   C53       1.0  0.98280  0.96843  0.37407  1.0000
  C   C54       1.0  0.63441  0.31778  0.18466  1.0000
  C   C55       1.0  0.68086  0.31617  0.18280  1.0000
  C   C56       1.0  0.68264  0.36426  0.18772  1.0000
  C   C57       1.0  0.65135  0.34908  0.18694  1.0000
  C   C58       1.0  0.64956  0.30167  0.18258  1.0000
  C   C59       1.0  0.69704  0.34744  0.18552  1.0000
  C   C60       1.0  0.01408  0.98311  0.37613  1.0000
  C   C61       1.0  0.01681  0.03094  0.38118  1.0000
  C   C62       1.0  0.96888  0.98574  0.37473  1.0000
  C   C63       1.0  0.33113  0.22588  0.19257  1.0000
  C   C64       1.0  0.77602  0.10952  0.19404  1.0000
  C   C65       1.0  0.89106  0.66776  0.19832  1.0000
  C   C66       1.0  0.32011  0.26517  0.12445  1.0000
  C   C67       1.0  0.73519  0.06064  0.11970  1.0000
  C   C68       1.0  0.94022  0.67680  0.12658  1.0000
  C   C69       1.0  0.34588  0.29694  0.07254  1.0000
  C   C70       1.0  0.70247  0.05334  0.09727  1.0000
  C   C71       1.0  0.94795  0.65163  0.10470  1.0000
  C   C72       1.0  0.38791  0.33996  0.19722  1.0000
  C   C73       1.0  0.66589  0.06852  0.14585  1.0000
  C   C74       1.0  0.93581  0.60137  0.17546  1.0000
  C   C75       1.0  0.39469  0.30054  0.09337  1.0000
  C   C76       1.0  0.71242  0.10394  0.01729  1.0000
  C   C77       1.0  0.89834  0.60845  0.04201  1.0000
  C   C78       1.0  0.29130  0.26444  0.18289  1.0000
  C   C79       1.0  0.73766  0.03221  0.15381  1.0000
  C   C80       1.0  0.96834  0.70805  0.15955  1.0000
  C   C81       1.0  0.29645  0.29080  0.28841  1.0000
  C   C82       1.0  0.71150  0.00649  0.24595  1.0000
  C   C83       1.0  0.99493  0.70760  0.23999  1.0000
  C   C84       1.0  0.26969  0.23383  0.25852  1.0000
  C   C85       1.0  0.76811  0.04051  0.22679  1.0000
  C   C86       1.0  0.96006  0.72906  0.24449  1.0000
  C   C87       1.0  0.30156  0.15113  0.53303  1.0000
  C   C88       1.0  0.84858  0.14977  0.52302  1.0000
  C   C89       1.0  0.85272  0.69827  0.52770  1.0000
  C   C90       1.0  0.31558  0.13700  0.02308  1.0000
  C   C91       1.0  0.86471  0.18249  0.00766  1.0000
  C   C92       1.0  0.81796  0.68231  0.00434  1.0000
  C   C93       1.0  0.34696  0.14713  0.55200  1.0000
  C   C94       1.0  0.85182  0.19867  0.54988  1.0000
  C   C95       1.0  0.80392  0.65223  0.55698  1.0000
  C   C96       1.0  0.36387  0.17550  0.62108  1.0000
  C   C97       1.0  0.82285  0.18615  0.61474  1.0000
  C   C98       1.0  0.81647  0.63587  0.62317  1.0000
  C   C99       1.0  0.34814  0.19050  0.64876  1.0000
  C   C100      1.0  0.80790  0.15511  0.63574  1.0000
  C   C101      1.0  0.84747  0.65210  0.64354  1.0000
  C   C102      1.0  0.31823  0.17980  0.60009  1.0000
  C   C103      1.0  0.81931  0.13673  0.58522  1.0000
  C   C104      1.0  0.86583  0.68214  0.59191  1.0000
  C   C105      1.0  0.39622  0.18986  0.64956  1.0000
  C   C106      1.0  0.80832  0.20379  0.64481  1.0000
  C   C107      1.0  0.26820  0.13869  0.99903  1.0000
  C   C108      1.0  0.86189  0.13282  0.98691  1.0000
  C   C109      1.0  0.86711  0.72977  0.97872  1.0000
  C   C110      1.0  0.40956  0.17490  0.72374  1.0000
  C   C111      1.0  0.82368  0.23217  0.71474  1.0000
  C   C112      1.0  0.44043  0.18914  0.74396  1.0000
  C   C113      1.0  0.80987  0.24910  0.73480  1.0000
  C   C114      1.0  0.45896  0.21874  0.69073  1.0000
  C   C115      1.0  0.78015  0.23820  0.68619  1.0000
  C   C116      1.0  0.44573  0.23379  0.61582  1.0000
  C   C117      1.0  0.76467  0.20983  0.61558  1.0000
  C   C118      1.0  0.41506  0.21962  0.59629  1.0000
  C   C119      1.0  0.77847  0.19305  0.59581  1.0000
  C   C120      1.0  0.85911  0.74930  0.52123  1.0000
  C   C121      1.0  0.21842  0.09512  0.01766  1.0000
  C   C122      1.0  0.90484  0.12565  0.00128  1.0000
  C   C123      1.0  0.87324  0.77952  0.98840  1.0000
  C   C124      1.0  0.20655  0.11045  0.93220  1.0000
  C   C125      1.0  0.88829  0.09764  0.92791  1.0000
  C   C126      1.0  0.90038  0.79131  0.90354  1.0000
  C   C127      1.0  0.22593  0.14002  0.88108  1.0000
  C   C128      1.0  0.85849  0.08758  0.88444  1.0000
  C   C129      1.0  0.91048  0.77189  0.85659  1.0000
  C   C130      1.0  0.25634  0.15406  0.91441  1.0000
  C   C131      1.0  0.84537  0.10484  0.91377  1.0000
  C   C132      1.0  0.89424  0.74154  0.89430  1.0000
  C   C133      1.0  0.49127  0.23338  0.71019  1.0000
  C   C134      1.0  0.76579  0.25607  0.70527  1.0000
  C   C135      1.0  0.74558  0.50877  0.72212  1.0000
  C   C136      1.0  0.17463  0.09623  0.89927  1.0000
  C   C137      1.0  0.90155  0.07902  0.89942  1.0000
  C   C138      1.0  0.91838  0.82326  0.86924  1.0000
  C   C139      1.0  0.53939  0.27409  0.68332  1.0000
  C   C140      1.0  0.72514  0.26362  0.68337  1.0000
  C   C141      1.0  0.92766  0.87215  0.87945  1.0000
  C   C142      1.0  0.55432  0.26127  0.60588  1.0000
  C   C143      1.0  0.73822  0.29161  0.60425  1.0000
  C   C144      1.0  0.58538  0.27569  0.60575  1.0000
  C   C145      1.0  0.72405  0.30845  0.60362  1.0000
  C   C146      1.0  0.60258  0.30294  0.68522  1.0000
  C   C147      1.0  0.69674  0.29832  0.68413  1.0000
  C   C148      1.0  0.58738  0.31544  0.76324  1.0000
  C   C149      1.0  0.68393  0.27039  0.76375  1.0000
  C   C150      1.0  0.55647  0.30171  0.75972  1.0000
  C   C151      1.0  0.69746  0.25306  0.76103  1.0000
  C   C152      1.0  0.95582  0.88652  0.95455  1.0000
  C   C153      1.0  0.97313  0.91754  0.95325  1.0000
  C   C154      1.0  0.96334  0.93530  0.87459  1.0000
  C   C155      1.0  0.93549  0.92068  0.79615  1.0000
  C   C156      1.0  0.91771  0.88979  0.80047  1.0000
  C   C157      1.0  0.02995  0.01412  0.88142  1.0000
  C   C158      1.0  0.98403  0.01676  0.88454  1.0000
  C   C159      1.0  0.98125  0.96822  0.87708  1.0000
  C   C160      1.0  0.63552  0.31829  0.68504  1.0000
  C   C161      1.0  0.68159  0.31604  0.68410  1.0000
  C   C162      1.0  0.68400  0.36444  0.68798  1.0000
  C   C163      1.0  0.65271  0.34957  0.68662  1.0000
  C   C164      1.0  0.65034  0.30188  0.68378  1.0000
  C   C165      1.0  0.69808  0.34731  0.68612  1.0000
  C   C166      1.0  0.01253  0.98290  0.87685  1.0000
  C   C167      1.0  0.01530  0.03073  0.88406  1.0000
  C   C168      1.0  0.96733  0.98549  0.88168  1.0000
  C   C169      1.0  0.33273  0.22259  0.70992  1.0000
  C   C170      1.0  0.77571  0.10680  0.68684  1.0000
  C   C171      1.0  0.89580  0.66841  0.69285  1.0000
  C   C172      1.0  0.32544  0.26420  0.64061  1.0000
  C   C173      1.0  0.73515  0.05722  0.61739  1.0000
  C   C174      1.0  0.94512  0.67703  0.61800  1.0000
  C   C175      1.0  0.35124  0.29709  0.62131  1.0000
  C   C176      1.0  0.70195  0.04890  0.59794  1.0000
  C   C177      1.0  0.95147  0.65096  0.58746  1.0000
  C   C178      1.0  0.40244  0.33366  0.68282  1.0000
  C   C179      1.0  0.66372  0.06080  0.66311  1.0000
  C   C180      1.0  0.93996  0.60146  0.67883  1.0000
  C   C181      1.0  0.39261  0.28911  0.54573  1.0000
  C   C182      1.0  0.70843  0.09857  0.53265  1.0000
  C   C183      1.0  0.90083  0.60728  0.55724  1.0000
  C   C184      1.0  0.29426  0.26135  0.67209  1.0000
  C   C185      1.0  0.73900  0.02966  0.65568  1.0000
  C   C186      1.0  0.97371  0.70697  0.65980  1.0000
  C   C187      1.0  0.29432  0.28765  0.75627  1.0000
  C   C188      1.0  0.71334  0.00377  0.74990  1.0000
  C   C189      1.0  0.99600  0.70460  0.77345  1.0000
  C   C190      1.0  0.27234  0.23137  0.75232  1.0000
  C   C191      1.0  0.76942  0.03927  0.73347  1.0000
  C   C192      1.0  0.96521  0.72964  0.71981  1.0000
  N   N1        1.0  0.50724  0.26155  0.18110  1.0000
  N   N2        1.0  0.73863  0.24691  0.17467  1.0000
  N   N3        1.0  0.75389  0.49141  0.19074  1.0000
  N   N4        1.0  0.15815  0.06924  0.41722  1.0000
  N   N5        1.0  0.93240  0.09021  0.41373  1.0000
  N   N6        1.0  0.91037  0.84133  0.38874  1.0000
  N   N7        1.0  0.30772  0.20270  0.12843  1.0000
  N   N8        1.0  0.79867  0.10910  0.12421  1.0000
  N   N9        1.0  0.89148  0.69073  0.12443  1.0000
  N   N10       1.0  0.35592  0.22204  0.20143  1.0000
  N   N11       1.0  0.78084  0.13839  0.20779  1.0000
  N   N12       1.0  0.86230  0.64339  0.21261  1.0000
  N   N13       1.0  0.33217  0.25180  0.23947  1.0000
  N   N14       1.0  0.74955  0.08468  0.24145  1.0000
  N   N15       1.0  0.91588  0.66644  0.24825  1.0000
  N   N16       1.0  0.37353  0.30790  0.16777  1.0000
  N   N17       1.0  0.69762  0.07845  0.12928  1.0000
  N   N18       1.0  0.92399  0.62155  0.15173  1.0000
  N   N19       1.0  0.50839  0.26142  0.67861  1.0000
  N   N20       1.0  0.73760  0.24513  0.67951  1.0000
  N   N21       1.0  0.75622  0.49139  0.69590  1.0000
  N   N22       1.0  0.15672  0.06816  0.92589  1.0000
  N   N23       1.0  0.92971  0.08903  0.91831  1.0000
  N   N24       1.0  0.90843  0.84131  0.89210  1.0000
  N   N25       1.0  0.30954  0.20048  0.63750  1.0000
  N   N26       1.0  0.79859  0.10687  0.61657  1.0000
  N   N27       1.0  0.89569  0.69146  0.62315  1.0000
  N   N28       1.0  0.35687  0.21784  0.72008  1.0000
  N   N29       1.0  0.78011  0.13547  0.70255  1.0000
  N   N30       1.0  0.86713  0.64396  0.71025  1.0000
  N   N31       1.0  0.33465  0.24879  0.76116  1.0000
  N   N32       1.0  0.74953  0.08181  0.73551  1.0000
  N   N33       1.0  0.92080  0.66708  0.73908  1.0000
  N   N34       1.0  0.38105  0.30184  0.66274  1.0000
  N   N35       1.0  0.69575  0.07264  0.64256  1.0000
  N   N36       1.0  0.92845  0.62180  0.65191  1.0000
  C  Sn1       1.0  0.10363  0.02952  0.77908  1.0000
  C   C193      1.0  0.12328  0.05500  0.86476  1.0000
  C  Sn2       1.0  0.11245  0.06688  0.97870  1.0000
  C  Sn3       1.0  0.08173  0.05539  0.00768  1.0000
  C   C194      1.0  0.06168  0.02752  0.92206  1.0000
  C  Sn4       1.0  0.07250  0.01563  0.80807  1.0000
  O  Te1       1.0  0.11496  0.01802  0.66575  1.0000
  O  Te2       1.0  0.13294  0.09478  0.06282  1.0000
  O  Te3       1.0  0.07041  0.06691  0.12112  1.0000
  O  Te4       1.0  0.55396  0.99014  0.72400  1.0000
  Mg  Mg1       1.0  0.10668  0.10202  0.20515  1.0000
  Mg  Mg2       1.0  0.58019  0.98287  0.58171  1.0000
  C  Sn5       1.0  0.43821  0.23752  0.14842  1.0000
  C   C195      1.0  0.45402  0.22497  0.21893  1.0000
  C  Sn6       1.0  0.44025  0.19418  0.24482  1.0000
  C  Sn7       1.0  0.41006  0.17553  0.19919  1.0000
  C   C196      1.0  0.39427  0.18807  0.12870  1.0000
  C  Sn8       1.0  0.40802  0.21887  0.10279  1.0000
  O  Te5       1.0  0.45243  0.26836  0.12367  1.0000
  O  Te6       1.0  0.45651  0.18215  0.31556  1.0000
  O  Te7       1.0  0.39585  0.14466  0.22401  1.0000
  O  Te8       1.0  0.39177  0.23090  0.03207  1.0000
  Mg  Mg3       1.0  0.42735  0.13884  0.32441  1.0000
  Mg  Mg4       1.0  0.42092  0.27420  0.02309  1.0000
  C  Sn9       1.0  0.96762  0.07395  0.77177  1.0000
  C   C197      1.0  0.94243  0.06828  0.86092  1.0000
  C  Sn10      1.0  0.93124  0.04618  0.98152  1.0000
  C  Sn11      1.0  0.94596  0.03182  0.01376  1.0000
  C   C198      1.0  0.97073  0.03510  0.92467  1.0000
  C  Sn12      1.0  0.98193  0.05719  0.80402  1.0000
  O  Te9       1.0  0.97842  0.09614  0.65178  1.0000
  O  Te10      1.0  0.90643  0.04330  0.06900  1.0000
  O  Te11      1.0  0.93514  0.00961  0.13387  1.0000
  O  Te12      1.0  0.00714  0.06247  0.71659  1.0000
  Mg  Mg5       1.0  0.90017  0.01073  0.22035  1.0000
  Mg  Mg6       1.0  0.01343  0.09505  0.56528  1.0000
  C  Sn13      1.0  0.84518  0.09559  0.42674  1.0000
  C   C199      1.0  0.85721  0.12271  0.50750  1.0000
  C  Sn14      1.0  0.88790  0.13967  0.53472  1.0000
  C  Sn15      1.0  0.90697  0.12931  0.47999  1.0000
  C   C200      1.0  0.89494  0.10221  0.39927  1.0000
  C  Sn16      1.0  0.86425  0.08523  0.37202  1.0000
  O  Te13      1.0  0.81443  0.07901  0.40085  1.0000
  O  Te14      1.0  0.89941  0.16671  0.61578  1.0000
  O  Te15      1.0  0.93773  0.14592  0.50596  1.0000
  O  Te16      1.0  0.85274  0.05821  0.29099  1.0000
  Mg  Mg7       1.0  0.94278  0.18131  0.62206  1.0000
  Mg  Mg8       1.0  0.80937  0.04361  0.28457  1.0000
  C  Sn17      1.0  0.73087  0.41828  0.81953  1.0000
  C   C201      1.0  0.70336  0.40082  0.74407  1.0000
  C  Sn18      1.0  0.69335  0.41329  0.62625  1.0000
  C  Sn19      1.0  0.71122  0.44386  0.58286  1.0000
  C   C202      1.0  0.73871  0.46131  0.65828  1.0000
  C  Sn20      1.0  0.74873  0.44885  0.77614  1.0000
  O  Te17      1.0  0.74043  0.40534  0.93699  1.0000
  O  Te18      1.0  0.66577  0.39538  0.55254  1.0000
  O  Te19      1.0  0.70163  0.45679  0.46531  1.0000
  O  Te20      1.0  0.77630  0.46674  0.84981  1.0000
  Mg  Mg9       1.0  0.66243  0.42325  0.39934  1.0000
  Mg  Mg10      1.0  0.78008  0.44129  0.00295  1.0000
  C  Sn21      1.0  0.69007  0.26984  0.30754  1.0000
  C   C203      1.0  0.69898  0.29741  0.23284  1.0000
  C  Sn22      1.0  0.72062  0.30820  0.11111  1.0000
  C  Sn23      1.0  0.73361  0.29107  0.06294  1.0000
  C   C204      1.0  0.72470  0.26351  0.13760  1.0000
  C  Sn24      1.0  0.70307  0.25271  0.25937  1.0000
  O  Te21      1.0  0.66840  0.25949  0.42896  1.0000
  O  Te22      1.0  0.72917  0.33583  0.03825  1.0000
  O  Te23      1.0  0.75488  0.29905  0.94142  1.0000
  O  Te24      1.0  0.69452  0.22509  0.33219  1.0000
  Mg  Mg11      1.0  0.75912  0.33799  0.87847  1.0000
  Mg  Mg12      1.0  0.66414  0.22051  0.49192  1.0000
  C  Sn25      1.0  0.69830  0.43967  0.14364  1.0000
  C   C205      1.0  0.72578  0.45745  0.21866  1.0000
  C  Sn26      1.0  0.74282  0.44502  0.27270  1.0000
  C  Sn27      1.0  0.73217  0.41419  0.25123  1.0000
  C   C206      1.0  0.70470  0.39642  0.17622  1.0000
  C  Sn28      1.0  0.68765  0.40883  0.12216  1.0000
  O  Te25      1.0  0.68164  0.45256  0.09055  1.0000
  O  Te26      1.0  0.77022  0.46325  0.34741  1.0000
  O  Te27      1.0  0.74885  0.40130  0.30439  1.0000
  O  Te28      1.0  0.66026  0.39062  0.04747  1.0000
  Mg  Mg13      1.0  0.78478  0.43532  0.39904  1.0000
  Mg  Mg14      1.0  0.64528  0.41614  0.99572  1.0000
  C  Sn29      1.0  0.93483  0.02352  0.43091  1.0000
  C   C207      1.0  0.96186  0.03051  0.35771  1.0000
  C  Sn30      1.0  0.98227  0.05992  0.31267  1.0000
  C  Sn31      1.0  0.97553  0.08282  0.34149  1.0000
  C   C208      1.0  0.94851  0.07583  0.41467  1.0000
  C  Sn32      1.0  0.92809  0.04642  0.45973  1.0000
  O  Te29      1.0  0.41628  0.99396  0.47495  1.0000
  O  Te30      1.0  0.00914  0.06636  0.23962  1.0000
  O  Te31      1.0  0.99563  0.11240  0.29738  1.0000
  O  Te32      1.0  0.90123  0.03998  0.53277  1.0000
  Mg  Mg15      1.0  0.02928  0.11001  0.20150  1.0000
  Mg  Mg16      1.0  0.38260  0.99634  0.57101  1.0000
  C  Sn33      1.0  0.23572  0.14298  0.34565  1.0000
  C   C209      1.0  0.21299  0.11410  0.38467  1.0000
  C  Sn34      1.0  0.21804  0.09667  0.49641  1.0000
  C  Sn35      1.0  0.24638  0.10834  0.57079  1.0000
  C   C210      1.0  0.26909  0.13721  0.53178  1.0000
  C  Sn36      1.0  0.26407  0.15466  0.42003  1.0000
  O  Te33      1.0  0.23018  0.16002  0.23361  1.0000
  O  Te34      1.0  0.19497  0.06785  0.53343  1.0000
  O  Te35      1.0  0.25191  0.09128  0.68289  1.0000
  O  Te36      1.0  0.28711  0.18346  0.38302  1.0000
  Mg  Mg17      1.0  0.21341  0.05331  0.69363  1.0000
  Mg  Mg18      1.0  0.26869  0.19803  0.22291  1.0000
  C  Sn37      1.0  0.82012  0.23526  0.27185  1.0000
  C   C211      1.0  0.80903  0.20796  0.19390  1.0000
  C  Sn38      1.0  0.78427  0.19761  0.09234  1.0000
  C  Sn39      1.0  0.77031  0.21492  0.06810  1.0000
  C   C212      1.0  0.78139  0.24220  0.14600  1.0000
  C  Sn40      1.0  0.80615  0.25256  0.24761  1.0000
  O  Te37      1.0  0.84490  0.24517  0.37284  1.0000
  O  Te38      1.0  0.77359  0.17025  0.01577  1.0000
  O  Te39      1.0  0.74509  0.20258  0.96701  1.0000
  O  Te40      1.0  0.81683  0.27991  0.32413  1.0000
  Mg  Mg19      1.0  0.73883  0.16388  0.88961  1.0000
  Mg  Mg20      1.0  0.85119  0.28392  0.45024  1.0000
  C  Sn41      1.0  0.57751  0.27480  0.05953  1.0000
  C   C213      1.0  0.59787  0.30150  0.13328  1.0000
  C  Sn42      1.0  0.58835  0.31390  0.25137  1.0000
  C  Sn43      1.0  0.55783  0.29929  0.29677  1.0000
  C   C214      1.0  0.53748  0.27260  0.22306  1.0000
  C  Sn44      1.0  0.54699  0.26018  0.10493  1.0000
  O  Te41      1.0  0.58712  0.26041  0.94176  1.0000
  O  Te42      1.0  0.60912  0.34063  0.32335  1.0000
  O  Te43      1.0  0.54782  0.31130  0.41464  1.0000
  O  Te44      1.0  0.52624  0.23347  0.03299  1.0000
  Mg  Mg21      1.0  0.58462  0.34813  0.47775  1.0000
  Mg  Mg22      1.0  0.55030  0.22355  0.87864  1.0000
  C  Sn45      1.0  0.75162  0.56610  0.71277  1.0000
  C   C215      1.0  0.75836  0.54421  0.66849  1.0000
  C  Sn46      1.0  0.78753  0.55205  0.62711  1.0000
  C  Sn47      1.0  0.81044  0.58240  0.63013  1.0000
  C   C216      1.0  0.80370  0.60428  0.67441  1.0000
  C  Sn48      1.0  0.77453  0.59646  0.71579  1.0000
  O  Te45      1.0  0.72231  0.55775  0.75369  1.0000
  O  Te46      1.0  0.79373  0.52976  0.58320  1.0000
  O  Te47      1.0  0.83977  0.59074  0.58916  1.0000
  O  Te48      1.0  0.76834  0.61872  0.75971  1.0000
  Mg  Mg23      1.0  0.83710  0.55228  0.53765  1.0000
  Mg  Mg24      1.0  0.72497  0.59623  0.80535  1.0000
