data_image0
_chemical_formula_structural       H150C186N30O6C2Sn2C2HTe2HMgC2Sn2C2HTe2HMgC2Sn2C2HTe2HMgC2Sn2C2HTe2HMgC2Sn2C2HTe2HMgC2Sn2C2HTe2HMgC2Sn2C2HTe2HMgC2Sn2C2HTe2HMgC2Sn2C2HTe2HMgC2Sn2C2HTe2HMgC2Sn2C2HTe2HMgC2Sn2C2HTe2HMgC2Sn2C2HTe2HMgC2Sn2C2HTe2HMgC2Sn2C2HTe2HMg
_chemical_formula_sum              "H180 C246 N30 O6 Sn30 Te30 Mg15"
_cell_length_a       51.4208
_cell_length_b       51.4078
_cell_length_c       8.17305
_cell_angle_alpha    88.9358
_cell_angle_beta     89.7278
_cell_angle_gamma    120.009

_symmetry_space_group_name_H-M    'P1'
_space_group_IT_number       1

loop_
  _space_group_symop_operation_xyz
  'x, y, z'

loop_
  _atom_site_type_symbol
  _atom_site_label
  _atom_site_symmetry_multiplicity
  _atom_site_fract_x
  _atom_site_fract_y
  _atom_site_fract_z
  _atom_site_occupancy
  H   H1        1.0  0.30381  0.11620  0.20697  1.0000
  H   H2        1.0  0.88689  0.18766  0.15735  1.0000
  H   H3        1.0  0.81229  0.69754  0.18475  1.0000
  H   H4        1.0  0.35533  0.13650  0.30424  1.0000
  H   H5        1.0  0.86734  0.21987  0.25045  1.0000
  H   H6        1.0  0.78040  0.64492  0.27723  1.0000
  H   H7        1.0  0.90412  0.72446  0.01874  1.0000
  H   H8        1.0  0.22001  0.15870  0.44120  1.0000
  H   H9        1.0  0.84196  0.06426  0.44966  1.0000
  H   H10       1.0  0.93979  0.77960  0.45865  1.0000
  H   H11       1.0  0.87560  0.79859  0.20313  1.0000
  H   H12       1.0  0.84584  0.74511  0.29818  1.0000
  H   H13       1.0  0.84672  0.23335  0.50767  1.0000
  H   H14       1.0  0.76685  0.60810  0.53722  1.0000
  H   H15       1.0  0.43960  0.17920  0.09484  1.0000
  H   H16       1.0  0.74652  0.20632  0.28887  1.0000
  H   H17       1.0  0.79599  0.53923  0.28135  1.0000
  H   H18       1.0  0.77025  0.17588  0.21932  1.0000
  H   H19       1.0  0.82588  0.59430  0.22262  1.0000
  H   H20       1.0  0.17199  0.11875  0.97674  1.0000
  H   H21       1.0  0.88479  0.05299  0.96117  1.0000
  H   H22       1.0  0.94675  0.83010  0.94989  1.0000
  H   H23       1.0  0.49106  0.22315  0.08577  1.0000
  H   H24       1.0  0.77744  0.27290  0.05071  1.0000
  H   H25       1.0  0.72663  0.50323  0.07567  1.0000
  H   H26       1.0  0.12419  0.09421  0.14151  1.0000
  H   H27       1.0  0.06931  0.06850  0.10462  1.0000
  H   H28       1.0  0.06990  0.99959  0.32076  1.0000
  H   H29       1.0  0.12491  0.02467  0.36130  1.0000
  H   H30       1.0  0.69297  0.45729  0.06328  1.0000
  H   H31       1.0  0.66510  0.40212  0.08603  1.0000
  H   H32       1.0  0.60153  0.33425  0.28855  1.0000
  H   H33       1.0  0.73643  0.39955  0.28135  1.0000
  H   H34       1.0  0.54594  0.30672  0.26695  1.0000
  H   H35       1.0  0.76410  0.45530  0.25528  1.0000
  H   H36       1.0  0.02693  0.05542  0.44884  1.0000
  H   H37       1.0  0.94317  0.97218  0.44143  1.0000
  H   H38       1.0  0.02638  0.97157  0.44981  1.0000
  H   H39       1.0  0.63903  0.27645  0.46096  1.0000
  H   H40       1.0  0.72339  0.35932  0.44807  1.0000
  H   H41       1.0  0.64059  0.36072  0.44261  1.0000
  H   H42       1.0  0.37754  0.24102  0.44370  1.0000
  H   H43       1.0  0.76306  0.13917  0.42712  1.0000
  H   H44       1.0  0.86193  0.62213  0.43778  1.0000
  H   H45       1.0  0.34243  0.26843  0.49884  1.0000
  H   H46       1.0  0.73435  0.07668  0.49448  1.0000
  H   H47       1.0  0.92407  0.65626  0.49915  1.0000
  H   H48       1.0  0.33583  0.31258  0.35483  1.0000
  H   H49       1.0  0.68932  0.02629  0.36989  1.0000
  H   H50       1.0  0.97513  0.66414  0.38004  1.0000
  H   H51       1.0  0.31448  0.30213  0.17189  1.0000
  H   H52       1.0  0.69850  0.01436  0.18513  1.0000
  H   H53       1.0  0.98865  0.68638  0.19607  1.0000
  H   H54       1.0  0.36624  0.29745  0.21871  1.0000
  H   H55       1.0  0.70436  0.07141  0.22432  1.0000
  H   H56       1.0  0.93277  0.63284  0.23108  1.0000
  H   H57       1.0  0.28370  0.26735  0.01296  1.0000
  H   H58       1.0  0.73510  0.02039  0.01845  1.0000
  H   H59       1.0  0.98183  0.71157  0.01135  1.0000
  H   H60       1.0  0.28210  0.23548  0.48802  1.0000
  H   H61       1.0  0.76678  0.04813  0.47579  1.0000
  H   H62       1.0  0.95089  0.71686  0.48361  1.0000
  H   H63       1.0  0.25894  0.28907  0.36312  1.0000
  H   H64       1.0  0.70908  0.97193  0.37258  1.0000
  H   H65       1.0  0.21125  0.27432  0.21896  1.0000
  H   H66       1.0  0.72036  0.93658  0.22686  1.0000
  H   H67       1.0  0.18233  0.22349  0.10028  1.0000
  H   H68       1.0  0.77059  0.95529  0.09575  1.0000
  H   H69       1.0  0.03081  0.81855  0.06048  1.0000
  H   H70       1.0  0.20177  0.18795  0.12370  1.0000
  H   H71       1.0  0.80905  0.00951  0.10796  1.0000
  H   H72       1.0  0.24967  0.20304  0.26605  1.0000
  H   H73       1.0  0.79747  0.04477  0.25205  1.0000
  H   H74       1.0  0.30688  0.25053  0.19954  1.0000
  H   H75       1.0  0.75060  0.05774  0.19290  1.0000
  H   H76       1.0  0.94343  0.69248  0.19386  1.0000
  H   H77       1.0  0.29991  0.11676  0.69540  1.0000
  H   H78       1.0  0.88403  0.18806  0.66881  1.0000
  H   H79       1.0  0.81390  0.69538  0.66691  1.0000
  H   H80       1.0  0.35142  0.13671  0.79221  1.0000
  H   H81       1.0  0.86313  0.21901  0.76228  1.0000
  H   H82       1.0  0.78243  0.64337  0.76676  1.0000
  H   H83       1.0  0.27288  0.18282  0.52920  1.0000
  H   H84       1.0  0.81809  0.09353  0.53358  1.0000
  H   H85       1.0  0.91000  0.72582  0.54076  1.0000
  H   H86       1.0  0.93366  0.77761  0.92550  1.0000
  H   H87       1.0  0.20027  0.07758  0.70398  1.0000
  H   H88       1.0  0.92393  0.12765  0.67832  1.0000
  H   H89       1.0  0.87276  0.79555  0.67388  1.0000
  H   H90       1.0  0.25313  0.10198  0.79736  1.0000
  H   H91       1.0  0.89999  0.15700  0.76481  1.0000
  H   H92       1.0  0.84327  0.74178  0.76153  1.0000
  H   H93       1.0  0.38541  0.15611  0.03203  1.0000
  H   H94       1.0  0.82266  0.26329  0.58001  1.0000
  H   H95       1.0  0.73799  0.55335  0.60193  1.0000
  H   H96       1.0  0.45851  0.25765  0.80723  1.0000
  H   H97       1.0  0.40416  0.23498  0.74728  1.0000
  H   H98       1.0  0.16800  0.11726  0.46183  1.0000
  H   H99       1.0  0.88284  0.05363  0.46473  1.0000
  H   H100      1.0  0.94905  0.83127  0.47192  1.0000
  H   H101      1.0  0.49531  0.22639  0.60056  1.0000
  H   H102      1.0  0.77806  0.26986  0.58045  1.0000
  H   H103      1.0  0.73344  0.50265  0.58897  1.0000
  H   H104      1.0  0.12133  0.09358  0.63260  1.0000
  H   H105      1.0  0.06644  0.06786  0.60096  1.0000
  H   H106      1.0  0.07401  0.00212  0.81296  1.0000
  H   H107      1.0  0.12877  0.02686  0.85954  1.0000
  H   H108      1.0  0.54070  0.23514  0.57114  1.0000
  H   H109      1.0  0.69607  0.45822  0.54863  1.0000
  H   H110      1.0  0.59566  0.26249  0.59503  1.0000
  H   H111      1.0  0.66900  0.40311  0.57819  1.0000
  H   H112      1.0  0.73304  0.39846  0.79409  1.0000
  H   H113      1.0  0.76145  0.45424  0.77466  1.0000
  H   H114      1.0  0.03062  0.05701  0.94032  1.0000
  H   H115      1.0  0.94682  0.97381  0.94424  1.0000
  H   H116      1.0  0.03005  0.97315  0.94836  1.0000
  H   H117      1.0  0.63470  0.27547  0.94917  1.0000
  H   H118      1.0  0.71908  0.35811  0.95258  1.0000
  H   H119      1.0  0.63646  0.35993  0.94624  1.0000
  H   H120      1.0  0.37392  0.24100  0.93777  1.0000
  H   H121      1.0  0.75858  0.13597  0.92581  1.0000
  H   H122      1.0  0.86451  0.62202  0.93951  1.0000
  H   H123      1.0  0.34384  0.27183  0.97652  1.0000
  H   H124      1.0  0.72920  0.07414  0.98108  1.0000
  H   H125      1.0  0.92657  0.65544  0.99589  1.0000
  H   H126      1.0  0.32981  0.31150  0.88808  1.0000
  H   H127      1.0  0.69034  0.02134  0.89289  1.0000
  H   H128      1.0  0.97862  0.66597  0.87740  1.0000
  H   H129      1.0  0.30522  0.30248  0.72001  1.0000
  H   H130      1.0  0.69972  0.00677  0.72112  1.0000
  H   H131      1.0  0.99175  0.68931  0.69701  1.0000
  H   H132      1.0  0.36339  0.30945  0.70929  1.0000
  H   H133      1.0  0.69638  0.06007  0.71456  1.0000
  H   H134      1.0  0.93731  0.63383  0.72711  1.0000
  H   H135      1.0  0.29016  0.27304  0.50156  1.0000
  H   H136      1.0  0.72893  0.01972  0.50764  1.0000
  H   H137      1.0  0.98243  0.71191  0.49495  1.0000
  H   H138      1.0  0.27978  0.23172  0.98023  1.0000
  H   H139      1.0  0.77099  0.05120  0.96884  1.0000
  H   H140      1.0  0.95276  0.71964  0.97272  1.0000
  H   H141      1.0  0.03029  0.73987  0.86741  1.0000
  H   H142      1.0  0.06529  0.78601  0.70708  1.0000
  H   H143      1.0  0.18011  0.21754  0.57636  1.0000
  H   H144      1.0  0.77718  0.96082  0.56988  1.0000
  H   H145      1.0  0.04590  0.81600  0.56464  1.0000
  H   H146      1.0  0.99150  0.79937  0.58261  1.0000
  H   H147      1.0  0.95662  0.75314  0.74286  1.0000
  H   H148      1.0  0.30403  0.25374  0.69263  1.0000
  H   H149      1.0  0.74893  0.05456  0.69242  1.0000
  H   H150      1.0  0.94595  0.69386  0.69739  1.0000
  C   C1        1.0  0.31595  0.13927  0.24765  1.0000
  C   C2        1.0  0.86395  0.17718  0.20452  1.0000
  C   C3        1.0  0.82290  0.68504  0.22855  1.0000
  C   C4        1.0  0.34527  0.15075  0.30331  1.0000
  C   C5        1.0  0.85294  0.19558  0.25820  1.0000
  C   C6        1.0  0.80470  0.65519  0.28230  1.0000
  C   C7        1.0  0.36282  0.18067  0.35232  1.0000
  C   C8        1.0  0.82326  0.18363  0.31641  1.0000
  C   C9        1.0  0.81690  0.63749  0.33635  1.0000
  C   C10       1.0  0.34826  0.19755  0.34524  1.0000
  C   C11       1.0  0.80607  0.15221  0.31828  1.0000
  C   C12       1.0  0.84835  0.65222  0.33530  1.0000
  C   C13       1.0  0.31892  0.18669  0.28462  1.0000
  C   C14       1.0  0.81631  0.13317  0.25818  1.0000
  C   C15       1.0  0.86719  0.68193  0.27435  1.0000
  C   C16       1.0  0.30175  0.15662  0.23486  1.0000
  C   C17       1.0  0.84629  0.14559  0.20168  1.0000
  C   C18       1.0  0.85448  0.69933  0.22051  1.0000
  C   C19       1.0  0.87263  0.73086  0.16364  1.0000
  C   C20       1.0  0.81000  0.20212  0.36139  1.0000
  C   C21       1.0  0.79877  0.60522  0.37788  1.0000
  C   C22       1.0  0.89795  0.74060  0.06083  1.0000
  C   C23       1.0  0.91455  0.77057  0.00857  1.0000
  C   C24       1.0  0.90654  0.79171  0.05818  1.0000
  C   C25       1.0  0.88123  0.78201  0.16145  1.0000
  C   C26       1.0  0.86462  0.75213  0.21299  1.0000
  C   C27       1.0  0.82485  0.22750  0.45917  1.0000
  C   C28       1.0  0.77329  0.59308  0.48121  1.0000
  C   C29       1.0  0.81129  0.24426  0.49961  1.0000
  C   C30       1.0  0.75707  0.56229  0.51709  1.0000
  C   C31       1.0  0.78286  0.23669  0.43902  1.0000
  C   C32       1.0  0.76510  0.54260  0.44521  1.0000
  C   C33       1.0  0.76818  0.21162  0.33828  1.0000
  C   C34       1.0  0.79031  0.55465  0.33933  1.0000
  C   C35       1.0  0.78139  0.19460  0.30175  1.0000
  C   C36       1.0  0.80696  0.58534  0.30836  1.0000
  C   C37       1.0  0.17908  0.10319  0.02562  1.0000
  C   C38       1.0  0.89997  0.07562  0.00691  1.0000
  C   C39       1.0  0.92462  0.82321  0.00575  1.0000
  C   C40       1.0  0.48895  0.23470  0.49169  1.0000
  C   C41       1.0  0.76863  0.25432  0.47837  1.0000
  C   C42       1.0  0.74766  0.51022  0.47759  1.0000
  C   C43       1.0  0.13042  0.06254  0.00079  1.0000
  C   C44       1.0  0.53930  0.26956  0.42044  1.0000
  C   C45       1.0  0.73276  0.46075  0.40419  1.0000
  C   C46       1.0  0.11330  0.07455  0.06523  1.0000
  C   C47       1.0  0.08232  0.05995  0.04422  1.0000
  C   C48       1.0  0.06378  0.03171  0.45796  1.0000
  C   C49       1.0  0.08099  0.01995  0.39146  1.0000
  C   C50       1.0  0.11187  0.03400  0.41257  1.0000
  C   C51       1.0  0.70203  0.44463  0.00463  1.0000
  C   C52       1.0  0.68611  0.41342  0.01609  1.0000
  C   C53       1.0  0.60287  0.30068  0.44517  1.0000
  C   C54       1.0  0.70085  0.39709  0.43410  1.0000
  C   C55       1.0  0.58822  0.31302  0.35518  1.0000
  C   C56       1.0  0.72809  0.41239  0.34496  1.0000
  C   C57       1.0  0.55716  0.29769  0.34175  1.0000
  C   C58       1.0  0.74361  0.44354  0.32902  1.0000
  C   C59       1.0  0.03067  0.01548  0.44691  1.0000
  C   C60       1.0  0.98319  0.01579  0.44353  1.0000
  C   C61       1.0  0.98286  0.96798  0.44334  1.0000
  C   C62       1.0  0.63597  0.31670  0.45273  1.0000
  C   C63       1.0  0.68317  0.31587  0.45612  1.0000
  C   C64       1.0  0.68398  0.36393  0.44621  1.0000
  C   C65       1.0  0.01470  0.03102  0.44508  1.0000
  C   C66       1.0  0.96759  0.98426  0.44117  1.0000
  C   C67       1.0  0.01436  0.98396  0.44557  1.0000
  C   C68       1.0  0.65165  0.30087  0.45819  1.0000
  C   C69       1.0  0.69898  0.34742  0.45090  1.0000
  C   C70       1.0  0.65248  0.34821  0.44780  1.0000
  C   C71       1.0  0.33418  0.23209  0.36133  1.0000
  C   C72       1.0  0.77088  0.10388  0.34735  1.0000
  C   C73       1.0  0.89683  0.66607  0.35755  1.0000
  C   C74       1.0  0.31382  0.26488  0.30637  1.0000
  C   C75       1.0  0.73675  0.05082  0.30469  1.0000
  C   C76       1.0  0.95005  0.68602  0.30773  1.0000
  C   C77       1.0  0.32940  0.29781  0.24891  1.0000
  C   C78       1.0  0.70357  0.03396  0.25860  1.0000
  C   C79       1.0  0.96835  0.67092  0.26681  1.0000
  C   C80       1.0  0.28582  0.25526  0.41552  1.0000
  C   C81       1.0  0.74621  0.03221  0.41321  1.0000
  C   C82       1.0  0.96746  0.71457  0.40966  1.0000
  C   C83       1.0  0.25743  0.24705  0.32420  1.0000
  C   C84       1.0  0.75247  0.01066  0.32175  1.0000
  C   C85       1.0  0.24649  0.26702  0.30904  1.0000
  C   C86       1.0  0.73084  0.98016  0.31258  1.0000
  C   C87       1.0  0.21952  0.25860  0.22941  1.0000
  C   C88       1.0  0.73731  0.96023  0.23229  1.0000
  C   C89       1.0  0.20320  0.23005  0.16354  1.0000
  C   C90       1.0  0.76555  0.97066  0.15963  1.0000
  C   C91       1.0  0.21415  0.21009  0.17658  1.0000
  C   C92       1.0  0.78714  0.00116  0.16624  1.0000
  C   C93       1.0  0.24105  0.21853  0.25622  1.0000
  C   C94       1.0  0.78065  0.02099  0.24667  1.0000
  C   C95       1.0  0.31221  0.13981  0.73612  1.0000
  C   C96       1.0  0.86090  0.17700  0.71370  1.0000
  C   C97       1.0  0.82472  0.68339  0.71535  1.0000
  C   C98       1.0  0.34142  0.15101  0.79230  1.0000
  C   C99       1.0  0.84908  0.19466  0.76747  1.0000
  C   C100      1.0  0.80674  0.65382  0.77267  1.0000
  C   C101      1.0  0.35902  0.18087  0.84251  1.0000
  C   C102      1.0  0.81903  0.18208  0.82174  1.0000
  C   C103      1.0  0.81904  0.63645  0.83185  1.0000
  C   C104      1.0  0.34476  0.19800  0.83394  1.0000
  C   C105      1.0  0.80236  0.15059  0.82139  1.0000
  C   C106      1.0  0.85051  0.65139  0.83146  1.0000
  C   C107      1.0  0.31568  0.18759  0.77044  1.0000
  C   C108      1.0  0.81356  0.13227  0.76182  1.0000
  C   C109      1.0  0.86916  0.68101  0.76827  1.0000
  C   C110      1.0  0.29831  0.15745  0.72194  1.0000
  C   C111      1.0  0.84374  0.14540  0.70745  1.0000
  C   C112      1.0  0.85635  0.69808  0.71025  1.0000
  C   C113      1.0  0.26710  0.14398  0.66666  1.0000
  C   C114      1.0  0.85735  0.12767  0.65351  1.0000
  C   C115      1.0  0.87426  0.72970  0.65511  1.0000
  C   C116      1.0  0.39071  0.19399  0.88704  1.0000
  C   C117      1.0  0.25707  0.15992  0.56908  1.0000
  C   C118      1.0  0.84114  0.10100  0.56667  1.0000
  C   C119      1.0  0.90195  0.74105  0.57167  1.0000
  C   C120      1.0  0.22732  0.14624  0.51928  1.0000
  C   C121      1.0  0.85464  0.08455  0.51972  1.0000
  C   C122      1.0  0.91860  0.77132  0.52537  1.0000
  C   C123      1.0  0.20670  0.11629  0.56501  1.0000
  C   C124      1.0  0.88464  0.09403  0.55851  1.0000
  C   C125      1.0  0.90807  0.79118  0.56000  1.0000
  C   C126      1.0  0.21657  0.10038  0.66415  1.0000
  C   C127      1.0  0.90093  0.12070  0.64538  1.0000
  C   C128      1.0  0.88040  0.77992  0.64364  1.0000
  C   C129      1.0  0.24614  0.11404  0.71434  1.0000
  C   C130      1.0  0.88751  0.13711  0.69188  1.0000
  C   C131      1.0  0.86393  0.74983  0.69049  1.0000
  C   C132      1.0  0.40136  0.17827  0.98188  1.0000
  C   C133      1.0  0.43180  0.19126  0.01699  1.0000
  C   C134      1.0  0.45273  0.21996  0.95367  1.0000
  C   C135      1.0  0.44218  0.23568  0.85786  1.0000
  C   C136      1.0  0.41183  0.22305  0.82680  1.0000
  C   C137      1.0  0.17554  0.10222  0.51306  1.0000
  C   C138      1.0  0.89820  0.07614  0.51146  1.0000
  C   C139      1.0  0.92563  0.82289  0.51160  1.0000
  C   C140      1.0  0.48476  0.23324  0.98472  1.0000
  C   C141      1.0  0.76555  0.25475  0.96356  1.0000
  C   C142      1.0  0.74385  0.50992  0.97881  1.0000
  C   C143      1.0  0.12704  0.06116  0.49639  1.0000
  C   C144      1.0  0.72975  0.45979  0.91900  1.0000
  C   C145      1.0  0.11016  0.07351  0.55965  1.0000
  C   C146      1.0  0.07913  0.05885  0.54167  1.0000
  C   C147      1.0  0.06733  0.03331  0.95595  1.0000
  C   C148      1.0  0.08479  0.02199  0.88761  1.0000
  C   C149      1.0  0.11556  0.03591  0.91201  1.0000
  C   C150      1.0  0.55384  0.25700  0.51034  1.0000
  C   C151      1.0  0.70531  0.44555  0.49202  1.0000
  C   C152      1.0  0.58497  0.27233  0.52208  1.0000
  C   C153      1.0  0.68980  0.41436  0.50658  1.0000
  C   C154      1.0  0.69703  0.39607  0.94297  1.0000
  C   C155      1.0  0.72465  0.41128  0.85744  1.0000
  C   C156      1.0  0.74055  0.44246  0.84491  1.0000
  C   C157      1.0  0.03424  0.01701  0.94338  1.0000
  C   C158      1.0  0.98678  0.01734  0.93988  1.0000
  C   C159      1.0  0.98641  0.96948  0.94404  1.0000
  C   C160      1.0  0.63171  0.31583  0.94846  1.0000
  C   C161      1.0  0.67877  0.31481  0.95208  1.0000
  C   C162      1.0  0.67979  0.36292  0.95066  1.0000
  C   C163      1.0  0.01830  0.03259  0.93968  1.0000
  C   C164      1.0  0.97124  0.98583  0.94157  1.0000
  C   C165      1.0  0.01794  0.98545  0.94397  1.0000
  C   C166      1.0  0.64728  0.29989  0.95092  1.0000
  C   C167      1.0  0.69467  0.34631  0.95303  1.0000
  C   C168      1.0  0.64829  0.34734  0.94927  1.0000
  C   C169      1.0  0.33145  0.23319  0.84678  1.0000
  C   C170      1.0  0.76798  0.10174  0.84577  1.0000
  C   C171      1.0  0.89920  0.66599  0.85730  1.0000
  C   C172      1.0  0.31027  0.26551  0.80824  1.0000
  C   C173      1.0  0.73665  0.04822  0.80929  1.0000
  C   C174      1.0  0.95265  0.68722  0.81027  1.0000
  C   C175      1.0  0.32281  0.29900  0.77351  1.0000
  C   C176      1.0  0.70331  0.02753  0.77704  1.0000
  C   C177      1.0  0.97157  0.67299  0.76603  1.0000
  C   C178      1.0  0.28165  0.25166  0.91793  1.0000
  C   C179      1.0  0.75035  0.03320  0.91637  1.0000
  C   C180      1.0  0.96958  0.71555  0.91382  1.0000
  C   C181      1.0  0.99111  0.74334  0.81548  1.0000
  C   C182      1.0  0.02179  0.75279  0.80345  1.0000
  C   C183      1.0  0.04151  0.77890  0.71446  1.0000
  C   C184      1.0  0.03072  0.79585  0.63547  1.0000
  C   C185      1.0  0.00010  0.78646  0.64542  1.0000
  C   C186      1.0  0.98048  0.76044  0.73477  1.0000
  N   N1        1.0  0.16092  0.07453  0.03398  1.0000
  N   N2        1.0  0.92860  0.08625  0.01464  1.0000
  N   N3        1.0  0.91523  0.84205  0.02405  1.0000
  N   N4        1.0  0.50830  0.25595  0.39574  1.0000
  N   N5        1.0  0.74571  0.25082  0.39610  1.0000
  N   N6        1.0  0.74977  0.49194  0.37896  1.0000
  N   N7        1.0  0.35745  0.22667  0.39425  1.0000
  N   N8        1.0  0.77699  0.13282  0.37627  1.0000
  N   N9        1.0  0.86794  0.64270  0.38929  1.0000
  N   N10       1.0  0.31097  0.20890  0.29494  1.0000
  N   N11       1.0  0.79370  0.10317  0.27669  1.0000
  N   N12       1.0  0.89729  0.68979  0.28852  1.0000
  N   N13       1.0  0.33711  0.26015  0.38336  1.0000
  N   N14       1.0  0.74252  0.07926  0.37733  1.0000
  N   N15       1.0  0.92160  0.66263  0.38339  1.0000
  N   N16       1.0  0.15768  0.07355  0.52634  1.0000
  N   N17       1.0  0.92668  0.08621  0.52271  1.0000
  N   N18       1.0  0.91422  0.84027  0.51489  1.0000
  N   N19       1.0  0.50406  0.25590  0.89587  1.0000
  N   N20       1.0  0.74092  0.24932  0.89292  1.0000
  N   N21       1.0  0.74766  0.49093  0.89512  1.0000
  N   N22       1.0  0.35424  0.22720  0.88297  1.0000
  N   N23       1.0  0.77318  0.13039  0.87626  1.0000
  N   N24       1.0  0.87036  0.64245  0.88968  1.0000
  N   N25       1.0  0.30818  0.21018  0.77838  1.0000
  N   N26       1.0  0.79152  0.10202  0.77736  1.0000
  N   N27       1.0  0.89931  0.68931  0.78498  1.0000
  N   N28       1.0  0.33470  0.26119  0.86906  1.0000
  N   N29       1.0  0.74020  0.07647  0.87169  1.0000
  N   N30       1.0  0.92431  0.66342  0.88400  1.0000
  O   O1        1.0  0.35566  0.30489  0.15029  1.0000
  O   O2        1.0  0.69660  0.05326  0.15957  1.0000
  O   O3        1.0  0.95112  0.64507  0.16647  1.0000
  O   O4        1.0  0.34740  0.31117  0.65630  1.0000
  O   O5        1.0  0.69211  0.04134  0.66391  1.0000
  O   O6        1.0  0.95510  0.64758  0.66233  1.0000
  C   C187      1.0  0.93331  0.91287  0.87818  1.0000
  C   C188      1.0  0.96153  0.93273  0.94064  1.0000
  C  Sn1       1.0  0.98019  0.92624  0.03071  1.0000
  C  Sn2       1.0  0.96734  0.89483  0.05854  1.0000
  C   C189      1.0  0.93613  0.87071  0.99545  1.0000
  C   C190      1.0  0.92062  0.88188  0.90552  1.0000
  H   H151      1.0  0.92132  0.92151  0.80853  1.0000
  O  Te1       1.0  0.00836  0.94640  0.09228  1.0000
  O  Te2       1.0  0.98253  0.88330  0.14810  1.0000
  H   H152      1.0  0.89878  0.86650  0.85709  1.0000
  Mg  Mg1       1.0  0.02030  0.91980  0.20689  1.0000
  C   C191      1.0  0.41173  0.17877  0.51586  1.0000
  C   C192      1.0  0.39678  0.19034  0.42412  1.0000
  C  Sn3       1.0  0.41302  0.21801  0.34106  1.0000
  C  Sn4       1.0  0.44481  0.23435  0.35021  1.0000
  C   C193      1.0  0.45955  0.22257  0.44222  1.0000
  C   C194      1.0  0.44308  0.19486  0.52490  1.0000
  H   H153      1.0  0.39899  0.15733  0.57976  1.0000
  O  Te3       1.0  0.39773  0.22925  0.25001  1.0000
  O  Te4       1.0  0.46159  0.26205  0.26835  1.0000
  H   H154      1.0  0.45466  0.18590  0.59583  1.0000
  Mg  Mg2       1.0  0.43051  0.26798  0.16006  1.0000
  C   C195      1.0  0.79460  0.01377  0.66118  1.0000
  C   C196      1.0  0.27836  0.98253  0.64846  1.0000
  C  Sn5       1.0  0.24979  0.96592  0.72049  1.0000
  C  Sn6       1.0  0.23733  0.98092  0.80673  1.0000
  C   C197      1.0  0.75375  0.01218  0.81866  1.0000
  C   C198      1.0  0.78232  0.02859  0.74617  1.0000
  H   H155      1.0  0.81670  0.02647  0.60501  1.0000
  O  Te5       1.0  0.23386  0.93472  0.70666  1.0000
  O  Te6       1.0  0.20882  0.96486  0.87984  1.0000
  H   H156      1.0  0.79489  0.05278  0.75594  1.0000
  Mg  Mg3       1.0  0.19586  0.92269  0.82728  1.0000
  C   C199      1.0  0.97845  0.06838  0.36741  1.0000
  C   C200      1.0  0.97125  0.04060  0.43856  1.0000
  C  Sn7       1.0  0.94585  0.02515  0.53996  1.0000
  C  Sn8       1.0  0.92734  0.03779  0.57043  1.0000
  C   C201      1.0  0.93472  0.06558  0.49858  1.0000
  C   C202      1.0  0.96020  0.08086  0.39735  1.0000
  H   H157      1.0  0.99816  0.08019  0.28902  1.0000
  O  Te7       1.0  0.93899  0.99742  0.61010  1.0000
  O  Te8       1.0  0.90180  0.02282  0.67123  1.0000
  H   H158      1.0  0.96576  0.10236  0.34220  1.0000
  Mg  Mg4       1.0  0.40184  0.98564  0.73873  1.0000
  C   C203      1.0  0.92174  0.89393  0.38047  1.0000
  C   C204      1.0  0.92926  0.87454  0.46221  1.0000
  C  Sn9       1.0  0.95602  0.88607  0.54858  1.0000
  C  Sn10      1.0  0.97557  0.91761  0.55300  1.0000
  C   C205      1.0  0.96783  0.93682  0.47091  1.0000
  C   C206      1.0  0.94100  0.92504  0.38482  1.0000
  H   H159      1.0  0.90098  0.88482  0.31393  1.0000
  O  Te9       1.0  0.96320  0.86638  0.62952  1.0000
  O  Te10      1.0  0.00245  0.92974  0.63844  1.0000
  H   H160      1.0  0.93518  0.94006  0.32163  1.0000
  Mg  Mg5       1.0  0.00236  0.89372  0.72935  1.0000
  C   C207      1.0  0.89584  0.13496  0.19349  1.0000
  C   C208      1.0  0.86759  0.13089  0.15552  1.0000
  C  Sn11      1.0  0.84731  0.10598  0.06739  1.0000
  C  Sn12      1.0  0.85552  0.08479  0.01655  1.0000
  C   C209      1.0  0.88383  0.08906  0.05525  1.0000
  C   C210      1.0  0.90396  0.11407  0.14345  1.0000
  H   H161      1.0  0.91141  0.15431  0.26181  1.0000
  O  Te11      1.0  0.81917  0.10226  0.03044  1.0000
  O  Te12      1.0  0.83270  0.05524  0.92838  1.0000
  H   H162      1.0  0.92582  0.11721  0.17292  1.0000
  Mg  Mg6       1.0  0.79694  0.06000  0.90762  1.0000
  C   C211      1.0  0.23613  0.26364  0.78546  1.0000
  C   C212      1.0  0.25000  0.24708  0.82793  1.0000
  C  Sn13      1.0  0.23924  0.21827  0.76773  1.0000
  C  Sn14      1.0  0.21413  0.20587  0.66307  1.0000
  C   C213      1.0  0.20042  0.22262  0.62122  1.0000
  C   C214      1.0  0.21136  0.25143  0.68218  1.0000
  H   H163      1.0  0.24461  0.28593  0.83255  1.0000
  O  Te13      1.0  0.25336  0.20203  0.81144  1.0000
  O  Te14      1.0  0.20292  0.17712  0.60113  1.0000
  H   H164      1.0  0.20063  0.26425  0.64920  1.0000
  Mg  Mg7       1.0  0.22980  0.16378  0.69585  1.0000
  C   C215      1.0  0.79687  0.55903  0.83423  1.0000
  C   C216      1.0  0.77086  0.54445  0.93187  1.0000
  C  Sn15      1.0  0.76158  0.56518  0.00022  1.0000
  C  Sn16      1.0  0.77269  0.59220  0.96999  1.0000
  C   C217      1.0  0.79870  0.60657  0.87203  1.0000
  C   C218      1.0  0.81078  0.59006  0.80430  1.0000
  H   H165      1.0  0.80621  0.54626  0.78174  1.0000
  O  Te15      1.0  0.73558  0.55026  0.09754  1.0000
  O  Te16      1.0  0.76389  0.61346  0.03672  1.0000
  H   H166      1.0  0.83091  0.60135  0.72861  1.0000
  Mg  Mg8       1.0  0.72807  0.58295  0.16124  1.0000
  C   C219      1.0  0.68445  0.26554  0.83396  1.0000
  C   C220      1.0  0.69051  0.29022  0.92894  1.0000
  C  Sn17      1.0  0.71975  0.30881  0.01985  1.0000
  C  Sn18      1.0  0.74029  0.29800  0.01532  1.0000
  C   C221      1.0  0.73106  0.26886  0.91983  1.0000
  C   C222      1.0  0.70470  0.25487  0.82937  1.0000
  H   H167      1.0  0.66407  0.25472  0.76390  1.0000
  O  Te17      1.0  0.72545  0.33343  0.11414  1.0000
  O  Te18      1.0  0.76672  0.31172  0.10494  1.0000
  H   H168      1.0  0.70003  0.23577  0.75577  1.0000
  Mg  Mg9       1.0  0.76450  0.34456  0.21503  1.0000
  C   C223      1.0  0.68733  0.26473  0.35636  1.0000
  C   C224      1.0  0.69477  0.29094  0.44022  1.0000
  C  Sn19      1.0  0.72258  0.30684  0.51578  1.0000
  C  Sn20      1.0  0.74327  0.29625  0.50698  1.0000
  C   C225      1.0  0.73561  0.27002  0.42269  1.0000
  C   C226      1.0  0.70773  0.25427  0.34756  1.0000
  H   H169      1.0  0.66576  0.25255  0.29815  1.0000
  O  Te19      1.0  0.72966  0.33298  0.59912  1.0000
  O  Te20      1.0  0.77122  0.31172  0.58134  1.0000
  H   H170      1.0  0.70197  0.23399  0.28255  1.0000
  Mg  Mg10      1.0  0.77052  0.34620  0.68069  1.0000
  C   C227      1.0  0.97099  0.76462  0.22322  1.0000
  C   C228      1.0  0.98060  0.74532  0.28449  1.0000
  C  Sn21      1.0  0.01091  0.75357  0.27403  1.0000
  C  Sn22      1.0  0.03193  0.78167  0.20085  1.0000
  C   C229      1.0  0.02210  0.80083  0.14003  1.0000
  C   C230      1.0  0.99172  0.79235  0.15108  1.0000
  H   H171      1.0  0.94749  0.75807  0.23184  1.0000
  O  Te21      1.0  0.02012  0.73402  0.33580  1.0000
  O  Te22      1.0  0.06235  0.79048  0.18887  1.0000
  H   H172      1.0  0.98429  0.80730  0.10373  1.0000
  Mg  Mg11      1.0  0.06396  0.75608  0.29084  1.0000
  C   C231      1.0  0.24179  0.10654  0.22268  1.0000
  C   C232      1.0  0.26603  0.13510  0.18503  1.0000
  C  Sn23      1.0  0.26171  0.15575  0.09283  1.0000
  C  Sn24      1.0  0.23255  0.14759  0.03752  1.0000
  C   C233      1.0  0.20844  0.11898  0.07593  1.0000
  C   C234      1.0  0.21302  0.09848  0.16823  1.0000
  H   H173      1.0  0.24533  0.09069  0.29416  1.0000
  O  Te23      1.0  0.28618  0.18418  0.05626  1.0000
  O  Te24      1.0  0.22462  0.16336  0.94522  1.0000
  H   H174      1.0  0.19424  0.07638  0.19745  1.0000
  Mg  Mg12      1.0  0.26510  0.19944  0.92681  1.0000
  C   C235      1.0  0.82234  0.23467  0.96476  1.0000
  C   C236      1.0  0.80965  0.20681  0.88991  1.0000
  C  Sn25      1.0  0.78087  0.19405  0.82482  1.0000
  C  Sn26      1.0  0.76456  0.20953  0.83499  1.0000
  C   C237      1.0  0.77746  0.23740  0.91001  1.0000
  C   C238      1.0  0.80627  0.24995  0.97479  1.0000
  H   H175      1.0  0.84760  0.24884  0.01480  1.0000
  O  Te25      1.0  0.76853  0.16619  0.75051  1.0000
  O  Te26      1.0  0.73577  0.19729  0.77089  1.0000
  H   H176      1.0  0.81907  0.27598  0.03263  1.0000
  Mg  Mg13      1.0  0.72855  0.15875  0.68137  1.0000
  C   C239      1.0  0.56027  0.30445  0.83179  1.0000
  C   C240      1.0  0.53923  0.27574  0.89074  1.0000
  C  Sn27      1.0  0.54845  0.25894  0.98503  1.0000
  C  Sn28      1.0  0.58230  0.27563  0.02080  1.0000
  C   C241      1.0  0.60019  0.29995  0.96135  1.0000
  C   C242      1.0  0.59072  0.31655  0.86706  1.0000
  H   H177      1.0  0.55295  0.31731  0.75891  1.0000
  O  Te27      1.0  0.53011  0.23473  0.04291  1.0000
  O  Te28      1.0  0.59213  0.25934  0.11481  1.0000
  H   H178      1.0  0.60702  0.33879  0.82153  1.0000
  Mg  Mg14      1.0  0.55454  0.22125  0.16592  1.0000
  C   C243      1.0  0.98152  0.06966  0.86262  1.0000
  C   C244      1.0  0.97448  0.04188  0.93304  1.0000
  C  Sn29      1.0  0.95176  0.03042  0.03192  1.0000
  C  Sn30      1.0  0.93280  0.04261  0.06055  1.0000
  C   C245      1.0  0.93704  0.06597  0.98944  1.0000
  C   C246      1.0  0.96282  0.08170  0.89074  1.0000
  H   H179      1.0  0.00145  0.08183  0.78618  1.0000
  O  Te29      1.0  0.94507  0.00269  0.10138  1.0000
  O  Te30      1.0  0.90697  0.02719  0.15881  1.0000
  H   H180      1.0  0.96825  0.10320  0.83615  1.0000
  Mg  Mg15      1.0  0.40738  0.99020  0.22631  1.0000
