data_image0
_chemical_formula_structural       H90C96N30O6SnCSn2CSnTe4Mg2SnCSn2CSnTe4Mg2SnCSn2CSnTe4Mg2SnCSn2CSnTe4Mg2SnCSn2CSnTe4Mg2SnCSn2CSnTe4Mg2SnCSn2CSnTe4Mg2SnCSn2CSnTe4Mg2SnCSn2CSnTe4Mg2SnCSn2CSnTe4Mg2SnCSn2CSnTe4Mg2SnCSn2CSnTe4Mg2SnCSn2CSnTe4Mg2SnCSn2CSnTe4Mg2SnCSn2CSnTe4Mg2SnCSn2CSnTe4Mg2SnCSn2CSnTe4Mg2SnCSn2CSnTe4Mg2SnCSn2CSnTe4Mg2SnCSn2CSnTe4Mg2SnCSn2CSnTe4Mg2SnCSn2CSnTe4Mg2SnCSn2CSnTe4Mg2SnCSn2CSnTe4Mg2SnCSn2CSnTe4Mg2SnCSn2CSnTe4Mg2SnCSn2CSnTe4Mg2SnCSn2CSnTe4Mg2SnCSn2CSnTe4Mg2SnCSn2CSnTe4Mg2
_chemical_formula_sum              "H90 C156 N30 O6 Sn120 Te120 Mg60"
_cell_length_a       51.4208
_cell_length_b       51.4078
_cell_length_c       8.17305
_cell_angle_alpha    88.9358
_cell_angle_beta     89.7278
_cell_angle_gamma    120.009

_symmetry_space_group_name_H-M    'P1'
_space_group_IT_number       1

loop_
  _space_group_symop_operation_xyz
  'x, y, z'

loop_
  _atom_site_type_symbol
  _atom_site_label
  _atom_site_symmetry_multiplicity
  _atom_site_fract_x
  _atom_site_fract_y
  _atom_site_fract_z
  _atom_site_occupancy
  H   H1        1.0  0.30381  0.11620  0.20697  1.0000
  H   H2        1.0  0.88689  0.18766  0.15735  1.0000
  H   H3        1.0  0.81229  0.69754  0.18475  1.0000
  H   H4        1.0  0.35533  0.13650  0.30424  1.0000
  H   H5        1.0  0.86734  0.21987  0.25045  1.0000
  H   H6        1.0  0.78040  0.64492  0.27723  1.0000
  H   H7        1.0  0.17199  0.11875  0.97674  1.0000
  H   H8        1.0  0.88479  0.05299  0.96117  1.0000
  H   H9        1.0  0.94675  0.83010  0.94989  1.0000
  H   H10       1.0  0.49106  0.22315  0.08577  1.0000
  H   H11       1.0  0.77744  0.27290  0.05071  1.0000
  H   H12       1.0  0.72663  0.50323  0.07567  1.0000
  H   H13       1.0  0.02693  0.05542  0.44884  1.0000
  H   H14       1.0  0.94317  0.97218  0.44143  1.0000
  H   H15       1.0  0.02638  0.97157  0.44981  1.0000
  H   H16       1.0  0.63903  0.27645  0.46096  1.0000
  H   H17       1.0  0.72339  0.35932  0.44807  1.0000
  H   H18       1.0  0.64059  0.36072  0.44261  1.0000
  H   H19       1.0  0.37754  0.24102  0.44370  1.0000
  H   H20       1.0  0.76306  0.13917  0.42712  1.0000
  H   H21       1.0  0.86193  0.62213  0.43778  1.0000
  H   H22       1.0  0.34243  0.26843  0.49884  1.0000
  H   H23       1.0  0.73435  0.07668  0.49448  1.0000
  H   H24       1.0  0.92407  0.65626  0.49915  1.0000
  H   H25       1.0  0.33583  0.31258  0.35483  1.0000
  H   H26       1.0  0.68932  0.02629  0.36989  1.0000
  H   H27       1.0  0.97513  0.66414  0.38004  1.0000
  H   H28       1.0  0.31448  0.30213  0.17189  1.0000
  H   H29       1.0  0.69850  0.01436  0.18513  1.0000
  H   H30       1.0  0.98865  0.68638  0.19607  1.0000
  H   H31       1.0  0.36624  0.29745  0.21871  1.0000
  H   H32       1.0  0.70436  0.07141  0.22432  1.0000
  H   H33       1.0  0.93277  0.63284  0.23108  1.0000
  H   H34       1.0  0.28370  0.26735  0.01296  1.0000
  H   H35       1.0  0.73510  0.02039  0.01845  1.0000
  H   H36       1.0  0.98183  0.71157  0.01135  1.0000
  H   H37       1.0  0.28210  0.23548  0.48802  1.0000
  H   H38       1.0  0.76678  0.04813  0.47579  1.0000
  H   H39       1.0  0.95089  0.71686  0.48361  1.0000
  H   H40       1.0  0.18233  0.22349  0.10028  1.0000
  H   H41       1.0  0.77059  0.95529  0.09575  1.0000
  H   H42       1.0  0.03081  0.81855  0.06048  1.0000
  H   H43       1.0  0.30688  0.25053  0.19954  1.0000
  H   H44       1.0  0.75060  0.05774  0.19290  1.0000
  H   H45       1.0  0.94343  0.69248  0.19386  1.0000
  H   H46       1.0  0.29991  0.11676  0.69540  1.0000
  H   H47       1.0  0.88403  0.18806  0.66881  1.0000
  H   H48       1.0  0.81390  0.69538  0.66691  1.0000
  H   H49       1.0  0.35142  0.13671  0.79221  1.0000
  H   H50       1.0  0.86313  0.21901  0.76228  1.0000
  H   H51       1.0  0.78243  0.64337  0.76676  1.0000
  H   H52       1.0  0.16800  0.11726  0.46183  1.0000
  H   H53       1.0  0.88284  0.05363  0.46473  1.0000
  H   H54       1.0  0.94905  0.83127  0.47192  1.0000
  H   H55       1.0  0.49531  0.22639  0.60056  1.0000
  H   H56       1.0  0.77806  0.26986  0.58045  1.0000
  H   H57       1.0  0.73344  0.50265  0.58897  1.0000
  H   H58       1.0  0.03062  0.05701  0.94032  1.0000
  H   H59       1.0  0.94682  0.97381  0.94424  1.0000
  H   H60       1.0  0.03005  0.97315  0.94836  1.0000
  H   H61       1.0  0.63470  0.27547  0.94917  1.0000
  H   H62       1.0  0.71908  0.35811  0.95258  1.0000
  H   H63       1.0  0.63646  0.35993  0.94624  1.0000
  H   H64       1.0  0.37392  0.24100  0.93777  1.0000
  H   H65       1.0  0.75858  0.13597  0.92581  1.0000
  H   H66       1.0  0.86451  0.62202  0.93951  1.0000
  H   H67       1.0  0.34384  0.27183  0.97652  1.0000
  H   H68       1.0  0.72920  0.07414  0.98108  1.0000
  H   H69       1.0  0.92657  0.65544  0.99589  1.0000
  H   H70       1.0  0.32981  0.31150  0.88808  1.0000
  H   H71       1.0  0.69034  0.02134  0.89289  1.0000
  H   H72       1.0  0.97862  0.66597  0.87740  1.0000
  H   H73       1.0  0.30522  0.30248  0.72001  1.0000
  H   H74       1.0  0.69972  0.00677  0.72112  1.0000
  H   H75       1.0  0.99175  0.68931  0.69701  1.0000
  H   H76       1.0  0.36339  0.30945  0.70929  1.0000
  H   H77       1.0  0.69638  0.06007  0.71456  1.0000
  H   H78       1.0  0.93731  0.63383  0.72711  1.0000
  H   H79       1.0  0.29016  0.27304  0.50156  1.0000
  H   H80       1.0  0.72893  0.01972  0.50764  1.0000
  H   H81       1.0  0.98243  0.71191  0.49495  1.0000
  H   H82       1.0  0.27978  0.23172  0.98023  1.0000
  H   H83       1.0  0.77099  0.05120  0.96884  1.0000
  H   H84       1.0  0.95276  0.71964  0.97272  1.0000
  H   H85       1.0  0.18011  0.21754  0.57636  1.0000
  H   H86       1.0  0.77718  0.96082  0.56988  1.0000
  H   H87       1.0  0.04590  0.81600  0.56464  1.0000
  H   H88       1.0  0.30403  0.25374  0.69263  1.0000
  H   H89       1.0  0.74893  0.05456  0.69242  1.0000
  H   H90       1.0  0.94595  0.69386  0.69739  1.0000
  C   C1        1.0  0.31595  0.13927  0.24765  1.0000
  C   C2        1.0  0.86395  0.17718  0.20452  1.0000
  C   C3        1.0  0.82290  0.68504  0.22855  1.0000
  C   C4        1.0  0.34527  0.15075  0.30331  1.0000
  C   C5        1.0  0.85294  0.19558  0.25820  1.0000
  C   C6        1.0  0.80470  0.65519  0.28230  1.0000
  C   C7        1.0  0.36282  0.18067  0.35232  1.0000
  C   C8        1.0  0.82326  0.18363  0.31641  1.0000
  C   C9        1.0  0.81690  0.63749  0.33635  1.0000
  C   C10       1.0  0.34826  0.19755  0.34524  1.0000
  C   C11       1.0  0.80607  0.15221  0.31828  1.0000
  C   C12       1.0  0.84835  0.65222  0.33530  1.0000
  C   C13       1.0  0.31892  0.18669  0.28462  1.0000
  C   C14       1.0  0.81631  0.13317  0.25818  1.0000
  C   C15       1.0  0.86719  0.68193  0.27435  1.0000
  C   C16       1.0  0.30175  0.15662  0.23486  1.0000
  C   C17       1.0  0.84629  0.14559  0.20168  1.0000
  C   C18       1.0  0.85448  0.69933  0.22051  1.0000
  C   C19       1.0  0.17908  0.10319  0.02562  1.0000
  C   C20       1.0  0.89997  0.07562  0.00691  1.0000
  C   C21       1.0  0.92462  0.82321  0.00575  1.0000
  C   C22       1.0  0.48895  0.23470  0.49169  1.0000
  C   C23       1.0  0.76863  0.25432  0.47837  1.0000
  C   C24       1.0  0.74766  0.51022  0.47759  1.0000
  C   C25       1.0  0.03067  0.01548  0.44691  1.0000
  C   C26       1.0  0.98319  0.01579  0.44353  1.0000
  C   C27       1.0  0.98286  0.96798  0.44334  1.0000
  C   C28       1.0  0.63597  0.31670  0.45273  1.0000
  C   C29       1.0  0.68317  0.31587  0.45612  1.0000
  C   C30       1.0  0.68398  0.36393  0.44621  1.0000
  C   C31       1.0  0.01470  0.03102  0.44508  1.0000
  C   C32       1.0  0.96759  0.98426  0.44117  1.0000
  C   C33       1.0  0.01436  0.98396  0.44557  1.0000
  C   C34       1.0  0.65165  0.30087  0.45819  1.0000
  C   C35       1.0  0.69898  0.34742  0.45090  1.0000
  C   C36       1.0  0.65248  0.34821  0.44780  1.0000
  C   C37       1.0  0.33418  0.23209  0.36133  1.0000
  C   C38       1.0  0.77088  0.10388  0.34735  1.0000
  C   C39       1.0  0.89683  0.66607  0.35755  1.0000
  C   C40       1.0  0.31382  0.26488  0.30637  1.0000
  C   C41       1.0  0.73675  0.05082  0.30469  1.0000
  C   C42       1.0  0.95005  0.68602  0.30773  1.0000
  C   C43       1.0  0.32940  0.29781  0.24891  1.0000
  C   C44       1.0  0.70357  0.03396  0.25860  1.0000
  C   C45       1.0  0.96835  0.67092  0.26681  1.0000
  C   C46       1.0  0.28582  0.25526  0.41552  1.0000
  C   C47       1.0  0.74621  0.03221  0.41321  1.0000
  C   C48       1.0  0.96746  0.71457  0.40966  1.0000
  C   C49       1.0  0.31221  0.13981  0.73612  1.0000
  C   C50       1.0  0.86090  0.17700  0.71370  1.0000
  C   C51       1.0  0.82472  0.68339  0.71535  1.0000
  C   C52       1.0  0.34142  0.15101  0.79230  1.0000
  C   C53       1.0  0.84908  0.19466  0.76747  1.0000
  C   C54       1.0  0.80674  0.65382  0.77267  1.0000
  C   C55       1.0  0.35902  0.18087  0.84251  1.0000
  C   C56       1.0  0.81903  0.18208  0.82174  1.0000
  C   C57       1.0  0.81904  0.63645  0.83185  1.0000
  C   C58       1.0  0.34476  0.19800  0.83394  1.0000
  C   C59       1.0  0.80236  0.15059  0.82139  1.0000
  C   C60       1.0  0.85051  0.65139  0.83146  1.0000
  C   C61       1.0  0.31568  0.18759  0.77044  1.0000
  C   C62       1.0  0.81356  0.13227  0.76182  1.0000
  C   C63       1.0  0.86916  0.68101  0.76827  1.0000
  C   C64       1.0  0.29831  0.15745  0.72194  1.0000
  C   C65       1.0  0.84374  0.14540  0.70745  1.0000
  C   C66       1.0  0.85635  0.69808  0.71025  1.0000
  C   C67       1.0  0.17554  0.10222  0.51306  1.0000
  C   C68       1.0  0.89820  0.07614  0.51146  1.0000
  C   C69       1.0  0.92563  0.82289  0.51160  1.0000
  C   C70       1.0  0.48476  0.23324  0.98472  1.0000
  C   C71       1.0  0.76555  0.25475  0.96356  1.0000
  C   C72       1.0  0.74385  0.50992  0.97881  1.0000
  C   C73       1.0  0.03424  0.01701  0.94338  1.0000
  C   C74       1.0  0.98678  0.01734  0.93988  1.0000
  C   C75       1.0  0.98641  0.96948  0.94404  1.0000
  C   C76       1.0  0.63171  0.31583  0.94846  1.0000
  C   C77       1.0  0.67877  0.31481  0.95208  1.0000
  C   C78       1.0  0.67979  0.36292  0.95066  1.0000
  C   C79       1.0  0.01830  0.03259  0.93968  1.0000
  C   C80       1.0  0.97124  0.98583  0.94157  1.0000
  C   C81       1.0  0.01794  0.98545  0.94397  1.0000
  C   C82       1.0  0.64728  0.29989  0.95092  1.0000
  C   C83       1.0  0.69467  0.34631  0.95303  1.0000
  C   C84       1.0  0.64829  0.34734  0.94927  1.0000
  C   C85       1.0  0.33145  0.23319  0.84678  1.0000
  C   C86       1.0  0.76798  0.10174  0.84577  1.0000
  C   C87       1.0  0.89920  0.66599  0.85730  1.0000
  C   C88       1.0  0.31027  0.26551  0.80824  1.0000
  C   C89       1.0  0.73665  0.04822  0.80929  1.0000
  C   C90       1.0  0.95265  0.68722  0.81027  1.0000
  C   C91       1.0  0.32281  0.29900  0.77351  1.0000
  C   C92       1.0  0.70331  0.02753  0.77704  1.0000
  C   C93       1.0  0.97157  0.67299  0.76603  1.0000
  C   C94       1.0  0.28165  0.25166  0.91793  1.0000
  C   C95       1.0  0.75035  0.03320  0.91637  1.0000
  C   C96       1.0  0.96958  0.71555  0.91382  1.0000
  N   N1        1.0  0.16092  0.07453  0.03398  1.0000
  N   N2        1.0  0.92860  0.08625  0.01464  1.0000
  N   N3        1.0  0.91523  0.84205  0.02405  1.0000
  N   N4        1.0  0.50830  0.25595  0.39574  1.0000
  N   N5        1.0  0.74571  0.25082  0.39610  1.0000
  N   N6        1.0  0.74977  0.49194  0.37896  1.0000
  N   N7        1.0  0.35745  0.22667  0.39425  1.0000
  N   N8        1.0  0.77699  0.13282  0.37627  1.0000
  N   N9        1.0  0.86794  0.64270  0.38929  1.0000
  N   N10       1.0  0.31097  0.20890  0.29494  1.0000
  N   N11       1.0  0.79370  0.10317  0.27669  1.0000
  N   N12       1.0  0.89729  0.68979  0.28852  1.0000
  N   N13       1.0  0.33711  0.26015  0.38336  1.0000
  N   N14       1.0  0.74252  0.07926  0.37733  1.0000
  N   N15       1.0  0.92160  0.66263  0.38339  1.0000
  N   N16       1.0  0.15768  0.07355  0.52634  1.0000
  N   N17       1.0  0.92668  0.08621  0.52271  1.0000
  N   N18       1.0  0.91422  0.84027  0.51489  1.0000
  N   N19       1.0  0.50406  0.25590  0.89587  1.0000
  N   N20       1.0  0.74092  0.24932  0.89292  1.0000
  N   N21       1.0  0.74766  0.49093  0.89512  1.0000
  N   N22       1.0  0.35424  0.22720  0.88297  1.0000
  N   N23       1.0  0.77318  0.13039  0.87626  1.0000
  N   N24       1.0  0.87036  0.64245  0.88968  1.0000
  N   N25       1.0  0.30818  0.21018  0.77838  1.0000
  N   N26       1.0  0.79152  0.10202  0.77736  1.0000
  N   N27       1.0  0.89931  0.68931  0.78498  1.0000
  N   N28       1.0  0.33470  0.26119  0.86906  1.0000
  N   N29       1.0  0.74020  0.07647  0.87169  1.0000
  N   N30       1.0  0.92431  0.66342  0.88400  1.0000
  O   O1        1.0  0.35566  0.30489  0.15029  1.0000
  O   O2        1.0  0.69660  0.05326  0.15957  1.0000
  O   O3        1.0  0.95112  0.64507  0.16647  1.0000
  O   O4        1.0  0.34740  0.31117  0.65630  1.0000
  O   O5        1.0  0.69211  0.04134  0.66391  1.0000
  O   O6        1.0  0.95510  0.64758  0.66233  1.0000
  C  Sn1       1.0  0.22357  0.10350  0.22810  1.0000
  C   C97       1.0  0.21052  0.11633  0.13014  1.0000
  C  Sn2       1.0  0.22855  0.14295  0.04093  1.0000
  C  Sn3       1.0  0.26027  0.15704  0.04973  1.0000
  C   C98       1.0  0.27329  0.14422  0.14762  1.0000
  C  Sn4       1.0  0.25529  0.11760  0.23690  1.0000
  O  Te1       1.0  0.20511  0.07688  0.31622  1.0000
  O  Te2       1.0  0.21202  0.15091  0.94389  1.0000
  O  Te3       1.0  0.27574  0.17925  0.96150  1.0000
  O  Te4       1.0  0.26883  0.10519  0.33388  1.0000
  Mg  Mg1       1.0  0.24670  0.18743  0.84657  1.0000
  Mg  Mg2       1.0  0.23417  0.06867  0.43118  1.0000
  C  Sn5       1.0  0.84091  0.09068  0.09163  1.0000
  C   C99       1.0  0.85408  0.11771  0.17509  1.0000
  C  Sn6       1.0  0.88525  0.13461  0.18996  1.0000
  C  Sn7       1.0  0.90364  0.12429  0.11986  1.0000
  C   C100      1.0  0.89047  0.09728  0.03643  1.0000
  C  Sn8       1.0  0.85930  0.08036  0.02152  1.0000
  O  Te5       1.0  0.80970  0.07415  0.07826  1.0000
  O  Te6       1.0  0.89790  0.16155  0.27402  1.0000
  O  Te7       1.0  0.93487  0.14085  0.13330  1.0000
  O  Te8       1.0  0.84367  0.04899  0.93750  1.0000
  Mg  Mg3       1.0  0.94152  0.17611  0.25939  1.0000
  Mg  Mg4       1.0  0.80006  0.03443  0.95198  1.0000
  C  Sn9       1.0  0.90394  0.75750  0.97433  1.0000
  C   C101      1.0  0.90289  0.78594  0.01634  1.0000
  C  Sn10      1.0  0.88471  0.78331  0.15039  1.0000
  C  Sn11      1.0  0.87026  0.75613  0.24450  1.0000
  C   C102      1.0  0.87429  0.73216  0.20251  1.0000
  C  Sn12      1.0  0.89247  0.73477  0.06844  1.0000
  O  Te9       1.0  0.92222  0.76063  0.83982  1.0000
  O  Te10      1.0  0.88102  0.80760  0.18997  1.0000
  O  Te11      1.0  0.85197  0.75302  0.37909  1.0000
  O  Te12      1.0  0.89617  0.71049  0.02887  1.0000
  Mg  Mg5       1.0  0.85391  0.79243  0.38434  1.0000
  Mg  Mg6       1.0  0.92030  0.72120  0.83460  1.0000
  C  Sn13      1.0  0.43900  0.23867  0.38066  1.0000
  C   C103      1.0  0.45330  0.22707  0.47777  1.0000
  C  Sn14      1.0  0.43833  0.19671  0.52511  1.0000
  C  Sn15      1.0  0.40845  0.17754  0.47424  1.0000
  C   C104      1.0  0.39417  0.18914  0.37717  1.0000
  C  Sn16      1.0  0.40912  0.21950  0.32979  1.0000
  O  Te13      1.0  0.45440  0.26910  0.33478  1.0000
  O  Te14      1.0  0.45309  0.18563  0.62227  1.0000
  O  Te15      1.0  0.39306  0.14709  0.52022  1.0000
  O  Te16      1.0  0.39438  0.23058  0.23268  1.0000
  Mg  Mg7       1.0  0.42271  0.14258  0.65311  1.0000
  Mg  Mg8       1.0  0.42475  0.27362  0.20170  1.0000
  C  Sn17      1.0  0.76525  0.20133  0.36340  1.0000
  C   C105      1.0  0.77699  0.22706  0.45779  1.0000
  C  Sn18      1.0  0.80751  0.24271  0.49457  1.0000
  C  Sn19      1.0  0.82671  0.23243  0.43571  1.0000
  C   C106      1.0  0.81497  0.20672  0.34136  1.0000
  C  Sn20      1.0  0.78445  0.19106  0.30453  1.0000
  O  Te17      1.0  0.73467  0.18604  0.32812  1.0000
  O  Te18      1.0  0.81872  0.26837  0.58920  1.0000
  O  Te19      1.0  0.85731  0.24775  0.47108  1.0000
  O  Te20      1.0  0.77324  0.16541  0.20994  1.0000
  Mg  Mg9       1.0  0.86197  0.28152  0.60448  1.0000
  Mg  Mg10      1.0  0.73000  0.15225  0.19452  1.0000
  C  Sn21      1.0  0.77406  0.58807  0.53404  1.0000
  C   C107      1.0  0.79849  0.60338  0.42591  1.0000
  C  Sn22      1.0  0.80518  0.58764  0.31150  1.0000
  C  Sn23      1.0  0.78708  0.55594  0.30496  1.0000
  C   C108      1.0  0.76266  0.54065  0.41302  1.0000
  C  Sn24      1.0  0.75595  0.55637  0.52750  1.0000
  O  Te21      1.0  0.76778  0.60426  0.64741  1.0000
  O  Te22      1.0  0.82973  0.60344  0.20471  1.0000
  O  Te23      1.0  0.79338  0.53975  0.19147  1.0000
  O  Te24      1.0  0.73142  0.54059  0.63422  1.0000
  Mg  Mg11      1.0  0.82920  0.57136  0.07192  1.0000
  Mg  Mg12      1.0  0.73192  0.57264  0.76700  1.0000
  C  Sn25      1.0  0.11069  0.03673  0.85935  1.0000
  C   C109      1.0  0.12843  0.06180  0.95352  1.0000
  C  Sn26      1.0  0.11808  0.07644  0.06539  1.0000
  C  Sn27      1.0  0.08637  0.06125  0.08360  1.0000
  C   C110      1.0  0.06567  0.03176  0.98949  1.0000
  C  Sn28      1.0  0.07897  0.02155  0.87757  1.0000
  O  Te25      1.0  0.12449  0.02693  0.74828  1.0000
  O  Te26      1.0  0.13629  0.10156  0.15813  1.0000
  O  Te27      1.0  0.07257  0.07108  0.19479  1.0000
  O  Te28      1.0  0.56080  0.99644  0.78489  1.0000
  Mg  Mg13      1.0  0.10694  0.10631  0.29328  1.0000
  Mg  Mg14      1.0  0.59012  0.99166  0.64977  1.0000
  C  Sn29      1.0  0.93390  0.02052  0.00762  1.0000
  C   C111      1.0  0.95796  0.02459  0.92491  1.0000
  C  Sn30      1.0  0.97724  0.05464  0.87930  1.0000
  C  Sn31      1.0  0.96935  0.07664  0.91725  1.0000
  C   C112      1.0  0.94233  0.06813  0.99994  1.0000
  C  Sn32      1.0  0.92600  0.04252  0.04557  1.0000
  O  Te29      1.0  0.41498  0.99035  0.05204  1.0000
  O  Te30      1.0  0.00415  0.06261  0.79665  1.0000
  O  Te31      1.0  0.98831  0.10683  0.87275  1.0000
  O  Te32      1.0  0.89911  0.03455  0.12820  1.0000
  Mg  Mg15      1.0  0.02249  0.10658  0.76198  1.0000
  Mg  Mg16      1.0  0.38077  0.99060  0.16300  1.0000
  C  Sn33      1.0  0.96510  0.89606  0.09809  1.0000
  C   C113      1.0  0.93678  0.87671  0.03507  1.0000
  C  Sn34      1.0  0.92196  0.88228  0.91184  1.0000
  C  Sn35      1.0  0.93878  0.91227  0.85024  1.0000
  C   C114      1.0  0.96708  0.93161  0.91322  1.0000
  C  Sn36      1.0  0.98192  0.92605  0.03648  1.0000
  O  Te33      1.0  0.97651  0.88556  0.22125  1.0000
  O  Te34      1.0  0.89359  0.86252  0.85082  1.0000
  O  Te35      1.0  0.92735  0.92276  0.72698  1.0000
  O  Te36      1.0  0.01027  0.94580  0.09748  1.0000
  Mg  Mg17      1.0  0.88770  0.88734  0.68331  1.0000
  Mg  Mg18      1.0  0.01620  0.92100  0.26491  1.0000
  C  Sn37      1.0  0.10241  0.06708  0.60377  1.0000
  C   C115      1.0  0.12269  0.05917  0.53983  1.0000
  C  Sn38      1.0  0.11405  0.03833  0.41527  1.0000
  C  Sn39      1.0  0.08453  0.02512  0.35322  1.0000
  C   C116      1.0  0.06427  0.03303  0.41712  1.0000
  C  Sn40      1.0  0.07288  0.05387  0.54172  1.0000
  O  Te37      1.0  0.11153  0.08798  0.72827  1.0000
  O  Te38      1.0  0.13473  0.03077  0.35334  1.0000
  O  Te39      1.0  0.07542  0.00421  0.22863  1.0000
  O  Te40      1.0  0.05223  0.06143  0.60362  1.0000
  Mg  Mg19      1.0  0.11169  0.00119  0.18412  1.0000
  Mg  Mg20      1.0  0.07525  0.09102  0.77277  1.0000
  C  Sn41      1.0  0.96447  0.07293  0.34966  1.0000
  C   C117      1.0  0.93931  0.06604  0.44697  1.0000
  C  Sn42      1.0  0.92873  0.04274  0.56432  1.0000
  C  Sn43      1.0  0.94361  0.02598  0.58493  1.0000
  C   C118      1.0  0.96876  0.03287  0.48768  1.0000
  C  Sn44      1.0  0.97935  0.05617  0.37026  1.0000
  O  Te41      1.0  0.97466  0.09632  0.23310  1.0000
  O  Te42      1.0  0.90353  0.03627  0.66012  1.0000
  O  Te43      1.0  0.93340  0.00258  0.70160  1.0000
  O  Te44      1.0  0.00454  0.06264  0.27452  1.0000
  Mg  Mg21      1.0  0.89821  0.00232  0.80257  1.0000
  Mg  Mg22      1.0  0.00989  0.09660  0.13210  1.0000
  C  Sn45      1.0  0.96139  0.89519  0.60442  1.0000
  C   C119      1.0  0.93424  0.87519  0.53179  1.0000
  C  Sn46      1.0  0.92356  0.88463  0.39994  1.0000
  C  Sn47      1.0  0.94036  0.91469  0.33934  1.0000
  C   C120      1.0  0.96750  0.93467  0.41193  1.0000
  C  Sn48      1.0  0.97819  0.92525  0.54381  1.0000
  O  Te45      1.0  0.97164  0.88527  0.73609  1.0000
  O  Te46      1.0  0.89635  0.86422  0.32939  1.0000
  O  Te47      1.0  0.93009  0.92460  0.20756  1.0000
  O  Te48      1.0  0.00538  0.94564  0.61433  1.0000
  Mg  Mg23      1.0  0.89178  0.88841  0.15256  1.0000
  Mg  Mg24      1.0  0.00999  0.92147  0.79110  1.0000
  C  Sn49      1.0  0.57168  0.25808  0.97844  1.0000
  C   C121      1.0  0.59235  0.28648  0.91387  1.0000
  C  Sn50      1.0  0.58270  0.30601  0.85724  1.0000
  C  Sn51      1.0  0.55176  0.29698  0.86541  1.0000
  C   C122      1.0  0.53110  0.26861  0.92998  1.0000
  C  Sn52      1.0  0.54073  0.24906  0.98661  1.0000
  O  Te49      1.0  0.58480  0.24337  0.03434  1.0000
  O  Te50      1.0  0.60379  0.33428  0.79315  1.0000
  O  Te51      1.0  0.54162  0.31617  0.80944  1.0000
  O  Te52      1.0  0.52264  0.22525  0.05070  1.0000
  Mg  Mg25      1.0  0.57896  0.35240  0.73262  1.0000
  Mg  Mg26      1.0  0.54744  0.20712  0.11134  1.0000
  C  Sn53      1.0  0.73214  0.29229  0.06030  1.0000
  C   C123      1.0  0.72200  0.26243  0.96932  1.0000
  C  Sn54      1.0  0.70030  0.25321  0.84805  1.0000
  C  Sn55      1.0  0.68546  0.26974  0.81699  1.0000
  C   C124      1.0  0.69263  0.29515  0.90791  1.0000
  C  Sn56      1.0  0.71731  0.30883  0.02923  1.0000
  O  Te53      1.0  0.75392  0.30110  0.18093  1.0000
  O  Te54      1.0  0.69350  0.22772  0.75873  1.0000
  O  Te55      1.0  0.66367  0.26091  0.69624  1.0000
  O  Te56      1.0  0.72410  0.33430  0.11849  1.0000
  Mg  Mg27      1.0  0.66223  0.22468  0.60716  1.0000
  Mg  Mg28      1.0  0.75538  0.33738  0.27004  1.0000
  C  Sn57      1.0  0.68046  0.41531  0.97850  1.0000
  C   C125      1.0  0.68850  0.39510  0.91657  1.0000
  C  Sn58      1.0  0.71792  0.40517  0.86291  1.0000
  C  Sn59      1.0  0.73978  0.43609  0.87140  1.0000
  C   C126      1.0  0.73174  0.45627  0.93332  1.0000
  C  Sn60      1.0  0.70232  0.44622  0.98699  1.0000
  O  Te57      1.0  0.65389  0.40918  0.03146  1.0000
  O  Te58      1.0  0.72542  0.38455  0.80142  1.0000
  O  Te59      1.0  0.76934  0.44664  0.81837  1.0000
  O  Te60      1.0  0.69780  0.47127  0.04847  1.0000
  Mg  Mg29      1.0  0.76861  0.40984  0.74440  1.0000
  Mg  Mg30      1.0  0.65462  0.44600  0.10560  1.0000
  C  Sn61      1.0  0.57895  0.26333  0.48575  1.0000
  C   C127      1.0  0.59962  0.29163  0.42007  1.0000
  C  Sn62      1.0  0.58994  0.31098  0.36069  1.0000
  C  Sn63      1.0  0.55896  0.30186  0.36719  1.0000
  C   C128      1.0  0.53831  0.27358  0.43287  1.0000
  C  Sn64      1.0  0.54797  0.25421  0.49225  1.0000
  O  Te61      1.0  0.58913  0.24436  0.54441  1.0000
  O  Te62      1.0  0.61103  0.33915  0.29554  1.0000
  O  Te63      1.0  0.54880  0.32086  0.30846  1.0000
  O  Te64      1.0  0.52690  0.22606  0.55740  1.0000
  Mg  Mg31      1.0  0.58615  0.35702  0.23114  1.0000
  Mg  Mg32      1.0  0.55176  0.20818  0.62190  1.0000
  C  Sn65      1.0  0.70126  0.26187  0.31479  1.0000
  C   C129      1.0  0.72942  0.26974  0.37764  1.0000
  C  Sn66      1.0  0.74227  0.29169  0.49630  1.0000
  C  Sn67      1.0  0.72665  0.30605  0.55343  1.0000
  C   C130      1.0  0.69851  0.29818  0.49062  1.0000
  C  Sn68      1.0  0.68563  0.27623  0.37192  1.0000
  O  Te65      1.0  0.68883  0.23986  0.19624  1.0000
  O  Te66      1.0  0.77046  0.29918  0.55725  1.0000
  O  Te67      1.0  0.73910  0.32807  0.67208  1.0000
  O  Te68      1.0  0.65747  0.26873  0.31101  1.0000
  Mg  Mg33      1.0  0.77803  0.33052  0.71756  1.0000
  Mg  Mg34      1.0  0.64986  0.23738  0.15076  1.0000
  C  Sn69      1.0  0.73753  0.41942  0.37620  1.0000
  C   C131      1.0  0.71012  0.40081  0.45665  1.0000
  C  Sn70      1.0  0.69148  0.41204  0.50247  1.0000
  C  Sn71      1.0  0.70041  0.44252  0.46706  1.0000
  C   C132      1.0  0.72780  0.46112  0.38663  1.0000
  C  Sn72      1.0  0.74646  0.44990  0.34078  1.0000
  O  Te69      1.0  0.75581  0.40771  0.33151  1.0000
  O  Te70      1.0  0.66419  0.39300  0.58283  1.0000
  O  Te71      1.0  0.68210  0.45422  0.51182  1.0000
  O  Te72      1.0  0.77373  0.46892  0.26044  1.0000
  Mg  Mg35      1.0  0.64704  0.41942  0.61888  1.0000
  Mg  Mg36      1.0  0.79089  0.44253  0.22426  1.0000
  C  Sn73      1.0  0.23640  0.26390  0.33681  1.0000
  C   C133      1.0  0.25093  0.24729  0.35870  1.0000
  C  Sn74      1.0  0.24292  0.22190  0.26584  1.0000
  C  Sn75      1.0  0.21992  0.21293  0.14857  1.0000
  C   C134      1.0  0.20541  0.22954  0.12671  1.0000
  C  Sn76      1.0  0.21340  0.25494  0.21954  1.0000
  O  Te73      1.0  0.24478  0.28921  0.43098  1.0000
  O  Te74      1.0  0.25776  0.20565  0.28995  1.0000
  O  Te75      1.0  0.21155  0.18760  0.05438  1.0000
  O  Te76      1.0  0.19858  0.27119  0.19545  1.0000
  Mg  Mg37      1.0  0.23836  0.17282  0.13194  1.0000
  Mg  Mg38      1.0  0.21797  0.30402  0.35333  1.0000
  C  Sn77      1.0  0.79089  0.00538  0.22278  1.0000
  C   C135      1.0  0.27199  0.97464  0.19998  1.0000
  C  Sn78      1.0  0.24105  0.96144  0.22688  1.0000
  C  Sn79      1.0  0.22875  0.97934  0.27753  1.0000
  C   C136      1.0  0.74764  0.01006  0.30029  1.0000
  C  Sn80      1.0  0.77859  0.02328  0.27344  1.0000
  O  Te77      1.0  0.82176  0.01811  0.19517  1.0000
  O  Te78      1.0  0.22260  0.93066  0.20332  1.0000
  O  Te79      1.0  0.19786  0.96658  0.30515  1.0000
  O  Te80      1.0  0.79704  0.05404  0.29694  1.0000
  Mg  Mg39      1.0  0.18197  0.92371  0.25651  1.0000
  Mg  Mg40      1.0  0.83766  0.06102  0.24371  1.0000
  C  Sn81      1.0  0.02958  0.77243  0.17410  1.0000
  C   C137      1.0  0.01895  0.79004  0.10108  1.0000
  C  Sn82      1.0  0.99079  0.78581  0.14521  1.0000
  C  Sn83      1.0  0.97289  0.76353  0.26490  1.0000
  C   C138      1.0  0.98352  0.74593  0.33787  1.0000
  C  Sn84      1.0  0.01168  0.75014  0.29379  1.0000
  O  Te81      1.0  0.05780  0.77704  0.12811  1.0000
  O  Te82      1.0  0.98063  0.80369  0.07047  1.0000
  O  Te83      1.0  0.94465  0.75892  0.31085  1.0000
  O  Te84      1.0  0.02183  0.73229  0.36847  1.0000
  Mg  Mg41      1.0  0.94066  0.78890  0.17429  1.0000
  Mg  Mg42      1.0  0.06181  0.74706  0.26482  1.0000
  C  Sn85      1.0  0.23620  0.14781  0.48365  1.0000
  C   C139      1.0  0.21254  0.11910  0.52476  1.0000
  C  Sn86      1.0  0.21512  0.10267  0.65540  1.0000
  C  Sn87      1.0  0.24190  0.11520  0.74694  1.0000
  C   C140      1.0  0.26554  0.14390  0.70584  1.0000
  C  Sn88      1.0  0.26298  0.16034  0.57519  1.0000
  O  Te85      1.0  0.23312  0.16384  0.35258  1.0000
  O  Te86      1.0  0.19116  0.07400  0.69414  1.0000
  O  Te87      1.0  0.24496  0.09915  0.87810  1.0000
  O  Te88      1.0  0.28691  0.18899  0.53646  1.0000
  Mg  Mg43      1.0  0.20610  0.06099  0.88348  1.0000
  Mg  Mg44      1.0  0.27199  0.20204  0.34722  1.0000
  C  Sn89      1.0  0.83928  0.09118  0.59390  1.0000
  C   C141      1.0  0.85222  0.11812  0.67816  1.0000
  C  Sn90      1.0  0.88338  0.13533  0.69249  1.0000
  C  Sn91      1.0  0.90200  0.12541  0.62103  1.0000
  C   C142      1.0  0.88906  0.09849  0.53681  1.0000
  C  Sn92      1.0  0.85790  0.08127  0.52243  1.0000
  O  Te89      1.0  0.80807  0.07435  0.58108  1.0000
  O  Te90      1.0  0.89579  0.16218  0.77737  1.0000
  O  Te91      1.0  0.93322  0.14227  0.63392  1.0000
  O  Te92      1.0  0.84548  0.05444  0.43760  1.0000
  Mg  Mg45      1.0  0.93950  0.17725  0.76152  1.0000
  Mg  Mg46      1.0  0.80178  0.03935  0.45329  1.0000
  C  Sn93      1.0  0.91213  0.76277  0.48727  1.0000
  C   C143      1.0  0.90592  0.78576  0.51868  1.0000
  C  Sn94      1.0  0.88433  0.78159  0.63664  1.0000
  C  Sn95      1.0  0.86864  0.75386  0.72515  1.0000
  C   C144      1.0  0.87486  0.73089  0.69375  1.0000
  C  Sn96      1.0  0.89644  0.73505  0.57577  1.0000
  O  Te93      1.0  0.93380  0.76744  0.36880  1.0000
  O  Te94      1.0  0.87850  0.80490  0.66585  1.0000
  O  Te95      1.0  0.84696  0.74921  0.84369  1.0000
  O  Te96      1.0  0.90227  0.71175  0.54658  1.0000
  Mg  Mg47      1.0  0.84698  0.78773  0.83945  1.0000
  Mg  Mg48      1.0  0.93380  0.72890  0.37308  1.0000
  C  Sn97      1.0  0.43501  0.23853  0.88487  1.0000
  C   C145      1.0  0.44916  0.22589  0.97487  1.0000
  C  Sn98      1.0  0.43711  0.19953  0.01186  1.0000
  C  Sn99      1.0  0.40435  0.17654  0.95769  1.0000
  C   C146      1.0  0.39023  0.18918  0.86773  1.0000
  C  Sn100     1.0  0.40523  0.21998  0.83070  1.0000
  O  Te97      1.0  0.45046  0.26937  0.84930  1.0000
  O  Te98      1.0  0.45171  0.18741  0.10205  1.0000
  O  Te99      1.0  0.38891  0.14567  0.99335  1.0000
  O  Te100     1.0  0.39064  0.23210  0.74055  1.0000
  Mg  Mg49      1.0  0.42131  0.14414  0.11966  1.0000
  Mg  Mg50      1.0  0.42103  0.27536  0.72279  1.0000
  C  Sn101     1.0  0.76081  0.19980  0.87044  1.0000
  C   C147      1.0  0.77338  0.22683  0.95366  1.0000
  C  Sn102     1.0  0.80424  0.24305  0.98122  1.0000
  C  Sn103     1.0  0.82293  0.23203  0.92434  1.0000
  C   C148      1.0  0.81036  0.20501  0.84115  1.0000
  C  Sn104     1.0  0.77950  0.18877  0.81355  1.0000
  O  Te101     1.0  0.72990  0.18395  0.84424  1.0000
  O  Te102     1.0  0.81927  0.27446  0.06477  1.0000
  O  Te103     1.0  0.85387  0.24790  0.95061  1.0000
  O  Te104     1.0  0.76745  0.16182  0.73004  1.0000
  Mg  Mg51      1.0  0.86267  0.28793  0.07047  1.0000
  Mg  Mg52      1.0  0.72405  0.14835  0.72419  1.0000
  C  Sn105     1.0  0.75012  0.56438  0.95920  1.0000
  C   C149      1.0  0.75511  0.54092  0.91880  1.0000
  C  Sn106     1.0  0.78353  0.54699  0.86606  1.0000
  C  Sn107     1.0  0.80746  0.57713  0.85352  1.0000
  C   C150      1.0  0.80247  0.60057  0.89393  1.0000
  C  Sn108     1.0  0.77406  0.59453  0.94667  1.0000
  O  Te105     1.0  0.72451  0.56224  0.01166  1.0000
  O  Te106     1.0  0.78797  0.52316  0.82630  1.0000
  O  Te107     1.0  0.83607  0.58370  0.80100  1.0000
  O  Te108     1.0  0.76961  0.61834  0.98643  1.0000
  Mg  Mg53      1.0  0.83095  0.54356  0.76089  1.0000
  Mg  Mg54      1.0  0.72962  0.60240  0.05194  1.0000
  C  Sn109     1.0  0.23092  0.25786  0.82943  1.0000
  C   C151      1.0  0.24616  0.24206  0.85611  1.0000
  C  Sn110     1.0  0.24013  0.21746  0.76066  1.0000
  C  Sn111     1.0  0.21843  0.20847  0.63587  1.0000
  C   C152      1.0  0.20321  0.22426  0.60923  1.0000
  C  Sn112     1.0  0.20922  0.24887  0.70464  1.0000
  O  Te109     1.0  0.23731  0.28240  0.92631  1.0000
  O  Te110     1.0  0.25564  0.20201  0.78966  1.0000
  O  Te111     1.0  0.21204  0.18391  0.53898  1.0000
  O  Te112     1.0  0.19372  0.26432  0.67567  1.0000
  Mg  Mg55      1.0  0.23907  0.17006  0.62534  1.0000
  Mg  Mg56      1.0  0.21029  0.29628  0.83985  1.0000
  C  Sn113     1.0  0.73697  0.96723  0.70296  1.0000
  C   C153      1.0  0.76351  0.97504  0.61664  1.0000
  C  Sn114     1.0  0.28958  0.00234  0.64435  1.0000
  C  Sn115     1.0  0.28914  0.02223  0.76084  1.0000
  C   C154      1.0  0.26262  0.01440  0.84711  1.0000
  C  Sn116     1.0  0.73653  0.98712  0.81946  1.0000
  O  Te113     1.0  0.71116  0.93982  0.67330  1.0000
  O  Te114     1.0  0.31584  0.00967  0.55651  1.0000
  O  Te115     1.0  0.31498  0.04965  0.79045  1.0000
  O  Te116     1.0  0.71029  0.97978  0.90724  1.0000
  Mg  Mg57      1.0  0.34524  0.04955  0.64025  1.0000
  Mg  Mg58      1.0  0.68088  0.93990  0.82366  1.0000
  C  Sn117     1.0  0.03755  0.76815  0.69587  1.0000
  C   C155      1.0  0.03093  0.78801  0.61187  1.0000
  C  Sn118     1.0  0.00379  0.78728  0.64124  1.0000
  C  Sn119     1.0  0.98283  0.76628  0.75705  1.0000
  C   C156      1.0  0.98945  0.74644  0.84099  1.0000
  C  Sn120     1.0  0.01659  0.74715  0.81168  1.0000
  O  Te117     1.0  0.06483  0.76928  0.66457  1.0000
  O  Te118     1.0  0.99767  0.80736  0.55572  1.0000
  O  Te119     1.0  0.95554  0.76517  0.78829  1.0000
  O  Te120     1.0  0.02272  0.72710  0.89714  1.0000
  Mg  Mg59      1.0  0.95747  0.79711  0.64103  1.0000
  Mg  Mg60      1.0  0.06291  0.73733  0.81199  1.0000
