data_image0
_chemical_formula_structural       H176C174N36SnCSn2CSnTe4Mg2SnCSn2CSnTe4Mg2SnCSn2CSnTe4Mg2SnCSn2CSnTe4Mg2SnCSn2CSnTe4Mg2SnCSn2CSnTe4Mg2SnCSn2CSnTe4Mg2SnCSn2CSnTe4Mg2SnCSn2CSnTe4Mg2SnCSn2CSnTe4Mg2SnCSn2CSnTe4Mg2SnCSn2CSnTe4Mg2SnCSn2CSnTe4Mg2SnCSn2CSnTe4Mg2SnCSn2CSnTe4Mg2SnCSn2CSnTe4Mg2
_chemical_formula_sum              "H176 C206 N36 Sn64 Te64 Mg32"
_cell_length_a       51.296
_cell_length_b       51.1751
_cell_length_c       8.2163
_cell_angle_alpha    90.8329
_cell_angle_beta     90.4982
_cell_angle_gamma    120.203

_symmetry_space_group_name_H-M    'P1'
_space_group_IT_number       1

loop_
  _space_group_symop_operation_xyz
  'x, y, z'

loop_
  _atom_site_type_symbol
  _atom_site_label
  _atom_site_symmetry_multiplicity
  _atom_site_fract_x
  _atom_site_fract_y
  _atom_site_fract_z
  _atom_site_occupancy
  H   H1        1.0  0.30690  0.12110  0.04113  1.0000
  H   H2        1.0  0.88049  0.18712  0.03216  1.0000
  H   H3        1.0  0.81523  0.69236  0.01691  1.0000
  H   H4        1.0  0.36026  0.14327  0.11909  1.0000
  H   H5        1.0  0.85972  0.21925  0.10809  1.0000
  H   H6        1.0  0.78313  0.63960  0.09042  1.0000
  H   H7        1.0  0.28684  0.19785  0.31214  1.0000
  H   H8        1.0  0.80681  0.09356  0.32885  1.0000
  H   H9        1.0  0.90905  0.71404  0.33473  1.0000
  H   H10       1.0  0.35110  0.26254  0.01530  1.0000
  H   H11       1.0  0.73691  0.08776  0.00466  1.0000
  H   H12       1.0  0.91230  0.65035  0.01933  1.0000
  H   H13       1.0  0.91710  0.73074  0.09756  1.0000
  H   H14       1.0  0.94665  0.78386  0.49884  1.0000
  H   H15       1.0  0.86953  0.79263  0.98946  1.0000
  H   H16       1.0  0.83795  0.73963  0.07665  1.0000
  H   H17       1.0  0.85100  0.24180  0.35632  1.0000
  H   H18       1.0  0.75957  0.60823  0.33030  1.0000
  H   H19       1.0  0.82941  0.27372  0.44233  1.0000
  H   H20       1.0  0.72794  0.55461  0.41016  1.0000
  H   H21       1.0  0.74153  0.20424  0.27784  1.0000
  H   H22       1.0  0.79913  0.53757  0.28271  1.0000
  H   H23       1.0  0.76304  0.17170  0.19399  1.0000
  H   H24       1.0  0.83126  0.59171  0.20522  1.0000
  H   H25       1.0  0.16765  0.11784  0.41922  1.0000
  H   H26       1.0  0.87928  0.04859  0.42331  1.0000
  H   H27       1.0  0.95088  0.83119  0.42404  1.0000
  H   H28       1.0  0.49750  0.21589  0.43830  1.0000
  H   H29       1.0  0.78720  0.28286  0.45445  1.0000
  H   H30       1.0  0.72002  0.50443  0.44113  1.0000
  H   H31       1.0  0.31626  0.26134  0.25378  1.0000
  H   H32       1.0  0.74193  0.05872  0.24410  1.0000
  H   H33       1.0  0.33750  0.29994  0.06267  1.0000
  H   H34       1.0  0.70094  0.03631  0.04983  1.0000
  H   H35       1.0  0.97307  0.87857  0.05148  1.0000
  H   H36       1.0  0.00147  0.93372  0.01319  1.0000
  H   H37       1.0  0.06851  0.99814  0.21934  1.0000
  H   H38       1.0  0.99610  0.06901  0.20292  1.0000
  H   H39       1.0  0.92692  0.92575  0.19634  1.0000
  H   H40       1.0  0.12365  0.02337  0.27108  1.0000
  H   H41       1.0  0.97131  0.09925  0.24990  1.0000
  H   H42       1.0  0.89837  0.87023  0.23718  1.0000
  H   H43       1.0  0.54457  0.23939  0.28616  1.0000
  H   H44       1.0  0.59991  0.26480  0.32343  1.0000
  H   H45       1.0  0.59698  0.33349  0.13694  1.0000
  H   H46       1.0  0.66718  0.26348  0.15202  1.0000
  H   H47       1.0  0.54171  0.30949  0.09056  1.0000
  H   H48       1.0  0.69094  0.23195  0.10631  1.0000
  H   H49       1.0  0.02513  0.05498  0.33801  1.0000
  H   H50       1.0  0.94138  0.97048  0.33683  1.0000
  H   H51       1.0  0.02540  0.97115  0.34011  1.0000
  H   H52       1.0  0.64068  0.27759  0.48932  1.0000
  H   H53       1.0  0.72451  0.36204  0.50334  1.0000
  H   H54       1.0  0.64039  0.36132  0.48825  1.0000
  H   H55       1.0  0.31207  0.31478  0.26086  1.0000
  H   H56       1.0  0.68886  0.00341  0.22987  1.0000
  H   H57       1.0  0.99677  0.68302  0.25414  1.0000
  H   H58       1.0  0.26591  0.30397  0.40099  1.0000
  H   H59       1.0  0.69491  0.96548  0.38051  1.0000
  H   H60       1.0  0.03601  0.72722  0.40716  1.0000
  H   H61       1.0  0.27942  0.29526  0.07719  1.0000
  H   H62       1.0  0.70644  0.98327  0.06261  1.0000
  H   H63       1.0  0.01709  0.71990  0.08684  1.0000
  H   H64       1.0  0.99848  0.73654  0.26904  1.0000
  H   H65       1.0  0.24034  0.24697  0.43085  1.0000
  H   H66       1.0  0.75170  0.99482  0.43271  1.0000
  H   H67       1.0  0.00860  0.75647  0.45606  1.0000
  H   H68       1.0  0.28241  0.24573  0.07054  1.0000
  H   H69       1.0  0.75536  0.03661  0.06433  1.0000
  H   H70       1.0  0.96548  0.71892  0.08081  1.0000
  H   H71       1.0  0.40089  0.32017  0.26971  1.0000
  H   H72       1.0  0.68671  0.08833  0.23395  1.0000
  H   H73       1.0  0.91124  0.59785  0.24054  1.0000
  H   H74       1.0  0.37134  0.28225  0.27883  1.0000
  H   H75       1.0  0.72369  0.09443  0.25363  1.0000
  H   H76       1.0  0.90714  0.63011  0.25230  1.0000
  H   H77       1.0  0.38969  0.30282  0.46138  1.0000
  H   H78       1.0  0.70429  0.09583  0.42877  1.0000
  H   H79       1.0  0.90324  0.60914  0.42978  1.0000
  H   H80       1.0  0.39775  0.35972  0.33739  1.0000
  H   H81       1.0  0.64545  0.04747  0.31032  1.0000
  H   H82       1.0  0.95082  0.59570  0.33752  1.0000
  H   H83       1.0  0.38286  0.34891  0.53676  1.0000
  H   H84       1.0  0.65681  0.04461  0.51194  1.0000
  H   H85       1.0  0.95315  0.61104  0.53800  1.0000
  H   H86       1.0  0.36394  0.35885  0.38802  1.0000
  H   H87       1.0  0.64435  0.01391  0.36914  1.0000
  H   H88       1.0  0.98458  0.62800  0.40608  1.0000
  H   H89       1.0  0.30429  0.11748  0.56179  1.0000
  H   H90       1.0  0.87620  0.18525  0.53684  1.0000
  H   H91       1.0  0.81548  0.69193  0.53033  1.0000
  H   H92       1.0  0.35819  0.14048  0.62992  1.0000
  H   H93       1.0  0.85367  0.21595  0.61230  1.0000
  H   H94       1.0  0.78459  0.63881  0.59987  1.0000
  H   H95       1.0  0.28566  0.19621  0.81735  1.0000
  H   H96       1.0  0.80507  0.09088  0.83561  1.0000
  H   H97       1.0  0.91001  0.71517  0.84410  1.0000
  H   H98       1.0  0.35141  0.26385  0.51715  1.0000
  H   H99       1.0  0.74108  0.09276  0.50966  1.0000
  H   H100      1.0  0.90921  0.64929  0.52374  1.0000
  H   H101      1.0  0.91712  0.73146  0.59422  1.0000
  H   H102      1.0  0.94804  0.78319  0.00844  1.0000
  H   H103      1.0  0.86720  0.79179  0.50250  1.0000
  H   H104      1.0  0.83738  0.73932  0.60146  1.0000
  H   H105      1.0  0.76081  0.60709  0.81558  1.0000
  H   H106      1.0  0.72882  0.55344  0.89083  1.0000
  H   H107      1.0  0.80224  0.53783  0.80039  1.0000
  H   H108      1.0  0.83483  0.59204  0.72811  1.0000
  H   H109      1.0  0.16764  0.11997  0.95220  1.0000
  H   H110      1.0  0.87762  0.04591  0.94208  1.0000
  H   H111      1.0  0.95368  0.83163  0.93337  1.0000
  H   H112      1.0  0.49678  0.21721  0.94255  1.0000
  H   H113      1.0  0.78234  0.27884  0.95877  1.0000
  H   H114      1.0  0.72090  0.50326  0.92406  1.0000
  H   H115      1.0  0.31654  0.26125  0.75154  1.0000
  H   H116      1.0  0.73857  0.05439  0.74424  1.0000
  H   H117      1.0  0.94533  0.68352  0.75873  1.0000
  H   H118      1.0  0.96010  0.66126  0.56349  1.0000
  H   H119      1.0  0.12049  0.09431  0.54053  1.0000
  H   H120      1.0  0.90494  0.02841  0.54230  1.0000
  H   H121      1.0  0.97079  0.87802  0.53984  1.0000
  H   H122      1.0  0.06554  0.06888  0.49328  1.0000
  H   H123      1.0  0.93003  0.99876  0.50054  1.0000
  H   H124      1.0  0.99873  0.93303  0.50315  1.0000
  H   H125      1.0  0.93062  0.92647  0.69878  1.0000
  H   H126      1.0  0.90199  0.87082  0.73733  1.0000
  H   H127      1.0  0.54313  0.24178  0.78174  1.0000
  H   H128      1.0  0.75832  0.30156  0.81344  1.0000
  H   H129      1.0  0.59834  0.26632  0.82190  1.0000
  H   H130      1.0  0.73417  0.33238  0.85252  1.0000
  H   H131      1.0  0.59827  0.33369  0.62250  1.0000
  H   H132      1.0  0.54302  0.30929  0.57434  1.0000
  H   H133      1.0  0.02603  0.05546  0.84731  1.0000
  H   H134      1.0  0.94343  0.96981  0.84790  1.0000
  H   H135      1.0  0.02864  0.97285  0.84312  1.0000
  H   H136      1.0  0.63842  0.27742  0.00114  1.0000
  H   H137      1.0  0.72293  0.36114  0.01642  1.0000
  H   H138      1.0  0.63961  0.36185  0.98611  1.0000
  H   H139      1.0  0.31437  0.31575  0.75882  1.0000
  H   H140      1.0  0.68535  0.99719  0.74106  1.0000
  H   H141      1.0  0.00074  0.68457  0.76106  1.0000
  H   H142      1.0  0.32414  0.33490  0.94830  1.0000
  H   H143      1.0  0.66600  0.98708  0.92545  1.0000
  H   H144      1.0  0.26865  0.30627  0.89915  1.0000
  H   H145      1.0  0.69541  0.96119  0.88230  1.0000
  H   H146      1.0  0.03886  0.72988  0.91029  1.0000
  H   H147      1.0  0.27726  0.29363  0.57912  1.0000
  H   H148      1.0  0.70520  0.98770  0.56011  1.0000
  H   H149      1.0  0.26232  0.26080  0.74958  1.0000
  H   H150      1.0  0.74001  0.00095  0.73966  1.0000
  H   H151      1.0  0.24159  0.24923  0.92961  1.0000
  H   H152      1.0  0.75238  0.99239  0.92116  1.0000
  H   H153      1.0  0.01062  0.75859  0.94439  1.0000
  H   H154      1.0  0.28164  0.24438  0.57129  1.0000
  H   H155      1.0  0.75624  0.04009  0.56865  1.0000
  H   H156      1.0  0.96291  0.71690  0.58629  1.0000
  H   H157      1.0  0.27161  0.22364  0.89061  1.0000
  H   H158      1.0  0.77692  0.04814  0.88746  1.0000
  H   H159      1.0  0.40179  0.31817  0.76564  1.0000
  H   H160      1.0  0.68123  0.08038  0.73803  1.0000
  H   H161      1.0  0.91477  0.59889  0.74935  1.0000
  H   H162      1.0  0.37171  0.28059  0.77856  1.0000
  H   H163      1.0  0.71867  0.08773  0.75633  1.0000
  H   H164      1.0  0.90963  0.63048  0.76526  1.0000
  H   H165      1.0  0.39086  0.30144  0.95893  1.0000
  H   H166      1.0  0.69921  0.08885  0.93241  1.0000
  H   H167      1.0  0.90783  0.61000  0.94168  1.0000
  H   H168      1.0  0.40006  0.35856  0.83640  1.0000
  H   H169      1.0  0.64084  0.03881  0.82711  1.0000
  H   H170      1.0  0.95529  0.59804  0.83588  1.0000
  H   H171      1.0  0.38438  0.34836  0.03420  1.0000
  H   H172      1.0  0.65453  0.03774  0.02619  1.0000
  H   H173      1.0  0.95696  0.61233  0.03805  1.0000
  H   H174      1.0  0.36655  0.35866  0.88085  1.0000
  H   H175      1.0  0.64175  0.00632  0.88757  1.0000
  H   H176      1.0  0.98865  0.63029  0.90835  1.0000
  C   C1        1.0  0.31782  0.14197  0.11356  1.0000
  C   C2        1.0  0.86011  0.17754  0.10370  1.0000
  C   C3        1.0  0.82467  0.68204  0.09442  1.0000
  C   C4        1.0  0.34826  0.15474  0.15718  1.0000
  C   C5        1.0  0.84808  0.19581  0.14551  1.0000
  C   C6        1.0  0.80637  0.65178  0.13526  1.0000
  C   C7        1.0  0.36464  0.18265  0.24209  1.0000
  C   C8        1.0  0.82064  0.18485  0.22762  1.0000
  C   C9        1.0  0.81721  0.63572  0.22387  1.0000
  C   C10       1.0  0.34854  0.19739  0.28333  1.0000
  C   C11       1.0  0.80601  0.15415  0.26994  1.0000
  C   C12       1.0  0.84780  0.65223  0.27347  1.0000
  C   C13       1.0  0.31767  0.18396  0.23709  1.0000
  C   C14       1.0  0.81898  0.13617  0.22950  1.0000
  C   C15       1.0  0.86589  0.68310  0.23257  1.0000
  C   C16       1.0  0.30123  0.15628  0.15236  1.0000
  C   C17       1.0  0.84580  0.14662  0.14320  1.0000
  C   C18       1.0  0.85551  0.69908  0.14085  1.0000
  C   C19       1.0  0.33326  0.22668  0.38130  1.0000
  C   C20       1.0  0.77714  0.11047  0.37302  1.0000
  C   C21       1.0  0.89160  0.66745  0.38333  1.0000
  C   C22       1.0  0.87477  0.73068  0.09312  1.0000
  C   C23       1.0  0.80833  0.20440  0.27157  1.0000
  C   C24       1.0  0.79778  0.60375  0.26452  1.0000
  C   C25       1.0  0.90630  0.74401  0.07485  1.0000
  C   C26       1.0  0.92386  0.77367  0.02383  1.0000
  C   C27       1.0  0.91084  0.79160  0.99213  1.0000
  C   C28       1.0  0.87949  0.77859  0.01189  1.0000
  C   C29       1.0  0.86202  0.74898  0.06024  1.0000
  C   C30       1.0  0.82704  0.23359  0.33831  1.0000
  C   C31       1.0  0.76820  0.59275  0.31890  1.0000
  C   C32       1.0  0.81496  0.25146  0.38660  1.0000
  C   C33       1.0  0.75051  0.56271  0.36385  1.0000
  C   C34       1.0  0.78388  0.24067  0.36772  1.0000
  C   C35       1.0  0.76178  0.54273  0.35409  1.0000
  C   C36       1.0  0.76535  0.21185  0.29596  1.0000
  C   C37       1.0  0.79098  0.55345  0.29378  1.0000
  C   C38       1.0  0.77729  0.19393  0.24976  1.0000
  C   C39       1.0  0.80869  0.58342  0.25101  1.0000
  C   C40       1.0  0.17490  0.10170  0.45339  1.0000
  C   C41       1.0  0.89518  0.07292  0.44373  1.0000
  C   C42       1.0  0.92661  0.82251  0.44002  1.0000
  C   C43       1.0  0.49038  0.23208  0.40297  1.0000
  C   C44       1.0  0.77109  0.25914  0.41982  1.0000
  C   C45       1.0  0.74325  0.51152  0.40512  1.0000
  C   C46       1.0  0.12615  0.06095  0.40583  1.0000
  C   C47       1.0  0.93587  0.06571  0.39503  1.0000
  C   C48       1.0  0.93282  0.87004  0.38681  1.0000
  C   C49       1.0  0.53993  0.27240  0.43044  1.0000
  C   C50       1.0  0.10933  0.07391  0.46420  1.0000
  C   C51       1.0  0.92413  0.03679  0.46190  1.0000
  C   C52       1.0  0.96169  0.88816  0.45847  1.0000
  C   C53       1.0  0.07825  0.05940  0.43789  1.0000
  C   C54       1.0  0.93850  0.02013  0.43884  1.0000
  C   C55       1.0  0.97739  0.91929  0.43817  1.0000
  C   C56       1.0  0.06266  0.03156  0.35224  1.0000
  C   C57       1.0  0.96503  0.03150  0.34821  1.0000
  C   C58       1.0  0.96514  0.93362  0.34601  1.0000
  C   C59       1.0  0.07975  0.01915  0.29063  1.0000
  C   C60       1.0  0.97632  0.06016  0.27912  1.0000
  C   C61       1.0  0.93649  0.91536  0.27268  1.0000
  C   C62       1.0  0.11072  0.03325  0.31834  1.0000
  C   C63       1.0  0.96236  0.07714  0.30374  1.0000
  C   C64       1.0  0.92049  0.88426  0.29402  1.0000
  C   C65       1.0  0.55625  0.25954  0.36403  1.0000
  C   C66       1.0  0.58747  0.27392  0.38562  1.0000
  C   C67       1.0  0.60337  0.30114  0.47640  1.0000
  C   C68       1.0  0.58531  0.31365  0.05693  1.0000
  C   C69       1.0  0.68690  0.27168  0.07576  1.0000
  C   C70       1.0  0.55434  0.30021  0.03245  1.0000
  C   C71       1.0  0.70016  0.25403  0.05177  1.0000
  C   C72       1.0  0.02937  0.01508  0.33736  1.0000
  C   C73       1.0  0.98140  0.01467  0.33540  1.0000
  C   C74       1.0  0.98150  0.96691  0.33512  1.0000
  C   C75       1.0  0.63664  0.31754  0.49079  1.0000
  C   C76       1.0  0.68453  0.31792  0.49899  1.0000
  C   C77       1.0  0.68445  0.36576  0.49765  1.0000
  C   C78       1.0  0.01308  0.03038  0.33483  1.0000
  C   C79       1.0  0.96591  0.98292  0.33416  1.0000
  C   C80       1.0  0.01313  0.98334  0.33617  1.0000
  C   C81       1.0  0.65285  0.30218  0.49417  1.0000
  C   C82       1.0  0.69997  0.34967  0.50180  1.0000
  C   C83       1.0  0.65281  0.34928  0.49342  1.0000
  C   C84       1.0  0.38120  0.30443  0.33981  1.0000
  C   C85       1.0  0.70162  0.08391  0.31088  1.0000
  C   C86       1.0  0.91615  0.61768  0.31668  1.0000
  C   C87       1.0  0.37687  0.34738  0.40607  1.0000
  C   C88       1.0  0.65725  0.03860  0.38263  1.0000
  C   C89       1.0  0.95991  0.61675  0.41016  1.0000
  C   C90       1.0  0.31572  0.13922  0.62622  1.0000
  C   C91       1.0  0.85606  0.17527  0.61039  1.0000
  C   C92       1.0  0.82545  0.68176  0.60515  1.0000
  C   C93       1.0  0.34641  0.15233  0.66538  1.0000
  C   C94       1.0  0.84304  0.19267  0.65182  1.0000
  C   C95       1.0  0.80789  0.65131  0.64361  1.0000
  C   C96       1.0  0.36328  0.18097  0.74236  1.0000
  C   C97       1.0  0.81566  0.18093  0.73503  1.0000
  C   C98       1.0  0.81943  0.63547  0.72838  1.0000
  C   C99       1.0  0.34729  0.19591  0.78130  1.0000
  C   C100      1.0  0.80193  0.15029  0.77716  1.0000
  C   C101      1.0  0.85011  0.65250  0.77646  1.0000
  C   C102      1.0  0.31624  0.18229  0.73867  1.0000
  C   C103      1.0  0.81595  0.13322  0.73774  1.0000
  C   C104      1.0  0.86742  0.68363  0.73911  1.0000
  C   C105      1.0  0.29936  0.15398  0.66054  1.0000
  C   C106      1.0  0.84289  0.14453  0.65136  1.0000
  C   C107      1.0  0.85625  0.69933  0.65099  1.0000
  C   C108      1.0  0.33241  0.22561  0.87765  1.0000
  C   C109      1.0  0.77385  0.10617  0.87723  1.0000
  C   C110      1.0  0.89433  0.66861  0.88365  1.0000
  C   C111      1.0  0.87469  0.73098  0.60266  1.0000
  C   C112      1.0  0.80023  0.60344  0.76781  1.0000
  C   C113      1.0  0.90596  0.74452  0.57546  1.0000
  C   C114      1.0  0.92260  0.77400  0.52054  1.0000
  C   C115      1.0  0.90881  0.79135  0.49210  1.0000
  C   C116      1.0  0.87772  0.77816  0.52175  1.0000
  C   C117      1.0  0.86120  0.74881  0.57577  1.0000
  C   C118      1.0  0.76996  0.59197  0.81147  1.0000
  C   C119      1.0  0.75201  0.56186  0.85398  1.0000
  C   C120      1.0  0.76361  0.54213  0.85259  1.0000
  C   C121      1.0  0.79363  0.55338  0.80463  1.0000
  C   C122      1.0  0.81165  0.58344  0.76433  1.0000
  C   C123      1.0  0.17585  0.10398  0.96774  1.0000
  C   C124      1.0  0.89378  0.07041  0.94900  1.0000
  C   C125      1.0  0.92932  0.82299  0.94513  1.0000
  C   C126      1.0  0.48928  0.23312  0.90738  1.0000
  C   C127      1.0  0.76599  0.25541  0.92061  1.0000
  C   C128      1.0  0.74471  0.51076  0.89965  1.0000
  C   C129      1.0  0.31588  0.26359  0.88448  1.0000
  C   C130      1.0  0.73657  0.05142  0.87677  1.0000
  C   C131      1.0  0.33283  0.29772  0.92986  1.0000
  C   C132      1.0  0.70266  0.03358  0.91735  1.0000
  C   C133      1.0  0.93579  0.87069  0.89294  1.0000
  C   C134      1.0  0.53850  0.27364  0.93630  1.0000
  C   C135      1.0  0.72642  0.26473  0.95925  1.0000
  C   C136      1.0  0.96437  0.88879  0.96800  1.0000
  C   C137      1.0  0.98021  0.91993  0.94749  1.0000
  C   C138      1.0  0.96821  0.93421  0.85302  1.0000
  C   C139      1.0  0.93984  0.91599  0.77684  1.0000
  C   C140      1.0  0.92379  0.88489  0.79740  1.0000
  C   C141      1.0  0.55479  0.26123  0.86430  1.0000
  C   C142      1.0  0.73905  0.29374  0.89288  1.0000
  C   C143      1.0  0.58596  0.27521  0.88677  1.0000
  C   C144      1.0  0.72527  0.31101  0.91471  1.0000
  C   C145      1.0  0.60188  0.30176  0.98264  1.0000
  C   C146      1.0  0.69872  0.30023  0.00448  1.0000
  C   C147      1.0  0.58669  0.31331  0.54630  1.0000
  C   C148      1.0  0.55573  0.29964  0.52126  1.0000
  C   C149      1.0  0.03117  0.01618  0.84310  1.0000
  C   C150      1.0  0.98264  0.01450  0.84500  1.0000
  C   C151      1.0  0.98417  0.96747  0.84280  1.0000
  C   C152      1.0  0.63513  0.31779  0.99783  1.0000
  C   C153      1.0  0.68258  0.31734  0.01131  1.0000
  C   C154      1.0  0.68332  0.36552  0.00323  1.0000
  C   C155      1.0  0.01431  0.03087  0.84392  1.0000
  C   C156      1.0  0.96792  0.98281  0.84363  1.0000
  C   C157      1.0  0.01577  0.98445  0.84118  1.0000
  C   C158      1.0  0.65091  0.30202  0.00508  1.0000
  C   C159      1.0  0.69840  0.34905  0.01279  1.0000
  C   C160      1.0  0.65168  0.34951  0.99655  1.0000
  C   C161      1.0  0.31339  0.31228  0.89083  1.0000
  C   C162      1.0  0.68864  0.99951  0.87397  1.0000
  C   C163      1.0  0.28048  0.29477  0.94360  1.0000
  C   C164      1.0  0.70663  0.98466  0.92912  1.0000
  C   C165      1.0  0.26464  0.26190  0.88299  1.0000
  C   C166      1.0  0.73926  0.00230  0.87315  1.0000
  C   C167      1.0  0.28264  0.24712  0.93720  1.0000
  C   C168      1.0  0.75364  0.03524  0.93067  1.0000
  C   C169      1.0  0.38215  0.30297  0.83774  1.0000
  C   C170      1.0  0.69673  0.07681  0.81512  1.0000
  C   C171      1.0  0.91969  0.61869  0.82582  1.0000
  C   C172      1.0  0.37887  0.34667  0.90270  1.0000
  C   C173      1.0  0.65391  0.03107  0.89706  1.0000
  C   C174      1.0  0.96399  0.61876  0.91120  1.0000
  N   N1        1.0  0.35776  0.22437  0.37107  1.0000
  N   N2        1.0  0.77948  0.13721  0.35610  1.0000
  N   N3        1.0  0.86470  0.64301  0.36508  1.0000
  N   N4        1.0  0.30864  0.20348  0.29932  1.0000
  N   N5        1.0  0.79975  0.10803  0.29536  1.0000
  N   N6        1.0  0.89405  0.69223  0.30326  1.0000
  N   N7        1.0  0.33104  0.24907  0.46522  1.0000
  N   N8        1.0  0.75492  0.08643  0.45628  1.0000
  N   N9        1.0  0.91571  0.66944  0.47046  1.0000
  N   N10       1.0  0.36024  0.31600  0.34344  1.0000
  N   N11       1.0  0.68798  0.05104  0.32128  1.0000
  N   N12       1.0  0.94894  0.63575  0.33975  1.0000
  N   N13       1.0  0.15676  0.07279  0.44278  1.0000
  N   N14       1.0  0.92388  0.08450  0.42501  1.0000
  N   N15       1.0  0.91468  0.83918  0.41584  1.0000
  N   N16       1.0  0.50915  0.26081  0.40129  1.0000
  N   N17       1.0  0.74226  0.24812  0.42484  1.0000
  N   N18       1.0  0.75361  0.49318  0.40984  1.0000
  N   N19       1.0  0.35684  0.22323  0.86573  1.0000
  N   N20       1.0  0.77527  0.13250  0.86067  1.0000
  N   N21       1.0  0.86779  0.64372  0.86410  1.0000
  N   N22       1.0  0.30744  0.20216  0.79877  1.0000
  N   N23       1.0  0.79734  0.10485  0.80283  1.0000
  N   N24       1.0  0.89587  0.69337  0.80803  1.0000
  N   N25       1.0  0.33069  0.24823  0.96222  1.0000
  N   N26       1.0  0.75159  0.08180  0.95860  1.0000
  N   N27       1.0  0.91867  0.67074  0.96944  1.0000
  N   N28       1.0  0.36177  0.31526  0.84102  1.0000
  N   N29       1.0  0.68422  0.04414  0.82824  1.0000
  N   N30       1.0  0.95253  0.63752  0.84304  1.0000
  N   N31       1.0  0.15857  0.07526  0.94148  1.0000
  N   N32       1.0  0.92213  0.08162  0.92039  1.0000
  N   N33       1.0  0.91757  0.83977  0.91918  1.0000
  N   N34       1.0  0.50765  0.26195  0.90723  1.0000
  N   N35       1.0  0.73730  0.24512  0.92525  1.0000
  N   N36       1.0  0.75537  0.49277  0.91467  1.0000
  C  Sn1       1.0  0.95997  0.06838  0.75058  1.0000
  C   C175      1.0  0.93490  0.06100  0.84640  1.0000
  C  Sn2       1.0  0.92603  0.03881  0.96414  1.0000
  C  Sn3       1.0  0.94256  0.02371  0.98666  1.0000
  C   C176      1.0  0.96761  0.03110  0.89090  1.0000
  C  Sn4       1.0  0.97650  0.05328  0.77310  1.0000
  O  Te1       1.0  0.96844  0.09063  0.63361  1.0000
  O  Te2       1.0  0.89745  0.02775  0.05842  1.0000
  O  Te3       1.0  0.43252  0.99738  0.10375  1.0000
  O  Te4       1.0  0.00163  0.06029  0.67888  1.0000
  Mg  Mg1       1.0  0.39669  0.99581  0.20216  1.0000
  Mg  Mg2       1.0  0.00431  0.09223  0.53517  1.0000
  C  Sn5       1.0  0.41120  0.17916  0.90456  1.0000
  C   C177      1.0  0.39681  0.19319  0.83212  1.0000
  C  Sn6       1.0  0.41366  0.22107  0.75758  1.0000
  C  Sn7       1.0  0.44556  0.23521  0.75530  1.0000
  C   C178      1.0  0.45994  0.22118  0.82768  1.0000
  C  Sn8       1.0  0.44310  0.19331  0.90228  1.0000
  O  Te5       1.0  0.39390  0.15130  0.97839  1.0000
  O  Te6       1.0  0.39876  0.23466  0.68601  1.0000
  O  Te7       1.0  0.46286  0.26310  0.68139  1.0000
  O  Te8       1.0  0.45798  0.17971  0.97379  1.0000
  Mg  Mg3       1.0  0.43220  0.27263  0.60035  1.0000
  Mg  Mg4       1.0  0.42114  0.13767  0.05941  1.0000
  C  Sn9       1.0  0.73167  0.42517  0.59985  1.0000
  C   C179      1.0  0.70296  0.40437  0.53808  1.0000
  C  Sn10      1.0  0.69034  0.41204  0.40910  1.0000
  C  Sn11      1.0  0.70677  0.44109  0.34034  1.0000
  C   C180      1.0  0.73546  0.46186  0.40209  1.0000
  C  Sn12      1.0  0.74809  0.45422  0.53110  1.0000
  O  Te9       1.0  0.74384  0.41702  0.72884  1.0000
  O  Te10      1.0  0.66160  0.39087  0.34944  1.0000
  O  Te11      1.0  0.69457  0.44923  0.21126  1.0000
  O  Te12      1.0  0.77682  0.47537  0.59072  1.0000
  Mg  Mg5       1.0  0.65466  0.41260  0.17221  1.0000
  Mg  Mg6       1.0  0.78378  0.45366  0.76788  1.0000
  C  Sn13      1.0  0.23485  0.14999  0.47082  1.0000
  C   C181      1.0  0.21214  0.11961  0.47165  1.0000
  C  Sn14      1.0  0.21581  0.09885  0.56314  1.0000
  C  Sn15      1.0  0.24273  0.10866  0.65583  1.0000
  C   C182      1.0  0.26541  0.13903  0.65499  1.0000
  C  Sn16      1.0  0.26177  0.15981  0.56350  1.0000
  O  Te13      1.0  0.23070  0.17036  0.37847  1.0000
  O  Te14      1.0  0.19279  0.06858  0.56201  1.0000
  O  Te15      1.0  0.24686  0.08827  0.74821  1.0000
  O  Te16      1.0  0.28476  0.19006  0.56463  1.0000
  Mg  Mg7       1.0  0.20902  0.04943  0.70745  1.0000
  Mg  Mg8       1.0  0.26855  0.20923  0.41930  1.0000
  C  Sn17      1.0  0.41208  0.17889  0.39786  1.0000
  C   C183      1.0  0.39800  0.19397  0.33453  1.0000
  C  Sn18      1.0  0.41513  0.22250  0.26723  1.0000
  C  Sn19      1.0  0.44699  0.23625  0.26304  1.0000
  C   C184      1.0  0.46105  0.22117  0.32631  1.0000
  C  Sn20      1.0  0.44394  0.19264  0.39367  1.0000
  O  Te17      1.0  0.39451  0.15038  0.46455  1.0000
  O  Te18      1.0  0.40055  0.23714  0.20472  1.0000
  O  Te19      1.0  0.46455  0.26479  0.19627  1.0000
  O  Te20      1.0  0.45850  0.17800  0.45612  1.0000
  Mg  Mg9       1.0  0.43427  0.27568  0.12641  1.0000
  Mg  Mg10      1.0  0.42480  0.13945  0.53437  1.0000
  C  Sn21      1.0  0.98884  0.67670  0.87510  1.0000
  C   C185      1.0  0.00415  0.70256  0.78156  1.0000
  C  Sn22      1.0  0.99643  0.72512  0.78882  1.0000
  C  Sn23      1.0  0.97294  0.72178  0.89181  1.0000
  C   C186      1.0  0.95766  0.69593  0.98530  1.0000
  C  Sn24      1.0  0.96535  0.67336  0.97809  1.0000
  O  Te21      1.0  0.99693  0.65444  0.86593  1.0000
  O  Te22      1.0  0.01205  0.75077  0.69412  1.0000
  O  Te23      1.0  0.96486  0.74407  0.90092  1.0000
  O  Te24      1.0  0.94632  0.64366  0.07274  1.0000
  Mg  Mg11      1.0  0.99276  0.77487  0.74862  1.0000
  Mg  Mg12      1.0  0.96560  0.61955  0.01841  1.0000
  C  Sn25      1.0  0.84006  0.08754  0.60708  1.0000
  C   C187      1.0  0.85462  0.11867  0.63950  1.0000
  C  Sn26      1.0  0.88387  0.13764  0.58515  1.0000
  C  Sn27      1.0  0.89886  0.12526  0.49645  1.0000
  C   C188      1.0  0.88430  0.09415  0.46404  1.0000
  C  Sn28      1.0  0.85506  0.07516  0.51837  1.0000
  O  Te25      1.0  0.81082  0.06900  0.66258  1.0000
  O  Te26      1.0  0.89797  0.16869  0.61911  1.0000
  O  Te27      1.0  0.92812  0.14383  0.44095  1.0000
  O  Te28      1.0  0.84096  0.04413  0.48444  1.0000
  Mg  Mg13      1.0  0.93787  0.18466  0.51759  1.0000
  Mg  Mg14      1.0  0.80105  0.02814  0.58581  1.0000
  C  Sn29      1.0  0.10799  0.03883  0.75418  1.0000
  C   C189      1.0  0.12566  0.06315  0.86050  1.0000
  C  Sn30      1.0  0.11215  0.07162  0.98112  1.0000
  C  Sn31      1.0  0.08032  0.05542  0.99585  1.0000
  C   C190      1.0  0.06268  0.03111  0.88959  1.0000
  C  Sn32      1.0  0.07617  0.02264  0.76891  1.0000
  O  Te29      1.0  0.12198  0.03077  0.63451  1.0000
  O  Te30      1.0  0.12684  0.09195  0.08596  1.0000
  O  Te31      1.0  0.06291  0.05944  0.11564  1.0000
  O  Te32      1.0  0.55995  0.99825  0.66413  1.0000
  Mg  Mg15      1.0  0.09723  0.09428  0.22946  1.0000
  Mg  Mg16      1.0  0.58953  0.99589  0.52064  1.0000
  C  Sn33      1.0  0.90140  0.12561  0.07174  1.0000
  C   C191      1.0  0.88570  0.09446  0.03913  1.0000
  C  Sn34      1.0  0.85436  0.07887  0.01866  1.0000
  C  Sn35      1.0  0.83836  0.09473  0.03093  1.0000
  C   C192      1.0  0.85406  0.12586  0.06348  1.0000
  C  Sn36      1.0  0.88541  0.14147  0.08400  1.0000
  O  Te33      1.0  0.93274  0.14074  0.09175  1.0000
  O  Te34      1.0  0.84259  0.05179  0.98621  1.0000
  O  Te35      1.0  0.80700  0.07957  0.01088  1.0000
  O  Te36      1.0  0.90061  0.17259  0.11641  1.0000
  Mg  Mg17      1.0  0.79984  0.04122  0.96842  1.0000
  Mg  Mg18      1.0  0.94335  0.18320  0.13414  1.0000
  C  Sn37      1.0  0.32042  0.31092  0.37391  1.0000
  C   C193      1.0  0.29397  0.29897  0.27915  1.0000
  C  Sn38      1.0  0.27275  0.26811  0.28188  1.0000
  C  Sn39      1.0  0.27806  0.24879  0.38148  1.0000
  C   C194      1.0  0.30448  0.26074  0.47619  1.0000
  C  Sn40      1.0  0.32572  0.29160  0.47352  1.0000
  O  Te37      1.0  0.34132  0.34184  0.36929  1.0000
  O  Te38      1.0  0.24649  0.25669  0.18604  1.0000
  O  Te39      1.0  0.25713  0.21785  0.38603  1.0000
  O  Te40      1.0  0.35197  0.30303  0.56930  1.0000
  Mg  Mg19      1.0  0.22479  0.21301  0.23387  1.0000
  Mg  Mg20      1.0  0.37368  0.34670  0.52163  1.0000
  C  Sn41      1.0  0.99337  0.68326  0.44812  1.0000
  C   C195      1.0  0.97022  0.67116  0.33030  1.0000
  C  Sn42      1.0  0.95754  0.68808  0.27511  1.0000
  C  Sn43      1.0  0.96823  0.71772  0.33892  1.0000
  C   C196      1.0  0.99136  0.72981  0.45663  1.0000
  C  Sn44      1.0  0.00406  0.71291  0.51193  1.0000
  O  Te41      1.0  0.00571  0.66595  0.50152  1.0000
  O  Te42      1.0  0.93442  0.67549  0.15728  1.0000
  O  Te43      1.0  0.95586  0.73504  0.28541  1.0000
  O  Te44      1.0  0.02717  0.72548  0.62966  1.0000
  Mg  Mg21      1.0  0.92483  0.70799  0.12323  1.0000
  Mg  Mg22      1.0  0.03678  0.69301  0.66373  1.0000
  C  Sn45      1.0  0.69148  0.01520  0.34741  1.0000
  C   C197      1.0  0.20479  0.00056  0.25188  1.0000
  C  Sn46      1.0  0.73325  0.00874  0.26586  1.0000
  C  Sn47      1.0  0.75258  0.03202  0.37773  1.0000
  C   C198      1.0  0.74116  0.04664  0.47321  1.0000
  C  Sn48      1.0  0.71081  0.03848  0.45929  1.0000
  O  Te45      1.0  0.66107  0.00665  0.33142  1.0000
  O  Te46      1.0  0.24604  0.99378  0.16901  1.0000
  O  Te47      1.0  0.78301  0.04057  0.39366  1.0000
  O  Te48      1.0  0.69991  0.05342  0.55608  1.0000
  Mg  Mg23      1.0  0.78725  0.01350  0.23510  1.0000
  Mg  Mg24      1.0  0.65681  0.03371  0.49015  1.0000
  C  Sn49      1.0  0.69622  0.27152  0.60575  1.0000
  C   C199      1.0  0.70421  0.29962  0.54088  1.0000
  C  Sn50      1.0  0.72441  0.31097  0.41269  1.0000
  C  Sn51      1.0  0.73687  0.29388  0.34791  1.0000
  C   C200      1.0  0.72888  0.26580  0.41275  1.0000
  C  Sn52      1.0  0.70868  0.25442  0.54097  1.0000
  O  Te49      1.0  0.67599  0.26060  0.73388  1.0000
  O  Te50      1.0  0.73206  0.33913  0.34990  1.0000
  O  Te51      1.0  0.75712  0.30482  0.21969  1.0000
  O  Te52      1.0  0.70102  0.22629  0.60373  1.0000
  Mg  Mg25      1.0  0.76056  0.34434  0.17535  1.0000
  Mg  Mg26      1.0  0.67252  0.22104  0.77822  1.0000
  C  Sn53      1.0  0.24511  0.10644  0.04783  1.0000
  C   C201      1.0  0.26691  0.13708  0.06368  1.0000
  C  Sn54      1.0  0.25835  0.15902  0.06994  1.0000
  C  Sn55      1.0  0.22736  0.15016  0.06026  1.0000
  C   C202      1.0  0.20557  0.11955  0.04445  1.0000
  C  Sn56      1.0  0.21411  0.09758  0.03815  1.0000
  O  Te53      1.0  0.25417  0.08489  0.04183  1.0000
  O  Te54      1.0  0.28056  0.18951  0.08576  1.0000
  O  Te55      1.0  0.21830  0.17175  0.06627  1.0000
  O  Te56      1.0  0.19192  0.06711  0.02237  1.0000
  Mg  Mg27      1.0  0.25695  0.21044  0.08858  1.0000
  Mg  Mg28      1.0  0.21551  0.04617  0.01962  1.0000
  C  Sn57      1.0  0.69605  0.41902  0.84205  1.0000
  C   C203      1.0  0.70274  0.40092  0.93945  1.0000
  C  Sn58      1.0  0.72219  0.40998  0.05836  1.0000
  C  Sn59      1.0  0.73872  0.44187  0.08046  1.0000
  C   C204      1.0  0.73546  0.46402  0.98313  1.0000
  C  Sn60      1.0  0.71258  0.45091  0.86416  1.0000
  O  Te57      1.0  0.67308  0.40541  0.72393  1.0000
  O  Te58      1.0  0.72848  0.39142  0.15421  1.0000
  O  Te59      1.0  0.76171  0.45548  0.19871  1.0000
  O  Te60      1.0  0.70629  0.46946  0.76836  1.0000
  Mg  Mg29      1.0  0.76185  0.42062  0.29909  1.0000
  Mg  Mg30      1.0  0.67291  0.44028  0.62351  1.0000
  C  Sn61      1.0  0.76871  0.19496  0.71870  1.0000
  C   C205      1.0  0.79855  0.20153  0.73623  1.0000
  C  Sn62      1.0  0.81895  0.22570  0.83602  1.0000
  C  Sn63      1.0  0.80934  0.24369  0.92013  1.0000
  C   C206      1.0  0.77952  0.23712  0.90260  1.0000
  C  Sn64      1.0  0.75910  0.21295  0.80281  1.0000
  O  Te61      1.0  0.74870  0.17068  0.61831  1.0000
  O  Te62      1.0  0.84867  0.23183  0.85158  1.0000
  O  Te63      1.0  0.82596  0.26392  0.02057  1.0000
  O  Te64      1.0  0.72940  0.20681  0.78725  1.0000
  Mg  Mg31      1.0  0.86408  0.26326  0.00259  1.0000
  Mg  Mg32      1.0  0.71054  0.17132  0.63635  1.0000
