data_image0
_chemical_formula_structural       H116C90N36SnCSn2CSnTe4Mg2SnCSn2CSnTe4Mg2SnCSn2CSnTe4Mg2SnCSn2CSnTe4Mg2SnCSn2CSnTe4Mg2SnCSn2CSnTe4Mg2SnCSn2CSnTe4Mg2SnCSn2CSnTe4Mg2SnCSn2CSnTe4Mg2SnCSn2CSnTe4Mg2SnCSn2CSnTe4Mg2SnCSn2CSnTe4Mg2SnCSn2CSnTe4Mg2SnCSn2CSnTe4Mg2SnCSn2CSnTe4Mg2SnCSn2CSnTe4Mg2SnCSn2CSnTe4Mg2SnCSn2CSnTe4Mg2SnCSn2CSnTe4Mg2SnCSn2CSnTe4Mg2SnCSn2CSnTe4Mg2SnCSn2CSnTe4Mg2SnCSn2CSnTe4Mg2SnCSn2CSnTe4Mg2SnCSn2CSnTe4Mg2SnCSn2CSnTe4Mg2SnCSn2CSnTe4Mg2SnCSn2CSnTe4Mg2SnCSn2CSnTe4Mg2SnCSn2CSnTe4Mg2SnCSn2CSnTe4Mg2SnCSn2CSnTe4Mg2
_chemical_formula_sum              "H116 C154 N36 Sn128 Te128 Mg64"
_cell_length_a       51.296
_cell_length_b       51.1751
_cell_length_c       8.2163
_cell_angle_alpha    90.8329
_cell_angle_beta     90.4982
_cell_angle_gamma    120.203

_symmetry_space_group_name_H-M    'P1'
_space_group_IT_number       1

loop_
  _space_group_symop_operation_xyz
  'x, y, z'

loop_
  _atom_site_type_symbol
  _atom_site_label
  _atom_site_symmetry_multiplicity
  _atom_site_fract_x
  _atom_site_fract_y
  _atom_site_fract_z
  _atom_site_occupancy
  H   H1        1.0  0.30690  0.12110  0.04113  1.0000
  H   H2        1.0  0.88049  0.18712  0.03216  1.0000
  H   H3        1.0  0.81523  0.69236  0.01691  1.0000
  H   H4        1.0  0.36026  0.14327  0.11909  1.0000
  H   H5        1.0  0.85972  0.21925  0.10809  1.0000
  H   H6        1.0  0.78313  0.63960  0.09042  1.0000
  H   H7        1.0  0.28684  0.19785  0.31214  1.0000
  H   H8        1.0  0.80681  0.09356  0.32885  1.0000
  H   H9        1.0  0.90905  0.71404  0.33473  1.0000
  H   H10       1.0  0.35110  0.26254  0.01530  1.0000
  H   H11       1.0  0.73691  0.08776  0.00466  1.0000
  H   H12       1.0  0.91230  0.65035  0.01933  1.0000
  H   H13       1.0  0.16765  0.11784  0.41922  1.0000
  H   H14       1.0  0.87928  0.04859  0.42331  1.0000
  H   H15       1.0  0.95088  0.83119  0.42404  1.0000
  H   H16       1.0  0.49750  0.21589  0.43830  1.0000
  H   H17       1.0  0.78720  0.28286  0.45445  1.0000
  H   H18       1.0  0.72002  0.50443  0.44113  1.0000
  H   H19       1.0  0.31626  0.26134  0.25378  1.0000
  H   H20       1.0  0.02513  0.05498  0.33801  1.0000
  H   H21       1.0  0.94138  0.97048  0.33683  1.0000
  H   H22       1.0  0.02540  0.97115  0.34011  1.0000
  H   H23       1.0  0.64068  0.27759  0.48932  1.0000
  H   H24       1.0  0.72451  0.36204  0.50334  1.0000
  H   H25       1.0  0.64039  0.36132  0.48825  1.0000
  H   H26       1.0  0.31207  0.31478  0.26086  1.0000
  H   H27       1.0  0.68886  0.00341  0.22987  1.0000
  H   H28       1.0  0.99677  0.68302  0.25414  1.0000
  H   H29       1.0  0.26591  0.30397  0.40099  1.0000
  H   H30       1.0  0.69491  0.96548  0.38051  1.0000
  H   H31       1.0  0.03601  0.72722  0.40716  1.0000
  H   H32       1.0  0.27942  0.29526  0.07719  1.0000
  H   H33       1.0  0.70644  0.98327  0.06261  1.0000
  H   H34       1.0  0.01709  0.71990  0.08684  1.0000
  H   H35       1.0  0.24034  0.24697  0.43085  1.0000
  H   H36       1.0  0.75170  0.99482  0.43271  1.0000
  H   H37       1.0  0.00860  0.75647  0.45606  1.0000
  H   H38       1.0  0.28241  0.24573  0.07054  1.0000
  H   H39       1.0  0.75536  0.03661  0.06433  1.0000
  H   H40       1.0  0.96548  0.71892  0.08081  1.0000
  H   H41       1.0  0.40089  0.32017  0.26971  1.0000
  H   H42       1.0  0.68671  0.08833  0.23395  1.0000
  H   H43       1.0  0.91124  0.59785  0.24054  1.0000
  H   H44       1.0  0.37134  0.28225  0.27883  1.0000
  H   H45       1.0  0.72369  0.09443  0.25363  1.0000
  H   H46       1.0  0.90714  0.63011  0.25230  1.0000
  H   H47       1.0  0.38969  0.30282  0.46138  1.0000
  H   H48       1.0  0.70429  0.09583  0.42877  1.0000
  H   H49       1.0  0.90324  0.60914  0.42978  1.0000
  H   H50       1.0  0.39775  0.35972  0.33739  1.0000
  H   H51       1.0  0.64545  0.04747  0.31032  1.0000
  H   H52       1.0  0.95082  0.59570  0.33752  1.0000
  H   H53       1.0  0.38286  0.34891  0.53676  1.0000
  H   H54       1.0  0.65681  0.04461  0.51194  1.0000
  H   H55       1.0  0.95315  0.61104  0.53800  1.0000
  H   H56       1.0  0.36394  0.35885  0.38802  1.0000
  H   H57       1.0  0.64435  0.01391  0.36914  1.0000
  H   H58       1.0  0.98458  0.62800  0.40608  1.0000
  H   H59       1.0  0.30429  0.11748  0.56179  1.0000
  H   H60       1.0  0.87620  0.18525  0.53684  1.0000
  H   H61       1.0  0.81548  0.69193  0.53033  1.0000
  H   H62       1.0  0.35819  0.14048  0.62992  1.0000
  H   H63       1.0  0.85367  0.21595  0.61230  1.0000
  H   H64       1.0  0.78459  0.63881  0.59987  1.0000
  H   H65       1.0  0.28566  0.19621  0.81735  1.0000
  H   H66       1.0  0.80507  0.09088  0.83561  1.0000
  H   H67       1.0  0.91001  0.71517  0.84410  1.0000
  H   H68       1.0  0.35141  0.26385  0.51715  1.0000
  H   H69       1.0  0.74108  0.09276  0.50966  1.0000
  H   H70       1.0  0.90921  0.64929  0.52374  1.0000
  H   H71       1.0  0.16764  0.11997  0.95220  1.0000
  H   H72       1.0  0.87762  0.04591  0.94208  1.0000
  H   H73       1.0  0.95368  0.83163  0.93337  1.0000
  H   H74       1.0  0.49678  0.21721  0.94255  1.0000
  H   H75       1.0  0.78234  0.27884  0.95877  1.0000
  H   H76       1.0  0.72090  0.50326  0.92406  1.0000
  H   H77       1.0  0.31654  0.26125  0.75154  1.0000
  H   H78       1.0  0.73857  0.05439  0.74424  1.0000
  H   H79       1.0  0.94533  0.68352  0.75873  1.0000
  H   H80       1.0  0.02603  0.05546  0.84731  1.0000
  H   H81       1.0  0.94343  0.96981  0.84790  1.0000
  H   H82       1.0  0.02864  0.97285  0.84312  1.0000
  H   H83       1.0  0.63842  0.27742  0.00114  1.0000
  H   H84       1.0  0.72293  0.36114  0.01642  1.0000
  H   H85       1.0  0.63961  0.36185  0.98611  1.0000
  H   H86       1.0  0.31437  0.31575  0.75882  1.0000
  H   H87       1.0  0.68535  0.99719  0.74106  1.0000
  H   H88       1.0  0.00074  0.68457  0.76106  1.0000
  H   H89       1.0  0.26865  0.30627  0.89915  1.0000
  H   H90       1.0  0.69541  0.96119  0.88230  1.0000
  H   H91       1.0  0.03886  0.72988  0.91029  1.0000
  H   H92       1.0  0.27726  0.29363  0.57912  1.0000
  H   H93       1.0  0.24159  0.24923  0.92961  1.0000
  H   H94       1.0  0.75238  0.99239  0.92116  1.0000
  H   H95       1.0  0.01062  0.75859  0.94439  1.0000
  H   H96       1.0  0.28164  0.24438  0.57129  1.0000
  H   H97       1.0  0.75624  0.04009  0.56865  1.0000
  H   H98       1.0  0.96291  0.71690  0.58629  1.0000
  H   H99       1.0  0.40179  0.31817  0.76564  1.0000
  H   H100      1.0  0.68123  0.08038  0.73803  1.0000
  H   H101      1.0  0.91477  0.59889  0.74935  1.0000
  H   H102      1.0  0.37171  0.28059  0.77856  1.0000
  H   H103      1.0  0.71867  0.08773  0.75633  1.0000
  H   H104      1.0  0.90963  0.63048  0.76526  1.0000
  H   H105      1.0  0.39086  0.30144  0.95893  1.0000
  H   H106      1.0  0.69921  0.08885  0.93241  1.0000
  H   H107      1.0  0.90783  0.61000  0.94168  1.0000
  H   H108      1.0  0.40006  0.35856  0.83640  1.0000
  H   H109      1.0  0.64084  0.03881  0.82711  1.0000
  H   H110      1.0  0.95529  0.59804  0.83588  1.0000
  H   H111      1.0  0.38438  0.34836  0.03420  1.0000
  H   H112      1.0  0.65453  0.03774  0.02619  1.0000
  H   H113      1.0  0.95696  0.61233  0.03805  1.0000
  H   H114      1.0  0.36655  0.35866  0.88085  1.0000
  H   H115      1.0  0.64175  0.00632  0.88757  1.0000
  H   H116      1.0  0.98865  0.63029  0.90835  1.0000
  C   C1        1.0  0.31782  0.14197  0.11356  1.0000
  C   C2        1.0  0.86011  0.17754  0.10370  1.0000
  C   C3        1.0  0.82467  0.68204  0.09442  1.0000
  C   C4        1.0  0.34826  0.15474  0.15718  1.0000
  C   C5        1.0  0.84808  0.19581  0.14551  1.0000
  C   C6        1.0  0.80637  0.65178  0.13526  1.0000
  C   C7        1.0  0.36464  0.18265  0.24209  1.0000
  C   C8        1.0  0.82064  0.18485  0.22762  1.0000
  C   C9        1.0  0.81721  0.63572  0.22387  1.0000
  C   C10       1.0  0.34854  0.19739  0.28333  1.0000
  C   C11       1.0  0.80601  0.15415  0.26994  1.0000
  C   C12       1.0  0.84780  0.65223  0.27347  1.0000
  C   C13       1.0  0.31767  0.18396  0.23709  1.0000
  C   C14       1.0  0.81898  0.13617  0.22950  1.0000
  C   C15       1.0  0.86589  0.68310  0.23257  1.0000
  C   C16       1.0  0.30123  0.15628  0.15236  1.0000
  C   C17       1.0  0.84580  0.14662  0.14320  1.0000
  C   C18       1.0  0.85551  0.69908  0.14085  1.0000
  C   C19       1.0  0.33326  0.22668  0.38130  1.0000
  C   C20       1.0  0.77714  0.11047  0.37302  1.0000
  C   C21       1.0  0.89160  0.66745  0.38333  1.0000
  C   C22       1.0  0.17490  0.10170  0.45339  1.0000
  C   C23       1.0  0.89518  0.07292  0.44373  1.0000
  C   C24       1.0  0.92661  0.82251  0.44002  1.0000
  C   C25       1.0  0.49038  0.23208  0.40297  1.0000
  C   C26       1.0  0.77109  0.25914  0.41982  1.0000
  C   C27       1.0  0.74325  0.51152  0.40512  1.0000
  C   C28       1.0  0.02937  0.01508  0.33736  1.0000
  C   C29       1.0  0.98140  0.01467  0.33540  1.0000
  C   C30       1.0  0.98150  0.96691  0.33512  1.0000
  C   C31       1.0  0.63664  0.31754  0.49079  1.0000
  C   C32       1.0  0.68453  0.31792  0.49899  1.0000
  C   C33       1.0  0.68445  0.36576  0.49765  1.0000
  C   C34       1.0  0.01308  0.03038  0.33483  1.0000
  C   C35       1.0  0.96591  0.98292  0.33416  1.0000
  C   C36       1.0  0.01313  0.98334  0.33617  1.0000
  C   C37       1.0  0.65285  0.30218  0.49417  1.0000
  C   C38       1.0  0.69997  0.34967  0.50180  1.0000
  C   C39       1.0  0.65281  0.34928  0.49342  1.0000
  C   C40       1.0  0.38120  0.30443  0.33981  1.0000
  C   C41       1.0  0.70162  0.08391  0.31088  1.0000
  C   C42       1.0  0.91615  0.61768  0.31668  1.0000
  C   C43       1.0  0.37687  0.34738  0.40607  1.0000
  C   C44       1.0  0.65725  0.03860  0.38263  1.0000
  C   C45       1.0  0.95991  0.61675  0.41016  1.0000
  C   C46       1.0  0.31572  0.13922  0.62622  1.0000
  C   C47       1.0  0.85606  0.17527  0.61039  1.0000
  C   C48       1.0  0.82545  0.68176  0.60515  1.0000
  C   C49       1.0  0.34641  0.15233  0.66538  1.0000
  C   C50       1.0  0.84304  0.19267  0.65182  1.0000
  C   C51       1.0  0.80789  0.65131  0.64361  1.0000
  C   C52       1.0  0.36328  0.18097  0.74236  1.0000
  C   C53       1.0  0.81566  0.18093  0.73503  1.0000
  C   C54       1.0  0.81943  0.63547  0.72838  1.0000
  C   C55       1.0  0.34729  0.19591  0.78130  1.0000
  C   C56       1.0  0.80193  0.15029  0.77716  1.0000
  C   C57       1.0  0.85011  0.65250  0.77646  1.0000
  C   C58       1.0  0.31624  0.18229  0.73867  1.0000
  C   C59       1.0  0.81595  0.13322  0.73774  1.0000
  C   C60       1.0  0.86742  0.68363  0.73911  1.0000
  C   C61       1.0  0.29936  0.15398  0.66054  1.0000
  C   C62       1.0  0.84289  0.14453  0.65136  1.0000
  C   C63       1.0  0.85625  0.69933  0.65099  1.0000
  C   C64       1.0  0.33241  0.22561  0.87765  1.0000
  C   C65       1.0  0.77385  0.10617  0.87723  1.0000
  C   C66       1.0  0.89433  0.66861  0.88365  1.0000
  C   C67       1.0  0.17585  0.10398  0.96774  1.0000
  C   C68       1.0  0.89378  0.07041  0.94900  1.0000
  C   C69       1.0  0.92932  0.82299  0.94513  1.0000
  C   C70       1.0  0.48928  0.23312  0.90738  1.0000
  C   C71       1.0  0.76599  0.25541  0.92061  1.0000
  C   C72       1.0  0.74471  0.51076  0.89965  1.0000
  C   C73       1.0  0.03117  0.01618  0.84310  1.0000
  C   C74       1.0  0.98264  0.01450  0.84500  1.0000
  C   C75       1.0  0.98417  0.96747  0.84280  1.0000
  C   C76       1.0  0.63513  0.31779  0.99783  1.0000
  C   C77       1.0  0.68258  0.31734  0.01131  1.0000
  C   C78       1.0  0.68332  0.36552  0.00323  1.0000
  C   C79       1.0  0.01431  0.03087  0.84392  1.0000
  C   C80       1.0  0.96792  0.98281  0.84363  1.0000
  C   C81       1.0  0.01577  0.98445  0.84118  1.0000
  C   C82       1.0  0.65091  0.30202  0.00508  1.0000
  C   C83       1.0  0.69840  0.34905  0.01279  1.0000
  C   C84       1.0  0.65168  0.34951  0.99655  1.0000
  C   C85       1.0  0.38215  0.30297  0.83774  1.0000
  C   C86       1.0  0.69673  0.07681  0.81512  1.0000
  C   C87       1.0  0.91969  0.61869  0.82582  1.0000
  C   C88       1.0  0.37887  0.34667  0.90270  1.0000
  C   C89       1.0  0.65391  0.03107  0.89706  1.0000
  C   C90       1.0  0.96399  0.61876  0.91120  1.0000
  N   N1        1.0  0.35776  0.22437  0.37107  1.0000
  N   N2        1.0  0.77948  0.13721  0.35610  1.0000
  N   N3        1.0  0.86470  0.64301  0.36508  1.0000
  N   N4        1.0  0.30864  0.20348  0.29932  1.0000
  N   N5        1.0  0.79975  0.10803  0.29536  1.0000
  N   N6        1.0  0.89405  0.69223  0.30326  1.0000
  N   N7        1.0  0.33104  0.24907  0.46522  1.0000
  N   N8        1.0  0.75492  0.08643  0.45628  1.0000
  N   N9        1.0  0.91571  0.66944  0.47046  1.0000
  N   N10       1.0  0.36024  0.31600  0.34344  1.0000
  N   N11       1.0  0.68798  0.05104  0.32128  1.0000
  N   N12       1.0  0.94894  0.63575  0.33975  1.0000
  N   N13       1.0  0.15676  0.07279  0.44278  1.0000
  N   N14       1.0  0.92388  0.08450  0.42501  1.0000
  N   N15       1.0  0.91468  0.83918  0.41584  1.0000
  N   N16       1.0  0.50915  0.26081  0.40129  1.0000
  N   N17       1.0  0.74226  0.24812  0.42484  1.0000
  N   N18       1.0  0.75361  0.49318  0.40984  1.0000
  N   N19       1.0  0.35684  0.22323  0.86573  1.0000
  N   N20       1.0  0.77527  0.13250  0.86067  1.0000
  N   N21       1.0  0.86779  0.64372  0.86410  1.0000
  N   N22       1.0  0.30744  0.20216  0.79877  1.0000
  N   N23       1.0  0.79734  0.10485  0.80283  1.0000
  N   N24       1.0  0.89587  0.69337  0.80803  1.0000
  N   N25       1.0  0.33069  0.24823  0.96222  1.0000
  N   N26       1.0  0.75159  0.08180  0.95860  1.0000
  N   N27       1.0  0.91867  0.67074  0.96944  1.0000
  N   N28       1.0  0.36177  0.31526  0.84102  1.0000
  N   N29       1.0  0.68422  0.04414  0.82824  1.0000
  N   N30       1.0  0.95253  0.63752  0.84304  1.0000
  N   N31       1.0  0.15857  0.07526  0.94148  1.0000
  N   N32       1.0  0.92213  0.08162  0.92039  1.0000
  N   N33       1.0  0.91757  0.83977  0.91918  1.0000
  N   N34       1.0  0.50765  0.26195  0.90723  1.0000
  N   N35       1.0  0.73730  0.24512  0.92525  1.0000
  N   N36       1.0  0.75537  0.49277  0.91467  1.0000
  C  Sn1       1.0  0.24511  0.10644  0.04783  1.0000
  C   C91       1.0  0.26691  0.13708  0.06368  1.0000
  C  Sn2       1.0  0.25835  0.15902  0.06994  1.0000
  C  Sn3       1.0  0.22736  0.15016  0.06026  1.0000
  C   C92       1.0  0.20557  0.11955  0.04445  1.0000
  C  Sn4       1.0  0.21411  0.09758  0.03815  1.0000
  O  Te1       1.0  0.25417  0.08489  0.04183  1.0000
  O  Te2       1.0  0.28056  0.18951  0.08576  1.0000
  O  Te3       1.0  0.21830  0.17175  0.06627  1.0000
  O  Te4       1.0  0.19192  0.06711  0.02237  1.0000
  Mg  Mg1       1.0  0.25695  0.21044  0.08858  1.0000
  Mg  Mg2       1.0  0.21551  0.04617  0.01962  1.0000
  C  Sn5       1.0  0.84827  0.08462  0.98623  1.0000
  C   C93       1.0  0.87829  0.09304  0.95803  1.0000
  C  Sn6       1.0  0.89826  0.11718  0.01225  1.0000
  C  Sn7       1.0  0.89151  0.13738  0.09651  1.0000
  C   C94       1.0  0.86150  0.12896  0.12469  1.0000
  C  Sn8       1.0  0.83808  0.10076  0.07049  1.0000
  O  Te5       1.0  0.82523  0.05631  0.93094  1.0000
  O  Te6       1.0  0.93153  0.12916  0.98257  1.0000
  O  Te7       1.0  0.91457  0.16571  0.15179  1.0000
  O  Te8       1.0  0.80826  0.09283  0.10016  1.0000
  Mg  Mg3       1.0  0.95162  0.16616  0.08194  1.0000
  Mg  Mg4       1.0  0.78472  0.05178  0.00092  1.0000
  C  Sn9       1.0  0.86255  0.75264  0.00224  1.0000
  C   C95       1.0  0.87181  0.73204  0.04162  1.0000
  C  Sn10      1.0  0.90229  0.74200  0.07112  1.0000
  C  Sn11      1.0  0.92397  0.77320  0.06115  1.0000
  C   C96       1.0  0.91470  0.79378  0.02181  1.0000
  C  Sn12      1.0  0.88765  0.78790  0.99226  1.0000
  O  Te9       1.0  0.83539  0.74624  0.97324  1.0000
  O  Te10      1.0  0.91101  0.72098  0.11023  1.0000
  O  Te11      1.0  0.95458  0.78365  0.09018  1.0000
  O  Te12      1.0  0.87893  0.80891  0.95320  1.0000
  Mg  Mg5       1.0  0.95532  0.74628  0.13929  1.0000
  Mg  Mg6       1.0  0.83463  0.78364  0.92420  1.0000
  C  Sn13      1.0  0.44039  0.23949  0.33842  1.0000
  C   C97       1.0  0.45478  0.22403  0.39141  1.0000
  C  Sn14      1.0  0.44016  0.19251  0.37822  1.0000
  C  Sn15      1.0  0.41053  0.17611  0.31057  1.0000
  C   C98       1.0  0.39615  0.19157  0.25760  1.0000
  C  Sn16      1.0  0.41076  0.22308  0.27077  1.0000
  O  Te13      1.0  0.45544  0.27100  0.35278  1.0000
  O  Te14      1.0  0.45500  0.17756  0.43208  1.0000
  O  Te15      1.0  0.39548  0.14458  0.29625  1.0000
  O  Te16      1.0  0.39593  0.23804  0.21693  1.0000
  Mg  Mg7       1.0  0.42512  0.13445  0.38671  1.0000
  Mg  Mg8       1.0  0.42580  0.28115  0.26216  1.0000
  C  Sn17      1.0  0.77439  0.19980  0.21100  1.0000
  C   C99       1.0  0.80418  0.20623  0.22865  1.0000
  C  Sn18      1.0  0.82442  0.22983  0.33204  1.0000
  C  Sn19      1.0  0.81468  0.24736  0.41972  1.0000
  C   C100      1.0  0.78491  0.24092  0.40207  1.0000
  C  Sn20      1.0  0.76465  0.21733  0.29868  1.0000
  O  Te17      1.0  0.75455  0.17610  0.10697  1.0000
  O  Te18      1.0  0.85409  0.23583  0.34765  1.0000
  O  Te19      1.0  0.83456  0.27107  0.52380  1.0000
  O  Te20      1.0  0.73500  0.21132  0.28307  1.0000
  Mg  Mg9       1.0  0.87268  0.27047  0.50435  1.0000
  Mg  Mg10      1.0  0.71638  0.17668  0.12648  1.0000
  C  Sn21      1.0  0.79970  0.56163  0.32807  1.0000
  C   C101      1.0  0.77003  0.54713  0.38256  1.0000
  C  Sn22      1.0  0.75233  0.56060  0.36430  1.0000
  C  Sn23      1.0  0.76455  0.58915  0.28994  1.0000
  C   C102      1.0  0.79420  0.60363  0.23547  1.0000
  C  Sn24      1.0  0.81191  0.59017  0.25371  1.0000
  O  Te21      1.0  0.81697  0.54774  0.34757  1.0000
  O  Te22      1.0  0.72273  0.54568  0.41978  1.0000
  O  Te23      1.0  0.74725  0.60303  0.27047  1.0000
  O  Te24      1.0  0.84150  0.60508  0.19825  1.0000
  Mg  Mg11      1.0  0.70813  0.57377  0.36565  1.0000
  Mg  Mg12      1.0  0.85611  0.57701  0.25224  1.0000
  C  Sn25      1.0  0.75336  0.04755  0.44686  1.0000
  C   C103      1.0  0.74269  0.02304  0.55094  1.0000
  C  Sn26      1.0  0.21453  0.99973  0.54026  1.0000
  C  Sn27      1.0  0.19472  0.00095  0.42304  1.0000
  C   C104      1.0  0.70350  0.02545  0.31903  1.0000
  C  Sn28      1.0  0.73355  0.04876  0.32964  1.0000
  O  Te25      1.0  0.78349  0.07059  0.45969  1.0000
  O  Te26      1.0  0.20438  0.97547  0.64567  1.0000
  O  Te27      1.0  0.16457  0.97788  0.41028  1.0000
  O  Te28      1.0  0.74370  0.07302  0.22430  1.0000
  Mg  Mg13      1.0  0.16140  0.94956  0.58092  1.0000
  Mg  Mg14      1.0  0.78668  0.09892  0.28888  1.0000
  C  Sn29      1.0  0.95499  0.70627  0.46397  1.0000
  C   C105      1.0  0.97984  0.71997  0.57100  1.0000
  C  Sn30      1.0  0.00229  0.71216  0.56437  1.0000
  C  Sn31      1.0  0.99986  0.69023  0.44826  1.0000
  C   C106      1.0  0.97503  0.67655  0.34129  1.0000
  C  Sn32      1.0  0.95257  0.68434  0.34786  1.0000
  O  Te29      1.0  0.93283  0.71443  0.47277  1.0000
  O  Te30      1.0  0.02691  0.72615  0.67268  1.0000
  O  Te31      1.0  0.02206  0.68208  0.43953  1.0000
  O  Te32      1.0  0.92796  0.67037  0.23961  1.0000
  Mg  Mg15      1.0  0.05130  0.70746  0.61303  1.0000
  Mg  Mg16      1.0  0.90357  0.68905  0.29910  1.0000
  C  Sn33      1.0  0.32042  0.31092  0.37391  1.0000
  C   C107      1.0  0.29397  0.29897  0.27915  1.0000
  C  Sn34      1.0  0.27275  0.26811  0.28188  1.0000
  C  Sn35      1.0  0.27806  0.24879  0.38148  1.0000
  C   C108      1.0  0.30448  0.26074  0.47619  1.0000
  C  Sn36      1.0  0.32572  0.29160  0.47352  1.0000
  O  Te33      1.0  0.34132  0.34184  0.36929  1.0000
  O  Te34      1.0  0.24649  0.25669  0.18604  1.0000
  O  Te35      1.0  0.25713  0.21785  0.38603  1.0000
  O  Te36      1.0  0.35197  0.30303  0.56930  1.0000
  Mg  Mg17      1.0  0.22479  0.21301  0.23387  1.0000
  Mg  Mg18      1.0  0.37368  0.34670  0.52163  1.0000
  C  Sn37      1.0  0.69148  0.01520  0.34741  1.0000
  C   C109      1.0  0.20479  0.00056  0.25188  1.0000
  C  Sn38      1.0  0.73325  0.00874  0.26586  1.0000
  C  Sn39      1.0  0.75258  0.03202  0.37773  1.0000
  C   C110      1.0  0.74116  0.04664  0.47321  1.0000
  C  Sn40      1.0  0.71081  0.03848  0.45929  1.0000
  O  Te37      1.0  0.66107  0.00665  0.33142  1.0000
  O  Te38      1.0  0.24604  0.99378  0.16901  1.0000
  O  Te39      1.0  0.78301  0.04057  0.39366  1.0000
  O  Te40      1.0  0.69991  0.05342  0.55608  1.0000
  Mg  Mg19      1.0  0.78725  0.01350  0.23510  1.0000
  Mg  Mg20      1.0  0.65681  0.03371  0.49015  1.0000
  C  Sn41      1.0  0.98526  0.67465  0.37002  1.0000
  C   C111      1.0  0.00044  0.70047  0.27611  1.0000
  C  Sn42      1.0  0.99339  0.72347  0.28779  1.0000
  C  Sn43      1.0  0.97070  0.72061  0.39566  1.0000
  C   C112      1.0  0.95554  0.69480  0.48952  1.0000
  C  Sn44      1.0  0.96257  0.67179  0.47790  1.0000
  O  Te41      1.0  0.99268  0.65194  0.35638  1.0000
  O  Te42      1.0  0.00886  0.74907  0.19262  1.0000
  O  Te43      1.0  0.96328  0.74335  0.40923  1.0000
  O  Te44      1.0  0.94711  0.64620  0.57301  1.0000
  Mg  Mg21      1.0  0.99069  0.77389  0.25431  1.0000
  Mg  Mg22      1.0  0.96528  0.62138  0.51148  1.0000
  C  Sn45      1.0  0.08492  0.01585  0.33218  1.0000
  C   C113      1.0  0.06504  0.02560  0.37930  1.0000
  C  Sn46      1.0  0.07605  0.05543  0.43279  1.0000
  C  Sn47      1.0  0.10760  0.07595  0.43923  1.0000
  C   C114      1.0  0.12747  0.06620  0.39210  1.0000
  C  Sn48      1.0  0.11647  0.03637  0.33861  1.0000
  O  Te45      1.0  0.57530  0.98593  0.27910  1.0000
  O  Te46      1.0  0.05572  0.06465  0.47932  1.0000
  O  Te47      1.0  0.11910  0.10590  0.49237  1.0000
  O  Te48      1.0  0.13678  0.02715  0.29208  1.0000
  Mg  Mg23      1.0  0.08237  0.10771  0.54284  1.0000
  Mg  Mg24      1.0  0.61204  0.98411  0.22846  1.0000
  C  Sn49      1.0  0.93095  0.03570  0.50351  1.0000
  C   C115      1.0  0.93842  0.06369  0.43900  1.0000
  C  Sn50      1.0  0.95814  0.07515  0.30881  1.0000
  C  Sn51      1.0  0.97064  0.05827  0.24161  1.0000
  C   C116      1.0  0.96316  0.03029  0.30608  1.0000
  C  Sn52      1.0  0.94345  0.01882  0.43631  1.0000
  O  Te49      1.0  0.91120  0.02469  0.63368  1.0000
  O  Te50      1.0  0.96528  0.10319  0.24642  1.0000
  O  Te51      1.0  0.99041  0.06931  0.11134  1.0000
  O  Te52      1.0  0.43819  0.99079  0.49867  1.0000
  Mg  Mg25      1.0  0.99325  0.10861  0.06850  1.0000
  Mg  Mg26      1.0  0.41022  0.98535  0.67652  1.0000
  C  Sn53      1.0  0.96262  0.89605  0.50048  1.0000
  C   C117      1.0  0.93477  0.87466  0.43160  1.0000
  C  Sn54      1.0  0.92253  0.88216  0.30012  1.0000
  C  Sn55      1.0  0.93846  0.91165  0.23607  1.0000
  C   C118      1.0  0.96629  0.93301  0.30492  1.0000
  C  Sn56      1.0  0.97854  0.92553  0.43643  1.0000
  O  Te53      1.0  0.97443  0.88805  0.63186  1.0000
  O  Te54      1.0  0.89466  0.86040  0.23334  1.0000
  O  Te55      1.0  0.92663  0.91963  0.10460  1.0000
  O  Te56      1.0  0.00640  0.94727  0.50318  1.0000
  Mg  Mg27      1.0  0.88792  0.88213  0.05539  1.0000
  Mg  Mg28      1.0  0.01317  0.92556  0.68107  1.0000
  C  Sn57      1.0  0.57864  0.30702  0.58750  1.0000
  C   C119      1.0  0.59837  0.29806  0.52689  1.0000
  C  Sn58      1.0  0.58938  0.27706  0.39785  1.0000
  C  Sn59      1.0  0.56006  0.26478  0.32784  1.0000
  C   C120      1.0  0.54035  0.27375  0.38843  1.0000
  C  Sn60      1.0  0.54931  0.29474  0.51750  1.0000
  O  Te57      1.0  0.58810  0.32805  0.71658  1.0000
  O  Te58      1.0  0.60951  0.26844  0.33937  1.0000
  O  Te59      1.0  0.55061  0.24374  0.19867  1.0000
  O  Te60      1.0  0.52921  0.30337  0.57595  1.0000
  Mg  Mg29      1.0  0.58616  0.23911  0.16150  1.0000
  Mg  Mg30      1.0  0.55254  0.33270  0.75375  1.0000
  C  Sn61      1.0  0.69394  0.25370  0.51420  1.0000
  C   C121      1.0  0.72017  0.26129  0.42864  1.0000
  C  Sn62      1.0  0.73945  0.29112  0.38327  1.0000
  C  Sn63      1.0  0.73238  0.31384  0.42435  1.0000
  C   C122      1.0  0.70617  0.30624  0.50988  1.0000
  C  Sn64      1.0  0.68687  0.27641  0.55528  1.0000
  O  Te61      1.0  0.67500  0.22373  0.55833  1.0000
  O  Te62      1.0  0.76553  0.29817  0.29775  1.0000
  O  Te63      1.0  0.75135  0.34382  0.38014  1.0000
  O  Te64      1.0  0.66081  0.26937  0.64078  1.0000
  Mg  Mg31      1.0  0.78424  0.34221  0.26475  1.0000
  Mg  Mg32      1.0  0.64209  0.22534  0.67391  1.0000
  C  Sn65      1.0  0.73167  0.42517  0.59985  1.0000
  C   C123      1.0  0.70296  0.40437  0.53808  1.0000
  C  Sn66      1.0  0.69034  0.41204  0.40910  1.0000
  C  Sn67      1.0  0.70677  0.44109  0.34034  1.0000
  C   C124      1.0  0.73546  0.46186  0.40209  1.0000
  C  Sn68      1.0  0.74809  0.45422  0.53110  1.0000
  O  Te65      1.0  0.74384  0.41702  0.72884  1.0000
  O  Te66      1.0  0.66160  0.39087  0.34944  1.0000
  O  Te67      1.0  0.69457  0.44923  0.21126  1.0000
  O  Te68      1.0  0.77682  0.47537  0.59072  1.0000
  Mg  Mg33      1.0  0.65466  0.41260  0.17221  1.0000
  Mg  Mg34      1.0  0.78378  0.45366  0.76788  1.0000
  C  Sn69      1.0  0.56019  0.25740  0.90093  1.0000
  C   C125      1.0  0.54062  0.26639  0.96370  1.0000
  C  Sn70      1.0  0.54852  0.29138  0.03055  1.0000
  C  Sn71      1.0  0.58008  0.31188  0.03466  1.0000
  C   C126      1.0  0.60306  0.30695  0.97188  1.0000
  C  Sn72      1.0  0.59175  0.27790  0.90503  1.0000
  O  Te69      1.0  0.54836  0.22824  0.83467  1.0000
  O  Te70      1.0  0.52851  0.29985  0.09262  1.0000
  O  Te71      1.0  0.59190  0.34106  0.10099  1.0000
  O  Te72      1.0  0.61174  0.26943  0.84297  1.0000
  Mg  Mg35      1.0  0.55553  0.34202  0.17026  1.0000
  Mg  Mg36      1.0  0.58475  0.22728  0.76523  1.0000
  C  Sn73      1.0  0.72447  0.30496  0.86306  1.0000
  C   C127      1.0  0.69919  0.29830  0.95540  1.0000
  C  Sn74      1.0  0.68510  0.27120  0.06892  1.0000
  C  Sn75      1.0  0.70003  0.25448  0.09068  1.0000
  C   C128      1.0  0.72873  0.26521  0.99840  1.0000
  C  Sn76      1.0  0.73940  0.28824  0.88482  1.0000
  O  Te73      1.0  0.73474  0.32810  0.75028  1.0000
  O  Te74      1.0  0.65978  0.26494  0.15977  1.0000
  O  Te75      1.0  0.68974  0.23133  0.20357  1.0000
  O  Te76      1.0  0.76471  0.29450  0.79402  1.0000
  Mg  Mg37      1.0  0.65439  0.23131  0.29838  1.0000
  Mg  Mg38      1.0  0.77013  0.32814  0.65545  1.0000
  C  Sn77      1.0  0.69784  0.43977  0.90665  1.0000
  C   C129      1.0  0.72638  0.46009  0.97222  1.0000
  C  Sn78      1.0  0.74078  0.44546  0.04164  1.0000
  C  Sn79      1.0  0.72987  0.41393  0.04552  1.0000
  C   C130      1.0  0.70478  0.39769  0.97996  1.0000
  C  Sn80      1.0  0.68693  0.40823  0.91053  1.0000
  O  Te77      1.0  0.68041  0.45083  0.83785  1.0000
  O  Te78      1.0  0.76923  0.46622  0.10647  1.0000
  O  Te79      1.0  0.74733  0.40288  0.11440  1.0000
  O  Te80      1.0  0.65850  0.38750  0.84571  1.0000
  Mg  Mg39      1.0  0.78457  0.44009  0.18692  1.0000
  Mg  Mg40      1.0  0.64315  0.41360  0.76515  1.0000
  C  Sn81      1.0  0.24728  0.15929  0.59222  1.0000
  C   C131      1.0  0.26194  0.14445  0.65091  1.0000
  C  Sn82      1.0  0.24902  0.11323  0.62784  1.0000
  C  Sn83      1.0  0.22087  0.09649  0.54428  1.0000
  C   C132      1.0  0.20623  0.11132  0.48561  1.0000
  C  Sn84      1.0  0.21913  0.14254  0.50865  1.0000
  O  Te81      1.0  0.26061  0.19051  0.61665  1.0000
  O  Te82      1.0  0.26410  0.09891  0.68768  1.0000
  O  Te83      1.0  0.20755  0.06524  0.51988  1.0000
  O  Te84      1.0  0.20407  0.15687  0.44884  1.0000
  Mg  Mg41      1.0  0.23682  0.05597  0.62396  1.0000
  Mg  Mg42      1.0  0.23133  0.19980  0.51241  1.0000
  C  Sn85      1.0  0.84506  0.08105  0.48210  1.0000
  C   C133      1.0  0.87546  0.09061  0.45725  1.0000
  C  Sn86      1.0  0.89801  0.11851  0.52033  1.0000
  C  Sn87      1.0  0.89001  0.13723  0.61021  1.0000
  C   C134      1.0  0.85964  0.12766  0.63505  1.0000
  C  Sn88      1.0  0.83707  0.09977  0.57198  1.0000
  O  Te85      1.0  0.82290  0.05307  0.41793  1.0000
  O  Te86      1.0  0.92824  0.12759  0.49385  1.0000
  O  Te87      1.0  0.91221  0.16522  0.67438  1.0000
  O  Te88      1.0  0.80685  0.09069  0.59845  1.0000
  Mg  Mg43      1.0  0.95024  0.16763  0.60580  1.0000
  Mg  Mg44      1.0  0.78483  0.05064  0.48663  1.0000
  C  Sn89      1.0  0.86102  0.75205  0.51748  1.0000
  C   C135      1.0  0.87119  0.73208  0.55504  1.0000
  C  Sn90      1.0  0.90201  0.74266  0.57508  1.0000
  C  Sn91      1.0  0.92311  0.77385  0.55731  1.0000
  C   C136      1.0  0.91295  0.79379  0.51980  1.0000
  C  Sn92      1.0  0.88213  0.78323  0.49971  1.0000
  O  Te89      1.0  0.83011  0.74097  0.49799  1.0000
  O  Te90      1.0  0.91162  0.72227  0.61256  1.0000
  O  Te91      1.0  0.95405  0.78491  0.57683  1.0000
  O  Te92      1.0  0.87251  0.80361  0.46229  1.0000
  Mg  Mg45      1.0  0.95606  0.74826  0.62739  1.0000
  Mg  Mg46      1.0  0.82808  0.77764  0.44751  1.0000
  C  Sn93      1.0  0.41120  0.17916  0.90456  1.0000
  C   C137      1.0  0.39681  0.19319  0.83212  1.0000
  C  Sn94      1.0  0.41366  0.22107  0.75758  1.0000
  C  Sn95      1.0  0.44556  0.23521  0.75530  1.0000
  C   C138      1.0  0.45994  0.22118  0.82768  1.0000
  C  Sn96      1.0  0.44310  0.19331  0.90228  1.0000
  O  Te93      1.0  0.39390  0.15130  0.97839  1.0000
  O  Te94      1.0  0.39876  0.23466  0.68601  1.0000
  O  Te95      1.0  0.46286  0.26310  0.68139  1.0000
  O  Te96      1.0  0.45798  0.17971  0.97379  1.0000
  Mg  Mg47      1.0  0.43220  0.27263  0.60035  1.0000
  Mg  Mg48      1.0  0.42114  0.13767  0.05941  1.0000
  C  Sn97      1.0  0.81955  0.23151  0.89962  1.0000
  C   C139      1.0  0.80448  0.20255  0.82812  1.0000
  C  Sn98      1.0  0.77569  0.19108  0.75895  1.0000
  C  Sn99      1.0  0.76169  0.20893  0.76119  1.0000
  C   C140      1.0  0.77676  0.23787  0.83264  1.0000
  C  Sn100     1.0  0.80554  0.24936  0.90187  1.0000
  O  Te97      1.0  0.84831  0.24252  0.96804  1.0000
  O  Te98      1.0  0.76107  0.16206  0.68822  1.0000
  O  Te99      1.0  0.73290  0.19790  0.69270  1.0000
  O  Te100     1.0  0.82016  0.27836  0.97254  1.0000
  Mg  Mg49      1.0  0.72213  0.15706  0.61068  1.0000
  Mg  Mg50      1.0  0.85567  0.27933  0.05003  1.0000
  C  Sn101     1.0  0.80184  0.56157  0.84136  1.0000
  C   C141      1.0  0.77148  0.54660  0.88435  1.0000
  C  Sn102     1.0  0.75372  0.55969  0.85521  1.0000
  C  Sn103     1.0  0.76656  0.58834  0.78148  1.0000
  C   C142      1.0  0.79689  0.60330  0.73850  1.0000
  C  Sn104     1.0  0.81467  0.59022  0.76762  1.0000
  O  Te101     1.0  0.81917  0.54806  0.87162  1.0000
  O  Te102     1.0  0.72344  0.54429  0.89931  1.0000
  O  Te103     1.0  0.74920  0.60185  0.75124  1.0000
  O  Te104     1.0  0.84494  0.60560  0.72354  1.0000
  Mg  Mg51      1.0  0.70904  0.57200  0.83312  1.0000
  Mg  Mg52      1.0  0.85935  0.57792  0.78960  1.0000
  C  Sn105     1.0  0.32241  0.31149  0.87164  1.0000
  C   C143      1.0  0.29595  0.30011  0.77753  1.0000
  C  Sn106     1.0  0.27410  0.26946  0.78117  1.0000
  C  Sn107     1.0  0.27878  0.24976  0.88103  1.0000
  C   C144      1.0  0.30523  0.26113  0.97508  1.0000
  C  Sn108     1.0  0.32710  0.29179  0.97149  1.0000
  O  Te105     1.0  0.34395  0.34222  0.86611  1.0000
  O  Te106     1.0  0.24783  0.25861  0.68598  1.0000
  O  Te107     1.0  0.25722  0.21901  0.88648  1.0000
  O  Te108     1.0  0.34992  0.29857  0.06663  1.0000
  Mg  Mg53      1.0  0.22513  0.21499  0.73496  1.0000
  Mg  Mg54      1.0  0.37262  0.34219  0.01782  1.0000
  C  Sn109     1.0  0.18732  0.00928  0.85582  1.0000
  C   C145      1.0  0.70083  0.99466  0.76172  1.0000
  C  Sn110     1.0  0.22966  0.00414  0.77008  1.0000
  C  Sn111     1.0  0.24917  0.02873  0.87477  1.0000
  C   C146      1.0  0.23755  0.04333  0.96881  1.0000
  C  Sn112     1.0  0.20683  0.03387  0.96050  1.0000
  O  Te109     1.0  0.65842  0.99942  0.84552  1.0000
  O  Te110     1.0  0.74265  0.98917  0.67479  1.0000
  O  Te111     1.0  0.27998  0.03858  0.88500  1.0000
  O  Te112     1.0  0.19230  0.04475  0.05574  1.0000
  Mg  Mg55      1.0  0.28437  0.01095  0.73130  1.0000
  Mg  Mg56      1.0  0.15213  0.02705  0.99940  1.0000
  C  Sn113     1.0  0.98884  0.67670  0.87510  1.0000
  C   C147      1.0  0.00415  0.70256  0.78156  1.0000
  C  Sn114     1.0  0.99643  0.72512  0.78882  1.0000
  C  Sn115     1.0  0.97294  0.72178  0.89181  1.0000
  C   C148      1.0  0.95766  0.69593  0.98530  1.0000
  C  Sn116     1.0  0.96535  0.67336  0.97809  1.0000
  O  Te113     1.0  0.99693  0.65444  0.86593  1.0000
  O  Te114     1.0  0.01205  0.75077  0.69412  1.0000
  O  Te115     1.0  0.96486  0.74407  0.90092  1.0000
  O  Te116     1.0  0.94632  0.64366  0.07274  1.0000
  Mg  Mg57      1.0  0.99276  0.77487  0.74862  1.0000
  Mg  Mg58      1.0  0.96560  0.61955  0.01841  1.0000
  C  Sn117     1.0  0.08747  0.01929  0.81349  1.0000
  C   C149      1.0  0.06693  0.02693  0.87700  1.0000
  C  Sn118     1.0  0.07713  0.05520  0.95167  1.0000
  C  Sn119     1.0  0.10851  0.07630  0.96302  1.0000
  C   C150      1.0  0.12903  0.06867  0.89951  1.0000
  C  Sn120     1.0  0.11886  0.04039  0.82484  1.0000
  O  Te117     1.0  0.57866  0.99090  0.73935  1.0000
  O  Te118     1.0  0.05272  0.05825  0.01431  1.0000
  O  Te119     1.0  0.11576  0.10066  0.03724  1.0000
  O  Te120     1.0  0.13981  0.03328  0.76220  1.0000
  Mg  Mg59      1.0  0.07837  0.09981  0.10407  1.0000
  Mg  Mg60      1.0  0.61607  0.99174  0.67235  1.0000
  C  Sn121     1.0  0.97924  0.06784  0.81801  1.0000
  C   C151      1.0  0.97181  0.03969  0.88016  1.0000
  C  Sn122     1.0  0.94329  0.02099  0.94415  1.0000
  C  Sn123     1.0  0.92175  0.03061  0.94598  1.0000
  C   C152      1.0  0.92919  0.05874  0.88385  1.0000
  C  Sn124     1.0  0.95770  0.07746  0.81985  1.0000
  O  Te121     1.0  0.00788  0.08616  0.75462  1.0000
  O  Te122     1.0  0.43484  0.98889  0.00563  1.0000
  O  Te123     1.0  0.88966  0.00820  0.00945  1.0000
  O  Te124     1.0  0.96461  0.10548  0.75837  1.0000
  Mg  Mg61      1.0  0.39282  0.97198  0.07901  1.0000
  Mg  Mg62      1.0  0.00661  0.12239  0.68489  1.0000
  C  Sn125     1.0  0.96181  0.89267  0.00944  1.0000
  C   C153      1.0  0.93752  0.87541  0.93906  1.0000
  C  Sn126     1.0  0.92573  0.88291  0.80551  1.0000
  C  Sn127     1.0  0.94199  0.91232  0.74089  1.0000
  C   C154      1.0  0.96969  0.93363  0.81125  1.0000
  C  Sn128     1.0  0.98150  0.92615  0.94482  1.0000
  O  Te125     1.0  0.97317  0.88468  0.14288  1.0000
  O  Te126     1.0  0.89797  0.86121  0.73725  1.0000
  O  Te127     1.0  0.93060  0.92030  0.60736  1.0000
  O  Te128     1.0  0.00581  0.94376  0.01305  1.0000
  Mg  Mg63      1.0  0.89189  0.88291  0.55669  1.0000
  Mg  Mg64      1.0  0.01192  0.92208  0.19355  1.0000
