data_image0
_chemical_formula_structural       H126C114N30O6C2Sn2C2HTe2HMgC2Sn2C2HTe2HMgC2Sn2C2HTe2HMgC2Sn2C2HTe2HMgC2Sn2C2HTe2HMgC2Sn2C2HTe2HMgC2Sn2C2HTe2HMgC2Sn2C2HTe2HMgC2Sn2C2HTe2HMgC2Sn2C2HTe2HMgC2Sn2C2HTe2HMgC2Sn2C2HTe2HMgC2Sn2C2HTe2HMgC2Sn2C2HTe2HMgC2Sn2C2HTe2HMgC2Sn2C2HTe2HMgC2Sn2C2HTe2HMgC2Sn2C2HTe2HMgC2Sn2C2HTe2HMgC2Sn2C2HTe2HMgC2Sn2C2HTe2HMgC2Sn2C2HTe2HMgC2Sn2C2HTe2HMgC2Sn2C2HTe2HMg
_chemical_formula_sum              "H174 C210 N30 O6 Sn48 Te48 Mg24"
_cell_length_a       50.9278
_cell_length_b       50.9496
_cell_length_c       10.1547
_cell_angle_alpha    94.7145
_cell_angle_beta     84.7931
_cell_angle_gamma    120.938

_symmetry_space_group_name_H-M    'P1'
_space_group_IT_number       1

loop_
  _space_group_symop_operation_xyz
  'x, y, z'

loop_
  _atom_site_type_symbol
  _atom_site_label
  _atom_site_symmetry_multiplicity
  _atom_site_fract_x
  _atom_site_fract_y
  _atom_site_fract_z
  _atom_site_occupancy
  H   H1        1.0  0.30787  0.12729  0.46301  1.0000
  H   H2        1.0  0.88245  0.18670  0.54221  1.0000
  H   H3        1.0  0.82874  0.68523  0.40009  1.0000
  H   H4        1.0  0.35369  0.13436  0.08349  1.0000
  H   H5        1.0  0.85610  0.21394  0.01446  1.0000
  H   H6        1.0  0.77440  0.63507  0.00460  1.0000
  H   H7        1.0  0.38272  0.24439  0.14821  1.0000
  H   H8        1.0  0.76250  0.12734  0.24382  1.0000
  H   H9        1.0  0.85684  0.61971  0.15465  1.0000
  H   H10       1.0  0.17107  0.11837  0.28819  1.0000
  H   H11       1.0  0.88235  0.05038  0.30906  1.0000
  H   H12       1.0  0.93579  0.83968  0.42909  1.0000
  H   H13       1.0  0.48573  0.22811  0.39629  1.0000
  H   H14       1.0  0.77601  0.27154  0.29010  1.0000
  H   H15       1.0  0.72203  0.50109  0.30652  1.0000
  H   H16       1.0  0.02843  0.05238  0.25976  1.0000
  H   H17       1.0  0.94306  0.96679  0.22371  1.0000
  H   H18       1.0  0.02797  0.96769  0.21943  1.0000
  H   H19       1.0  0.63293  0.27530  0.33569  1.0000
  H   H20       1.0  0.72266  0.35585  0.34055  1.0000
  H   H21       1.0  0.64311  0.36483  0.36480  1.0000
  H   H22       1.0  0.36521  0.28220  0.12422  1.0000
  H   H23       1.0  0.73105  0.06962  0.25180  1.0000
  H   H24       1.0  0.91431  0.64202  0.14679  1.0000
  H   H25       1.0  0.29686  0.25632  0.56620  1.0000
  H   H26       1.0  0.74290  0.04708  0.51214  1.0000
  H   H27       1.0  0.96160  0.71009  0.57182  1.0000
  H   H28       1.0  0.32400  0.31600  0.06304  1.0000
  H   H29       1.0  0.69093  0.00310  0.06016  1.0000
  H   H30       1.0  0.99023  0.68205  0.04937  1.0000
  H   H31       1.0  0.34054  0.30568  0.55410  1.0000
  H   H32       1.0  0.69499  0.03958  0.46780  1.0000
  H   H33       1.0  0.96266  0.66437  0.53978  1.0000
  H   H34       1.0  0.31688  0.31151  0.29595  1.0000
  H   H35       1.0  0.69531  0.97952  0.23151  1.0000
  H   H36       1.0  0.98745  0.68872  0.28473  1.0000
  H   H37       1.0  0.33146  0.28920  0.35288  1.0000
  H   H38       1.0  0.71490  0.00652  0.36324  1.0000
  H   H39       1.0  0.94979  0.67746  0.35772  1.0000
  H   H40       1.0  0.29416  0.28174  0.40410  1.0000
  H   H41       1.0  0.72291  0.97724  0.31486  1.0000
  H   H42       1.0  0.98181  0.71394  0.39483  1.0000
  H   H43       1.0  0.25814  0.24801  0.08183  1.0000
  H   H44       1.0  0.76297  0.00726  0.98838  1.0000
  H   H45       1.0  0.99212  0.74743  0.06673  1.0000
  H   H46       1.0  0.26029  0.28437  0.57504  1.0000
  H   H47       1.0  0.71023  0.97920  0.54369  1.0000
  H   H48       1.0  0.02664  0.74300  0.54184  1.0000
  H   H49       1.0  0.25232  0.25953  0.24609  1.0000
  H   H50       1.0  0.75009  0.97740  0.10004  1.0000
  H   H51       1.0  0.00594  0.75479  0.22737  1.0000
  H   H52       1.0  0.30496  0.23187  0.29467  1.0000
  H   H53       1.0  0.77305  0.04511  0.33227  1.0000
  H   H54       1.0  0.92224  0.70472  0.29915  1.0000
  H   H55       1.0  0.27700  0.21520  0.17475  1.0000
  H   H56       1.0  0.79231  0.04707  0.17615  1.0000
  H   H57       1.0  0.93893  0.73273  0.17769  1.0000
  H   H58       1.0  0.26834  0.22755  0.33384  1.0000
  H   H59       1.0  0.77957  0.01486  0.27546  1.0000
  H   H60       1.0  0.95508  0.74048  0.33464  1.0000
  H   H61       1.0  0.35911  0.32688  0.21641  1.0000
  H   H62       1.0  0.68198  0.01233  0.27923  1.0000
  H   H63       1.0  0.96262  0.64810  0.21298  1.0000
  H   H64       1.0  0.30299  0.11343  0.99535  1.0000
  H   H65       1.0  0.87855  0.18475  0.90627  1.0000
  H   H66       1.0  0.80622  0.68725  0.93140  1.0000
  H   H67       1.0  0.35779  0.15041  0.55971  1.0000
  H   H68       1.0  0.85933  0.21692  0.63263  1.0000
  H   H69       1.0  0.79878  0.63441  0.49572  1.0000
  H   H70       1.0  0.35990  0.24344  0.78751  1.0000
  H   H71       1.0  0.75130  0.13071  0.72845  1.0000
  H   H72       1.0  0.87967  0.64140  0.77919  1.0000
  H   H73       1.0  0.17765  0.11177  0.74289  1.0000
  H   H74       1.0  0.88618  0.05001  0.73332  1.0000
  H   H75       1.0  0.94680  0.83155  0.85847  1.0000
  H   H76       1.0  0.48909  0.22669  0.81526  1.0000
  H   H77       1.0  0.75887  0.25898  0.92103  1.0000
  H   H78       1.0  0.73347  0.51152  0.83112  1.0000
  H   H79       1.0  0.03399  0.05436  0.70963  1.0000
  H   H80       1.0  0.94571  0.97237  0.74174  1.0000
  H   H81       1.0  0.02701  0.96848  0.77516  1.0000
  H   H82       1.0  0.62862  0.27903  0.83879  1.0000
  H   H83       1.0  0.71883  0.35839  0.79998  1.0000
  H   H84       1.0  0.63951  0.36827  0.84169  1.0000
  H   H85       1.0  0.33779  0.27850  0.77308  1.0000
  H   H86       1.0  0.71573  0.07257  0.69464  1.0000
  H   H87       1.0  0.93850  0.66939  0.78347  1.0000
  H   H88       1.0  0.30824  0.25883  0.99765  1.0000
  H   H89       1.0  0.74863  0.04399  0.02592  1.0000
  H   H90       1.0  0.94908  0.69720  0.00400  1.0000
  H   H91       1.0  0.31036  0.31333  0.59239  1.0000
  H   H92       1.0  0.68415  0.00329  0.52727  1.0000
  H   H93       1.0  0.00173  0.69274  0.55764  1.0000
  H   H94       1.0  0.34820  0.30895  0.94741  1.0000
  H   H95       1.0  0.70105  0.04135  0.03592  1.0000
  H   H96       1.0  0.95972  0.65754  0.94626  1.0000
  H   H97       1.0  0.27955  0.30742  0.80159  1.0000
  H   H98       1.0  0.68370  0.98844  0.74658  1.0000
  H   H99       1.0  0.02714  0.72165  0.75750  1.0000
  H   H100      1.0  0.28738  0.28697  0.91209  1.0000
  H   H101      1.0  0.70372  0.02221  0.85064  1.0000
  H   H102      1.0  0.99964  0.71649  0.89097  1.0000
  H   H103      1.0  0.24932  0.27706  0.89094  1.0000
  H   H104      1.0  0.71072  0.99160  0.85303  1.0000
  H   H105      1.0  0.03073  0.75342  0.85549  1.0000
  H   H106      1.0  0.24653  0.24474  0.53917  1.0000
  H   H107      1.0  0.75034  0.00376  0.51129  1.0000
  H   H108      1.0  0.00307  0.75905  0.53181  1.0000
  H   H109      1.0  0.27499  0.28756  0.12900  1.0000
  H   H110      1.0  0.72309  0.98033  0.01443  1.0000
  H   H111      1.0  0.01222  0.73003  0.11413  1.0000
  H   H112      1.0  0.22712  0.25639  0.66193  1.0000
  H   H113      1.0  0.73645  0.97957  0.64761  1.0000
  H   H114      1.0  0.03424  0.77660  0.63662  1.0000
  H   H115      1.0  0.26558  0.22764  0.85826  1.0000
  H   H116      1.0  0.76381  0.05494  0.81827  1.0000
  H   H117      1.0  0.96520  0.74078  0.87383  1.0000
  H   H118      1.0  0.25162  0.21241  0.70041  1.0000
  H   H119      1.0  0.78156  0.04944  0.66966  1.0000
  H   H120      1.0  0.96485  0.75464  0.72070  1.0000
  H   H121      1.0  0.22984  0.22252  0.81886  1.0000
  H   H122      1.0  0.76707  0.02178  0.79398  1.0000
  H   H123      1.0  0.99732  0.77590  0.81921  1.0000
  H   H124      1.0  0.32631  0.32486  0.80443  1.0000
  H   H125      1.0  0.66911  0.01871  0.72257  1.0000
  H   H126      1.0  0.99525  0.67623  0.76843  1.0000
  C   C1        1.0  0.31683  0.14940  0.51587  1.0000
  C   C2        1.0  0.85817  0.17478  0.57260  1.0000
  C   C3        1.0  0.83962  0.67818  0.46526  1.0000
  C   C4        1.0  0.34551  0.14973  0.06725  1.0000
  C   C5        1.0  0.84414  0.18932  0.02577  1.0000
  C   C6        1.0  0.79915  0.64643  0.00967  1.0000
  C   C7        1.0  0.36480  0.18135  0.09389  1.0000
  C   C8        1.0  0.81561  0.17522  0.09844  1.0000
  C   C9        1.0  0.81176  0.63010  0.05560  1.0000
  C   C10       1.0  0.35274  0.19947  0.06781  1.0000
  C   C11       1.0  0.80151  0.14334  0.10540  1.0000
  C   C12       1.0  0.84378  0.64629  0.05485  1.0000
  C   C13       1.0  0.32332  0.18808  0.01979  1.0000
  C   C14       1.0  0.81344  0.12575  0.03874  1.0000
  C   C15       1.0  0.86306  0.67672  0.01280  1.0000
  C   C16       1.0  0.29974  0.16421  0.52054  1.0000
  C   C17       1.0  0.84108  0.14263  0.55296  1.0000
  C   C18       1.0  0.87042  0.69884  0.49302  1.0000
  C   C19       1.0  0.34116  0.23621  0.06894  1.0000
  C   C20       1.0  0.77193  0.09355  0.14717  1.0000
  C   C21       1.0  0.89296  0.66319  0.08471  1.0000
  C   C22       1.0  0.17754  0.10375  0.33377  1.0000
  C   C23       1.0  0.89784  0.07307  0.35455  1.0000
  C   C24       1.0  0.92728  0.82369  0.34238  1.0000
  C   C25       1.0  0.48403  0.23814  0.30767  1.0000
  C   C26       1.0  0.75998  0.24717  0.26615  1.0000
  C   C27       1.0  0.74466  0.50837  0.25612  1.0000
  C   C28       1.0  0.03200  0.01205  0.23642  1.0000
  C   C29       1.0  0.98370  0.01174  0.24094  1.0000
  C   C30       1.0  0.98363  0.96350  0.21793  1.0000
  C   C31       1.0  0.63368  0.31817  0.35516  1.0000
  C   C32       1.0  0.67925  0.31317  0.34243  1.0000
  C   C33       1.0  0.68496  0.36391  0.35126  1.0000
  C   C34       1.0  0.01587  0.02763  0.24335  1.0000
  C   C35       1.0  0.96790  0.97956  0.22788  1.0000
  C   C36       1.0  0.01572  0.98003  0.22221  1.0000
  C   C37       1.0  0.64728  0.30004  0.34755  1.0000
  C   C38       1.0  0.69784  0.34521  0.34409  1.0000
  C   C39       1.0  0.65296  0.35022  0.36028  1.0000
  C   C40       1.0  0.32116  0.27225  0.08388  1.0000
  C   C41       1.0  0.73631  0.03817  0.12345  1.0000
  C   C42       1.0  0.94917  0.68550  0.09024  1.0000
  C   C43       1.0  0.33918  0.30643  0.05058  1.0000
  C   C44       1.0  0.70232  0.02650  0.10417  1.0000
  C   C45       1.0  0.96521  0.66710  0.04734  1.0000
  C   C46       1.0  0.29735  0.26486  0.20471  1.0000
  C   C47       1.0  0.74296  0.01441  0.17858  1.0000
  C   C48       1.0  0.96490  0.71027  0.20264  1.0000
  C   C49       1.0  0.31108  0.28839  0.31996  1.0000
  C   C50       1.0  0.71744  0.99338  0.27748  1.0000
  C   C51       1.0  0.97118  0.69648  0.31569  1.0000
  C   C52       1.0  0.26926  0.26514  0.16211  1.0000
  C   C53       1.0  0.74488  0.99379  0.06307  1.0000
  C   C54       1.0  0.99552  0.73696  0.14880  1.0000
  C   C55       1.0  0.28628  0.23295  0.25428  1.0000
  C   C56       1.0  0.77381  0.03138  0.24460  1.0000
  C   C57       1.0  0.94410  0.72278  0.25620  1.0000
  C   C58       1.0  0.31663  0.13793  0.01759  1.0000
  C   C59       1.0  0.85686  0.17265  0.96369  1.0000
  C   C60       1.0  0.81755  0.67636  0.96792  1.0000
  C   C61       1.0  0.34512  0.16239  0.57205  1.0000
  C   C62       1.0  0.84512  0.19211  0.62441  1.0000
  C   C63       1.0  0.82240  0.64959  0.52190  1.0000
  C   C64       1.0  0.35862  0.19120  0.64066  1.0000
  C   C65       1.0  0.81362  0.17839  0.66083  1.0000
  C   C66       1.0  0.83472  0.63926  0.61021  1.0000
  C   C67       1.0  0.34138  0.20568  0.64679  1.0000
  C   C68       1.0  0.79691  0.14650  0.64428  1.0000
  C   C69       1.0  0.86571  0.65941  0.63384  1.0000
  C   C70       1.0  0.31327  0.19352  0.58495  1.0000
  C   C71       1.0  0.80946  0.12850  0.59012  1.0000
  C   C72       1.0  0.88361  0.68842  0.57633  1.0000
  C   C73       1.0  0.30437  0.15629  0.99283  1.0000
  C   C74       1.0  0.84205  0.14049  0.96641  1.0000
  C   C75       1.0  0.84997  0.69300  0.96929  1.0000
  C   C76       1.0  0.32153  0.23599  0.68536  1.0000
  C   C77       1.0  0.76186  0.09662  0.64470  1.0000
  C   C78       1.0  0.91433  0.68348  0.69190  1.0000
  C   C79       1.0  0.18251  0.09822  0.80514  1.0000
  C   C80       1.0  0.90144  0.07471  0.75428  1.0000
  C   C81       1.0  0.92180  0.82176  0.86128  1.0000
  C   C82       1.0  0.48242  0.24342  0.79683  1.0000
  C   C83       1.0  0.75136  0.24428  0.83027  1.0000
  C   C84       1.0  0.75665  0.51701  0.79365  1.0000
  C   C85       1.0  0.03477  0.01324  0.74013  1.0000
  C   C86       1.0  0.98820  0.01548  0.72636  1.0000
  C   C87       1.0  0.98432  0.96639  0.75591  1.0000
  C   C88       1.0  0.63046  0.32213  0.83573  1.0000
  C   C89       1.0  0.67557  0.31650  0.82238  1.0000
  C   C90       1.0  0.68190  0.36773  0.82664  1.0000
  C   C91       1.0  0.02027  0.02979  0.72230  1.0000
  C   C92       1.0  0.97055  0.98374  0.74223  1.0000
  C   C93       1.0  0.01640  0.98148  0.75534  1.0000
  C   C94       1.0  0.64359  0.30365  0.83157  1.0000
  C   C95       1.0  0.69422  0.34846  0.81711  1.0000
  C   C96       1.0  0.64983  0.35407  0.83646  1.0000
  C   C97       1.0  0.30141  0.26968  0.66071  1.0000
  C   C98       1.0  0.72707  0.04142  0.60053  1.0000
  C   C99       1.0  0.96891  0.70427  0.65770  1.0000
  C   C100      1.0  0.32304  0.30372  0.63041  1.0000
  C   C101      1.0  0.69423  0.02777  0.55489  1.0000
  C   C102      1.0  0.97894  0.68117  0.60973  1.0000
  C   C103      1.0  0.26931  0.26158  0.72613  1.0000
  C   C104      1.0  0.73176  0.01954  0.68137  1.0000
  C   C105      1.0  0.99453  0.73542  0.71573  1.0000
  C   C106      1.0  0.27178  0.28471  0.83871  1.0000
  C   C107      1.0  0.70586  0.00468  0.78874  1.0000
  C   C108      1.0  0.01395  0.73130  0.81027  1.0000
  C   C109      1.0  0.24988  0.26191  0.61906  1.0000
  C   C110      1.0  0.73207  0.99410  0.58997  1.0000
  C   C111      1.0  0.01575  0.75443  0.59949  1.0000
  C   C112      1.0  0.25311  0.22913  0.77929  1.0000
  C   C113      1.0  0.76289  0.03754  0.74462  1.0000
  C   C114      1.0  0.97966  0.75277  0.78694  1.0000
  N   N1        1.0  0.36421  0.23070  0.09424  1.0000
  N   N2        1.0  0.77466  0.12203  0.17345  1.0000
  N   N3        1.0  0.86361  0.63796  0.09845  1.0000
  N   N4        1.0  0.31702  0.21175  0.01903  1.0000
  N   N5        1.0  0.79429  0.09484  0.06537  1.0000
  N   N6        1.0  0.89364  0.68636  0.03073  1.0000
  N   N7        1.0  0.15823  0.07530  0.35530  1.0000
  N   N8        1.0  0.92674  0.08312  0.36082  1.0000
  N   N9        1.0  0.92960  0.83378  0.22661  1.0000
  N   N10       1.0  0.50712  0.26163  0.25270  1.0000
  N   N11       1.0  0.73072  0.23609  0.26865  1.0000
  N   N12       1.0  0.75566  0.49040  0.23654  1.0000
  N   N13       1.0  0.34446  0.26434  0.09890  1.0000
  N   N14       1.0  0.74805  0.06737  0.20133  1.0000
  N   N15       1.0  0.91734  0.66262  0.12569  1.0000
  N   N16       1.0  0.34643  0.23327  0.70952  1.0000
  N   N17       1.0  0.76622  0.12547  0.67774  1.0000
  N   N18       1.0  0.88601  0.65684  0.70834  1.0000
  N   N19       1.0  0.30184  0.21327  0.60879  1.0000
  N   N20       1.0  0.78688  0.09754  0.58947  1.0000
  N   N21       1.0  0.91372  0.70266  0.61369  1.0000
  N   N22       1.0  0.16203  0.07041  0.83346  1.0000
  N   N23       1.0  0.93090  0.08709  0.74619  1.0000
  N   N24       1.0  0.90995  0.83846  0.84765  1.0000
  N   N25       1.0  0.50181  0.27256  0.80347  1.0000
  N   N26       1.0  0.73018  0.24209  0.76106  1.0000
  N   N27       1.0  0.76461  0.49655  0.77982  1.0000
  N   N28       1.0  0.31864  0.26037  0.73513  1.0000
  N   N29       1.0  0.73449  0.07044  0.67224  1.0000
  N   N30       1.0  0.94062  0.68818  0.74390  1.0000
  O   O1        1.0  0.36600  0.32447  0.12623  1.0000
  O   O2        1.0  0.68563  0.02859  0.22325  1.0000
  O   O3        1.0  0.95467  0.64069  0.12576  1.0000
  O   O4        1.0  0.34035  0.32229  0.74083  1.0000
  O   O5        1.0  0.67429  0.03251  0.65140  1.0000
  O   O6        1.0  0.97808  0.66305  0.71401  1.0000
  C   C115      1.0  0.23560  0.15790  0.37400  1.0000
  C   C116      1.0  0.21407  0.12658  0.36450  1.0000
  C  Sn1       1.0  0.21974  0.10550  0.41627  1.0000
  C  Sn2       1.0  0.24749  0.11604  0.47869  1.0000
  C   C117      1.0  0.26886  0.14742  0.48777  1.0000
  C   C118      1.0  0.26297  0.16832  0.43559  1.0000
  H   H127      1.0  0.23104  0.17407  0.33369  1.0000
  O  Te1       1.0  0.19799  0.07428  0.40589  1.0000
  O  Te2       1.0  0.25372  0.09547  0.53133  1.0000
  H   H128      1.0  0.27963  0.19257  0.44303  1.0000
  Mg  Mg1       1.0  0.21697  0.05518  0.49281  1.0000
  C   C119      1.0  0.83924  0.09128  0.40155  1.0000
  C   C120      1.0  0.85042  0.11719  0.48728  1.0000
  C  Sn3       1.0  0.88028  0.13126  0.52904  1.0000
  C  Sn4       1.0  0.89924  0.11912  0.48394  1.0000
  C   C121      1.0  0.88786  0.09320  0.39811  1.0000
  C   C122      1.0  0.85794  0.07930  0.35698  1.0000
  H   H129      1.0  0.81611  0.08053  0.36966  1.0000
  O  Te3       1.0  0.89107  0.15712  0.61476  1.0000
  O  Te4       1.0  0.92918  0.13274  0.52409  1.0000
  H   H130      1.0  0.84930  0.05925  0.29053  1.0000
  Mg  Mg2       1.0  0.93348  0.16756  0.64162  1.0000
  C   C123      1.0  0.91421  0.77939  0.52653  1.0000
  C   C124      1.0  0.91610  0.79064  0.40291  1.0000
  C  Sn5       1.0  0.90181  0.77045  0.29622  1.0000
  C  Sn6       1.0  0.88533  0.73841  0.31392  1.0000
  C   C125      1.0  0.88355  0.72739  0.43801  1.0000
  C   C126      1.0  0.89794  0.74779  0.54410  1.0000
  H   H131      1.0  0.92533  0.79518  0.60864  1.0000
  O  Te5       1.0  0.90395  0.78207  0.17337  1.0000
  O  Te6       1.0  0.87082  0.71772  0.20898  1.0000
  H   H132      1.0  0.89645  0.73908  0.63982  1.0000
  Mg  Mg3       1.0  0.88030  0.74469  0.06055  1.0000
  C   C127      1.0  0.44457  0.23419  0.11319  1.0000
  C   C128      1.0  0.45297  0.22787  0.22852  1.0000
  C  Sn7       1.0  0.43152  0.20323  0.30396  1.0000
  C  Sn8       1.0  0.40111  0.18461  0.26289  1.0000
  C   C129      1.0  0.39294  0.19111  0.14730  1.0000
  C   C130      1.0  0.41459  0.21582  0.07259  1.0000
  H   H133      1.0  0.46132  0.25330  0.05533  1.0000
  O  Te7       1.0  0.44029  0.19724  0.41895  1.0000
  O  Te8       1.0  0.37922  0.15983  0.33640  1.0000
  H   H134      1.0  0.39494  0.23033  0.98325  1.0000
  Mg  Mg4       1.0  0.40223  0.16090  0.48578  1.0000
  C   C131      1.0  0.75483  0.19031  0.16923  1.0000
  C   C132      1.0  0.76799  0.21962  0.22981  1.0000
  C  Sn9       1.0  0.79949  0.23666  0.24720  1.0000
  C  Sn10      1.0  0.81810  0.22405  0.20298  1.0000
  C   C133      1.0  0.80471  0.19472  0.14240  1.0000
  C   C134      1.0  0.77317  0.17786  0.12554  1.0000
  H   H135      1.0  0.73043  0.17728  0.15611  1.0000
  O  Te9       1.0  0.81226  0.26591  0.30797  1.0000
  O  Te10      1.0  0.84964  0.24059  0.21907  1.0000
  H   H136      1.0  0.76299  0.15518  0.07855  1.0000
  Mg  Mg5       1.0  0.85636  0.27949  0.30762  1.0000
  C   C135      1.0  0.75928  0.58288  0.20087  1.0000
  C   C136      1.0  0.78734  0.59715  0.12753  1.0000
  C  Sn11      1.0  0.80194  0.58083  0.08462  1.0000
  C  Sn12      1.0  0.78814  0.54964  0.11584  1.0000
  C   C137      1.0  0.76005  0.53557  0.18918  1.0000
  C   C138      1.0  0.74564  0.55212  0.23166  1.0000
  H   H137      1.0  0.74813  0.59568  0.23368  1.0000
  O  Te11      1.0  0.82998  0.59544  0.01147  1.0000
  O  Te12      1.0  0.80223  0.53279  0.07415  1.0000
  H   H138      1.0  0.72391  0.54106  0.28838  1.0000
  Mg  Mg6       1.0  0.82712  0.57246  0.97700  1.0000
  C   C139      1.0  0.09573  0.05639  0.16369  1.0000
  C   C140      1.0  0.07059  0.03316  0.23310  1.0000
  C  Sn13      1.0  0.07433  0.02437  0.35351  1.0000
  C  Sn14      1.0  0.10383  0.03917  0.40516  1.0000
  C   C141      1.0  0.12883  0.06241  0.33501  1.0000
  C   C142      1.0  0.12483  0.07101  0.21459  1.0000
  H   H139      1.0  0.09263  0.06307  0.07056  1.0000
  O  Te13      1.0  0.56330  0.00110  0.42155  1.0000
  O  Te14      1.0  0.10821  0.03085  0.52531  1.0000
  H   H140      1.0  0.14430  0.08902  0.16091  1.0000
  Mg  Mg7       1.0  0.58090  0.99785  0.58133  1.0000
  C   C143      1.0  0.98048  0.06603  0.21321  1.0000
  C   C144      1.0  0.97164  0.03683  0.25274  1.0000
  C  Sn15      1.0  0.94423  0.02002  0.32812  1.0000
  C  Sn16      1.0  0.92537  0.03273  0.36442  1.0000
  C   C145      1.0  0.93441  0.06194  0.32430  1.0000
  C   C146      1.0  0.96188  0.07857  0.24892  1.0000
  H   H141      1.0  0.00172  0.07889  0.15482  1.0000
  O  Te15      1.0  0.45008  0.99089  0.36682  1.0000
  O  Te16      1.0  0.89787  0.01642  0.43967  1.0000
  H   H142      1.0  0.96871  0.10116  0.21826  1.0000
  Mg  Mg8       1.0  0.41050  0.97760  0.46862  1.0000
  C   C147      1.0  0.93225  0.88846  0.33000  1.0000
  C   C148      1.0  0.93640  0.86846  0.23988  1.0000
  C  Sn17      1.0  0.95805  0.87990  0.13336  1.0000
  C  Sn18      1.0  0.97585  0.91197  0.11703  1.0000
  C   C149      1.0  0.97155  0.93179  0.20779  1.0000
  C   C150      1.0  0.94981  0.92009  0.31400  1.0000
  H   H143      1.0  0.91545  0.87941  0.41223  1.0000
  O  Te17      1.0  0.96190  0.85960  0.04421  1.0000
  O  Te18      1.0  0.99766  0.92403  0.01148  1.0000
  H   H144      1.0  0.94662  0.93558  0.38381  1.0000
  Mg  Mg9       1.0  0.98134  0.89671  0.91618  1.0000
  C   C151      1.0  0.55479  0.25878  0.36861  1.0000
  C   C152      1.0  0.53886  0.27065  0.31539  1.0000
  C  Sn19      1.0  0.55461  0.30035  0.26936  1.0000
  C  Sn20      1.0  0.58691  0.31845  0.27684  1.0000
  C   C153      1.0  0.60264  0.30636  0.33016  1.0000
  C   C154      1.0  0.58665  0.27662  0.37597  1.0000
  H   H145      1.0  0.54243  0.23576  0.40399  1.0000
  O  Te19      1.0  0.53834  0.31185  0.21652  1.0000
  O  Te20      1.0  0.60322  0.34820  0.23151  1.0000
  H   H146      1.0  0.59899  0.26743  0.41709  1.0000
  Mg  Mg10      1.0  0.57080  0.35368  0.16776  1.0000
  C   C155      1.0  0.73316  0.29127  0.21848  1.0000
  C   C156      1.0  0.72456  0.26406  0.27860  1.0000
  C  Sn21      1.0  0.69824  0.25050  0.36342  1.0000
  C  Sn22      1.0  0.68024  0.26449  0.38829  1.0000
  C   C157      1.0  0.68903  0.29170  0.32759  1.0000
  C   C158      1.0  0.71542  0.30508  0.24293  1.0000
  H   H147      1.0  0.75357  0.30161  0.15292  1.0000
  O  Te21      1.0  0.68999  0.22331  0.42270  1.0000
  O  Te22      1.0  0.65382  0.25142  0.47260  1.0000
  H   H148      1.0  0.72206  0.32614  0.19633  1.0000
  Mg  Mg11      1.0  0.65202  0.21429  0.53001  1.0000
  C   C159      1.0  0.73138  0.41377  0.20223  1.0000
  C   C160      1.0  0.71188  0.39959  0.31241  1.0000
  C  Sn23      1.0  0.70541  0.41677  0.41003  1.0000
  C  Sn24      1.0  0.71872  0.44872  0.39681  1.0000
  C   C161      1.0  0.73817  0.46269  0.28616  1.0000
  C   C162      1.0  0.74451  0.44529  0.18909  1.0000
  H   H149      1.0  0.73626  0.40030  0.12708  1.0000
  O  Te23      1.0  0.68590  0.40224  0.51950  1.0000
  O  Te24      1.0  0.71263  0.46643  0.49288  1.0000
  H   H150      1.0  0.75958  0.45627  0.10375  1.0000
  Mg  Mg12      1.0  0.68459  0.43616  0.62407  1.0000
  C   C163      1.0  0.24189  0.10655  0.99207  1.0000
  C   C164      1.0  0.26812  0.13385  0.95392  1.0000
  C  Sn25      1.0  0.26639  0.15222  0.86424  1.0000
  C  Sn26      1.0  0.23785  0.14303  0.81197  1.0000
  C   C165      1.0  0.21174  0.11569  0.85084  1.0000
  C   C166      1.0  0.21373  0.09748  0.94061  1.0000
  H   H151      1.0  0.25656  0.08284  0.06158  1.0000
  O  Te25      1.0  0.29282  0.17942  0.82714  1.0000
  O  Te26      1.0  0.23548  0.16096  0.72222  1.0000
  H   H152      1.0  0.19341  0.07636  0.97019  1.0000
  Mg  Mg13      1.0  0.27794  0.19606  0.70192  1.0000
  C   C167      1.0  0.83963  0.08804  0.82208  1.0000
  C   C168      1.0  0.85193  0.11602  0.89408  1.0000
  C  Sn27      1.0  0.88337  0.13336  0.91256  1.0000
  C  Sn28      1.0  0.90279  0.12243  0.85780  1.0000
  C   C169      1.0  0.89026  0.09442  0.78585  1.0000
  C   C170      1.0  0.85877  0.07724  0.76799  1.0000
  H   H153      1.0  0.81526  0.07475  0.80820  1.0000
  O  Te27      1.0  0.89529  0.16126  0.98480  1.0000
  O  Te28      1.0  0.93430  0.13931  0.87472  1.0000
  H   H154      1.0  0.84925  0.05559  0.71217  1.0000
  Mg  Mg14      1.0  0.93969  0.17596  0.98092  1.0000
  C   C171      1.0  0.86332  0.76711  0.91043  1.0000
  C   C172      1.0  0.89510  0.78604  0.89263  1.0000
  C  Sn29      1.0  0.91417  0.77380  0.89143  1.0000
  C  Sn30      1.0  0.90111  0.74200  0.90837  1.0000
  C   C173      1.0  0.86929  0.72326  0.92602  1.0000
  C   C174      1.0  0.85042  0.73575  0.92709  1.0000
  H   H155      1.0  0.84872  0.77678  0.91119  1.0000
  O  Te29      1.0  0.94587  0.79304  0.87358  1.0000
  O  Te30      1.0  0.91963  0.72916  0.90754  1.0000
  H   H156      1.0  0.82581  0.72109  0.94080  1.0000
  Mg  Mg15      1.0  0.96156  0.76477  0.87988  1.0000
  C   C175      1.0  0.41811  0.24388  0.69132  1.0000
  C   C176      1.0  0.39472  0.21317  0.68382  1.0000
  C  Sn31      1.0  0.39912  0.19042  0.72683  1.0000
  C  Sn32      1.0  0.42747  0.19864  0.77829  1.0000
  C   C177      1.0  0.45072  0.22942  0.78547  1.0000
  C   C178      1.0  0.44608  0.25200  0.74211  1.0000
  H   H157      1.0  0.41452  0.26135  0.65784  1.0000
  O  Te31      1.0  0.37551  0.15985  0.71859  1.0000
  O  Te32      1.0  0.43247  0.17636  0.82202  1.0000
  H   H158      1.0  0.46418  0.27577  0.74801  1.0000
  Mg  Mg16      1.0  0.39333  0.13780  0.79062  1.0000
  C   C179      1.0  0.75905  0.20168  0.65254  1.0000
  C   C180      1.0  0.76306  0.22094  0.76467  1.0000
  C  Sn33      1.0  0.78650  0.22854  0.84840  1.0000
  C  Sn34      1.0  0.80625  0.21662  0.81905  1.0000
  C   C181      1.0  0.80205  0.19739  0.70658  1.0000
  C   C182      1.0  0.77852  0.18992  0.62349  1.0000
  H   H159      1.0  0.74085  0.19592  0.58821  1.0000
  O  Te33      1.0  0.79018  0.24780  0.96004  1.0000
  O  Te34      1.0  0.82986  0.22386  0.90102  1.0000
  H   H160      1.0  0.77543  0.17503  0.53664  1.0000
  Mg  Mg17      1.0  0.83882  0.24139  0.04156  1.0000
  C   C183      1.0  0.76791  0.57687  0.75628  1.0000
  C   C184      1.0  0.77375  0.55287  0.75410  1.0000
  C  Sn35      1.0  0.80270  0.55763  0.71161  1.0000
  C  Sn36      1.0  0.82618  0.58698  0.67064  1.0000
  C   C185      1.0  0.82011  0.61085  0.67328  1.0000
  C   C186      1.0  0.79106  0.60583  0.71594  1.0000
  H   H161      1.0  0.74544  0.57300  0.78936  1.0000
  O  Te35      1.0  0.80814  0.53339  0.71000  1.0000
  O  Te36      1.0  0.85532  0.59237  0.62776  1.0000
  H   H162      1.0  0.78655  0.62443  0.71770  1.0000
  Mg  Mg18      1.0  0.85156  0.55208  0.64333  1.0000
  C   C187      1.0  0.10896  0.07469  0.82136  1.0000
  C   C188      1.0  0.12816  0.06246  0.80993  1.0000
  C  Sn37      1.0  0.11721  0.03233  0.76186  1.0000
  C  Sn38      1.0  0.08645  0.01416  0.72458  1.0000
  C   C189      1.0  0.06743  0.02662  0.73630  1.0000
  C   C190      1.0  0.07862  0.05680  0.78456  1.0000
  H   H163      1.0  0.11762  0.09804  0.85863  1.0000
  O  Te37      1.0  0.13670  0.02046  0.75112  1.0000
  O  Te38      1.0  0.58924  0.98398  0.67618  1.0000
  H   H164      1.0  0.06375  0.06627  0.79332  1.0000
  Mg  Mg19      1.0  0.62470  0.97811  0.67978  1.0000
  C   C191      1.0  0.93273  0.03648  0.82660  1.0000
  C   C192      1.0  0.94094  0.06269  0.75909  1.0000
  C  Sn39      1.0  0.96532  0.07370  0.66358  1.0000
  C  Sn40      1.0  0.98175  0.05812  0.63533  1.0000
  C   C193      1.0  0.97334  0.03190  0.70335  1.0000
  C   C194      1.0  0.94891  0.02109  0.79876  1.0000
  H   H165      1.0  0.91382  0.02810  0.90037  1.0000
  O  Te39      1.0  0.97323  0.09993  0.59709  1.0000
  O  Te40      1.0  0.00620  0.06862  0.54031  1.0000
  H   H166      1.0  0.45687  0.00079  0.85095  1.0000
  Mg  Mg20      1.0  0.00828  0.10534  0.47611  1.0000
  C   C195      1.0  0.92116  0.89783  0.88447  1.0000
  C   C196      1.0  0.92481  0.87393  0.82722  1.0000
  C  Sn41      1.0  0.95072  0.88023  0.74485  1.0000
  C  Sn42      1.0  0.97336  0.91106  0.71954  1.0000
  C   C197      1.0  0.96950  0.93481  0.77737  1.0000
  C   C198      1.0  0.94348  0.92825  0.85960  1.0000
  H   H167      1.0  0.90104  0.89275  0.94816  1.0000
  O  Te41      1.0  0.95401  0.85607  0.68841  1.0000
  O  Te42      1.0  0.99948  0.91801  0.63763  1.0000
  H   H168      1.0  0.94067  0.94676  0.90399  1.0000
  Mg  Mg21      1.0  0.99360  0.87717  0.58367  1.0000
  C   C199      1.0  0.57452  0.32243  0.91476  1.0000
  C   C200      1.0  0.59311  0.31116  0.85933  1.0000
  C  Sn43      1.0  0.58121  0.28555  0.77192  1.0000
  C  Sn44      1.0  0.55011  0.27101  0.73955  1.0000
  C   C201      1.0  0.53171  0.28248  0.79545  1.0000
  C   C202      1.0  0.54384  0.30812  0.88285  1.0000
  H   H169      1.0  0.58391  0.34228  0.98232  1.0000
  O  Te43      1.0  0.60010  0.27458  0.71747  1.0000
  O  Te44      1.0  0.53763  0.24539  0.65242  1.0000
  H   H170      1.0  0.52945  0.31685  0.92568  1.0000
  Mg  Mg22      1.0  0.57254  0.23899  0.60379  1.0000
  C   C203      1.0  0.68049  0.24957  0.74462  1.0000
  C   C204      1.0  0.71021  0.25762  0.77163  1.0000
  C  Sn45      1.0  0.72996  0.28639  0.82923  1.0000
  C  Sn46      1.0  0.71969  0.30743  0.86029  1.0000
  C   C205      1.0  0.68991  0.29914  0.83297  1.0000
  C   C206      1.0  0.67034  0.27030  0.77527  1.0000
  H   H171      1.0  0.66534  0.22724  0.70005  1.0000
  O  Te45      1.0  0.75958  0.29407  0.85551  1.0000
  O  Te46      1.0  0.73895  0.33633  0.91794  1.0000
  H   H172      1.0  0.64732  0.26406  0.75445  1.0000
  Mg  Mg23      1.0  0.77730  0.33618  0.93483  1.0000
  C   C207      1.0  0.70424  0.44470  0.76312  1.0000
  C   C208      1.0  0.73456  0.46307  0.79902  1.0000
  C  Sn47      1.0  0.75001  0.44981  0.84446  1.0000
  C  Sn48      1.0  0.73476  0.41755  0.85400  1.0000
  C   C209      1.0  0.70444  0.39938  0.81775  1.0000
  C   C210      1.0  0.68919  0.41289  0.77245  1.0000
  H   H173      1.0  0.69245  0.45515  0.72799  1.0000
  O  Te47      1.0  0.78029  0.46849  0.87996  1.0000
  O  Te48      1.0  0.74966  0.40370  0.89906  1.0000
  H   H174      1.0  0.66573  0.39866  0.74458  1.0000
  Mg  Mg24      1.0  0.79088  0.43887  0.93574  1.0000
