data_image0
_chemical_formula_structural       H150C204N30O6SnCSn2CSnTe4Mg2SnCSn2CSnTe4Mg2SnCSn2CSnTe4Mg2SnCSn2CSnTe4Mg2SnCSn2CSnTe4Mg2SnCSn2CSnTe4Mg2SnCSn2CSnTe4Mg2SnCSn2CSnTe4Mg2SnCSn2CSnTe4Mg2SnCSn2CSnTe4Mg2SnCSn2CSnTe4Mg2SnCSn2CSnTe4Mg2
_chemical_formula_sum              "H150 C228 N30 O6 Sn48 Te48 Mg24"
_cell_length_a       52.3847
_cell_length_b       52.2476
_cell_length_c       8.04393
_cell_angle_alpha    70.1019
_cell_angle_beta     111.415
_cell_angle_gamma    121.144

_symmetry_space_group_name_H-M    'P1'
_space_group_IT_number       1

loop_
  _space_group_symop_operation_xyz
  'x, y, z'

loop_
  _atom_site_type_symbol
  _atom_site_label
  _atom_site_symmetry_multiplicity
  _atom_site_fract_x
  _atom_site_fract_y
  _atom_site_fract_z
  _atom_site_occupancy
  H   H1        1.0  0.29626  0.11333  0.51595  1.0000
  H   H2        1.0  0.87975  0.18226  0.48777  1.0000
  H   H3        1.0  0.81158  0.68768  0.43595  1.0000
  H   H4        1.0  0.35091  0.13798  0.53705  1.0000
  H   H5        1.0  0.85599  0.21417  0.45463  1.0000
  H   H6        1.0  0.78144  0.63528  0.38802  1.0000
  H   H7        1.0  0.39496  0.25072  0.25590  1.0000
  H   H8        1.0  0.75737  0.13730  0.13365  1.0000
  H   H9        1.0  0.86157  0.62395  0.13085  1.0000
  H   H10       1.0  0.25443  0.17400  0.42830  1.0000
  H   H11       1.0  0.81631  0.08337  0.49100  1.0000
  H   H12       1.0  0.19818  0.14604  0.40717  1.0000
  H   H13       1.0  0.84221  0.05507  0.48867  1.0000
  H   H14       1.0  0.93472  0.13706  0.21456  1.0000
  H   H15       1.0  0.86438  0.79951  0.12773  1.0000
  H   H16       1.0  0.90588  0.16202  0.22487  1.0000
  H   H17       1.0  0.83414  0.74397  0.12578  1.0000
  H   H18       1.0  0.45689  0.26288  0.55384  1.0000
  H   H19       1.0  0.40358  0.24022  0.57959  1.0000
  H   H20       1.0  0.16916  0.12070  0.94226  1.0000
  H   H21       1.0  0.89549  0.06418  0.03049  1.0000
  H   H22       1.0  0.94547  0.84585  0.05636  1.0000
  H   H23       1.0  0.49434  0.21678  0.56403  1.0000
  H   H24       1.0  0.76405  0.26384  0.52205  1.0000
  H   H25       1.0  0.72247  0.48878  0.42804  1.0000
  H   H26       1.0  0.13826  0.10522  0.13328  1.0000
  H   H27       1.0  0.92103  0.03787  0.22163  1.0000
  H   H28       1.0  0.96884  0.87727  0.28298  1.0000
  H   H29       1.0  0.08419  0.08194  0.13981  1.0000
  H   H30       1.0  0.94495  0.00875  0.21217  1.0000
  H   H31       1.0  0.00265  0.93237  0.28430  1.0000
  H   H32       1.0  0.00141  0.06796  0.49488  1.0000
  H   H33       1.0  0.98093  0.09946  0.51818  1.0000
  H   H34       1.0  0.52421  0.23348  0.38990  1.0000
  H   H35       1.0  0.73813  0.28949  0.29504  1.0000
  H   H36       1.0  0.57666  0.25560  0.35690  1.0000
  H   H37       1.0  0.71496  0.32075  0.28416  1.0000
  H   H38       1.0  0.61446  0.35879  0.00944  1.0000
  H   H39       1.0  0.56060  0.33690  0.02465  1.0000
  H   H40       1.0  0.03942  0.06627  0.08293  1.0000
  H   H41       1.0  0.95248  0.98694  0.08332  1.0000
  H   H42       1.0  0.02960  0.97925  0.08057  1.0000
  H   H43       1.0  0.62212  0.26816  0.43598  1.0000
  H   H44       1.0  0.70988  0.34537  0.40750  1.0000
  H   H45       1.0  0.63542  0.35807  0.40449  1.0000
  H   H46       1.0  0.32996  0.26272  0.21193  1.0000
  H   H47       1.0  0.74728  0.05982  0.25685  1.0000
  H   H48       1.0  0.93911  0.68156  0.27139  1.0000
  H   H49       1.0  0.40695  0.29881  0.05082  1.0000
  H   H50       1.0  0.71421  0.11187  0.87250  1.0000
  H   H51       1.0  0.90554  0.60620  0.04127  1.0000
  H   H52       1.0  0.43985  0.35265  0.18855  1.0000
  H   H53       1.0  0.65581  0.09105  0.91042  1.0000
  H   H54       1.0  0.93902  0.60382  0.44231  1.0000
  H   H55       1.0  0.41879  0.35094  0.96014  1.0000
  H   H56       1.0  0.66315  0.07537  0.77915  1.0000
  H   H57       1.0  0.93737  0.58618  0.28426  1.0000
  H   H58       1.0  0.41818  0.39671  0.13714  1.0000
  H   H59       1.0  0.61071  0.02928  0.00876  1.0000
  H   H60       1.0  0.00334  0.62326  0.37131  1.0000
  H   H61       1.0  0.37394  0.39756  0.18122  1.0000
  H   H62       1.0  0.60766  0.98301  0.24728  1.0000
  H   H63       1.0  0.04225  0.67463  0.26091  1.0000
  H   H64       1.0  0.32539  0.35015  0.20373  1.0000
  H   H65       1.0  0.65476  0.97697  0.42284  1.0000
  H   H66       1.0  0.02713  0.71561  0.07719  1.0000
  H   H67       1.0  0.31972  0.30171  0.17324  1.0000
  H   H68       1.0  0.70524  0.01597  0.35575  1.0000
  H   H69       1.0  0.97240  0.70578  0.00178  1.0000
  H   H70       1.0  0.43640  0.30090  0.34185  1.0000
  H   H71       1.0  0.70491  0.13125  0.04643  1.0000
  H   H72       1.0  0.87083  0.57931  0.19346  1.0000
  H   H73       1.0  0.35865  0.29510  0.96542  1.0000
  H   H74       1.0  0.71472  0.06567  0.95840  1.0000
  H   H75       1.0  0.91299  0.65546  0.97914  1.0000
  H   H76       1.0  0.31296  0.12974  0.03327  1.0000
  H   H77       1.0  0.88307  0.18898  0.02462  1.0000
  H   H78       1.0  0.80701  0.70919  0.94806  1.0000
  H   H79       1.0  0.36762  0.15434  0.05782  1.0000
  H   H80       1.0  0.85924  0.22093  0.98886  1.0000
  H   H81       1.0  0.77605  0.65665  0.89973  1.0000
  H   H82       1.0  0.37898  0.23499  0.73671  1.0000
  H   H83       1.0  0.75634  0.13083  0.63180  1.0000
  H   H84       1.0  0.86781  0.60396  0.62225  1.0000
  H   H85       1.0  0.82109  0.09073  0.99899  1.0000
  H   H86       1.0  0.90825  0.74513  0.00405  1.0000
  H   H87       1.0  0.84995  0.06640  0.98553  1.0000
  H   H88       1.0  0.93834  0.80038  0.00854  1.0000
  H   H89       1.0  0.20492  0.06236  0.66356  1.0000
  H   H90       1.0  0.92990  0.12586  0.68804  1.0000
  H   H91       1.0  0.26129  0.09021  0.68545  1.0000
  H   H92       1.0  0.90399  0.15444  0.68980  1.0000
  H   H93       1.0  0.39501  0.15069  0.65141  1.0000
  H   H94       1.0  0.44750  0.17390  0.61399  1.0000
  H   H95       1.0  0.15348  0.10147  0.47127  1.0000
  H   H96       1.0  0.88561  0.04986  0.52931  1.0000
  H   H97       1.0  0.93992  0.82776  0.52255  1.0000
  H   H98       1.0  0.50907  0.23849  0.03400  1.0000
  H   H99       1.0  0.77424  0.27750  0.02939  1.0000
  H   H100      1.0  0.72599  0.50670  0.94984  1.0000
  H   H101      1.0  0.90683  0.01877  0.71744  1.0000
  H   H102      1.0  0.92735  0.98722  0.69724  1.0000
  H   H103      1.0  0.06938  0.00000  0.02259  1.0000
  H   H104      1.0  0.01246  0.09064  0.96366  1.0000
  H   H105      1.0  0.93115  0.95290  0.89062  1.0000
  H   H106      1.0  0.12426  0.02274  0.03333  1.0000
  H   H107      1.0  0.98871  0.12005  0.97890  1.0000
  H   H108      1.0  0.89734  0.89766  0.88773  1.0000
  H   H109      1.0  0.54005  0.25606  0.87005  1.0000
  H   H110      1.0  0.59278  0.27784  0.84776  1.0000
  H   H111      1.0  0.59790  0.33837  0.49541  1.0000
  H   H112      1.0  0.64882  0.24300  0.56489  1.0000
  H   H113      1.0  0.54441  0.31660  0.51456  1.0000
  H   H114      1.0  0.67160  0.21135  0.56891  1.0000
  H   H115      1.0  0.02427  0.04277  0.59525  1.0000
  H   H116      1.0  0.93610  0.96433  0.56664  1.0000
  H   H117      1.0  0.01351  0.95741  0.55899  1.0000
  H   H118      1.0  0.63766  0.29111  0.90971  1.0000
  H   H119      1.0  0.72658  0.36794  0.90876  1.0000
  H   H120      1.0  0.65171  0.37978  0.90957  1.0000
  H   H121      1.0  0.31661  0.24191  0.77066  1.0000
  H   H122      1.0  0.75368  0.05753  0.84166  1.0000
  H   H123      1.0  0.94514  0.66160  0.78262  1.0000
  H   H124      1.0  0.38403  0.29273  0.49337  1.0000
  H   H125      1.0  0.70553  0.08831  0.38219  1.0000
  H   H126      1.0  0.91562  0.57888  0.64756  1.0000
  H   H127      1.0  0.41091  0.33899  0.70223  1.0000
  H   H128      1.0  0.65281  0.06714  0.50312  1.0000
  H   H129      1.0  0.94427  0.59130  0.03438  1.0000
  H   H130      1.0  0.39351  0.34290  0.46742  1.0000
  H   H131      1.0  0.65527  0.04836  0.36813  1.0000
  H   H132      1.0  0.94611  0.56604  0.94212  1.0000
  H   H133      1.0  0.37930  0.37496  0.65780  1.0000
  H   H134      1.0  0.61708  0.00460  0.66890  1.0000
  H   H135      1.0  0.01145  0.60457  0.02565  1.0000
  H   H136      1.0  0.33112  0.36440  0.71827  1.0000
  H   H137      1.0  0.62536  0.96426  0.92409  1.0000
  H   H138      1.0  0.05114  0.65285  0.89168  1.0000
  H   H139      1.0  0.28761  0.31252  0.72928  1.0000
  H   H140      1.0  0.67698  0.96621  0.05032  1.0000
  H   H141      1.0  0.03613  0.68978  0.64189  1.0000
  H   H142      1.0  0.29165  0.27033  0.68030  1.0000
  H   H143      1.0  0.72129  0.00890  0.92630  1.0000
  H   H144      1.0  0.98125  0.67887  0.52086  1.0000
  H   H145      1.0  0.41716  0.28966  0.74796  1.0000
  H   H146      1.0  0.70206  0.11722  0.50793  1.0000
  H   H147      1.0  0.88006  0.55726  0.80167  1.0000
  H   H148      1.0  0.33338  0.27353  0.46724  1.0000
  H   H149      1.0  0.72100  0.05174  0.53075  1.0000
  H   H150      1.0  0.92117  0.62812  0.51520  1.0000
  C   C1        1.0  0.31009  0.13572  0.55253  1.0000
  C   C2        1.0  0.85745  0.17141  0.51909  1.0000
  C   C3        1.0  0.82328  0.67374  0.47124  1.0000
  C   C4        1.0  0.34155  0.14977  0.56726  1.0000
  C   C5        1.0  0.84370  0.18965  0.49706  1.0000
  C   C6        1.0  0.80607  0.64386  0.44289  1.0000
  C   C7        1.0  0.36137  0.17931  0.60742  1.0000
  C   C8        1.0  0.81386  0.17712  0.51970  1.0000
  C   C9        1.0  0.81960  0.62481  0.47415  1.0000
  C   C10       1.0  0.36264  0.20954  0.14980  1.0000
  C   C11       1.0  0.80121  0.15186  0.08097  1.0000
  C   C12       1.0  0.84581  0.65852  0.05532  1.0000
  C   C13       1.0  0.33027  0.19595  0.12713  1.0000
  C   C14       1.0  0.81466  0.13269  0.10637  1.0000
  C   C15       1.0  0.86424  0.68877  0.08816  1.0000
  C   C16       1.0  0.29509  0.15001  0.57268  1.0000
  C   C17       1.0  0.84315  0.13942  0.57085  1.0000
  C   C18       1.0  0.85543  0.68726  0.53652  1.0000
  C   C19       1.0  0.34821  0.24034  0.18441  1.0000
  C   C20       1.0  0.76943  0.10313  0.15804  1.0000
  C   C21       1.0  0.89471  0.66831  0.17278  1.0000
  C   C22       1.0  0.86139  0.12881  0.10559  1.0000
  C   C23       1.0  0.86881  0.74055  0.06131  1.0000
  C   C24       1.0  0.39414  0.19337  0.61178  1.0000
  C   C25       1.0  0.24359  0.14963  0.47974  1.0000
  C   C26       1.0  0.84107  0.09261  0.53500  1.0000
  C   C27       1.0  0.21217  0.13390  0.46831  1.0000
  C   C28       1.0  0.85569  0.07683  0.53383  1.0000
  C   C29       1.0  0.89435  0.10049  0.09560  1.0000
  C   C30       1.0  0.90321  0.80365  0.06683  1.0000
  C   C31       1.0  0.90992  0.12749  0.16499  1.0000
  C   C32       1.0  0.87350  0.78735  0.09875  1.0000
  C   C33       1.0  0.89368  0.14134  0.16930  1.0000
  C   C34       1.0  0.85670  0.75640  0.09593  1.0000
  C   C35       1.0  0.45549  0.22024  0.57385  1.0000
  C   C36       1.0  0.44271  0.23833  0.57193  1.0000
  C   C37       1.0  0.41293  0.22525  0.59085  1.0000
  C   C38       1.0  0.18076  0.10602  0.01259  1.0000
  C   C39       1.0  0.91032  0.08616  0.07583  1.0000
  C   C40       1.0  0.92169  0.83612  0.06706  1.0000
  C   C41       1.0  0.48575  0.23327  0.54160  1.0000
  C   C42       1.0  0.74943  0.24157  0.48024  1.0000
  C   C43       1.0  0.74604  0.49856  0.41365  1.0000
  C   C44       1.0  0.13507  0.06581  0.07917  1.0000
  C   C45       1.0  0.95242  0.08095  0.09355  1.0000
  C   C46       1.0  0.93114  0.88386  0.08006  1.0000
  C   C47       1.0  0.53073  0.27323  0.46105  1.0000
  C   C48       1.0  0.70731  0.24841  0.44004  1.0000
  C   C49       1.0  0.12296  0.08226  0.10651  1.0000
  C   C50       1.0  0.94023  0.04925  0.15744  1.0000
  C   C51       1.0  0.96102  0.89400  0.19202  1.0000
  C   C52       1.0  0.09222  0.06893  0.10958  1.0000
  C   C53       1.0  0.95393  0.03287  0.15268  1.0000
  C   C54       1.0  0.97990  0.92495  0.19348  1.0000
  C   C55       1.0  0.07178  0.03897  0.07937  1.0000
  C   C56       1.0  0.98030  0.04715  0.08414  1.0000
  C   C57       1.0  0.96961  0.94679  0.08406  1.0000
  C   C58       1.0  0.08420  0.02287  0.05108  1.0000
  C   C59       1.0  0.99250  0.07891  0.02137  1.0000
  C   C60       1.0  0.93947  0.93632  0.97595  1.0000
  C   C61       1.0  0.96955  0.07483  0.55922  1.0000
  C   C62       1.0  0.54046  0.25633  0.41597  1.0000
  C   C63       1.0  0.71937  0.27960  0.36104  1.0000
  C   C64       1.0  0.57032  0.26892  0.39820  1.0000
  C   C65       1.0  0.70610  0.29716  0.35461  1.0000
  C   C66       1.0  0.59220  0.29862  0.42869  1.0000
  C   C67       1.0  0.68047  0.28467  0.42731  1.0000
  C   C68       1.0  0.59828  0.33639  0.97623  1.0000
  C   C69       1.0  0.56806  0.32423  0.98624  1.0000
  C   C70       1.0  0.03896  0.02481  0.08094  1.0000
  C   C71       1.0  0.99439  0.02901  0.08244  1.0000
  C   C72       1.0  0.98919  0.97968  0.08387  1.0000
  C   C73       1.0  0.62446  0.31138  0.42009  1.0000
  C   C74       1.0  0.66736  0.30424  0.42105  1.0000
  C   C75       1.0  0.67473  0.35519  0.40419  1.0000
  C   C76       1.0  0.02548  0.04209  0.08142  1.0000
  C   C77       1.0  0.97658  0.99769  0.08279  1.0000
  C   C78       1.0  0.02026  0.99343  0.08293  1.0000
  C   C79       1.0  0.63670  0.29252  0.42659  1.0000
  C   C80       1.0  0.68603  0.33570  0.41063  1.0000
  C   C81       1.0  0.64395  0.34283  0.40780  1.0000
  C   C82       1.0  0.36808  0.29595  0.11153  1.0000
  C   C83       1.0  0.71358  0.07139  0.07509  1.0000
  C   C84       1.0  0.92396  0.64864  0.12029  1.0000
  C   C85       1.0  0.40308  0.30701  0.14385  1.0000
  C   C86       1.0  0.70321  0.09692  0.98490  1.0000
  C   C87       1.0  0.91141  0.61331  0.16924  1.0000
  C   C88       1.0  0.36613  0.32188  0.14130  1.0000
  C   C89       1.0  0.68638  0.04486  0.14580  1.0000
  C   C90       1.0  0.95762  0.65900  0.14487  1.0000
  C   C91       1.0  0.39372  0.34855  0.13064  1.0000
  C   C92       1.0  0.65985  0.04867  0.04920  1.0000
  C   C93       1.0  0.96607  0.63567  0.24769  1.0000
  C   C94       1.0  0.41673  0.34221  0.10243  1.0000
  C   C95       1.0  0.66807  0.07875  0.91739  1.0000
  C   C96       1.0  0.93860  0.60695  0.29940  1.0000
  C   C97       1.0  0.39672  0.37599  0.14387  1.0000
  C   C98       1.0  0.63133  0.02636  0.08320  1.0000
  C   C99       1.0  0.99656  0.64112  0.28984  1.0000
  C   C100      1.0  0.37180  0.37640  0.16874  1.0000
  C   C101      1.0  0.62967  0.00034  0.21713  1.0000
  C   C102      1.0  0.01840  0.67011  0.22840  1.0000
  C   C103      1.0  0.34436  0.34969  0.18080  1.0000
  C   C104      1.0  0.65622  0.99684  0.31585  1.0000
  C   C105      1.0  0.00989  0.69330  0.12503  1.0000
  C   C106      1.0  0.34132  0.32226  0.16597  1.0000
  C   C107      1.0  0.68474  0.01900  0.27879  1.0000
  C   C108      1.0  0.97929  0.68791  0.08245  1.0000
  C   C109      1.0  0.32662  0.15202  0.07141  1.0000
  C   C110      1.0  0.86010  0.17806  0.04660  1.0000
  C   C111      1.0  0.81842  0.69497  0.98307  1.0000
  C   C112      1.0  0.35819  0.16611  0.08745  1.0000
  C   C113      1.0  0.84645  0.19631  0.02414  1.0000
  C   C114      1.0  0.80068  0.66497  0.95473  1.0000
  C   C115      1.0  0.37776  0.19587  0.12417  1.0000
  C   C116      1.0  0.81611  0.18376  0.03894  1.0000
  C   C117      1.0  0.81388  0.64556  0.98714  1.0000
  C   C118      1.0  0.34646  0.19339  0.63125  1.0000
  C   C119      1.0  0.79981  0.14532  0.57384  1.0000
  C   C120      1.0  0.85163  0.63822  0.53936  1.0000
  C   C121      1.0  0.31407  0.17960  0.61134  1.0000
  C   C122      1.0  0.81361  0.12637  0.60227  1.0000
  C   C123      1.0  0.86954  0.66841  0.57432  1.0000
  C   C124      1.0  0.31138  0.16642  0.08721  1.0000
  C   C125      1.0  0.84515  0.14592  0.08899  1.0000
  C   C126      1.0  0.85064  0.70818  0.04774  1.0000
  C   C127      1.0  0.33221  0.22302  0.68244  1.0000
  C   C128      1.0  0.77067  0.09729  0.68325  1.0000
  C   C129      1.0  0.90075  0.64864  0.66100  1.0000
  C   C130      1.0  0.26181  0.13412  0.55757  1.0000
  C   C131      1.0  0.85826  0.12135  0.58502  1.0000
  C   C132      1.0  0.84584  0.10086  0.04717  1.0000
  C   C133      1.0  0.89863  0.75696  0.03095  1.0000
  C   C134      1.0  0.86214  0.08720  0.04039  1.0000
  C   C135      1.0  0.91547  0.78791  0.03449  1.0000
  C   C136      1.0  0.19793  0.10236  0.53474  1.0000
  C   C137      1.0  0.88785  0.08877  0.58581  1.0000
  C   C138      1.0  0.21606  0.08672  0.61156  1.0000
  C   C139      1.0  0.90511  0.11703  0.64269  1.0000
  C   C140      1.0  0.24735  0.10236  0.62213  1.0000
  C   C141      1.0  0.89052  0.13295  0.64191  1.0000
  C   C142      1.0  0.40801  0.17534  0.62638  1.0000
  C   C143      1.0  0.43778  0.18839  0.60720  1.0000
  C   C144      1.0  0.16514  0.08682  0.52463  1.0000
  C   C145      1.0  0.90185  0.07149  0.57732  1.0000
  C   C146      1.0  0.91643  0.81549  0.54327  1.0000
  C   C147      1.0  0.50029  0.25475  0.01292  1.0000
  C   C148      1.0  0.75844  0.25588  0.98060  1.0000
  C   C149      1.0  0.74988  0.51886  0.93607  1.0000
  C   C150      1.0  0.94202  0.06150  0.61395  1.0000
  C   C151      1.0  0.54653  0.29467  0.95387  1.0000
  C   C152      1.0  0.92724  0.02952  0.66506  1.0000
  C   C153      1.0  0.93918  0.01179  0.65538  1.0000
  C   C154      1.0  0.96630  0.02485  0.59644  1.0000
  C   C155      1.0  0.98106  0.05687  0.54823  1.0000
  C   C156      1.0  0.11515  0.03556  0.05549  1.0000
  C   C157      1.0  0.97913  0.09556  0.02800  1.0000
  C   C158      1.0  0.92045  0.90554  0.97392  1.0000
  C   C159      1.0  0.55643  0.27825  0.90608  1.0000
  C   C160      1.0  0.58656  0.29078  0.89331  1.0000
  C   C161      1.0  0.60843  0.32013  0.92880  1.0000
  C   C162      1.0  0.58192  0.31558  0.46795  1.0000
  C   C163      1.0  0.66826  0.25333  0.50414  1.0000
  C   C164      1.0  0.55183  0.30346  0.48011  1.0000
  C   C165      1.0  0.68108  0.23544  0.50795  1.0000
  C   C166      1.0  0.02315  0.00230  0.57355  1.0000
  C   C167      1.0  0.97884  0.00601  0.58413  1.0000
  C   C168      1.0  0.97300  0.95746  0.56450  1.0000
  C   C169      1.0  0.64049  0.33343  0.91484  1.0000
  C   C170      1.0  0.68324  0.32699  0.90549  1.0000
  C   C171      1.0  0.69100  0.37735  0.90571  1.0000
  C   C172      1.0  0.00996  0.01897  0.58495  1.0000
  C   C173      1.0  0.96039  0.97512  0.56995  1.0000
  C   C174      1.0  0.00422  0.97130  0.56609  1.0000
  C   C175      1.0  0.65251  0.31520  0.90977  1.0000
  C   C176      1.0  0.70249  0.35821  0.90769  1.0000
  C   C177      1.0  0.66010  0.36471  0.90825  1.0000
  C   C178      1.0  0.34538  0.27728  0.60766  1.0000
  C   C179      1.0  0.71701  0.05855  0.63109  1.0000
  C   C180      1.0  0.93148  0.62516  0.66184  1.0000
  C   C181      1.0  0.38043  0.29540  0.61080  1.0000
  C   C182      1.0  0.69998  0.07835  0.51509  1.0000
  C   C183      1.0  0.91954  0.59075  0.75074  1.0000
  C   C184      1.0  0.33799  0.29913  0.64215  1.0000
  C   C185      1.0  0.69392  0.03085  0.72806  1.0000
  C   C186      1.0  0.96561  0.63551  0.70574  1.0000
  C   C187      1.0  0.36267  0.32845  0.63592  1.0000
  C   C188      1.0  0.66464  0.02954  0.65410  1.0000
  C   C189      1.0  0.97399  0.61472  0.84876  1.0000
  C   C190      1.0  0.38941  0.32912  0.60150  1.0000
  C   C191      1.0  0.66547  0.05599  0.49932  1.0000
  C   C192      1.0  0.94607  0.58818  0.91128  1.0000
  C   C193      1.0  0.36027  0.35213  0.66233  1.0000
  C   C194      1.0  0.63982  0.00561  0.72434  1.0000
  C   C195      1.0  0.00480  0.62069  0.91576  1.0000
  C   C196      1.0  0.33307  0.34621  0.69515  1.0000
  C   C197      1.0  0.64448  0.98284  0.86718  1.0000
  C   C198      1.0  0.02705  0.64785  0.84020  1.0000
  C   C199      1.0  0.30852  0.31688  0.70211  1.0000
  C   C200      1.0  0.67366  0.98402  0.93926  1.0000
  C   C201      1.0  0.01863  0.66876  0.69941  1.0000
  C   C202      1.0  0.31081  0.29313  0.67466  1.0000
  C   C203      1.0  0.69863  0.00812  0.86949  1.0000
  C   C204      1.0  0.98776  0.66265  0.63077  1.0000
  N   N1        1.0  0.37343  0.23796  0.18822  1.0000
  N   N2        1.0  0.77237  0.13224  0.11498  1.0000
  N   N3        1.0  0.86615  0.64613  0.11040  1.0000
  N   N4        1.0  0.32199  0.21610  0.14615  1.0000
  N   N5        1.0  0.79384  0.10220  0.15183  1.0000
  N   N6        1.0  0.89487  0.69427  0.16061  1.0000
  N   N7        1.0  0.16590  0.07761  0.08047  1.0000
  N   N8        1.0  0.93986  0.09831  0.10310  1.0000
  N   N9        1.0  0.91105  0.85311  0.07382  1.0000
  N   N10       1.0  0.50171  0.26224  0.49031  1.0000
  N   N11       1.0  0.71981  0.22998  0.44444  1.0000
  N   N12       1.0  0.75615  0.48160  0.40008  1.0000
  N   N13       1.0  0.35137  0.26619  0.22001  1.0000
  N   N14       1.0  0.74324  0.07846  0.21060  1.0000
  N   N15       1.0  0.91987  0.66221  0.23904  1.0000
  N   N16       1.0  0.35729  0.22140  0.67527  1.0000
  N   N17       1.0  0.77244  0.12600  0.62594  1.0000
  N   N18       1.0  0.87248  0.62629  0.59414  1.0000
  N   N19       1.0  0.30599  0.19900  0.64084  1.0000
  N   N20       1.0  0.79449  0.09628  0.66883  1.0000
  N   N21       1.0  0.90025  0.67425  0.65002  1.0000
  N   N22       1.0  0.15019  0.05766  0.57238  1.0000
  N   N23       1.0  0.93115  0.08068  0.61848  1.0000
  N   N24       1.0  0.90336  0.82993  0.55420  1.0000
  N   N25       1.0  0.51675  0.28385  0.97133  1.0000
  N   N26       1.0  0.72923  0.24738  0.92474  1.0000
  N   N27       1.0  0.76304  0.50446  0.92520  1.0000
  N   N28       1.0  0.33597  0.24781  0.73448  1.0000
  N   N29       1.0  0.74640  0.07339  0.75892  1.0000
  N   N30       1.0  0.92594  0.64292  0.74129  1.0000
  O   O1        1.0  0.41508  0.29524  0.33041  1.0000
  O   O2        1.0  0.71093  0.11510  0.11498  1.0000
  O   O3        1.0  0.88423  0.59809  0.24031  1.0000
  O   O4        1.0  0.39783  0.28347  0.77393  1.0000
  O   O5        1.0  0.70899  0.10311  0.60185  1.0000
  O   O6        1.0  0.89093  0.57904  0.79903  1.0000
  C  Sn1       1.0  0.81483  0.23006  0.13576  1.0000
  C   C205      1.0  0.80188  0.20341  0.06903  1.0000
  C  Sn2       1.0  0.81354  0.16305  0.94006  1.0000
  C  Sn3       1.0  0.79820  0.18158  0.87635  1.0000
  C   C206      1.0  0.81115  0.20821  0.94303  1.0000
  C  Sn4       1.0  0.79948  0.24858  0.07204  1.0000
  O  Te1       1.0  0.84281  0.23813  0.26464  1.0000
  O  Te2       1.0  0.80105  0.13630  0.87542  1.0000
  O  Te3       1.0  0.77019  0.17348  0.74736  1.0000
  O  Te4       1.0  0.81198  0.27532  0.13665  1.0000
  Mg  Mg1       1.0  0.76243  0.13496  0.70044  1.0000
  Mg  Mg2       1.0  0.85060  0.27669  0.31155  1.0000
  C  Sn5       1.0  0.74164  0.42695  0.06773  1.0000
  C   C207      1.0  0.75225  0.38031  0.95849  1.0000
  C  Sn6       1.0  0.73998  0.39691  0.80567  1.0000
  C  Sn7       1.0  0.75709  0.42898  0.76103  1.0000
  C   C208      1.0  0.78610  0.44376  0.87022  1.0000
  C  Sn8       1.0  0.75875  0.45902  0.02309  1.0000
  O  Te5       1.0  0.75346  0.40989  0.21986  1.0000
  O  Te6       1.0  0.71091  0.38162  0.69856  1.0000
  O  Te7       1.0  0.74524  0.44604  0.60877  1.0000
  O  Te8       1.0  0.78781  0.47430  0.13014  1.0000
  Mg  Mg3       1.0  0.70466  0.41485  0.50510  1.0000
  Mg  Mg4       1.0  0.79408  0.44109  0.32357  1.0000
  C  Sn9       1.0  0.72862  0.40382  0.55160  1.0000
  C   C209      1.0  0.69854  0.39037  0.44957  1.0000
  C  Sn10      1.0  0.68709  0.40777  0.29775  1.0000
  C  Sn11      1.0  0.70609  0.43927  0.24676  1.0000
  C   C210      1.0  0.73615  0.45270  0.34874  1.0000
  C  Sn12      1.0  0.74763  0.43532  0.50061  1.0000
  O  Te9       1.0  0.73960  0.38599  0.70285  1.0000
  O  Te10      1.0  0.65694  0.39382  0.19791  1.0000
  O  Te11      1.0  0.69509  0.45709  0.09537  1.0000
  O  Te12      1.0  0.77776  0.44926  0.60040  1.0000
  Mg  Mg5       1.0  0.65247  0.42768  0.00273  1.0000
  Mg  Mg6       1.0  0.78226  0.41541  0.79553  1.0000
  C  Sn13      1.0  0.07585  0.99980  0.56719  1.0000
  C   C211      1.0  0.06024  0.01103  0.60862  1.0000
  C  Sn14      1.0  0.07394  0.04163  0.62111  1.0000
  C  Sn15      1.0  0.10386  0.06143  0.59145  1.0000
  C   C212      1.0  0.11946  0.05019  0.55001  1.0000
  C  Sn16      1.0  0.10578  0.01959  0.53753  1.0000
  O  Te13      1.0  0.57755  0.96912  0.55539  1.0000
  O  Te14      1.0  0.05788  0.05233  0.66277  1.0000
  O  Te15      1.0  0.11799  0.09212  0.60329  1.0000
  O  Te16      1.0  0.12181  0.00889  0.49586  1.0000
  Mg  Mg7       1.0  0.08685  0.09594  0.66357  1.0000
  Mg  Mg8       1.0  0.60871  0.96530  0.49494  1.0000
  C  Sn17      1.0  0.76357  0.19189  0.35267  1.0000
  C   C213      1.0  0.79423  0.19844  0.43784  1.0000
  C  Sn18      1.0  0.81099  0.21815  0.56189  1.0000
  C  Sn19      1.0  0.79682  0.23157  0.60176  1.0000
  C   C214      1.0  0.76618  0.22501  0.51665  1.0000
  C  Sn20      1.0  0.74939  0.20531  0.39254  1.0000
  O  Te17      1.0  0.74725  0.17212  0.22911  1.0000
  O  Te18      1.0  0.84161  0.22436  0.64527  1.0000
  O  Te19      1.0  0.81317  0.25135  0.72543  1.0000
  O  Te20      1.0  0.71879  0.19909  0.30921  1.0000
  Mg  Mg9       1.0  0.85427  0.25274  0.80397  1.0000
  Mg  Mg10      1.0  0.70610  0.17071  0.15057  1.0000
  C  Sn21      1.0  0.76928  0.56743  0.53330  1.0000
  C   C215      1.0  0.79858  0.58710  0.50147  1.0000
  C  Sn22      1.0  0.81059  0.57949  0.40663  1.0000
  C  Sn23      1.0  0.79294  0.55165  0.34216  1.0000
  C   C216      1.0  0.76367  0.53201  0.37396  1.0000
  C  Sn24      1.0  0.75164  0.53959  0.46882  1.0000
  O  Te21      1.0  0.75773  0.57550  0.62841  1.0000
  O  Te22      1.0  0.83993  0.59952  0.37653  1.0000
  O  Te23      1.0  0.80452  0.54360  0.24699  1.0000
  O  Te24      1.0  0.72231  0.51959  0.49890  1.0000
  Mg  Mg11      1.0  0.84564  0.57840  0.23994  1.0000
  Mg  Mg12      1.0  0.71657  0.54069  0.63538  1.0000
  C  Sn25      1.0  0.90958  0.76463  0.45456  1.0000
  C   C217      1.0  0.89977  0.78102  0.50127  1.0000
  C  Sn26      1.0  0.87662  0.76583  0.59618  1.0000
  C  Sn27      1.0  0.86300  0.73360  0.64555  1.0000
  C   C218      1.0  0.87282  0.71723  0.59888  1.0000
  C  Sn28      1.0  0.89596  0.73240  0.50393  1.0000
  O  Te25      1.0  0.93275  0.78028  0.35966  1.0000
  O  Te26      1.0  0.86719  0.78271  0.64132  1.0000
  O  Te27      1.0  0.83981  0.71796  0.74052  1.0000
  O  Te28      1.0  0.90539  0.71554  0.45883  1.0000
  Mg  Mg13      1.0  0.83483  0.75102  0.77122  1.0000
  Mg  Mg14      1.0  0.93776  0.74720  0.32901  1.0000
  C  Sn29      1.0  0.21498  0.19941  0.01883  1.0000
  C   C219      1.0  0.23554  0.18674  0.09397  1.0000
  C  Sn30      1.0  0.22482  0.15531  0.12103  1.0000
  C  Sn31      1.0  0.19288  0.13615  0.07187  1.0000
  C   C220      1.0  0.21198  0.11697  0.99675  1.0000
  C  Sn32      1.0  0.22269  0.14840  0.96967  1.0000
  O  Te29      1.0  0.26586  0.19905  0.99298  1.0000
  O  Te30      1.0  0.24581  0.14317  0.19643  1.0000
  O  Te31      1.0  0.18166  0.10464  0.09779  1.0000
  O  Te32      1.0  0.20171  0.16054  0.89429  1.0000
  Mg  Mg15      1.0  0.21932  0.09891  0.20502  1.0000
  Mg  Mg16      1.0  0.22818  0.20480  0.88556  1.0000
  C  Sn33      1.0  0.96863  0.89862  0.64370  1.0000
  C   C221      1.0  0.95935  0.92139  0.54550  1.0000
  C  Sn34      1.0  0.92852  0.91374  0.45939  1.0000
  C  Sn35      1.0  0.90650  0.88268  0.47177  1.0000
  C   C222      1.0  0.91578  0.85993  0.56995  1.0000
  C  Sn36      1.0  0.94660  0.86756  0.65609  1.0000
  O  Te33      1.0  0.99957  0.90680  0.72872  1.0000
  O  Te34      1.0  0.91981  0.93690  0.36194  1.0000
  O  Te35      1.0  0.87554  0.87452  0.38665  1.0000
  O  Te36      1.0  0.95532  0.84442  0.75351  1.0000
  Mg  Mg17      1.0  0.87495  0.91428  0.26984  1.0000
  Mg  Mg18      1.0  0.00017  0.86701  0.84573  1.0000
  C  Sn37      1.0  0.72579  0.61808  0.04386  1.0000
  C   C223      1.0  0.75453  0.63990  0.00990  1.0000
  C  Sn38      1.0  0.80799  0.60251  0.91560  1.0000
  C  Sn39      1.0  0.79277  0.57459  0.85384  1.0000
  C   C224      1.0  0.76405  0.55279  0.88777  1.0000
  C  Sn40      1.0  0.75021  0.55832  0.98210  1.0000
  O  Te37      1.0  0.71240  0.62411  0.13838  1.0000
  O  Te38      1.0  0.83673  0.62466  0.88333  1.0000
  O  Te39      1.0  0.80619  0.56857  0.75925  1.0000
  O  Te40      1.0  0.68185  0.56803  0.01434  1.0000
  Mg  Mg19      1.0  0.84558  0.60585  0.74856  1.0000
  Mg  Mg20      1.0  0.67297  0.58682  0.14900  1.0000
  C  Sn41      1.0  0.45319  0.25705  0.09855  1.0000
  C   C225      1.0  0.47045  0.24363  0.09978  1.0000
  C  Sn42      1.0  0.45639  0.21288  0.08977  1.0000
  C  Sn43      1.0  0.42442  0.19518  0.07817  1.0000
  C   C226      1.0  0.40718  0.20860  0.07692  1.0000
  C  Sn44      1.0  0.42122  0.23935  0.08696  1.0000
  O  Te41      1.0  0.46772  0.28784  0.10867  1.0000
  O  Te42      1.0  0.47412  0.19997  0.09128  1.0000
  O  Te43      1.0  0.40990  0.16437  0.06805  1.0000
  O  Te44      1.0  0.40351  0.25226  0.08541  1.0000
  Mg  Mg21      1.0  0.44383  0.15713  0.07465  1.0000
  Mg  Mg22      1.0  0.43377  0.29509  0.10194  1.0000
  C  Sn45      1.0  0.68183  0.25677  0.92466  1.0000
  C   C227      1.0  0.70762  0.26450  0.86821  1.0000
  C  Sn46      1.0  0.72983  0.29479  0.84104  1.0000
  C  Sn47      1.0  0.72619  0.31783  0.87103  1.0000
  C   C228      1.0  0.70041  0.31009  0.92747  1.0000
  C  Sn48      1.0  0.67819  0.27980  0.95464  1.0000
  O  Te45      1.0  0.65992  0.22634  0.95098  1.0000
  O  Te46      1.0  0.75541  0.30197  0.78453  1.0000
  O  Te47      1.0  0.74812  0.34827  0.84465  1.0000
  O  Te48      1.0  0.61299  0.30446  0.01115  1.0000
  Mg  Mg23      1.0  0.77898  0.34667  0.76722  1.0000
  Mg  Mg24      1.0  0.58941  0.25977  0.02859  1.0000
