data_image0
_chemical_formula_structural       H150C204N30O6C2Sn2C2HTe2HMgC2Sn2C2HTe2HMgC2Sn2C2HTe2HMgC2Sn2C2HTe2HMgC2Sn2C2HTe2HMgC2Sn2C2HTe2HMgC2Sn2C2HTe2HMgC2Sn2C2HTe2HMgC2Sn2C2HTe2HMgC2Sn2C2HTe2HMgC2Sn2C2HTe2HMgC2Sn2C2HTe2HMg
_chemical_formula_sum              "H174 C252 N30 O6 Sn24 Te24 Mg12"
_cell_length_a       52.3847
_cell_length_b       52.2476
_cell_length_c       8.04393
_cell_angle_alpha    70.1019
_cell_angle_beta     111.415
_cell_angle_gamma    121.144

_symmetry_space_group_name_H-M    'P1'
_space_group_IT_number       1

loop_
  _space_group_symop_operation_xyz
  'x, y, z'

loop_
  _atom_site_type_symbol
  _atom_site_label
  _atom_site_symmetry_multiplicity
  _atom_site_fract_x
  _atom_site_fract_y
  _atom_site_fract_z
  _atom_site_occupancy
  H   H1        1.0  0.29626  0.11333  0.51595  1.0000
  H   H2        1.0  0.87975  0.18226  0.48777  1.0000
  H   H3        1.0  0.81158  0.68768  0.43595  1.0000
  H   H4        1.0  0.35091  0.13798  0.53705  1.0000
  H   H5        1.0  0.85599  0.21417  0.45463  1.0000
  H   H6        1.0  0.78144  0.63528  0.38802  1.0000
  H   H7        1.0  0.39496  0.25072  0.25590  1.0000
  H   H8        1.0  0.75737  0.13730  0.13365  1.0000
  H   H9        1.0  0.86157  0.62395  0.13085  1.0000
  H   H10       1.0  0.81631  0.08337  0.49100  1.0000
  H   H11       1.0  0.91173  0.72865  0.47344  1.0000
  H   H12       1.0  0.84221  0.05507  0.48867  1.0000
  H   H13       1.0  0.93719  0.78412  0.47235  1.0000
  H   H14       1.0  0.93472  0.13706  0.21456  1.0000
  H   H15       1.0  0.90588  0.16202  0.22487  1.0000
  H   H16       1.0  0.84222  0.23679  0.15287  1.0000
  H   H17       1.0  0.81706  0.26774  0.12610  1.0000
  H   H18       1.0  0.72651  0.19257  0.32766  1.0000
  H   H19       1.0  0.75497  0.16503  0.34484  1.0000
  H   H20       1.0  0.16916  0.12070  0.94226  1.0000
  H   H21       1.0  0.89549  0.06418  0.03049  1.0000
  H   H22       1.0  0.94547  0.84585  0.05636  1.0000
  H   H23       1.0  0.49434  0.21678  0.56403  1.0000
  H   H24       1.0  0.76405  0.26384  0.52205  1.0000
  H   H25       1.0  0.72247  0.48878  0.42804  1.0000
  H   H26       1.0  0.13826  0.10522  0.13328  1.0000
  H   H27       1.0  0.08419  0.08194  0.13981  1.0000
  H   H28       1.0  0.05278  0.98146  0.47232  1.0000
  H   H29       1.0  0.91536  0.92776  0.35557  1.0000
  H   H30       1.0  0.10794  0.00543  0.47974  1.0000
  H   H31       1.0  0.88547  0.87205  0.35747  1.0000
  H   H32       1.0  0.52421  0.23348  0.38990  1.0000
  H   H33       1.0  0.73813  0.28949  0.29504  1.0000
  H   H34       1.0  0.69803  0.45824  0.19267  1.0000
  H   H35       1.0  0.57666  0.25560  0.35690  1.0000
  H   H36       1.0  0.71496  0.32075  0.28416  1.0000
  H   H37       1.0  0.66282  0.40318  0.19822  1.0000
  H   H38       1.0  0.74913  0.40604  0.10943  1.0000
  H   H39       1.0  0.77992  0.46147  0.11400  1.0000
  H   H40       1.0  0.03942  0.06627  0.08293  1.0000
  H   H41       1.0  0.95248  0.98694  0.08332  1.0000
  H   H42       1.0  0.02960  0.97925  0.08057  1.0000
  H   H43       1.0  0.62212  0.26816  0.43598  1.0000
  H   H44       1.0  0.70988  0.34537  0.40750  1.0000
  H   H45       1.0  0.63542  0.35807  0.40449  1.0000
  H   H46       1.0  0.32996  0.26272  0.21193  1.0000
  H   H47       1.0  0.74728  0.05982  0.25685  1.0000
  H   H48       1.0  0.93911  0.68156  0.27139  1.0000
  H   H49       1.0  0.40695  0.29881  0.05082  1.0000
  H   H50       1.0  0.71421  0.11187  0.87250  1.0000
  H   H51       1.0  0.90554  0.60620  0.04127  1.0000
  H   H52       1.0  0.43985  0.35265  0.18855  1.0000
  H   H53       1.0  0.65581  0.09105  0.91042  1.0000
  H   H54       1.0  0.93902  0.60382  0.44231  1.0000
  H   H55       1.0  0.41879  0.35094  0.96014  1.0000
  H   H56       1.0  0.66315  0.07537  0.77915  1.0000
  H   H57       1.0  0.93737  0.58618  0.28426  1.0000
  H   H58       1.0  0.41818  0.39671  0.13714  1.0000
  H   H59       1.0  0.61071  0.02928  0.00876  1.0000
  H   H60       1.0  0.00334  0.62326  0.37131  1.0000
  H   H61       1.0  0.37394  0.39756  0.18122  1.0000
  H   H62       1.0  0.60766  0.98301  0.24728  1.0000
  H   H63       1.0  0.04225  0.67463  0.26091  1.0000
  H   H64       1.0  0.32539  0.35015  0.20373  1.0000
  H   H65       1.0  0.65476  0.97697  0.42284  1.0000
  H   H66       1.0  0.02713  0.71561  0.07719  1.0000
  H   H67       1.0  0.31972  0.30171  0.17324  1.0000
  H   H68       1.0  0.70524  0.01597  0.35575  1.0000
  H   H69       1.0  0.97240  0.70578  0.00178  1.0000
  H   H70       1.0  0.43640  0.30090  0.34185  1.0000
  H   H71       1.0  0.70491  0.13125  0.04643  1.0000
  H   H72       1.0  0.87083  0.57931  0.19346  1.0000
  H   H73       1.0  0.35865  0.29510  0.96542  1.0000
  H   H74       1.0  0.71472  0.06567  0.95840  1.0000
  H   H75       1.0  0.91299  0.65546  0.97914  1.0000
  H   H76       1.0  0.31296  0.12974  0.03327  1.0000
  H   H77       1.0  0.88307  0.18898  0.02462  1.0000
  H   H78       1.0  0.80701  0.70919  0.94806  1.0000
  H   H79       1.0  0.36762  0.15434  0.05782  1.0000
  H   H80       1.0  0.85924  0.22093  0.98886  1.0000
  H   H81       1.0  0.77605  0.65665  0.89973  1.0000
  H   H82       1.0  0.37898  0.23499  0.73671  1.0000
  H   H83       1.0  0.75634  0.13083  0.63180  1.0000
  H   H84       1.0  0.86781  0.60396  0.62225  1.0000
  H   H85       1.0  0.82109  0.09073  0.99899  1.0000
  H   H86       1.0  0.84995  0.06640  0.98553  1.0000
  H   H87       1.0  0.92990  0.12586  0.68804  1.0000
  H   H88       1.0  0.86229  0.77373  0.63483  1.0000
  H   H89       1.0  0.90399  0.15444  0.68980  1.0000
  H   H90       1.0  0.83692  0.71799  0.64013  1.0000
  H   H91       1.0  0.83725  0.22951  0.63887  1.0000
  H   H92       1.0  0.80885  0.25688  0.62059  1.0000
  H   H93       1.0  0.73177  0.20421  0.84671  1.0000
  H   H94       1.0  0.75721  0.17361  0.86787  1.0000
  H   H95       1.0  0.15348  0.10147  0.47127  1.0000
  H   H96       1.0  0.88561  0.04986  0.52931  1.0000
  H   H97       1.0  0.93992  0.82776  0.52255  1.0000
  H   H98       1.0  0.50907  0.23849  0.03400  1.0000
  H   H99       1.0  0.77424  0.27750  0.02939  1.0000
  H   H100      1.0  0.72599  0.50670  0.94984  1.0000
  H   H101      1.0  0.12289  0.08063  0.67010  1.0000
  H   H102      1.0  0.95972  0.85760  0.76258  1.0000
  H   H103      1.0  0.06873  0.05643  0.67302  1.0000
  H   H104      1.0  0.98888  0.91299  0.76868  1.0000
  H   H105      1.0  0.06938  0.00000  0.02259  1.0000
  H   H106      1.0  0.12426  0.02274  0.03333  1.0000
  H   H107      1.0  0.70700  0.47818  0.70805  1.0000
  H   H108      1.0  0.67693  0.42309  0.69552  1.0000
  H   H109      1.0  0.59790  0.33837  0.49541  1.0000
  H   H110      1.0  0.64882  0.24300  0.56489  1.0000
  H   H111      1.0  0.73366  0.38120  0.59021  1.0000
  H   H112      1.0  0.54441  0.31660  0.51456  1.0000
  H   H113      1.0  0.67160  0.21135  0.56891  1.0000
  H   H114      1.0  0.76890  0.43637  0.58448  1.0000
  H   H115      1.0  0.02427  0.04277  0.59525  1.0000
  H   H116      1.0  0.93610  0.96433  0.56664  1.0000
  H   H117      1.0  0.01351  0.95741  0.55899  1.0000
  H   H118      1.0  0.63766  0.29111  0.90971  1.0000
  H   H119      1.0  0.72658  0.36794  0.90876  1.0000
  H   H120      1.0  0.65171  0.37978  0.90957  1.0000
  H   H121      1.0  0.31661  0.24191  0.77066  1.0000
  H   H122      1.0  0.75368  0.05753  0.84166  1.0000
  H   H123      1.0  0.94514  0.66160  0.78262  1.0000
  H   H124      1.0  0.38403  0.29273  0.49337  1.0000
  H   H125      1.0  0.70553  0.08831  0.38219  1.0000
  H   H126      1.0  0.91562  0.57888  0.64756  1.0000
  H   H127      1.0  0.41091  0.33899  0.70223  1.0000
  H   H128      1.0  0.65281  0.06714  0.50312  1.0000
  H   H129      1.0  0.94427  0.59130  0.03438  1.0000
  H   H130      1.0  0.39351  0.34290  0.46742  1.0000
  H   H131      1.0  0.65527  0.04836  0.36813  1.0000
  H   H132      1.0  0.94611  0.56604  0.94212  1.0000
  H   H133      1.0  0.37930  0.37496  0.65780  1.0000
  H   H134      1.0  0.61708  0.00460  0.66890  1.0000
  H   H135      1.0  0.01145  0.60457  0.02565  1.0000
  H   H136      1.0  0.33112  0.36440  0.71827  1.0000
  H   H137      1.0  0.62536  0.96426  0.92409  1.0000
  H   H138      1.0  0.05114  0.65285  0.89168  1.0000
  H   H139      1.0  0.28761  0.31252  0.72928  1.0000
  H   H140      1.0  0.67698  0.96621  0.05032  1.0000
  H   H141      1.0  0.03613  0.68978  0.64189  1.0000
  H   H142      1.0  0.29165  0.27033  0.68030  1.0000
  H   H143      1.0  0.72129  0.00890  0.92630  1.0000
  H   H144      1.0  0.98125  0.67887  0.52086  1.0000
  H   H145      1.0  0.41716  0.28966  0.74796  1.0000
  H   H146      1.0  0.70206  0.11722  0.50793  1.0000
  H   H147      1.0  0.88006  0.55726  0.80167  1.0000
  H   H148      1.0  0.33338  0.27353  0.46724  1.0000
  H   H149      1.0  0.72100  0.05174  0.53075  1.0000
  H   H150      1.0  0.92117  0.62812  0.51520  1.0000
  C   C1        1.0  0.31009  0.13572  0.55253  1.0000
  C   C2        1.0  0.85745  0.17141  0.51909  1.0000
  C   C3        1.0  0.82328  0.67374  0.47124  1.0000
  C   C4        1.0  0.34155  0.14977  0.56726  1.0000
  C   C5        1.0  0.84370  0.18965  0.49706  1.0000
  C   C6        1.0  0.80607  0.64386  0.44289  1.0000
  C   C7        1.0  0.36137  0.17931  0.60742  1.0000
  C   C8        1.0  0.81386  0.17712  0.51970  1.0000
  C   C9        1.0  0.81960  0.62481  0.47415  1.0000
  C   C10       1.0  0.36264  0.20954  0.14980  1.0000
  C   C11       1.0  0.80121  0.15186  0.08097  1.0000
  C   C12       1.0  0.84581  0.65852  0.05532  1.0000
  C   C13       1.0  0.33027  0.19595  0.12713  1.0000
  C   C14       1.0  0.81466  0.13269  0.10637  1.0000
  C   C15       1.0  0.86424  0.68877  0.08816  1.0000
  C   C16       1.0  0.29509  0.15001  0.57268  1.0000
  C   C17       1.0  0.84315  0.13942  0.57085  1.0000
  C   C18       1.0  0.85543  0.68726  0.53652  1.0000
  C   C19       1.0  0.34821  0.24034  0.18441  1.0000
  C   C20       1.0  0.76943  0.10313  0.15804  1.0000
  C   C21       1.0  0.89471  0.66831  0.17278  1.0000
  C   C22       1.0  0.86139  0.12881  0.10559  1.0000
  C   C23       1.0  0.79803  0.19489  0.49748  1.0000
  C   C24       1.0  0.84107  0.09261  0.53500  1.0000
  C   C25       1.0  0.90115  0.73842  0.51118  1.0000
  C   C26       1.0  0.85569  0.07683  0.53383  1.0000
  C   C27       1.0  0.91533  0.76949  0.51097  1.0000
  C   C28       1.0  0.89435  0.10049  0.09560  1.0000
  C   C29       1.0  0.90992  0.12749  0.16499  1.0000
  C   C30       1.0  0.89368  0.14134  0.16930  1.0000
  C   C31       1.0  0.81813  0.22977  0.08433  1.0000
  C   C32       1.0  0.80397  0.24703  0.06984  1.0000
  C   C33       1.0  0.76558  0.22607  0.47636  1.0000
  C   C34       1.0  0.75059  0.20003  0.39820  1.0000
  C   C35       1.0  0.76654  0.18479  0.40893  1.0000
  C   C36       1.0  0.18076  0.10602  0.01259  1.0000
  C   C37       1.0  0.91032  0.08616  0.07583  1.0000
  C   C38       1.0  0.92169  0.83612  0.06706  1.0000
  C   C39       1.0  0.48575  0.23327  0.54160  1.0000
  C   C40       1.0  0.74943  0.24157  0.48024  1.0000
  C   C41       1.0  0.74604  0.49856  0.41365  1.0000
  C   C42       1.0  0.13507  0.06581  0.07917  1.0000
  C   C43       1.0  0.53073  0.27323  0.46105  1.0000
  C   C44       1.0  0.70731  0.24841  0.44004  1.0000
  C   C45       1.0  0.73554  0.45093  0.39357  1.0000
  C   C46       1.0  0.12296  0.08226  0.10651  1.0000
  C   C47       1.0  0.09222  0.06893  0.10958  1.0000
  C   C48       1.0  0.07178  0.03897  0.07937  1.0000
  C   C49       1.0  0.08420  0.02287  0.05108  1.0000
  C   C50       1.0  0.09894  0.01641  0.52066  1.0000
  C   C51       1.0  0.90813  0.88126  0.44734  1.0000
  C   C52       1.0  0.54046  0.25633  0.41597  1.0000
  C   C53       1.0  0.71937  0.27960  0.36104  1.0000
  C   C54       1.0  0.70547  0.44125  0.28381  1.0000
  C   C55       1.0  0.57032  0.26892  0.39820  1.0000
  C   C56       1.0  0.70610  0.29716  0.35461  1.0000
  C   C57       1.0  0.68582  0.41032  0.28635  1.0000
  C   C58       1.0  0.59220  0.29862  0.42869  1.0000
  C   C59       1.0  0.68047  0.28467  0.42731  1.0000
  C   C60       1.0  0.69542  0.38807  0.39752  1.0000
  C   C61       1.0  0.74006  0.42185  0.01836  1.0000
  C   C62       1.0  0.75738  0.45284  0.02218  1.0000
  C   C63       1.0  0.03896  0.02481  0.08094  1.0000
  C   C64       1.0  0.99439  0.02901  0.08244  1.0000
  C   C65       1.0  0.98919  0.97968  0.08387  1.0000
  C   C66       1.0  0.62446  0.31138  0.42009  1.0000
  C   C67       1.0  0.66736  0.30424  0.42105  1.0000
  C   C68       1.0  0.67473  0.35519  0.40419  1.0000
  C   C69       1.0  0.02548  0.04209  0.08142  1.0000
  C   C70       1.0  0.97658  0.99769  0.08279  1.0000
  C   C71       1.0  0.02026  0.99343  0.08293  1.0000
  C   C72       1.0  0.63670  0.29252  0.42659  1.0000
  C   C73       1.0  0.68603  0.33570  0.41063  1.0000
  C   C74       1.0  0.64395  0.34283  0.40780  1.0000
  C   C75       1.0  0.36808  0.29595  0.11153  1.0000
  C   C76       1.0  0.71358  0.07139  0.07509  1.0000
  C   C77       1.0  0.92396  0.64864  0.12029  1.0000
  C   C78       1.0  0.40308  0.30701  0.14385  1.0000
  C   C79       1.0  0.70321  0.09692  0.98490  1.0000
  C   C80       1.0  0.91141  0.61331  0.16924  1.0000
  C   C81       1.0  0.36613  0.32188  0.14130  1.0000
  C   C82       1.0  0.68638  0.04486  0.14580  1.0000
  C   C83       1.0  0.95762  0.65900  0.14487  1.0000
  C   C84       1.0  0.39372  0.34855  0.13064  1.0000
  C   C85       1.0  0.65985  0.04867  0.04920  1.0000
  C   C86       1.0  0.96607  0.63567  0.24769  1.0000
  C   C87       1.0  0.41673  0.34221  0.10243  1.0000
  C   C88       1.0  0.66807  0.07875  0.91739  1.0000
  C   C89       1.0  0.93860  0.60695  0.29940  1.0000
  C   C90       1.0  0.39672  0.37599  0.14387  1.0000
  C   C91       1.0  0.63133  0.02636  0.08320  1.0000
  C   C92       1.0  0.99656  0.64112  0.28984  1.0000
  C   C93       1.0  0.37180  0.37640  0.16874  1.0000
  C   C94       1.0  0.62967  0.00034  0.21713  1.0000
  C   C95       1.0  0.01840  0.67011  0.22840  1.0000
  C   C96       1.0  0.34436  0.34969  0.18080  1.0000
  C   C97       1.0  0.65622  0.99684  0.31585  1.0000
  C   C98       1.0  0.00989  0.69330  0.12503  1.0000
  C   C99       1.0  0.34132  0.32226  0.16597  1.0000
  C   C100      1.0  0.68474  0.01900  0.27879  1.0000
  C   C101      1.0  0.97929  0.68791  0.08245  1.0000
  C   C102      1.0  0.32662  0.15202  0.07141  1.0000
  C   C103      1.0  0.86010  0.17806  0.04660  1.0000
  C   C104      1.0  0.81842  0.69497  0.98307  1.0000
  C   C105      1.0  0.35819  0.16611  0.08745  1.0000
  C   C106      1.0  0.84645  0.19631  0.02414  1.0000
  C   C107      1.0  0.80068  0.66497  0.95473  1.0000
  C   C108      1.0  0.37776  0.19587  0.12417  1.0000
  C   C109      1.0  0.81611  0.18376  0.03894  1.0000
  C   C110      1.0  0.81388  0.64556  0.98714  1.0000
  C   C111      1.0  0.34646  0.19339  0.63125  1.0000
  C   C112      1.0  0.79981  0.14532  0.57384  1.0000
  C   C113      1.0  0.85163  0.63822  0.53936  1.0000
  C   C114      1.0  0.31407  0.17960  0.61134  1.0000
  C   C115      1.0  0.81361  0.12637  0.60227  1.0000
  C   C116      1.0  0.86954  0.66841  0.57432  1.0000
  C   C117      1.0  0.31138  0.16642  0.08721  1.0000
  C   C118      1.0  0.84515  0.14592  0.08899  1.0000
  C   C119      1.0  0.85064  0.70818  0.04774  1.0000
  C   C120      1.0  0.33221  0.22302  0.68244  1.0000
  C   C121      1.0  0.77067  0.09729  0.68325  1.0000
  C   C122      1.0  0.90075  0.64864  0.66100  1.0000
  C   C123      1.0  0.85826  0.12135  0.58502  1.0000
  C   C124      1.0  0.87223  0.71950  0.55317  1.0000
  C   C125      1.0  0.80137  0.20243  0.01795  1.0000
  C   C126      1.0  0.84584  0.10086  0.04717  1.0000
  C   C127      1.0  0.86214  0.08720  0.04039  1.0000
  C   C128      1.0  0.88785  0.08877  0.58581  1.0000
  C   C129      1.0  0.90125  0.78266  0.55158  1.0000
  C   C130      1.0  0.90511  0.11703  0.64269  1.0000
  C   C131      1.0  0.87276  0.76363  0.59885  1.0000
  C   C132      1.0  0.89052  0.13295  0.64191  1.0000
  C   C133      1.0  0.85857  0.73261  0.59929  1.0000
  C   C134      1.0  0.81315  0.22164  0.56843  1.0000
  C   C135      1.0  0.79718  0.23691  0.55826  1.0000
  C   C136      1.0  0.77252  0.23761  0.98820  1.0000
  C   C137      1.0  0.75576  0.21071  0.91680  1.0000
  C   C138      1.0  0.76998  0.19361  0.93081  1.0000
  C   C139      1.0  0.16514  0.08682  0.52463  1.0000
  C   C140      1.0  0.90185  0.07149  0.57732  1.0000
  C   C141      1.0  0.91643  0.81549  0.54327  1.0000
  C   C142      1.0  0.50029  0.25475  0.01292  1.0000
  C   C143      1.0  0.75844  0.25588  0.98060  1.0000
  C   C144      1.0  0.74988  0.51886  0.93607  1.0000
  C   C145      1.0  0.11915  0.04514  0.56947  1.0000
  C   C146      1.0  0.92075  0.86115  0.55734  1.0000
  C   C147      1.0  0.74533  0.47351  0.91481  1.0000
  C   C148      1.0  0.10734  0.05936  0.62097  1.0000
  C   C149      1.0  0.95022  0.87310  0.67219  1.0000
  C   C150      1.0  0.07650  0.04542  0.62281  1.0000
  C   C151      1.0  0.96656  0.90417  0.67493  1.0000
  C   C152      1.0  0.05590  0.01700  0.57045  1.0000
  C   C153      1.0  0.95447  0.92450  0.56141  1.0000
  C   C154      1.0  0.06799  0.00302  0.51847  1.0000
  C   C155      1.0  0.92493  0.91240  0.44780  1.0000
  C   C156      1.0  0.11515  0.03556  0.05549  1.0000
  C   C157      1.0  0.71605  0.46225  0.79703  1.0000
  C   C158      1.0  0.69916  0.43132  0.79088  1.0000
  C   C159      1.0  0.71049  0.41038  0.90408  1.0000
  C   C160      1.0  0.58192  0.31558  0.46795  1.0000
  C   C161      1.0  0.66826  0.25333  0.50414  1.0000
  C   C162      1.0  0.72582  0.39806  0.50257  1.0000
  C   C163      1.0  0.55183  0.30346  0.48011  1.0000
  C   C164      1.0  0.68108  0.23544  0.50795  1.0000
  C   C165      1.0  0.74564  0.42882  0.50008  1.0000
  C   C166      1.0  0.02315  0.00230  0.57355  1.0000
  C   C167      1.0  0.97884  0.00601  0.58413  1.0000
  C   C168      1.0  0.97300  0.95746  0.56450  1.0000
  C   C169      1.0  0.64049  0.33343  0.91484  1.0000
  C   C170      1.0  0.68324  0.32699  0.90549  1.0000
  C   C171      1.0  0.69100  0.37735  0.90571  1.0000
  C   C172      1.0  0.00996  0.01897  0.58495  1.0000
  C   C173      1.0  0.96039  0.97512  0.56995  1.0000
  C   C174      1.0  0.00422  0.97130  0.56609  1.0000
  C   C175      1.0  0.65251  0.31520  0.90977  1.0000
  C   C176      1.0  0.70249  0.35821  0.90769  1.0000
  C   C177      1.0  0.66010  0.36471  0.90825  1.0000
  C   C178      1.0  0.34538  0.27728  0.60766  1.0000
  C   C179      1.0  0.71701  0.05855  0.63109  1.0000
  C   C180      1.0  0.93148  0.62516  0.66184  1.0000
  C   C181      1.0  0.38043  0.29540  0.61080  1.0000
  C   C182      1.0  0.69998  0.07835  0.51509  1.0000
  C   C183      1.0  0.91954  0.59075  0.75074  1.0000
  C   C184      1.0  0.33799  0.29913  0.64215  1.0000
  C   C185      1.0  0.69392  0.03085  0.72806  1.0000
  C   C186      1.0  0.96561  0.63551  0.70574  1.0000
  C   C187      1.0  0.36267  0.32845  0.63592  1.0000
  C   C188      1.0  0.66464  0.02954  0.65410  1.0000
  C   C189      1.0  0.97399  0.61472  0.84876  1.0000
  C   C190      1.0  0.38941  0.32912  0.60150  1.0000
  C   C191      1.0  0.66547  0.05599  0.49932  1.0000
  C   C192      1.0  0.94607  0.58818  0.91128  1.0000
  C   C193      1.0  0.36027  0.35213  0.66233  1.0000
  C   C194      1.0  0.63982  0.00561  0.72434  1.0000
  C   C195      1.0  0.00480  0.62069  0.91576  1.0000
  C   C196      1.0  0.33307  0.34621  0.69515  1.0000
  C   C197      1.0  0.64448  0.98284  0.86718  1.0000
  C   C198      1.0  0.02705  0.64785  0.84020  1.0000
  C   C199      1.0  0.30852  0.31688  0.70211  1.0000
  C   C200      1.0  0.67366  0.98402  0.93926  1.0000
  C   C201      1.0  0.01863  0.66876  0.69941  1.0000
  C   C202      1.0  0.31081  0.29313  0.67466  1.0000
  C   C203      1.0  0.69863  0.00812  0.86949  1.0000
  C   C204      1.0  0.98776  0.66265  0.63077  1.0000
  N   N1        1.0  0.37343  0.23796  0.18822  1.0000
  N   N2        1.0  0.77237  0.13224  0.11498  1.0000
  N   N3        1.0  0.86615  0.64613  0.11040  1.0000
  N   N4        1.0  0.32199  0.21610  0.14615  1.0000
  N   N5        1.0  0.79384  0.10220  0.15183  1.0000
  N   N6        1.0  0.89487  0.69427  0.16061  1.0000
  N   N7        1.0  0.16590  0.07761  0.08047  1.0000
  N   N8        1.0  0.93986  0.09831  0.10310  1.0000
  N   N9        1.0  0.91105  0.85311  0.07382  1.0000
  N   N10       1.0  0.50171  0.26224  0.49031  1.0000
  N   N11       1.0  0.71981  0.22998  0.44444  1.0000
  N   N12       1.0  0.75615  0.48160  0.40008  1.0000
  N   N13       1.0  0.35137  0.26619  0.22001  1.0000
  N   N14       1.0  0.74324  0.07846  0.21060  1.0000
  N   N15       1.0  0.91987  0.66221  0.23904  1.0000
  N   N16       1.0  0.35729  0.22140  0.67527  1.0000
  N   N17       1.0  0.77244  0.12600  0.62594  1.0000
  N   N18       1.0  0.87248  0.62629  0.59414  1.0000
  N   N19       1.0  0.30599  0.19900  0.64084  1.0000
  N   N20       1.0  0.79449  0.09628  0.66883  1.0000
  N   N21       1.0  0.90025  0.67425  0.65002  1.0000
  N   N22       1.0  0.15019  0.05766  0.57238  1.0000
  N   N23       1.0  0.93115  0.08068  0.61848  1.0000
  N   N24       1.0  0.90336  0.82993  0.55420  1.0000
  N   N25       1.0  0.51675  0.28385  0.97133  1.0000
  N   N26       1.0  0.72923  0.24738  0.92474  1.0000
  N   N27       1.0  0.76304  0.50446  0.92520  1.0000
  N   N28       1.0  0.33597  0.24781  0.73448  1.0000
  N   N29       1.0  0.74640  0.07339  0.75892  1.0000
  N   N30       1.0  0.92594  0.64292  0.74129  1.0000
  O   O1        1.0  0.41508  0.29524  0.33041  1.0000
  O   O2        1.0  0.71093  0.11510  0.11498  1.0000
  O   O3        1.0  0.88423  0.59809  0.24031  1.0000
  O   O4        1.0  0.39783  0.28347  0.77393  1.0000
  O   O5        1.0  0.70899  0.10311  0.60185  1.0000
  O   O6        1.0  0.89093  0.57904  0.79903  1.0000
  C   C205      1.0  0.80138  0.55454  0.37694  1.0000
  C   C206      1.0  0.77318  0.53386  0.42185  1.0000
  C  Sn1       1.0  0.75761  0.54373  0.47487  1.0000
  C  Sn2       1.0  0.77057  0.57490  0.48290  1.0000
  C   C207      1.0  0.79878  0.59541  0.43759  1.0000
  C   C208      1.0  0.81417  0.58529  0.38477  1.0000
  H   H151      1.0  0.81328  0.54671  0.33598  1.0000
  O  Te1       1.0  0.72947  0.52277  0.51934  1.0000
  O  Te2       1.0  0.75550  0.58539  0.53539  1.0000
  H   H152      1.0  0.83599  0.60131  0.34989  1.0000
  Mg  Mg1       1.0  0.71770  0.54807  0.58300  1.0000
  C   C209      1.0  0.41410  0.17432  0.61949  1.0000
  C   C210      1.0  0.39834  0.18827  0.63169  1.0000
  C  Sn3       1.0  0.41160  0.21997  0.60760  1.0000
  C  Sn4       1.0  0.44118  0.23796  0.57059  1.0000
  C   C211      1.0  0.45675  0.22379  0.55853  1.0000
  C   C212      1.0  0.44327  0.19205  0.58292  1.0000
  H   H153      1.0  0.40367  0.14977  0.63826  1.0000
  O  Te3       1.0  0.39554  0.23353  0.62031  1.0000
  O  Te4       1.0  0.45496  0.26968  0.54586  1.0000
  H   H154      1.0  0.45547  0.18126  0.57335  1.0000
  Mg  Mg2       1.0  0.42395  0.27758  0.57624  1.0000
  C   C213      1.0  0.98570  0.09561  0.01924  1.0000
  C   C214      1.0  0.95897  0.08523  0.07409  1.0000
  C  Sn5       1.0  0.94290  0.05441  0.14539  1.0000
  C  Sn6       1.0  0.95387  0.03366  0.16197  1.0000
  C   C215      1.0  0.98065  0.04428  0.10683  1.0000
  C   C216      1.0  0.99654  0.07516  0.03561  1.0000
  H   H155      1.0  0.03765  0.08766  0.96422  1.0000
  O  Te5       1.0  0.91622  0.04442  0.19947  1.0000
  O  Te6       1.0  0.93827  0.00274  0.23283  1.0000
  H   H156      1.0  0.05689  0.05135  0.99326  1.0000
  Mg  Mg3       1.0  0.90300  0.00011  0.28776  1.0000
  C   C217      1.0  0.93220  0.93028  0.95405  1.0000
  C   C218      1.0  0.92163  0.97630  0.06479  1.0000
  C  Sn7       1.0  0.93667  0.95913  0.18607  1.0000
  C  Sn8       1.0  0.92229  0.92716  0.19635  1.0000
  C   C219      1.0  0.89321  0.91320  0.08489  1.0000
  C   C220      1.0  0.91801  0.89875  0.96405  1.0000
  H   H157      1.0  0.92072  0.94374  0.86047  1.0000
  O  Te7       1.0  0.96570  0.97366  0.29577  1.0000
  O  Te8       1.0  0.93681  0.90945  0.31632  1.0000
  H   H158      1.0  0.89551  0.88777  0.87824  1.0000
  Mg  Mg4       1.0  0.97623  0.93973  0.43778  1.0000
  C   C221      1.0  0.85751  0.76328  0.10635  1.0000
  C   C222      1.0  0.86449  0.74433  0.06194  1.0000
  C  Sn9       1.0  0.89289  0.75560  0.02441  1.0000
  C  Sn10      1.0  0.91466  0.78643  0.03161  1.0000
  C   C223      1.0  0.90746  0.80520  0.07630  1.0000
  C   C224      1.0  0.87897  0.79368  0.11355  1.0000
  H   H159      1.0  0.83547  0.75437  0.13527  1.0000
  O  Te9       1.0  0.93914  0.70452  0.98021  1.0000
  O  Te10      1.0  0.98286  0.76644  0.99478  1.0000
  H   H160      1.0  0.87357  0.80836  0.14804  1.0000
  Mg  Mg5       1.0  0.98116  0.73124  0.94098  1.0000
  C   C225      1.0  0.25561  0.11224  0.13403  1.0000
  C   C226      1.0  0.27418  0.14254  0.06692  1.0000
  C  Sn11      1.0  0.30138  0.13129  0.98011  1.0000
  C  Sn12      1.0  0.26975  0.12130  0.96036  1.0000
  C   C227      1.0  0.21172  0.12279  0.02808  1.0000
  C   C228      1.0  0.22441  0.10237  0.11467  1.0000
  H   H161      1.0  0.26543  0.09645  0.20112  1.0000
  O  Te11      1.0  0.32026  0.16148  0.91380  1.0000
  O  Te12      1.0  0.25672  0.14140  0.87422  1.0000
  H   H162      1.0  0.21003  0.07892  0.16672  1.0000
  Mg  Mg6       1.0  0.29184  0.18028  0.80655  1.0000
  C   C229      1.0  0.56217  0.27782  0.89128  1.0000
  C   C230      1.0  0.54884  0.28903  0.95312  1.0000
  C  Sn13      1.0  0.56582  0.31784  0.99959  1.0000
  C  Sn14      1.0  0.59670  0.33571  0.98367  1.0000
  C   C231      1.0  0.60982  0.32429  0.92154  1.0000
  C   C232      1.0  0.59263  0.29543  0.87547  1.0000
  H   H163      1.0  0.54887  0.25549  0.85554  1.0000
  O  Te13      1.0  0.51251  0.36053  0.06121  1.0000
  O  Te14      1.0  0.57455  0.39643  0.02912  1.0000
  H   H164      1.0  0.60295  0.28677  0.82748  1.0000
  Mg  Mg7       1.0  0.54572  0.40125  0.10661  1.0000
  C   C233      1.0  0.97598  0.07445  0.55164  1.0000
  C   C234      1.0  0.94882  0.06543  0.59743  1.0000
  C  Sn15      1.0  0.93011  0.03460  0.65302  1.0000
  C  Sn16      1.0  0.93883  0.01244  0.66287  1.0000
  C   C235      1.0  0.96605  0.02169  0.61690  1.0000
  C   C236      1.0  0.98459  0.05261  0.56138  1.0000
  H   H165      1.0  0.99033  0.09837  0.50878  1.0000
  O  Te15      1.0  0.90305  0.02599  0.69822  1.0000
  O  Te16      1.0  0.92057  0.98147  0.71807  1.0000
  H   H166      1.0  0.00563  0.05958  0.52605  1.0000
  Mg  Mg8       1.0  0.88581  0.98103  0.76567  1.0000
  C   C237      1.0  0.73314  0.30671  0.82931  1.0000
  C   C238      1.0  0.72368  0.27575  0.90470  1.0000
  C  Sn17      1.0  0.69782  0.25907  0.97780  1.0000
  C  Sn18      1.0  0.68117  0.27372  0.97514  1.0000
  C   C239      1.0  0.69081  0.30470  0.89929  1.0000
  C   C240      1.0  0.71673  0.32118  0.82656  1.0000
  H   H167      1.0  0.75318  0.31946  0.77295  1.0000
  O  Te17      1.0  0.64904  0.25999  0.05266  1.0000
  O  Te18      1.0  0.61559  0.28943  0.04720  1.0000
  H   H168      1.0  0.72404  0.34515  0.76809  1.0000
  Mg  Mg9       1.0  0.61221  0.24774  0.13422  1.0000
  C   C241      1.0  0.75929  0.58794  0.98917  1.0000
  C   C242      1.0  0.78919  0.60935  0.97433  1.0000
  C  Sn19      1.0  0.80714  0.60174  0.92593  1.0000
  C  Sn20      1.0  0.79484  0.57213  0.89180  1.0000
  C   C243      1.0  0.76489  0.55088  0.90689  1.0000
  C   C244      1.0  0.74714  0.55873  0.95546  1.0000
  H   H169      1.0  0.70591  0.62586  0.02666  1.0000
  O  Te19      1.0  0.83697  0.62341  0.91178  1.0000
  O  Te20      1.0  0.81227  0.56393  0.84313  1.0000
  H   H170      1.0  0.72398  0.54215  0.96683  1.0000
  Mg  Mg10      1.0  0.85173  0.60138  0.84148  1.0000
  C   C245      1.0  0.44889  0.25865  0.03834  1.0000
  C   C246      1.0  0.46778  0.24588  0.05726  1.0000
  C  Sn21      1.0  0.45673  0.21427  0.09648  1.0000
  C  Sn22      1.0  0.42618  0.19515  0.11703  1.0000
  C   C247      1.0  0.40745  0.20816  0.09772  1.0000
  C   C248      1.0  0.41875  0.23982  0.05852  1.0000
  H   H171      1.0  0.45762  0.28315  0.00792  1.0000
  O  Te21      1.0  0.47592  0.20188  0.11500  1.0000
  O  Te22      1.0  0.41455  0.16349  0.15618  1.0000
  H   H172      1.0  0.40411  0.24970  0.04377  1.0000
  Mg  Mg11      1.0  0.44957  0.15742  0.16870  1.0000
  C   C249      1.0  0.22342  0.08630  0.62175  1.0000
  C   C250      1.0  0.20217  0.09796  0.56186  1.0000
  C  Sn23      1.0  0.21120  0.12896  0.48944  1.0000
  C  Sn24      1.0  0.24210  0.14858  0.47688  1.0000
  C   C251      1.0  0.26318  0.13668  0.53705  1.0000
  C   C252      1.0  0.25389  0.10563  0.60934  1.0000
  H   H173      1.0  0.21623  0.06227  0.67759  1.0000
  O  Te23      1.0  0.18968  0.14024  0.43030  1.0000
  O  Te24      1.0  0.25175  0.17964  0.40501  1.0000
  H   H174      1.0  0.27034  0.09660  0.65559  1.0000
  Mg  Mg12      1.0  0.21391  0.18423  0.34257  1.0000
