data_image0
_chemical_formula_structural       H114C114N30SnCSn2CSnTe4Mg2SnCSn2CSnTe4Mg2SnCSn2CSnTe4Mg2SnCSn2CSnTe4Mg2SnCSn2CSnTe4Mg2SnCSn2CSnTe4Mg2SnCSn2CSnTe4Mg2SnCSn2CSnTe4Mg2SnCSn2CSnTe4Mg2SnCSn2CSnTe4Mg2SnCSn2CSnTe4Mg2SnCSn2CSnTe4Mg2SnCSn2CSnTe4Mg2SnCSn2CSnTe4Mg2SnCSn2CSnTe4Mg2SnCSn2CSnTe4Mg2SnCSn2CSnTe4Mg2SnCSn2CSnTe4Mg2SnCSn2CSnTe4Mg2SnCSn2CSnTe4Mg2SnCSn2CSnTe4Mg2SnCSn2CSnTe4Mg2SnCSn2CSnTe4Mg2SnCSn2CSnTe4Mg2
_chemical_formula_sum              "H114 C162 N30 Sn96 Te96 Mg48"
_cell_length_a       52.4186
_cell_length_b       52.3102
_cell_length_c       10.8805
_cell_angle_alpha    89.1383
_cell_angle_beta     91.834
_cell_angle_gamma    120.411

_symmetry_space_group_name_H-M    'P1'
_space_group_IT_number       1

loop_
  _space_group_symop_operation_xyz
  'x, y, z'

loop_
  _atom_site_type_symbol
  _atom_site_label
  _atom_site_symmetry_multiplicity
  _atom_site_fract_x
  _atom_site_fract_y
  _atom_site_fract_z
  _atom_site_occupancy
  H   H1        1.0  0.30206  0.12400  0.15879  1.0000
  H   H2        1.0  0.87880  0.18301  0.14405  1.0000
  H   H3        1.0  0.82293  0.69628  0.15312  1.0000
  H   H4        1.0  0.35619  0.14915  0.18368  1.0000
  H   H5        1.0  0.85223  0.21002  0.16968  1.0000
  H   H6        1.0  0.79482  0.64226  0.16999  1.0000
  H   H7        1.0  0.16347  0.09727  0.44827  1.0000
  H   H8        1.0  0.90148  0.06806  0.42337  1.0000
  H   H9        1.0  0.93017  0.83298  0.43700  1.0000
  H   H10       1.0  0.49912  0.24462  0.26141  1.0000
  H   H11       1.0  0.75525  0.25183  0.26252  1.0000
  H   H12       1.0  0.74709  0.50114  0.25715  1.0000
  H   H13       1.0  0.02628  0.05597  0.08014  1.0000
  H   H14       1.0  0.94426  0.97269  0.08805  1.0000
  H   H15       1.0  0.02678  0.97403  0.07121  1.0000
  H   H16       1.0  0.63661  0.27719  0.13623  1.0000
  H   H17       1.0  0.72169  0.35716  0.13822  1.0000
  H   H18       1.0  0.64219  0.36213  0.12887  1.0000
  H   H19       1.0  0.40476  0.26552  0.49217  1.0000
  H   H20       1.0  0.73563  0.14113  0.49241  1.0000
  H   H21       1.0  0.85819  0.59489  0.45853  1.0000
  H   H22       1.0  0.39323  0.26981  0.12405  1.0000
  H   H23       1.0  0.73272  0.12192  0.11070  1.0000
  H   H24       1.0  0.86752  0.59691  0.01519  1.0000
  H   H25       1.0  0.32873  0.26905  0.43340  1.0000
  H   H26       1.0  0.73085  0.06119  0.42785  1.0000
  H   H27       1.0  0.93854  0.67093  0.43224  1.0000
  H   H28       1.0  0.34944  0.31986  0.49985  1.0000
  H   H29       1.0  0.68086  0.03124  0.50234  1.0000
  H   H30       1.0  0.95402  0.63114  0.33008  1.0000
  H   H31       1.0  0.36812  0.32654  0.35902  1.0000
  H   H32       1.0  0.67482  0.04244  0.35439  1.0000
  H   H33       1.0  0.96739  0.61534  0.44142  1.0000
  H   H34       1.0  0.38305  0.35353  0.47761  1.0000
  H   H35       1.0  0.64747  0.03097  0.46710  1.0000
  H   H36       1.0  0.96831  0.64883  0.47461  1.0000
  H   H37       1.0  0.42203  0.33313  0.37050  1.0000
  H   H38       1.0  0.66918  0.09024  0.34380  1.0000
  H   H39       1.0  0.92057  0.56689  0.44205  1.0000
  H   H40       1.0  0.43394  0.32292  0.50772  1.0000
  H   H41       1.0  0.67876  0.11314  0.47620  1.0000
  H   H42       1.0  0.90179  0.57764  0.33326  1.0000
  H   H43       1.0  0.43217  0.35583  0.50315  1.0000
  H   H44       1.0  0.64562  0.07825  0.47135  1.0000
  H   H45       1.0  0.88648  0.56385  0.47948  1.0000
  H   H46       1.0  0.39161  0.33652  0.18956  1.0000
  H   H47       1.0  0.66773  0.05116  0.17165  1.0000
  H   H48       1.0  0.93457  0.60956  0.17175  1.0000
  H   H49       1.0  0.39871  0.30703  0.20575  1.0000
  H   H50       1.0  0.69726  0.08787  0.19199  1.0000
  H   H51       1.0  0.89981  0.60723  0.15433  1.0000
  H   H52       1.0  0.36171  0.29918  0.18020  1.0000
  H   H53       1.0  0.70490  0.05907  0.16123  1.0000
  H   H54       1.0  0.93286  0.64234  0.14405  1.0000
  H   H55       1.0  0.37799  0.28302  0.37351  1.0000
  H   H56       1.0  0.71845  0.09839  0.36623  1.0000
  H   H57       1.0  0.90221  0.62293  0.35237  1.0000
  H   H58       1.0  0.30242  0.12328  0.65463  1.0000
  H   H59       1.0  0.87945  0.18081  0.63338  1.0000
  H   H60       1.0  0.82044  0.69531  0.64975  1.0000
  H   H61       1.0  0.35645  0.14849  0.67699  1.0000
  H   H62       1.0  0.85494  0.20967  0.66052  1.0000
  H   H63       1.0  0.79144  0.64118  0.66724  1.0000
  H   H64       1.0  0.16501  0.09817  0.92675  1.0000
  H   H65       1.0  0.90485  0.07261  0.93040  1.0000
  H   H66       1.0  0.93023  0.83456  0.93161  1.0000
  H   H67       1.0  0.49910  0.24315  0.76165  1.0000
  H   H68       1.0  0.75951  0.25477  0.76040  1.0000
  H   H69       1.0  0.74390  0.49969  0.76036  1.0000
  H   H70       1.0  0.02564  0.05449  0.60262  1.0000
  H   H71       1.0  0.94391  0.97097  0.58824  1.0000
  H   H72       1.0  0.02706  0.97300  0.60086  1.0000
  H   H73       1.0  0.63646  0.27561  0.62987  1.0000
  H   H74       1.0  0.72145  0.35578  0.63218  1.0000
  H   H75       1.0  0.64185  0.36041  0.63301  1.0000
  H   H76       1.0  0.40516  0.26521  0.97948  1.0000
  H   H77       1.0  0.73543  0.14009  0.96824  1.0000
  H   H78       1.0  0.85910  0.60618  0.86736  1.0000
  H   H79       1.0  0.39236  0.27050  0.63512  1.0000
  H   H80       1.0  0.73170  0.12143  0.63183  1.0000
  H   H81       1.0  0.87583  0.60247  0.60630  1.0000
  H   H82       1.0  0.32954  0.26857  0.91589  1.0000
  H   H83       1.0  0.73476  0.06336  0.89284  1.0000
  H   H84       1.0  0.93403  0.67322  0.85666  1.0000
  H   H85       1.0  0.34929  0.31912  0.98511  1.0000
  H   H86       1.0  0.65068  0.02713  0.97484  1.0000
  H   H87       1.0  0.96735  0.65411  0.96719  1.0000
  H   H88       1.0  0.37308  0.33043  0.85770  1.0000
  H   H89       1.0  0.68554  0.03003  0.95950  1.0000
  H   H90       1.0  0.95856  0.62763  0.84845  1.0000
  H   H91       1.0  0.38315  0.35327  0.98969  1.0000
  H   H92       1.0  0.67072  0.04260  0.83948  1.0000
  H   H93       1.0  0.96822  0.62116  0.99842  1.0000
  H   H94       1.0  0.42495  0.33407  0.88824  1.0000
  H   H95       1.0  0.64810  0.07461  0.02376  1.0000
  H   H96       1.0  0.91007  0.57707  0.85617  1.0000
  H   H97       1.0  0.43343  0.32192  0.02909  1.0000
  H   H98       1.0  0.66381  0.08654  0.87721  1.0000
  H   H99       1.0  0.88602  0.56841  0.98113  1.0000
  H   H100      1.0  0.43195  0.35501  0.02461  1.0000
  H   H101      1.0  0.68039  0.10972  0.00803  1.0000
  H   H102      1.0  0.92107  0.57167  0.00521  1.0000
  H   H103      1.0  0.39588  0.34109  0.68060  1.0000
  H   H104      1.0  0.65924  0.05737  0.66430  1.0000
  H   H105      1.0  0.94362  0.59918  0.64442  1.0000
  H   H106      1.0  0.40453  0.31275  0.70103  1.0000
  H   H107      1.0  0.68759  0.09483  0.68091  1.0000
  H   H108      1.0  0.90792  0.59337  0.66924  1.0000
  H   H109      1.0  0.36677  0.30349  0.68947  1.0000
  H   H110      1.0  0.69671  0.06629  0.68428  1.0000
  H   H111      1.0  0.93883  0.63017  0.66443  1.0000
  H   H112      1.0  0.38002  0.28500  0.86637  1.0000
  H   H113      1.0  0.71601  0.09636  0.85075  1.0000
  H   H114      1.0  0.90734  0.62259  0.81151  1.0000
  C   C1        1.0  0.31531  0.14709  0.13153  1.0000
  C   C2        1.0  0.85554  0.17242  0.11622  1.0000
  C   C3        1.0  0.83290  0.68366  0.12317  1.0000
  C   C4        1.0  0.34603  0.16131  0.14546  1.0000
  C   C5        1.0  0.84050  0.18776  0.13106  1.0000
  C   C6        1.0  0.81689  0.65289  0.13300  1.0000
  C   C7        1.0  0.36476  0.19082  0.10714  1.0000
  C   C8        1.0  0.81055  0.17587  0.09379  1.0000
  C   C9        1.0  0.82748  0.63455  0.09189  1.0000
  C   C10       1.0  0.35030  0.20523  0.05764  1.0000
  C   C11       1.0  0.79682  0.14736  0.04226  1.0000
  C   C12       1.0  0.85565  0.64964  0.03987  1.0000
  C   C13       1.0  0.31876  0.19105  0.04474  1.0000
  C   C14       1.0  0.81188  0.13119  0.02754  1.0000
  C   C15       1.0  0.87271  0.68139  0.03256  1.0000
  C   C16       1.0  0.30070  0.16123  0.07953  1.0000
  C   C17       1.0  0.84192  0.14385  0.06381  1.0000
  C   C18       1.0  0.86125  0.69900  0.07268  1.0000
  C   C19       1.0  0.33501  0.23601  0.99543  1.0000
  C   C20       1.0  0.76695  0.10129  0.97628  1.0000
  C   C21       1.0  0.90077  0.66634  0.96899  1.0000
  C   C22       1.0  0.17369  0.09705  0.01901  1.0000
  C   C23       1.0  0.90628  0.08215  0.02172  1.0000
  C   C24       1.0  0.92129  0.82609  0.02308  1.0000
  C   C25       1.0  0.49153  0.24654  0.16800  1.0000
  C   C26       1.0  0.75303  0.24346  0.16817  1.0000
  C   C27       1.0  0.75634  0.50807  0.16505  1.0000
  C   C28       1.0  0.03034  0.01696  0.07487  1.0000
  C   C29       1.0  0.98335  0.01621  0.08304  1.0000
  C   C30       1.0  0.98368  0.96964  0.07935  1.0000
  C   C31       1.0  0.63563  0.31794  0.13471  1.0000
  C   C32       1.0  0.68084  0.31518  0.13878  1.0000
  C   C33       1.0  0.68399  0.36343  0.13526  1.0000
  C   C34       1.0  0.01438  0.03185  0.07890  1.0000
  C   C35       1.0  0.96827  0.98508  0.08355  1.0000
  C   C36       1.0  0.01467  0.98584  0.07414  1.0000
  C   C37       1.0  0.64985  0.30128  0.13781  1.0000
  C   C38       1.0  0.69766  0.34626  0.13874  1.0000
  C   C39       1.0  0.65297  0.34899  0.13363  1.0000
  C   C40       1.0  0.38586  0.26410  0.53839  1.0000
  C   C41       1.0  0.73739  0.12297  0.53463  1.0000
  C   C42       1.0  0.87609  0.61204  0.51541  1.0000
  C   C43       1.0  0.37426  0.28306  0.47256  1.0000
  C   C44       1.0  0.71805  0.09319  0.46496  1.0000
  C   C45       1.0  0.90653  0.62488  0.45258  1.0000
  C   C46       1.0  0.38894  0.31577  0.51474  1.0000
  C   C47       1.0  0.68524  0.07507  0.50135  1.0000
  C   C48       1.0  0.92437  0.60936  0.48485  1.0000
  C   C49       1.0  0.37130  0.32961  0.45887  1.0000
  C   C50       1.0  0.67142  0.04312  0.45284  1.0000
  C   C51       1.0  0.95523  0.62724  0.42875  1.0000
  C   C52       1.0  0.42106  0.33275  0.47113  1.0000
  C   C53       1.0  0.66886  0.09010  0.44464  1.0000
  C   C54       1.0  0.90727  0.57766  0.43159  1.0000
  C   C55       1.0  0.38486  0.31421  0.15633  1.0000
  C   C56       1.0  0.68981  0.06741  0.13971  1.0000
  C   C57       1.0  0.92254  0.61870  0.12132  1.0000
  C   C58       1.0  0.31543  0.14659  0.63028  1.0000
  C   C59       1.0  0.85581  0.17040  0.61338  1.0000
  C   C60       1.0  0.83059  0.68239  0.62652  1.0000
  C   C61       1.0  0.34617  0.16090  0.64309  1.0000
  C   C62       1.0  0.84191  0.18683  0.62901  1.0000
  C   C63       1.0  0.81409  0.65161  0.63663  1.0000
  C   C64       1.0  0.36471  0.19076  0.60867  1.0000
  C   C65       1.0  0.81162  0.17535  0.59982  1.0000
  C   C66       1.0  0.82511  0.63310  0.60319  1.0000
  C   C67       1.0  0.34995  0.20530  0.56439  1.0000
  C   C68       1.0  0.79631  0.14602  0.55650  1.0000
  C   C69       1.0  0.85418  0.64789  0.56056  1.0000
  C   C70       1.0  0.31832  0.19105  0.55276  1.0000
  C   C71       1.0  0.81012  0.12864  0.54240  1.0000
  C   C72       1.0  0.87171  0.67962  0.55308  1.0000
  C   C73       1.0  0.30045  0.16086  0.58352  1.0000
  C   C74       1.0  0.84060  0.14100  0.56923  1.0000
  C   C75       1.0  0.85970  0.69744  0.58340  1.0000
  C   C76       1.0  0.33446  0.23637  0.50912  1.0000
  C   C77       1.0  0.76441  0.09949  0.50207  1.0000
  C   C78       1.0  0.90050  0.66387  0.50777  1.0000
  C   C79       1.0  0.17296  0.09562  0.53777  1.0000
  C   C80       1.0  0.90388  0.07853  0.51336  1.0000
  C   C81       1.0  0.92010  0.82445  0.52682  1.0000
  C   C82       1.0  0.49147  0.24573  0.66926  1.0000
  C   C83       1.0  0.75495  0.24387  0.67003  1.0000
  C   C84       1.0  0.75372  0.50659  0.66921  1.0000
  C   C85       1.0  0.03018  0.01571  0.60183  1.0000
  C   C86       1.0  0.98289  0.01457  0.59427  1.0000
  C   C87       1.0  0.98363  0.96819  0.59462  1.0000
  C   C88       1.0  0.63538  0.31627  0.63185  1.0000
  C   C89       1.0  0.68066  0.31363  0.63239  1.0000
  C   C90       1.0  0.68369  0.36184  0.63406  1.0000
  C   C91       1.0  0.01397  0.03039  0.59980  1.0000
  C   C92       1.0  0.96799  0.98347  0.59168  1.0000
  C   C93       1.0  0.01469  0.98458  0.59895  1.0000
  C   C94       1.0  0.64966  0.29969  0.63203  1.0000
  C   C95       1.0  0.69742  0.34474  0.63366  1.0000
  C   C96       1.0  0.65268  0.34733  0.63413  1.0000
  C   C97       1.0  0.38640  0.26373  0.02734  1.0000
  C   C98       1.0  0.73805  0.12268  0.01337  1.0000
  C   C99       1.0  0.87438  0.61475  0.94756  1.0000
  C   C100      1.0  0.37489  0.28316  0.96450  1.0000
  C   C101      1.0  0.71897  0.09206  0.94794  1.0000
  C   C102      1.0  0.90716  0.62742  0.90901  1.0000
  C   C103      1.0  0.38846  0.31490  0.01708  1.0000
  C   C104      1.0  0.68790  0.07198  0.00109  1.0000
  C   C105      1.0  0.92370  0.61434  0.98316  1.0000
  C   C106      1.0  0.37251  0.33017  0.95826  1.0000
  C   C107      1.0  0.67297  0.04124  0.93939  1.0000
  C   C108      1.0  0.95635  0.63032  0.94664  1.0000
  C   C109      1.0  0.42157  0.33238  0.98778  1.0000
  C   C110      1.0  0.66910  0.08664  0.97575  1.0000
  C   C111      1.0  0.90925  0.58103  0.95440  1.0000
  C   C112      1.0  0.38901  0.31824  0.65478  1.0000
  C   C113      1.0  0.68217  0.07346  0.64101  1.0000
  C   C114      1.0  0.92883  0.60794  0.62396  1.0000
  N   N1        1.0  0.36017  0.23426  0.01848  1.0000
  N   N2        1.0  0.76781  0.12751  0.00207  1.0000
  N   N3        1.0  0.87503  0.64070  0.99891  1.0000
  N   N4        1.0  0.30987  0.21105  0.00570  1.0000
  N   N5        1.0  0.79241  0.10225  0.98616  1.0000
  N   N6        1.0  0.90094  0.69108  0.98816  1.0000
  N   N7        1.0  0.15667  0.08144  0.10693  1.0000
  N   N8        1.0  0.92150  0.07983  0.11260  1.0000
  N   N9        1.0  0.92339  0.84324  0.11215  1.0000
  N   N10       1.0  0.50964  0.26096  0.08106  1.0000
  N   N11       1.0  0.73817  0.24795  0.08197  1.0000
  N   N12       1.0  0.75247  0.48924  0.08025  1.0000
  N   N13       1.0  0.34194  0.26571  0.49402  1.0000
  N   N14       1.0  0.73487  0.07763  0.48787  1.0000
  N   N15       1.0  0.92215  0.65670  0.48809  1.0000
  N   N16       1.0  0.35965  0.23458  0.52983  1.0000
  N   N17       1.0  0.76669  0.12654  0.52378  1.0000
  N   N18       1.0  0.87361  0.63850  0.52574  1.0000
  N   N19       1.0  0.30935  0.21127  0.51782  1.0000
  N   N20       1.0  0.78937  0.09941  0.50850  1.0000
  N   N21       1.0  0.90074  0.68887  0.52015  1.0000
  N   N22       1.0  0.15672  0.07995  0.62766  1.0000
  N   N23       1.0  0.92013  0.07741  0.60285  1.0000
  N   N24       1.0  0.92133  0.84156  0.61431  1.0000
  N   N25       1.0  0.50954  0.26071  0.58308  1.0000
  N   N26       1.0  0.73737  0.24538  0.58770  1.0000
  N   N27       1.0  0.75069  0.48785  0.58551  1.0000
  N   N28       1.0  0.34240  0.26520  0.97833  1.0000
  N   N29       1.0  0.73800  0.07863  0.95751  1.0000
  N   N30       1.0  0.92134  0.65995  0.92539  1.0000
  C  Sn1       1.0  0.22942  0.13075  0.43496  1.0000
  C   C115      1.0  0.20927  0.10969  0.51567  1.0000
  C  Sn2       1.0  0.21816  0.10760  0.63600  1.0000
  C  Sn3       1.0  0.24780  0.12699  0.67653  1.0000
  C   C116      1.0  0.26793  0.14804  0.59585  1.0000
  C  Sn4       1.0  0.25906  0.15014  0.47549  1.0000
  O  Te1       1.0  0.22005  0.13245  0.31507  1.0000
  O  Te2       1.0  0.19762  0.08635  0.71499  1.0000
  O  Te3       1.0  0.25717  0.12528  0.79653  1.0000
  O  Te4       1.0  0.27958  0.17138  0.39653  1.0000
  Mg  Mg1       1.0  0.22100  0.09269  0.86972  1.0000
  Mg  Mg2       1.0  0.25622  0.16507  0.24181  1.0000
  C  Sn5       1.0  0.88548  0.11038  0.65892  1.0000
  C   C117      1.0  0.88281  0.09150  0.56354  1.0000
  C  Sn6       1.0  0.86810  0.09084  0.45322  1.0000
  C  Sn7       1.0  0.85583  0.10945  0.43787  1.0000
  C   C118      1.0  0.85851  0.12832  0.53320  1.0000
  C  Sn8       1.0  0.87321  0.12899  0.64357  1.0000
  O  Te5       1.0  0.90028  0.11067  0.76841  1.0000
  O  Te6       1.0  0.86570  0.07178  0.35919  1.0000
  O  Te7       1.0  0.84102  0.10914  0.32826  1.0000
  O  Te8       1.0  0.87562  0.14804  0.73754  1.0000
  Mg  Mg3       1.0  0.84352  0.07939  0.22712  1.0000
  Mg  Mg4       1.0  0.89781  0.14046  0.86963  1.0000
  C  Sn9       1.0  0.88923  0.77284  0.67286  1.0000
  C   C119      1.0  0.90774  0.79009  0.57877  1.0000
  C  Sn10      1.0  0.90865  0.77684  0.46973  1.0000
  C  Sn11      1.0  0.89066  0.74572  0.45437  1.0000
  C   C120      1.0  0.87216  0.72850  0.54841  1.0000
  C  Sn12      1.0  0.87124  0.74172  0.65750  1.0000
  O  Te9       1.0  0.88868  0.78655  0.78109  1.0000
  O  Te10      1.0  0.92734  0.79454  0.37698  1.0000
  O  Te11      1.0  0.89123  0.73202  0.34602  1.0000
  O  Te12      1.0  0.85256  0.72404  0.75020  1.0000
  Mg  Mg5       1.0  0.92029  0.76556  0.24635  1.0000
  Mg  Mg6       1.0  0.85958  0.75300  0.88084  1.0000
  C  Sn13      1.0  0.23087  0.13075  0.92342  1.0000
  C   C121      1.0  0.20318  0.11070  0.00554  1.0000
  C  Sn14      1.0  0.21118  0.11008  0.12879  1.0000
  C  Sn15      1.0  0.24065  0.12961  0.17087  1.0000
  C   C122      1.0  0.26152  0.14934  0.08879  1.0000
  C  Sn16      1.0  0.26035  0.15029  0.96551  1.0000
  O  Te13      1.0  0.22239  0.13098  0.80061  1.0000
  O  Te14      1.0  0.18991  0.09015  0.20914  1.0000
  O  Te15      1.0  0.24912  0.12937  0.29379  1.0000
  O  Te16      1.0  0.28160  0.17021  0.88518  1.0000
  Mg  Mg7       1.0  0.21220  0.09823  0.36788  1.0000
  Mg  Mg8       1.0  0.25933  0.16216  0.72645  1.0000
  C  Sn17      1.0  0.87247  0.10553  0.91689  1.0000
  C   C123      1.0  0.88589  0.10452  0.00179  1.0000
  C  Sn18      1.0  0.88710  0.11330  0.12348  1.0000
  C  Sn19      1.0  0.86768  0.12294  0.16114  1.0000
  C   C124      1.0  0.84746  0.12361  0.07628  1.0000
  C  Sn20      1.0  0.85305  0.11517  0.95455  1.0000
  O  Te17      1.0  0.87165  0.09666  0.79571  1.0000
  O  Te18      1.0  0.90752  0.11243  0.20667  1.0000
  O  Te19      1.0  0.86851  0.13181  0.28243  1.0000
  O  Te20      1.0  0.83264  0.11602  0.87140  1.0000
  Mg  Mg9       1.0  0.90016  0.12670  0.36165  1.0000
  Mg  Mg10      1.0  0.83997  0.10175  0.71642  1.0000
  C  Sn21      1.0  0.90636  0.75319  0.96857  1.0000
  C   C125      1.0  0.88122  0.73528  0.06249  1.0000
  C  Sn22      1.0  0.86918  0.74675  0.14251  1.0000
  C  Sn23      1.0  0.87557  0.77640  0.12832  1.0000
  C   C126      1.0  0.89388  0.79396  0.03444  1.0000
  C  Sn24      1.0  0.91276  0.78284  0.95439  1.0000
  O  Te21      1.0  0.91817  0.74126  0.88964  1.0000
  O  Te22      1.0  0.85092  0.72876  0.23573  1.0000
  O  Te23      1.0  0.86375  0.78832  0.20736  1.0000
  O  Te24      1.0  0.93100  0.80081  0.86120  1.0000
  Mg  Mg11      1.0  0.84010  0.75507  0.32012  1.0000
  Mg  Mg12      1.0  0.94181  0.77452  0.77672  1.0000
  C  Sn25      1.0  0.43370  0.20261  0.23078  1.0000
  C   C127      1.0  0.45537  0.22165  0.14969  1.0000
  C  Sn26      1.0  0.44819  0.23489  0.05272  1.0000
  C  Sn27      1.0  0.41874  0.22900  0.03650  1.0000
  C   C128      1.0  0.39710  0.20998  0.11757  1.0000
  C  Sn28      1.0  0.40425  0.19672  0.21456  1.0000
  O  Te25      1.0  0.44138  0.18962  0.32709  1.0000
  O  Te26      1.0  0.47704  0.25417  0.97282  1.0000
  O  Te27      1.0  0.41789  0.24234  0.94010  1.0000
  O  Te28      1.0  0.38223  0.17779  0.29445  1.0000
  Mg  Mg13      1.0  0.45569  0.26656  0.85554  1.0000
  Mg  Mg14      1.0  0.40356  0.16539  0.41179  1.0000
  C  Sn29      1.0  0.79132  0.20573  0.24720  1.0000
  C   C129      1.0  0.78992  0.18973  0.14297  1.0000
  C  Sn30      1.0  0.77917  0.19427  0.03060  1.0000
  C  Sn31      1.0  0.76964  0.21524  0.02219  1.0000
  C   C130      1.0  0.77104  0.23124  0.12636  1.0000
  C  Sn32      1.0  0.78179  0.22671  0.23879  1.0000
  O  Te29      1.0  0.80215  0.20084  0.35860  1.0000
  O  Te30      1.0  0.78478  0.17832  0.92768  1.0000
  O  Te31      1.0  0.76561  0.22045  0.91067  1.0000
  O  Te32      1.0  0.78299  0.24297  0.34165  1.0000
  Mg  Mg15      1.0  0.76832  0.19288  0.79639  1.0000
  Mg  Mg16      1.0  0.79946  0.22844  0.47297  1.0000
  C  Sn33      1.0  0.77166  0.56698  0.22116  1.0000
  C   C131      1.0  0.76757  0.54413  0.14325  1.0000
  C  Sn34      1.0  0.78678  0.54990  0.04707  1.0000
  C  Sn35      1.0  0.81060  0.57912  0.02839  1.0000
  C   C132      1.0  0.81470  0.60195  0.10628  1.0000
  C  Sn36      1.0  0.79549  0.59621  0.20249  1.0000
  O  Te33      1.0  0.75218  0.56071  0.31674  1.0000
  O  Te34      1.0  0.78904  0.52701  0.97036  1.0000
  O  Te35      1.0  0.83690  0.58570  0.93271  1.0000
  O  Te36      1.0  0.80003  0.61940  0.27917  1.0000
  Mg  Mg17      1.0  0.82153  0.54666  0.85287  1.0000
  Mg  Mg18      1.0  0.76756  0.59977  0.39673  1.0000
  C  Sn37      1.0  0.09288  0.05940  0.97408  1.0000
  C   C133      1.0  0.06690  0.03387  0.04089  1.0000
  C  Sn38      1.0  0.07714  0.02591  0.14635  1.0000
  C  Sn39      1.0  0.10717  0.04351  0.18591  1.0000
  C   C134      1.0  0.12632  0.06870  0.11913  1.0000
  C  Sn40      1.0  0.11609  0.07668  0.01364  1.0000
  O  Te37      1.0  0.08215  0.06695  0.86893  1.0000
  O  Te38      1.0  0.05757  0.00060  0.21159  1.0000
  O  Te39      1.0  0.11788  0.03594  0.29114  1.0000
  O  Te40      1.0  0.14246  0.10229  0.94843  1.0000
  Mg  Mg19      1.0  0.58781  0.99947  0.34903  1.0000
  Mg  Mg20      1.0  0.11739  0.10346  0.81102  1.0000
  C  Sn41      1.0  0.92250  0.02862  0.04153  1.0000
  C   C135      1.0  0.92945  0.05355  0.11203  1.0000
  C  Sn42      1.0  0.95762  0.07050  0.16637  1.0000
  C  Sn43      1.0  0.97932  0.06237  0.14986  1.0000
  C   C136      1.0  0.97238  0.03746  0.07938  1.0000
  C  Sn44      1.0  0.94420  0.02049  0.02502  1.0000
  O  Te41      1.0  0.90100  0.01233  0.98805  1.0000
  O  Te42      1.0  0.96404  0.09532  0.23648  1.0000
  O  Te43      1.0  0.00765  0.07901  0.20342  1.0000
  O  Te44      1.0  0.44975  0.99601  0.95493  1.0000
  Mg  Mg21      1.0  0.00575  0.11091  0.29070  1.0000
  Mg  Mg22      1.0  0.40806  0.98042  0.90062  1.0000
  C  Sn45      1.0  0.97100  0.89698  0.02568  1.0000
  C   C137      1.0  0.94865  0.87803  0.10446  1.0000
  C  Sn46      1.0  0.93303  0.88826  0.16958  1.0000
  C  Sn47      1.0  0.93988  0.91806  0.15562  1.0000
  C   C138      1.0  0.96221  0.93700  0.07687  1.0000
  C  Sn48      1.0  0.97785  0.92678  0.01172  1.0000
  O  Te45      1.0  0.99313  0.88660  0.96148  1.0000
  O  Te46      1.0  0.91079  0.86890  0.24783  1.0000
  O  Te47      1.0  0.92453  0.92876  0.21990  1.0000
  O  Te48      1.0  0.00688  0.94645  0.93350  1.0000
  Mg  Mg23      1.0  0.89613  0.89388  0.31542  1.0000
  Mg  Mg24      1.0  0.02154  0.92149  0.86581  1.0000
  C  Sn49      1.0  0.57827  0.26915  0.18372  1.0000
  C   C139      1.0  0.59921  0.29319  0.11617  1.0000
  C  Sn50      1.0  0.59074  0.31003  0.04346  1.0000
  C  Sn51      1.0  0.56071  0.30269  0.03821  1.0000
  C   C140      1.0  0.53979  0.27867  0.10575  1.0000
  C  Sn52      1.0  0.54824  0.26182  0.17848  1.0000
  O  Te49      1.0  0.58724  0.25263  0.25581  1.0000
  O  Te50      1.0  0.61888  0.33428  0.97670  1.0000
  O  Te51      1.0  0.55856  0.31956  0.96605  1.0000
  O  Te52      1.0  0.52693  0.23791  0.24522  1.0000
  Mg  Mg25      1.0  0.59579  0.35010  0.89188  1.0000
  Mg  Mg26      1.0  0.54999  0.22209  0.33011  1.0000
  C  Sn53      1.0  0.68237  0.26470  0.05468  1.0000
  C   C141      1.0  0.68892  0.28740  0.13815  1.0000
  C  Sn54      1.0  0.71625  0.30173  0.20125  1.0000
  C  Sn55      1.0  0.73749  0.29320  0.18045  1.0000
  C   C142      1.0  0.73093  0.27051  0.09701  1.0000
  C  Sn56      1.0  0.70360  0.25616  0.03388  1.0000
  O  Te53      1.0  0.66171  0.25100  0.99262  1.0000
  O  Te54      1.0  0.72230  0.32436  0.28428  1.0000
  O  Te55      1.0  0.76497  0.30723  0.24260  1.0000
  O  Te56      1.0  0.70437  0.23387  0.95088  1.0000
  Mg  Mg27      1.0  0.76284  0.33680  0.34651  1.0000
  Mg  Mg28      1.0  0.66384  0.22143  0.88856  1.0000
  C  Sn57      1.0  0.73905  0.43327  0.99760  1.0000
  C   C143      1.0  0.72983  0.45423  0.06418  1.0000
  C  Sn58      1.0  0.71468  0.44664  0.17429  1.0000
  C  Sn59      1.0  0.70167  0.41717  0.21883  1.0000
  C   C144      1.0  0.70409  0.39590  0.15228  1.0000
  C  Sn60      1.0  0.71924  0.40347  0.04214  1.0000
  O  Te57      1.0  0.75430  0.44136  0.88775  1.0000
  O  Te58      1.0  0.71256  0.46831  0.23922  1.0000
  O  Te59      1.0  0.68641  0.40910  0.32877  1.0000
  O  Te60      1.0  0.72817  0.38215  0.97724  1.0000
  Mg  Mg29      1.0  0.68954  0.44647  0.38416  1.0000
  Mg  Mg30      1.0  0.75120  0.40396  0.83233  1.0000
  C  Sn61      1.0  0.44068  0.24166  0.54839  1.0000
  C   C145      1.0  0.45682  0.23878  0.64685  1.0000
  C  Sn62      1.0  0.44285  0.21579  0.73160  1.0000
  C  Sn63      1.0  0.41210  0.19523  0.71759  1.0000
  C   C146      1.0  0.39598  0.19812  0.61917  1.0000
  C  Sn64      1.0  0.40993  0.22111  0.53439  1.0000
  O  Te61      1.0  0.45510  0.26482  0.46477  1.0000
  O  Te62      1.0  0.45945  0.21336  0.82931  1.0000
  O  Te63      1.0  0.39768  0.17207  0.80132  1.0000
  O  Te64      1.0  0.39334  0.22354  0.43671  1.0000
  Mg  Mg31      1.0  0.42981  0.17805  0.91915  1.0000
  Mg  Mg32      1.0  0.42297  0.25883  0.34678  1.0000
  C  Sn65      1.0  0.78000  0.20305  0.50518  1.0000
  C   C147      1.0  0.80027  0.20065  0.58396  1.0000
  C  Sn66      1.0  0.80351  0.20939  0.70686  1.0000
  C  Sn67      1.0  0.78612  0.22076  0.75198  1.0000
  C   C148      1.0  0.76586  0.22314  0.67322  1.0000
  C  Sn68      1.0  0.76260  0.21441  0.55030  1.0000
  O  Te65      1.0  0.77712  0.19417  0.38266  1.0000
  O  Te66      1.0  0.82393  0.20679  0.78385  1.0000
  O  Te67      1.0  0.78901  0.22964  0.87460  1.0000
  O  Te68      1.0  0.74220  0.21700  0.47334  1.0000
  Mg  Mg33      1.0  0.81980  0.22180  0.94355  1.0000
  Mg  Mg34      1.0  0.74630  0.20198  0.31365  1.0000
  C  Sn69      1.0  0.79505  0.57389  0.50571  1.0000
  C   C149      1.0  0.79888  0.59643  0.58496  1.0000
  C  Sn70      1.0  0.79104  0.59020  0.70791  1.0000
  C  Sn71      1.0  0.77913  0.56084  0.75262  1.0000
  C   C150      1.0  0.77531  0.53833  0.67340  1.0000
  C  Sn72      1.0  0.78314  0.54453  0.55042  1.0000
  O  Te69      1.0  0.80304  0.58063  0.38315  1.0000
  O  Te70      1.0  0.79507  0.61310  0.78537  1.0000
  O  Te71      1.0  0.77114  0.55412  0.87529  1.0000
  O  Te72      1.0  0.77912  0.52166  0.47299  1.0000
  Mg  Mg35      1.0  0.78084  0.59286  0.94495  1.0000
  Mg  Mg36      1.0  0.79336  0.54187  0.31342  1.0000
  C  Sn73      1.0  0.08537  0.03054  0.71835  1.0000
  C   C151      1.0  0.06610  0.03583  0.64531  1.0000
  C  Sn74      1.0  0.07667  0.05524  0.54560  1.0000
  C  Sn75      1.0  0.10713  0.06967  0.51825  1.0000
  C   C152      1.0  0.12639  0.06438  0.59125  1.0000
  C  Sn76      1.0  0.11584  0.04496  0.69100  1.0000
  O  Te73      1.0  0.07432  0.01104  0.81757  1.0000
  O  Te74      1.0  0.05698  0.06018  0.47394  1.0000
  O  Te75      1.0  0.11818  0.08918  0.41893  1.0000
  O  Te76      1.0  0.13551  0.04002  0.76262  1.0000
  Mg  Mg37      1.0  0.08264  0.08867  0.34850  1.0000
  Mg  Mg38      1.0  0.10987  0.01152  0.88804  1.0000
  C  Sn77      1.0  0.92245  0.02674  0.53394  1.0000
  C   C153      1.0  0.92820  0.05132  0.60431  1.0000
  C  Sn78      1.0  0.95560  0.06823  0.66496  1.0000
  C  Sn79      1.0  0.97772  0.06042  0.65502  1.0000
  C   C154      1.0  0.97196  0.03585  0.58468  1.0000
  C  Sn80      1.0  0.94456  0.01892  0.52400  1.0000
  O  Te77      1.0  0.89490  0.01015  0.47409  1.0000
  O  Te78      1.0  0.96084  0.09271  0.73481  1.0000
  O  Te79      1.0  0.00528  0.07703  0.71495  1.0000
  O  Te80      1.0  0.44448  0.99447  0.45418  1.0000
  Mg  Mg39      1.0  0.00185  0.10840  0.79913  1.0000
  Mg  Mg40      1.0  0.40348  0.97877  0.38977  1.0000
  C  Sn81      1.0  0.97155  0.89536  0.54614  1.0000
  C   C155      1.0  0.94684  0.87614  0.61395  1.0000
  C  Sn82      1.0  0.92983  0.88639  0.66770  1.0000
  C  Sn83      1.0  0.93767  0.91648  0.65332  1.0000
  C   C156      1.0  0.96236  0.93567  0.58553  1.0000
  C  Sn84      1.0  0.97939  0.92544  0.53176  1.0000
  O  Te81      1.0  0.98823  0.88463  0.49320  1.0000
  O  Te82      1.0  0.90524  0.86677  0.73511  1.0000
  O  Te83      1.0  0.92096  0.92719  0.70634  1.0000
  O  Te84      1.0  0.00397  0.94505  0.46437  1.0000
  Mg  Mg41      1.0  0.88945  0.89189  0.78962  1.0000
  Mg  Mg42      1.0  0.01976  0.91995  0.40977  1.0000
  C  Sn85      1.0  0.57790  0.26647  0.67003  1.0000
  C   C157      1.0  0.59892  0.29194  0.60971  1.0000
  C  Sn86      1.0  0.59060  0.31043  0.54899  1.0000
  C  Sn87      1.0  0.56065  0.30333  0.54863  1.0000
  C   C158      1.0  0.53966  0.27788  0.60895  1.0000
  C  Sn88      1.0  0.54796  0.25938  0.66967  1.0000
  O  Te85      1.0  0.58672  0.24831  0.73014  1.0000
  O  Te86      1.0  0.61201  0.33576  0.48929  1.0000
  O  Te87      1.0  0.55185  0.32152  0.48845  1.0000
  O  Te88      1.0  0.52657  0.23406  0.72937  1.0000
  Mg  Mg43      1.0  0.58913  0.35356  0.42028  1.0000
  Mg  Mg44      1.0  0.54942  0.21626  0.79845  1.0000
  C  Sn89      1.0  0.69915  0.26308  0.50424  1.0000
  C   C159      1.0  0.72416  0.26688  0.57020  1.0000
  C  Sn90      1.0  0.73393  0.28412  0.67699  1.0000
  C  Sn91      1.0  0.71838  0.29783  0.71877  1.0000
  C   C160      1.0  0.69339  0.29402  0.65284  1.0000
  C  Sn92      1.0  0.68360  0.27679  0.54603  1.0000
  O  Te89      1.0  0.68978  0.24575  0.39774  1.0000
  O  Te90      1.0  0.75900  0.28760  0.74135  1.0000
  O  Te91      1.0  0.72778  0.31517  0.82536  1.0000
  O  Te92      1.0  0.65855  0.27330  0.48170  1.0000
  Mg  Mg45      1.0  0.76310  0.31330  0.88128  1.0000
  Mg  Mg46      1.0  0.65441  0.24759  0.34180  1.0000
  C  Sn93      1.0  0.73152  0.43205  0.50126  1.0000
  C   C161      1.0  0.72867  0.45288  0.56932  1.0000
  C  Sn94      1.0  0.71340  0.44471  0.67917  1.0000
  C  Sn95      1.0  0.70073  0.41511  0.72194  1.0000
  C   C162      1.0  0.70359  0.39431  0.65392  1.0000
  C  Sn96      1.0  0.71885  0.40246  0.54404  1.0000
  O  Te93      1.0  0.74688  0.44071  0.39170  1.0000
  O  Te94      1.0  0.71084  0.46591  0.74558  1.0000
  O  Te95      1.0  0.68537  0.40646  0.83160  1.0000
  O  Te96      1.0  0.72142  0.38127  0.47765  1.0000
  Mg  Mg47      1.0  0.68784  0.44337  0.88944  1.0000
  Mg  Mg48      1.0  0.74442  0.40379  0.33382  1.0000
