data_image0
_chemical_formula_structural       H144C120N36C2Sn2C2HTe2HMgC2Sn2C2HTe2HMgC2Sn2C2HTe2HMgC2Sn2C2HTe2HMgC2Sn2C2HTe2HMgC2Sn2C2HTe2HMgC2Sn2C2HTe2HMgC2Sn2C2HTe2HMgC2Sn2C2HTe2HMgC2Sn2C2HTe2HMgC2Sn2C2HTe2HMgC2Sn2C2HTe2HMgC2Sn2C2HTe2HMgC2Sn2C2HTe2HMgC2Sn2C2HTe2HMgC2Sn2C2HTe2HMgC2Sn2C2HTe2HMgC2Sn2C2HTe2HMgC2Sn2C2HTe2HMgC2Sn2C2HTe2HMgC2Sn2C2HTe2HMgC2Sn2C2HTe2HMgC2Sn2C2HTe2HMgC2Sn2C2HTe2HMg
_chemical_formula_sum              "H192 C216 N36 Sn48 Te48 Mg24"
_cell_length_a       51.8069
_cell_length_b       51.8112
_cell_length_c       8.27607
_cell_angle_alpha    89.2159
_cell_angle_beta     90.2821
_cell_angle_gamma    120.098

_symmetry_space_group_name_H-M    'P1'
_space_group_IT_number       1

loop_
  _space_group_symop_operation_xyz
  'x, y, z'

loop_
  _atom_site_type_symbol
  _atom_site_label
  _atom_site_symmetry_multiplicity
  _atom_site_fract_x
  _atom_site_fract_y
  _atom_site_fract_z
  _atom_site_occupancy
  H   H1        1.0  0.30497  0.11357  0.45553  1.0000
  H   H2        1.0  0.88650  0.19190  0.45554  1.0000
  H   H3        1.0  0.81055  0.69372  0.45986  1.0000
  H   H4        1.0  0.35801  0.13460  0.52344  1.0000
  H   H5        1.0  0.86432  0.22257  0.52586  1.0000
  H   H6        1.0  0.78007  0.64060  0.53315  1.0000
  H   H7        1.0  0.49847  0.21896  0.25153  1.0000
  H   H8        1.0  0.78071  0.28103  0.24522  1.0000
  H   H9        1.0  0.71921  0.49916  0.25008  1.0000
  H   H10       1.0  0.16797  0.11266  0.35978  1.0000
  H   H11       1.0  0.88987  0.05762  0.34090  1.0000
  H   H12       1.0  0.94413  0.83208  0.33199  1.0000
  H   H13       1.0  0.63996  0.36189  0.18857  1.0000
  H   H14       1.0  0.63684  0.27742  0.18070  1.0000
  H   H15       1.0  0.72128  0.35895  0.18653  1.0000
  H   H16       1.0  0.02511  0.96995  0.37545  1.0000
  H   H17       1.0  0.02992  0.05514  0.38619  1.0000
  H   H18       1.0  0.94465  0.97466  0.37397  1.0000
  H   H19       1.0  0.37522  0.23489  0.26179  1.0000
  H   H20       1.0  0.76693  0.14468  0.25593  1.0000
  H   H21       1.0  0.85589  0.62368  0.27013  1.0000
  H   H22       1.0  0.35235  0.26810  0.28161  1.0000
  H   H23       1.0  0.73409  0.09021  0.27771  1.0000
  H   H24       1.0  0.91060  0.64543  0.28611  1.0000
  H   H25       1.0  0.33828  0.31306  0.08520  1.0000
  H   H26       1.0  0.68808  0.03582  0.18395  1.0000
  H   H27       1.0  0.96687  0.65601  0.18225  1.0000
  H   H28       1.0  0.35082  0.30472  0.49663  1.0000
  H   H29       1.0  0.69478  0.04135  0.47307  1.0000
  H   H30       1.0  0.95511  0.65009  0.45689  1.0000
  H   H31       1.0  0.39498  0.35364  0.08521  1.0000
  H   H32       1.0  0.65311  0.05957  0.03332  1.0000
  H   H33       1.0  0.91831  0.57997  0.22567  1.0000
  H   H34       1.0  0.40780  0.34687  0.27230  1.0000
  H   H35       1.0  0.66325  0.08732  0.18342  1.0000
  H   H36       1.0  0.95432  0.61111  0.26205  1.0000
  H   H37       1.0  0.37254  0.34484  0.26311  1.0000
  H   H38       1.0  0.65600  0.05107  0.23994  1.0000
  H   H39       1.0  0.94405  0.59679  0.06278  1.0000
  H   H40       1.0  0.39741  0.30056  0.42696  1.0000
  H   H41       1.0  0.69872  0.09313  0.41028  1.0000
  H   H42       1.0  0.90356  0.59916  0.43969  1.0000
  H   H43       1.0  0.38373  0.27646  0.07208  1.0000
  H   H44       1.0  0.73628  0.11139  0.01189  1.0000
  H   H45       1.0  0.88977  0.62384  0.02541  1.0000
  H   H46       1.0  0.41358  0.30659  0.17551  1.0000
  H   H47       1.0  0.71015  0.12249  0.06352  1.0000
  H   H48       1.0  0.88044  0.58769  0.09617  1.0000
  H   H49       1.0  0.28058  0.26621  0.07143  1.0000
  H   H50       1.0  0.73739  0.02347  0.03325  1.0000
  H   H51       1.0  0.97615  0.71780  0.03855  1.0000
  H   H52       1.0  0.27554  0.28638  0.34590  1.0000
  H   H53       1.0  0.71706  0.98917  0.27695  1.0000
  H   H54       1.0  0.01221  0.73043  0.27011  1.0000
  H   H55       1.0  0.30458  0.31149  0.21717  1.0000
  H   H56       1.0  0.69106  0.99577  0.17281  1.0000
  H   H57       1.0  0.00532  0.69872  0.15926  1.0000
  H   H58       1.0  0.31269  0.29527  0.38481  1.0000
  H   H59       1.0  0.70615  0.01347  0.35939  1.0000
  H   H60       1.0  0.98887  0.69432  0.35219  1.0000
  H   H61       1.0  0.27933  0.22918  0.36553  1.0000
  H   H62       1.0  0.77150  0.05129  0.34427  1.0000
  H   H63       1.0  0.95104  0.72107  0.36613  1.0000
  H   H64       1.0  0.26473  0.21592  0.17290  1.0000
  H   H65       1.0  0.78629  0.05644  0.14802  1.0000
  H   H66       1.0  0.94289  0.73100  0.17612  1.0000
  H   H67       1.0  0.24869  0.23255  0.29392  1.0000
  H   H68       1.0  0.77004  0.02050  0.24327  1.0000
  H   H69       1.0  0.97984  0.75132  0.25545  1.0000
  H   H70       1.0  0.31371  0.25106  0.01758  1.0000
  H   H71       1.0  0.74741  0.07001  0.00627  1.0000
  H   H72       1.0  0.93090  0.67968  0.01315  1.0000
  H   H73       1.0  0.30360  0.11458  0.97461  1.0000
  H   H74       1.0  0.88681  0.19274  0.95349  1.0000
  H   H75       1.0  0.80767  0.69399  0.94782  1.0000
  H   H76       1.0  0.35691  0.13671  0.03919  1.0000
  H   H77       1.0  0.86567  0.22441  0.02393  1.0000
  H   H78       1.0  0.77626  0.64099  0.02352  1.0000
  H   H79       1.0  0.50033  0.21938  0.75465  1.0000
  H   H80       1.0  0.78007  0.27926  0.74430  1.0000
  H   H81       1.0  0.72235  0.49994  0.76192  1.0000
  H   H82       1.0  0.16661  0.11074  0.84904  1.0000
  H   H83       1.0  0.88625  0.05605  0.85989  1.0000
  H   H84       1.0  0.94111  0.83126  0.82340  1.0000
  H   H85       1.0  0.64154  0.36259  0.68759  1.0000
  H   H86       1.0  0.63730  0.27764  0.68290  1.0000
  H   H87       1.0  0.72231  0.35849  0.68774  1.0000
  H   H88       1.0  0.02354  0.96974  0.87401  1.0000
  H   H89       1.0  0.02839  0.05496  0.88739  1.0000
  H   H90       1.0  0.94309  0.97440  0.88331  1.0000
  H   H91       1.0  0.37630  0.23035  0.77986  1.0000
  H   H92       1.0  0.76645  0.14153  0.75648  1.0000
  H   H93       1.0  0.86122  0.62404  0.76376  1.0000
  H   H94       1.0  0.35572  0.26377  0.79984  1.0000
  H   H95       1.0  0.73387  0.08679  0.77504  1.0000
  H   H96       1.0  0.91581  0.64644  0.78184  1.0000
  H   H97       1.0  0.34750  0.31150  0.70211  1.0000
  H   H98       1.0  0.68786  0.02999  0.67788  1.0000
  H   H99       1.0  0.97224  0.65577  0.64791  1.0000
  H   H100      1.0  0.35075  0.29672  0.94374  1.0000
  H   H101      1.0  0.69494  0.04405  0.97555  1.0000
  H   H102      1.0  0.95530  0.65244  0.97893  1.0000
  H   H103      1.0  0.40640  0.34680  0.57004  1.0000
  H   H104      1.0  0.65098  0.05223  0.55001  1.0000
  H   H105      1.0  0.94623  0.59477  0.56619  1.0000
  H   H106      1.0  0.42395  0.33659  0.72360  1.0000
  H   H107      1.0  0.65987  0.07849  0.70737  1.0000
  H   H108      1.0  0.92280  0.58109  0.73971  1.0000
  H   H109      1.0  0.39427  0.34288  0.77498  1.0000
  H   H110      1.0  0.65487  0.04260  0.75307  1.0000
  H   H111      1.0  0.95960  0.61199  0.75763  1.0000
  H   H112      1.0  0.40348  0.31207  0.97648  1.0000
  H   H113      1.0  0.70329  0.09883  0.89368  1.0000
  H   H114      1.0  0.90382  0.60339  0.92209  1.0000
  H   H115      1.0  0.37635  0.26544  0.52864  1.0000
  H   H116      1.0  0.73259  0.10792  0.52234  1.0000
  H   H117      1.0  0.89289  0.62302  0.53465  1.0000
  H   H118      1.0  0.41326  0.29076  0.59257  1.0000
  H   H119      1.0  0.70449  0.11583  0.58308  1.0000
  H   H120      1.0  0.88355  0.58827  0.62710  1.0000
  H   H121      1.0  0.28535  0.26068  0.55069  1.0000
  H   H122      1.0  0.73942  0.02069  0.53677  1.0000
  H   H123      1.0  0.98536  0.71567  0.54376  1.0000
  H   H124      1.0  0.27122  0.28213  0.77919  1.0000
  H   H125      1.0  0.70600  0.01114  0.85490  1.0000
  H   H126      1.0  0.98529  0.69107  0.88177  1.0000
  H   H127      1.0  0.30469  0.30809  0.68158  1.0000
  H   H128      1.0  0.72056  0.98843  0.79589  1.0000
  H   H129      1.0  0.01279  0.72686  0.81479  1.0000
  H   H130      1.0  0.30573  0.29293  0.87312  1.0000
  H   H131      1.0  0.69366  0.99062  0.67400  1.0000
  H   H132      1.0  0.00818  0.69507  0.71426  1.0000
  H   H133      1.0  0.27917  0.22927  0.87512  1.0000
  H   H134      1.0  0.77089  0.04824  0.85464  1.0000
  H   H135      1.0  0.95291  0.72233  0.83445  1.0000
  H   H136      1.0  0.27082  0.21273  0.68334  1.0000
  H   H137      1.0  0.78761  0.05695  0.66171  1.0000
  H   H138      1.0  0.95042  0.73221  0.63393  1.0000
  H   H139      1.0  0.25010  0.22898  0.75955  1.0000
  H   H140      1.0  0.77289  0.02009  0.74415  1.0000
  H   H141      1.0  0.98524  0.75145  0.73765  1.0000
  H   H142      1.0  0.32288  0.25279  0.52588  1.0000
  H   H143      1.0  0.74663  0.06639  0.50201  1.0000
  H   H144      1.0  0.93647  0.68139  0.50610  1.0000
  C   C1        1.0  0.30018  0.15284  0.03715  1.0000
  C   C2        1.0  0.84854  0.15120  0.02534  1.0000
  C   C3        1.0  0.84922  0.69789  0.02183  1.0000
  C   C4        1.0  0.31685  0.13532  0.51208  1.0000
  C   C5        1.0  0.86424  0.18113  0.50809  1.0000
  C   C6        1.0  0.82139  0.68232  0.51330  1.0000
  C   C7        1.0  0.34576  0.14937  0.06154  1.0000
  C   C8        1.0  0.85289  0.20055  0.04914  1.0000
  C   C9        1.0  0.80005  0.65228  0.04868  1.0000
  C   C10       1.0  0.36276  0.17855  0.12077  1.0000
  C   C11       1.0  0.82408  0.18858  0.11500  1.0000
  C   C12       1.0  0.81214  0.63570  0.11795  1.0000
  C   C13       1.0  0.34710  0.19385  0.14019  1.0000
  C   C14       1.0  0.80861  0.15760  0.13900  1.0000
  C   C15       1.0  0.84307  0.65167  0.14143  1.0000
  C   C16       1.0  0.31684  0.18219  0.09556  1.0000
  C   C17       1.0  0.81955  0.13878  0.09017  1.0000
  C   C18       1.0  0.86182  0.68159  0.08951  1.0000
  C   C19       1.0  0.48979  0.23348  0.21061  1.0000
  C   C20       1.0  0.76673  0.25800  0.20308  1.0000
  C   C21       1.0  0.74273  0.50842  0.21480  1.0000
  C   C22       1.0  0.17603  0.09756  0.39945  1.0000
  C   C23       1.0  0.90438  0.08019  0.38815  1.0000
  C   C24       1.0  0.92099  0.82367  0.37213  1.0000
  C   C25       1.0  0.03144  0.01435  0.38055  1.0000
  C   C26       1.0  0.98559  0.01701  0.37805  1.0000
  C   C27       1.0  0.98280  0.96843  0.37407  1.0000
  C   C28       1.0  0.63441  0.31778  0.18466  1.0000
  C   C29       1.0  0.68086  0.31617  0.18280  1.0000
  C   C30       1.0  0.68264  0.36426  0.18772  1.0000
  C   C31       1.0  0.65135  0.34908  0.18694  1.0000
  C   C32       1.0  0.64956  0.30167  0.18258  1.0000
  C   C33       1.0  0.69704  0.34744  0.18552  1.0000
  C   C34       1.0  0.01408  0.98311  0.37613  1.0000
  C   C35       1.0  0.01681  0.03094  0.38118  1.0000
  C   C36       1.0  0.96888  0.98574  0.37473  1.0000
  C   C37       1.0  0.33113  0.22588  0.19257  1.0000
  C   C38       1.0  0.77602  0.10952  0.19404  1.0000
  C   C39       1.0  0.89106  0.66776  0.19832  1.0000
  C   C40       1.0  0.32011  0.26517  0.12445  1.0000
  C   C41       1.0  0.73519  0.06064  0.11970  1.0000
  C   C42       1.0  0.94022  0.67680  0.12658  1.0000
  C   C43       1.0  0.34588  0.29694  0.07254  1.0000
  C   C44       1.0  0.70247  0.05334  0.09727  1.0000
  C   C45       1.0  0.94795  0.65163  0.10470  1.0000
  C   C46       1.0  0.38791  0.33996  0.19722  1.0000
  C   C47       1.0  0.66589  0.06852  0.14585  1.0000
  C   C48       1.0  0.93581  0.60137  0.17546  1.0000
  C   C49       1.0  0.39469  0.30054  0.09337  1.0000
  C   C50       1.0  0.71242  0.10394  0.01729  1.0000
  C   C51       1.0  0.89834  0.60845  0.04201  1.0000
  C   C52       1.0  0.29130  0.26444  0.18289  1.0000
  C   C53       1.0  0.73766  0.03221  0.15381  1.0000
  C   C54       1.0  0.96834  0.70805  0.15955  1.0000
  C   C55       1.0  0.29645  0.29080  0.28841  1.0000
  C   C56       1.0  0.71150  0.00649  0.24595  1.0000
  C   C57       1.0  0.99493  0.70760  0.23999  1.0000
  C   C58       1.0  0.26969  0.23383  0.25852  1.0000
  C   C59       1.0  0.76811  0.04051  0.22679  1.0000
  C   C60       1.0  0.96006  0.72906  0.24449  1.0000
  C   C61       1.0  0.30156  0.15113  0.53303  1.0000
  C   C62       1.0  0.84858  0.14977  0.52302  1.0000
  C   C63       1.0  0.85272  0.69827  0.52770  1.0000
  C   C64       1.0  0.31558  0.13700  0.02308  1.0000
  C   C65       1.0  0.86471  0.18249  0.00766  1.0000
  C   C66       1.0  0.81796  0.68231  0.00434  1.0000
  C   C67       1.0  0.34696  0.14713  0.55200  1.0000
  C   C68       1.0  0.85182  0.19867  0.54988  1.0000
  C   C69       1.0  0.80392  0.65223  0.55698  1.0000
  C   C70       1.0  0.36387  0.17550  0.62108  1.0000
  C   C71       1.0  0.82285  0.18615  0.61474  1.0000
  C   C72       1.0  0.81647  0.63587  0.62317  1.0000
  C   C73       1.0  0.34814  0.19050  0.64876  1.0000
  C   C74       1.0  0.80790  0.15511  0.63574  1.0000
  C   C75       1.0  0.84747  0.65210  0.64354  1.0000
  C   C76       1.0  0.31823  0.17980  0.60009  1.0000
  C   C77       1.0  0.81931  0.13673  0.58522  1.0000
  C   C78       1.0  0.86583  0.68214  0.59191  1.0000
  C   C79       1.0  0.49127  0.23338  0.71019  1.0000
  C   C80       1.0  0.76579  0.25607  0.70527  1.0000
  C   C81       1.0  0.74558  0.50877  0.72212  1.0000
  C   C82       1.0  0.17463  0.09623  0.89927  1.0000
  C   C83       1.0  0.90155  0.07902  0.89942  1.0000
  C   C84       1.0  0.91838  0.82326  0.86924  1.0000
  C   C85       1.0  0.02995  0.01412  0.88142  1.0000
  C   C86       1.0  0.98403  0.01676  0.88454  1.0000
  C   C87       1.0  0.98125  0.96822  0.87708  1.0000
  C   C88       1.0  0.63552  0.31829  0.68504  1.0000
  C   C89       1.0  0.68159  0.31604  0.68410  1.0000
  C   C90       1.0  0.68400  0.36444  0.68798  1.0000
  C   C91       1.0  0.65271  0.34957  0.68662  1.0000
  C   C92       1.0  0.65034  0.30188  0.68378  1.0000
  C   C93       1.0  0.69808  0.34731  0.68612  1.0000
  C   C94       1.0  0.01253  0.98290  0.87685  1.0000
  C   C95       1.0  0.01530  0.03073  0.88406  1.0000
  C   C96       1.0  0.96733  0.98549  0.88168  1.0000
  C   C97       1.0  0.33273  0.22259  0.70992  1.0000
  C   C98       1.0  0.77571  0.10680  0.68684  1.0000
  C   C99       1.0  0.89580  0.66841  0.69285  1.0000
  C   C100      1.0  0.32544  0.26420  0.64061  1.0000
  C   C101      1.0  0.73515  0.05722  0.61739  1.0000
  C   C102      1.0  0.94512  0.67703  0.61800  1.0000
  C   C103      1.0  0.35124  0.29709  0.62131  1.0000
  C   C104      1.0  0.70195  0.04890  0.59794  1.0000
  C   C105      1.0  0.95147  0.65096  0.58746  1.0000
  C   C106      1.0  0.40244  0.33366  0.68282  1.0000
  C   C107      1.0  0.66372  0.06080  0.66311  1.0000
  C   C108      1.0  0.93996  0.60146  0.67883  1.0000
  C   C109      1.0  0.39261  0.28911  0.54573  1.0000
  C   C110      1.0  0.70843  0.09857  0.53265  1.0000
  C   C111      1.0  0.90083  0.60728  0.55724  1.0000
  C   C112      1.0  0.29426  0.26135  0.67209  1.0000
  C   C113      1.0  0.73900  0.02966  0.65568  1.0000
  C   C114      1.0  0.97371  0.70697  0.65980  1.0000
  C   C115      1.0  0.29432  0.28765  0.75627  1.0000
  C   C116      1.0  0.71334  0.00377  0.74990  1.0000
  C   C117      1.0  0.99600  0.70460  0.77345  1.0000
  C   C118      1.0  0.27234  0.23137  0.75232  1.0000
  C   C119      1.0  0.76942  0.03927  0.73347  1.0000
  C   C120      1.0  0.96521  0.72964  0.71981  1.0000
  N   N1        1.0  0.50724  0.26155  0.18110  1.0000
  N   N2        1.0  0.73863  0.24691  0.17467  1.0000
  N   N3        1.0  0.75389  0.49141  0.19074  1.0000
  N   N4        1.0  0.15815  0.06924  0.41722  1.0000
  N   N5        1.0  0.93240  0.09021  0.41373  1.0000
  N   N6        1.0  0.91037  0.84133  0.38874  1.0000
  N   N7        1.0  0.30772  0.20270  0.12843  1.0000
  N   N8        1.0  0.79867  0.10910  0.12421  1.0000
  N   N9        1.0  0.89148  0.69073  0.12443  1.0000
  N   N10       1.0  0.35592  0.22204  0.20143  1.0000
  N   N11       1.0  0.78084  0.13839  0.20779  1.0000
  N   N12       1.0  0.86230  0.64339  0.21261  1.0000
  N   N13       1.0  0.33217  0.25180  0.23947  1.0000
  N   N14       1.0  0.74955  0.08468  0.24145  1.0000
  N   N15       1.0  0.91588  0.66644  0.24825  1.0000
  N   N16       1.0  0.37353  0.30790  0.16777  1.0000
  N   N17       1.0  0.69762  0.07845  0.12928  1.0000
  N   N18       1.0  0.92399  0.62155  0.15173  1.0000
  N   N19       1.0  0.50839  0.26142  0.67861  1.0000
  N   N20       1.0  0.73760  0.24513  0.67951  1.0000
  N   N21       1.0  0.75622  0.49139  0.69590  1.0000
  N   N22       1.0  0.15672  0.06816  0.92589  1.0000
  N   N23       1.0  0.92971  0.08903  0.91831  1.0000
  N   N24       1.0  0.90843  0.84131  0.89210  1.0000
  N   N25       1.0  0.30954  0.20048  0.63750  1.0000
  N   N26       1.0  0.79859  0.10687  0.61657  1.0000
  N   N27       1.0  0.89569  0.69146  0.62315  1.0000
  N   N28       1.0  0.35687  0.21784  0.72008  1.0000
  N   N29       1.0  0.78011  0.13547  0.70255  1.0000
  N   N30       1.0  0.86713  0.64396  0.71025  1.0000
  N   N31       1.0  0.33465  0.24879  0.76116  1.0000
  N   N32       1.0  0.74953  0.08181  0.73551  1.0000
  N   N33       1.0  0.92080  0.66708  0.73908  1.0000
  N   N34       1.0  0.38105  0.30184  0.66274  1.0000
  N   N35       1.0  0.69575  0.07264  0.64256  1.0000
  N   N36       1.0  0.92845  0.62180  0.65191  1.0000
  C   C121      1.0  0.43874  0.23558  0.09579  1.0000
  C   C122      1.0  0.45479  0.22470  0.18027  1.0000
  C  Sn1       1.0  0.44012  0.19591  0.24700  1.0000
  C  Sn2       1.0  0.40879  0.17773  0.22857  1.0000
  C   C123      1.0  0.39293  0.18882  0.14374  1.0000
  C   C124      1.0  0.40784  0.21767  0.07750  1.0000
  H   H145      1.0  0.45028  0.25790  0.04446  1.0000
  O  Te1       1.0  0.45650  0.18538  0.33109  1.0000
  O  Te2       1.0  0.39356  0.14887  0.29399  1.0000
  H   H146      1.0  0.39541  0.22609  0.01201  1.0000
  Mg  Mg1       1.0  0.42568  0.14455  0.39831  1.0000
  C   C125      1.0  0.82537  0.24161  0.23101  1.0000
  C   C126      1.0  0.81367  0.21295  0.16862  1.0000
  C  Sn3       1.0  0.78498  0.19827  0.10303  1.0000
  C  Sn4       1.0  0.76774  0.21260  0.09995  1.0000
  C   C127      1.0  0.77966  0.24128  0.16256  1.0000
  C   C128      1.0  0.80839  0.25576  0.22796  1.0000
  H   H147      1.0  0.84761  0.25282  0.28153  1.0000
  O  Te3       1.0  0.77362  0.16965  0.04127  1.0000
  O  Te4       1.0  0.73901  0.19845  0.03504  1.0000
  H   H148      1.0  0.81746  0.27795  0.27616  1.0000
  Mg  Mg2       1.0  0.73291  0.15712  0.96556  1.0000
  C   C129      1.0  0.79565  0.56063  0.10525  1.0000
  C   C130      1.0  0.76863  0.54379  0.18754  1.0000
  C  Sn5       1.0  0.75339  0.55751  0.24750  1.0000
  C  Sn6       1.0  0.76547  0.58867  0.22441  1.0000
  C   C131      1.0  0.79251  0.60531  0.14182  1.0000
  C   C132      1.0  0.80758  0.59135  0.08237  1.0000
  H   H149      1.0  0.80731  0.54983  0.05917  1.0000
  O  Te5       1.0  0.72642  0.54036  0.32949  1.0000
  O  Te6       1.0  0.75069  0.60294  0.28303  1.0000
  H   H150      1.0  0.82849  0.60439  0.01856  1.0000
  Mg  Mg3       1.0  0.71462  0.57001  0.38692  1.0000
  C   C133      1.0  0.25015  0.15425  0.89191  1.0000
  C   C134      1.0  0.26561  0.14383  0.98575  1.0000
  C  Sn7       1.0  0.25116  0.11730  0.05067  1.0000
  C  Sn8       1.0  0.22024  0.09851  0.02085  1.0000
  C   C135      1.0  0.20456  0.10675  0.92672  1.0000
  C   C136      1.0  0.21966  0.13573  0.86238  1.0000
  H   H151      1.0  0.26183  0.17667  0.84205  1.0000
  O  Te7       1.0  0.26694  0.10724  0.14421  1.0000
  O  Te8       1.0  0.20483  0.06950  0.08421  1.0000
  H   H152      1.0  0.20768  0.14379  0.78964  1.0000
  Mg  Mg4       1.0  0.23610  0.06597  0.20421  1.0000
  C   C137      1.0  0.89826  0.14164  0.03642  1.0000
  C   C138      1.0  0.86977  0.13444  0.99095  1.0000
  C  Sn9       1.0  0.84946  0.10806  0.91427  1.0000
  C  Sn10      1.0  0.85748  0.08614  0.88272  1.0000
  C   C139      1.0  0.88561  0.09116  0.92879  1.0000
  C   C140      1.0  0.90618  0.12003  0.00541  1.0000
  H   H153      1.0  0.91384  0.16212  0.09579  1.0000
  O  Te9       1.0  0.82151  0.10362  0.86959  1.0000
  O  Te10      1.0  0.83761  0.05957  0.80630  1.0000
  H   H154      1.0  0.92791  0.12374  0.04069  1.0000
  Mg  Mg5       1.0  0.80214  0.06382  0.76847  1.0000
  C   C141      1.0  0.85809  0.75693  0.03099  1.0000
  C   C142      1.0  0.86262  0.73155  0.98444  1.0000
  C  Sn11      1.0  0.88818  0.73798  0.89670  1.0000
  C  Sn12      1.0  0.90914  0.76800  0.85500  1.0000
  C   C143      1.0  0.90400  0.79085  0.90224  1.0000
  C   C144      1.0  0.87834  0.78416  0.98997  1.0000
  H   H155      1.0  0.83825  0.75176  0.09895  1.0000
  O  Te11      1.0  0.89278  0.71474  0.85110  1.0000
  O  Te12      1.0  0.93488  0.77506  0.76742  1.0000
  H   H156      1.0  0.87494  0.80436  0.02609  1.0000
  Mg  Mg6       1.0  0.93122  0.73562  0.73286  1.0000
  C   C145      1.0  0.23519  0.14798  0.38872  1.0000
  C   C146      1.0  0.21255  0.11838  0.41136  1.0000
  C  Sn13      1.0  0.21873  0.09778  0.48652  1.0000
  C  Sn14      1.0  0.24814  0.10704  0.53991  1.0000
  C   C147      1.0  0.27063  0.13670  0.51680  1.0000
  C   C148      1.0  0.26421  0.15714  0.44141  1.0000
  H   H157      1.0  0.23022  0.16380  0.33047  1.0000
  O  Te13      1.0  0.19584  0.06829  0.50813  1.0000
  O  Te14      1.0  0.25493  0.08691  0.61544  1.0000
  H   H158      1.0  0.28174  0.18006  0.42399  1.0000
  Mg  Mg7       1.0  0.21616  0.04914  0.61745  1.0000
  C   C149      1.0  0.89846  0.14027  0.54342  1.0000
  C   C150      1.0  0.87102  0.13610  0.48974  1.0000
  C  Sn15      1.0  0.85192  0.11095  0.40019  1.0000
  C  Sn16      1.0  0.86052  0.08962  0.36395  1.0000
  C   C151      1.0  0.88801  0.09399  0.41830  1.0000
  C   C152      1.0  0.90695  0.11924  0.50777  1.0000
  H   H159      1.0  0.91311  0.15980  0.61272  1.0000
  O  Te15      1.0  0.82459  0.10713  0.34745  1.0000
  O  Te16      1.0  0.84186  0.06428  0.27472  1.0000
  H   H160      1.0  0.92818  0.12246  0.54941  1.0000
  Mg  Mg8       1.0  0.80686  0.06898  0.22964  1.0000
  C   C153      1.0  0.90450  0.74851  0.38394  1.0000
  C   C154      1.0  0.87806  0.73292  0.47277  1.0000
  C  Sn17      1.0  0.86311  0.74745  0.52517  1.0000
  C  Sn18      1.0  0.87489  0.77815  0.48770  1.0000
  C   C155      1.0  0.90134  0.79354  0.39866  1.0000
  C   C156      1.0  0.91613  0.77879  0.34688  1.0000
  H   H161      1.0  0.91594  0.73709  0.34379  1.0000
  O  Te17      1.0  0.83673  0.73155  0.61385  1.0000
  O  Te18      1.0  0.86039  0.79321  0.53851  1.0000
  H   H162      1.0  0.93659  0.79085  0.27801  1.0000
  Mg  Mg9       1.0  0.82512  0.76190  0.65621  1.0000
  C   C157      1.0  0.56275  0.30752  0.27700  1.0000
  C   C158      1.0  0.54218  0.28249  0.19126  1.0000
  C  Sn19      1.0  0.55170  0.26591  0.10363  1.0000
  C  Sn20      1.0  0.58239  0.27461  0.10208  1.0000
  C   C159      1.0  0.60279  0.29968  0.18835  1.0000
  C   C160      1.0  0.59303  0.31611  0.27558  1.0000
  H   H163      1.0  0.55519  0.32023  0.34458  1.0000
  O  Te19      1.0  0.53085  0.24097  0.01859  1.0000
  O  Te20      1.0  0.59251  0.25844  0.01556  1.0000
  H   H164      1.0  0.60895  0.33548  0.34204  1.0000
  Mg  Mg10      1.0  0.55512  0.22374  0.91866  1.0000
  C   C161      1.0  0.68372  0.26363  0.26984  1.0000
  C   C162      1.0  0.69368  0.29250  0.21048  1.0000
  C  Sn21      1.0  0.72022  0.30750  0.12205  1.0000
  C  Sn22      1.0  0.73704  0.29327  0.09266  1.0000
  C   C163      1.0  0.72687  0.26438  0.15247  1.0000
  C   C164      1.0  0.70029  0.24958  0.24086  1.0000
  H   H165      1.0  0.66315  0.25217  0.33816  1.0000
  O  Te21      1.0  0.72985  0.33633  0.06367  1.0000
  O  Te22      1.0  0.76363  0.30774  0.00459  1.0000
  H   H166      1.0  0.69258  0.22722  0.28672  1.0000
  Mg  Mg11      1.0  0.76710  0.34448  0.95018  1.0000
  C   C165      1.0  0.69133  0.42230  0.09971  1.0000
  C   C166      1.0  0.69812  0.40121  0.16217  1.0000
  C  Sn23      1.0  0.72419  0.41033  0.25139  1.0000
  C  Sn24      1.0  0.74378  0.44116  0.27841  1.0000
  C   C167      1.0  0.73678  0.46209  0.21551  1.0000
  C   C168      1.0  0.71064  0.45271  0.12636  1.0000
  H   H167      1.0  0.67110  0.41505  0.03081  1.0000
  O  Te23      1.0  0.73063  0.38896  0.31288  1.0000
  O  Te24      1.0  0.76998  0.45090  0.36720  1.0000
  H   H168      1.0  0.70539  0.46904  0.07810  1.0000
  Mg  Mg12      1.0  0.76903  0.41326  0.42618  1.0000
  C   C169      1.0  0.08685  0.01747  0.29510  1.0000
  C   C170      1.0  0.06760  0.02502  0.37165  1.0000
  C  Sn25      1.0  0.07906  0.05046  0.46708  1.0000
  C  Sn26      1.0  0.11038  0.06863  0.48597  1.0000
  C   C171      1.0  0.12945  0.06090  0.40880  1.0000
  C   C172      1.0  0.11774  0.03539  0.31362  1.0000
  H   H169      1.0  0.57931  0.99775  0.22139  1.0000
  O  Te25      1.0  0.05951  0.05767  0.54275  1.0000
  O  Te26      1.0  0.12243  0.09418  0.58061  1.0000
  H   H170      1.0  0.13265  0.02956  0.25429  1.0000
  Mg  Mg13      1.0  0.08667  0.09471  0.65937  1.0000
  C   C173      1.0  0.98412  0.07049  0.29343  1.0000
  C   C174      1.0  0.97544  0.04286  0.36674  1.0000
  C  Sn27      1.0  0.94927  0.02841  0.45844  1.0000
  C  Sn28      1.0  0.93148  0.04192  0.47683  1.0000
  C   C175      1.0  0.94034  0.06956  0.40290  1.0000
  C   C176      1.0  0.96658  0.08383  0.31145  1.0000
  H   H171      1.0  0.00441  0.08153  0.22259  1.0000
  O  Te27      1.0  0.94093  0.00082  0.53090  1.0000
  O  Te28      1.0  0.90521  0.02797  0.56776  1.0000
  H   H172      1.0  0.97328  0.10521  0.25462  1.0000
  Mg  Mg14      1.0  0.40475  0.99057  0.64307  1.0000
  C   C177      1.0  0.96427  0.89359  0.46814  1.0000
  C   C178      1.0  0.93593  0.87533  0.40319  1.0000
  C  Sn29      1.0  0.92210  0.88776  0.31117  1.0000
  C  Sn30      1.0  0.93698  0.91906  0.28383  1.0000
  C   C179      1.0  0.96534  0.93713  0.34923  1.0000
  C   C180      1.0  0.97897  0.92446  0.44118  1.0000
  H   H173      1.0  0.97482  0.88378  0.53921  1.0000
  O  Te29      1.0  0.89377  0.86919  0.24722  1.0000
  O  Te30      1.0  0.92368  0.93207  0.19226  1.0000
  H   H174      1.0  0.00092  0.93860  0.49136  1.0000
  Mg  Mg15      1.0  0.88485  0.89744  0.13059  1.0000
  C   C181      1.0  0.43924  0.23391  0.59653  1.0000
  C   C182      1.0  0.45601  0.22372  0.67979  1.0000
  C  Sn31      1.0  0.44218  0.19481  0.74485  1.0000
  C  Sn32      1.0  0.41097  0.17581  0.72598  1.0000
  C   C183      1.0  0.39439  0.18620  0.64238  1.0000
  C   C184      1.0  0.40846  0.21518  0.57781  1.0000
  H   H175      1.0  0.45013  0.25632  0.54649  1.0000
  O  Te31      1.0  0.45926  0.18499  0.82774  1.0000
  O  Te32      1.0  0.39657  0.14681  0.78974  1.0000
  H   H176      1.0  0.39547  0.22305  0.51326  1.0000
  Mg  Mg16      1.0  0.42946  0.14364  0.89286  1.0000
  C   C185      1.0  0.81634  0.24801  0.74415  1.0000
  C   C186      1.0  0.78843  0.24247  0.69025  1.0000
  C  Sn33      1.0  0.76898  0.21559  0.61504  1.0000
  C  Sn34      1.0  0.77769  0.19390  0.59361  1.0000
  C   C187      1.0  0.80565  0.19965  0.64805  1.0000
  C   C188      1.0  0.82494  0.22662  0.72311  1.0000
  H   H177      1.0  0.83126  0.26887  0.80230  1.0000
  O  Te33      1.0  0.74118  0.21042  0.56187  1.0000
  O  Te34      1.0  0.75868  0.16684  0.51889  1.0000
  H   H178      1.0  0.84654  0.23089  0.76492  1.0000
  Mg  Mg17      1.0  0.72309  0.17016  0.46700  1.0000
  C   C189      1.0  0.76334  0.58422  0.74488  1.0000
  C   C190      1.0  0.79219  0.60093  0.68189  1.0000
  C  Sn35      1.0  0.80659  0.58663  0.61834  1.0000
  C  Sn36      1.0  0.79177  0.55500  0.61797  1.0000
  C   C191      1.0  0.76290  0.53848  0.68115  1.0000
  C   C192      1.0  0.74870  0.55302  0.74450  1.0000
  H   H179      1.0  0.75234  0.59547  0.79381  1.0000
  O  Te35      1.0  0.83542  0.60367  0.55595  1.0000
  O  Te36      1.0  0.80564  0.54013  0.55514  1.0000
  H   H180      1.0  0.72636  0.54008  0.79316  1.0000
  Mg  Mg18      1.0  0.84502  0.57314  0.48378  1.0000
  C   C193      1.0  0.56364  0.30758  0.77774  1.0000
  C   C194      1.0  0.54329  0.28262  0.69074  1.0000
  C  Sn37      1.0  0.55310  0.26637  0.60232  1.0000
  C  Sn38      1.0  0.58386  0.27532  0.60125  1.0000
  C   C195      1.0  0.60403  0.30031  0.68878  1.0000
  C   C196      1.0  0.59398  0.31642  0.77681  1.0000
  H   H181      1.0  0.55587  0.32004  0.84592  1.0000
  O  Te37      1.0  0.53247  0.24149  0.51602  1.0000
  O  Te38      1.0  0.59426  0.25948  0.51396  1.0000
  H   H182      1.0  0.60974  0.33574  0.84424  1.0000
  Mg  Mg19      1.0  0.55750  0.22714  0.41541  1.0000
  C   C197      1.0  0.73089  0.30803  0.59423  1.0000
  C   C198      1.0  0.70294  0.30072  0.65587  1.0000
  C  Sn39      1.0  0.68601  0.27410  0.74256  1.0000
  C  Sn40      1.0  0.69734  0.25448  0.76784  1.0000
  C   C199      1.0  0.72534  0.26200  0.70577  1.0000
  C   C200      1.0  0.74209  0.28869  0.61916  1.0000
  H   H183      1.0  0.74386  0.32868  0.52729  1.0000
  O  Te39      1.0  0.65812  0.26714  0.80326  1.0000
  O  Te40      1.0  0.68089  0.22774  0.85409  1.0000
  H   H184      1.0  0.76374  0.29435  0.57154  1.0000
  Mg  Mg20      1.0  0.64408  0.22810  0.91291  1.0000
  C   C201      1.0  0.74591  0.43516  0.78975  1.0000
  C   C202      1.0  0.74156  0.45644  0.70789  1.0000
  C  Sn41      1.0  0.71548  0.44768  0.61942  1.0000
  C  Sn42      1.0  0.69338  0.41703  0.61305  1.0000
  C   C203      1.0  0.69794  0.39592  0.69546  1.0000
  C   C204      1.0  0.72412  0.40493  0.78358  1.0000
  H   H185      1.0  0.76616  0.44212  0.85801  1.0000
  O  Te41      1.0  0.71150  0.46923  0.53829  1.0000
  O  Te42      1.0  0.66710  0.40767  0.52558  1.0000
  H   H186      1.0  0.72748  0.38844  0.84704  1.0000
  Mg  Mg21      1.0  0.67195  0.44544  0.43522  1.0000
  C   C205      1.0  0.08697  0.06185  0.98733  1.0000
  C   C206      1.0  0.06685  0.03651  0.90212  1.0000
  C  Sn43      1.0  0.07686  0.01974  0.82037  1.0000
  C  Sn44      1.0  0.10757  0.02856  0.82426  1.0000
  C   C207      1.0  0.12751  0.05393  0.90994  1.0000
  C   C208      1.0  0.11727  0.07055  0.99127  1.0000
  H   H187      1.0  0.07945  0.07710  0.05033  1.0000
  O  Te43      1.0  0.55798  0.99449  0.73577  1.0000
  O  Te44      1.0  0.11817  0.01220  0.74367  1.0000
  H   H188      1.0  0.13326  0.09256  0.05732  1.0000
  Mg  Mg22      1.0  0.58322  0.97949  0.64497  1.0000
  C   C209      1.0  0.92818  0.03463  0.99262  1.0000
  C   C210      1.0  0.93787  0.06321  0.92969  1.0000
  C  Sn45      1.0  0.96365  0.07754  0.83475  1.0000
  C  Sn46      1.0  0.97998  0.06291  0.80238  1.0000
  C   C211      1.0  0.97009  0.03430  0.86581  1.0000
  C   C212      1.0  0.94427  0.02018  0.96071  1.0000
  H   H189      1.0  0.90861  0.02608  0.06598  1.0000
  O  Te45      1.0  0.97302  0.10610  0.77287  1.0000
  O  Te46      1.0  0.00582  0.07670  0.70781  1.0000
  H   H190      1.0  0.93718  0.00043  0.00933  1.0000
  Mg  Mg23      1.0  0.00961  0.11570  0.65066  1.0000
  C   C213      1.0  0.91842  0.89715  0.78950  1.0000
  C   C214      1.0  0.92474  0.87600  0.85595  1.0000
  C  Sn47      1.0  0.95119  0.88511  0.94148  1.0000
  C  Sn48      1.0  0.97164  0.91600  0.96069  1.0000
  C   C215      1.0  0.96509  0.93699  0.89385  1.0000
  C   C216      1.0  0.93857  0.92762  0.80844  1.0000
  H   H191      1.0  0.89789  0.88991  0.72349  1.0000
  O  Te47      1.0  0.95757  0.86607  0.00704  1.0000
  O  Te48      1.0  0.99864  0.92812  0.04566  1.0000
  H   H192      1.0  0.93367  0.94400  0.75709  1.0000
  Mg  Mg24      1.0  0.99678  0.89039  0.11263  1.0000
