data_image0
_chemical_formula_structural       H102C132N30O6C2Sn2C2HTe2HMgC2Sn2C2HTe2HMgC2Sn2C2HTe2HMgC2Sn2C2HTe2HMgC2Sn2C2HTe2HMgC2Sn2C2HTe2HMgC2Sn2C2HTe2HMgC2Sn2C2HTe2HMgC2Sn2C2HTe2HMgC2Sn2C2HTe2HMgC2Sn2C2HTe2HMgC2Sn2C2HTe2HMgC2Sn2C2HTe2HMgC2Sn2C2HTe2HMgC2Sn2C2HTe2HMgC2Sn2C2HTe2HMgC2Sn2C2HTe2HMgC2Sn2C2HTe2HMgC2Sn2C2HTe2HMgC2Sn2C2HTe2HMgC2Sn2C2HTe2HMgC2Sn2C2HTe2HMgC2Sn2C2HTe2HMgC2Sn2C2HTe2HMg
_chemical_formula_sum              "H150 C228 N30 O6 Sn48 Te48 Mg24"
_cell_length_a       52.3847
_cell_length_b       52.2476
_cell_length_c       8.04393
_cell_angle_alpha    70.1019
_cell_angle_beta     111.415
_cell_angle_gamma    121.144

_symmetry_space_group_name_H-M    'P1'
_space_group_IT_number       1

loop_
  _space_group_symop_operation_xyz
  'x, y, z'

loop_
  _atom_site_type_symbol
  _atom_site_label
  _atom_site_symmetry_multiplicity
  _atom_site_fract_x
  _atom_site_fract_y
  _atom_site_fract_z
  _atom_site_occupancy
  H   H1        1.0  0.29626  0.11333  0.51595  1.0000
  H   H2        1.0  0.87975  0.18226  0.48777  1.0000
  H   H3        1.0  0.81158  0.68768  0.43595  1.0000
  H   H4        1.0  0.35091  0.13798  0.53705  1.0000
  H   H5        1.0  0.85599  0.21417  0.45463  1.0000
  H   H6        1.0  0.78144  0.63528  0.38802  1.0000
  H   H7        1.0  0.39496  0.25072  0.25590  1.0000
  H   H8        1.0  0.75737  0.13730  0.13365  1.0000
  H   H9        1.0  0.86157  0.62395  0.13085  1.0000
  H   H10       1.0  0.16916  0.12070  0.94226  1.0000
  H   H11       1.0  0.89549  0.06418  0.03049  1.0000
  H   H12       1.0  0.94547  0.84585  0.05636  1.0000
  H   H13       1.0  0.49434  0.21678  0.56403  1.0000
  H   H14       1.0  0.76405  0.26384  0.52205  1.0000
  H   H15       1.0  0.72247  0.48878  0.42804  1.0000
  H   H16       1.0  0.03942  0.06627  0.08293  1.0000
  H   H17       1.0  0.95248  0.98694  0.08332  1.0000
  H   H18       1.0  0.02960  0.97925  0.08057  1.0000
  H   H19       1.0  0.62212  0.26816  0.43598  1.0000
  H   H20       1.0  0.70988  0.34537  0.40750  1.0000
  H   H21       1.0  0.63542  0.35807  0.40449  1.0000
  H   H22       1.0  0.32996  0.26272  0.21193  1.0000
  H   H23       1.0  0.74728  0.05982  0.25685  1.0000
  H   H24       1.0  0.93911  0.68156  0.27139  1.0000
  H   H25       1.0  0.40695  0.29881  0.05082  1.0000
  H   H26       1.0  0.71421  0.11187  0.87250  1.0000
  H   H27       1.0  0.90554  0.60620  0.04127  1.0000
  H   H28       1.0  0.43985  0.35265  0.18855  1.0000
  H   H29       1.0  0.65581  0.09105  0.91042  1.0000
  H   H30       1.0  0.93902  0.60382  0.44231  1.0000
  H   H31       1.0  0.41879  0.35094  0.96014  1.0000
  H   H32       1.0  0.66315  0.07537  0.77915  1.0000
  H   H33       1.0  0.93737  0.58618  0.28426  1.0000
  H   H34       1.0  0.41818  0.39671  0.13714  1.0000
  H   H35       1.0  0.61071  0.02928  0.00876  1.0000
  H   H36       1.0  0.00334  0.62326  0.37131  1.0000
  H   H37       1.0  0.37394  0.39756  0.18122  1.0000
  H   H38       1.0  0.60766  0.98301  0.24728  1.0000
  H   H39       1.0  0.04225  0.67463  0.26091  1.0000
  H   H40       1.0  0.32539  0.35015  0.20373  1.0000
  H   H41       1.0  0.65476  0.97697  0.42284  1.0000
  H   H42       1.0  0.02713  0.71561  0.07719  1.0000
  H   H43       1.0  0.31972  0.30171  0.17324  1.0000
  H   H44       1.0  0.70524  0.01597  0.35575  1.0000
  H   H45       1.0  0.97240  0.70578  0.00178  1.0000
  H   H46       1.0  0.43640  0.30090  0.34185  1.0000
  H   H47       1.0  0.70491  0.13125  0.04643  1.0000
  H   H48       1.0  0.87083  0.57931  0.19346  1.0000
  H   H49       1.0  0.35865  0.29510  0.96542  1.0000
  H   H50       1.0  0.71472  0.06567  0.95840  1.0000
  H   H51       1.0  0.91299  0.65546  0.97914  1.0000
  H   H52       1.0  0.31296  0.12974  0.03327  1.0000
  H   H53       1.0  0.88307  0.18898  0.02462  1.0000
  H   H54       1.0  0.80701  0.70919  0.94806  1.0000
  H   H55       1.0  0.36762  0.15434  0.05782  1.0000
  H   H56       1.0  0.85924  0.22093  0.98886  1.0000
  H   H57       1.0  0.77605  0.65665  0.89973  1.0000
  H   H58       1.0  0.37898  0.23499  0.73671  1.0000
  H   H59       1.0  0.75634  0.13083  0.63180  1.0000
  H   H60       1.0  0.86781  0.60396  0.62225  1.0000
  H   H61       1.0  0.15348  0.10147  0.47127  1.0000
  H   H62       1.0  0.88561  0.04986  0.52931  1.0000
  H   H63       1.0  0.93992  0.82776  0.52255  1.0000
  H   H64       1.0  0.50907  0.23849  0.03400  1.0000
  H   H65       1.0  0.77424  0.27750  0.02939  1.0000
  H   H66       1.0  0.72599  0.50670  0.94984  1.0000
  H   H67       1.0  0.02427  0.04277  0.59525  1.0000
  H   H68       1.0  0.93610  0.96433  0.56664  1.0000
  H   H69       1.0  0.01351  0.95741  0.55899  1.0000
  H   H70       1.0  0.63766  0.29111  0.90971  1.0000
  H   H71       1.0  0.72658  0.36794  0.90876  1.0000
  H   H72       1.0  0.65171  0.37978  0.90957  1.0000
  H   H73       1.0  0.31661  0.24191  0.77066  1.0000
  H   H74       1.0  0.75368  0.05753  0.84166  1.0000
  H   H75       1.0  0.94514  0.66160  0.78262  1.0000
  H   H76       1.0  0.38403  0.29273  0.49337  1.0000
  H   H77       1.0  0.70553  0.08831  0.38219  1.0000
  H   H78       1.0  0.91562  0.57888  0.64756  1.0000
  H   H79       1.0  0.41091  0.33899  0.70223  1.0000
  H   H80       1.0  0.65281  0.06714  0.50312  1.0000
  H   H81       1.0  0.94427  0.59130  0.03438  1.0000
  H   H82       1.0  0.39351  0.34290  0.46742  1.0000
  H   H83       1.0  0.65527  0.04836  0.36813  1.0000
  H   H84       1.0  0.94611  0.56604  0.94212  1.0000
  H   H85       1.0  0.37930  0.37496  0.65780  1.0000
  H   H86       1.0  0.61708  0.00460  0.66890  1.0000
  H   H87       1.0  0.01145  0.60457  0.02565  1.0000
  H   H88       1.0  0.33112  0.36440  0.71827  1.0000
  H   H89       1.0  0.62536  0.96426  0.92409  1.0000
  H   H90       1.0  0.05114  0.65285  0.89168  1.0000
  H   H91       1.0  0.28761  0.31252  0.72928  1.0000
  H   H92       1.0  0.67698  0.96621  0.05032  1.0000
  H   H93       1.0  0.03613  0.68978  0.64189  1.0000
  H   H94       1.0  0.29165  0.27033  0.68030  1.0000
  H   H95       1.0  0.72129  0.00890  0.92630  1.0000
  H   H96       1.0  0.98125  0.67887  0.52086  1.0000
  H   H97       1.0  0.41716  0.28966  0.74796  1.0000
  H   H98       1.0  0.70206  0.11722  0.50793  1.0000
  H   H99       1.0  0.88006  0.55726  0.80167  1.0000
  H   H100      1.0  0.33338  0.27353  0.46724  1.0000
  H   H101      1.0  0.72100  0.05174  0.53075  1.0000
  H   H102      1.0  0.92117  0.62812  0.51520  1.0000
  C   C1        1.0  0.31009  0.13572  0.55253  1.0000
  C   C2        1.0  0.85745  0.17141  0.51909  1.0000
  C   C3        1.0  0.82328  0.67374  0.47124  1.0000
  C   C4        1.0  0.34155  0.14977  0.56726  1.0000
  C   C5        1.0  0.84370  0.18965  0.49706  1.0000
  C   C6        1.0  0.80607  0.64386  0.44289  1.0000
  C   C7        1.0  0.36137  0.17931  0.60742  1.0000
  C   C8        1.0  0.81386  0.17712  0.51970  1.0000
  C   C9        1.0  0.81960  0.62481  0.47415  1.0000
  C   C10       1.0  0.36264  0.20954  0.14980  1.0000
  C   C11       1.0  0.80121  0.15186  0.08097  1.0000
  C   C12       1.0  0.84581  0.65852  0.05532  1.0000
  C   C13       1.0  0.33027  0.19595  0.12713  1.0000
  C   C14       1.0  0.81466  0.13269  0.10637  1.0000
  C   C15       1.0  0.86424  0.68877  0.08816  1.0000
  C   C16       1.0  0.29509  0.15001  0.57268  1.0000
  C   C17       1.0  0.84315  0.13942  0.57085  1.0000
  C   C18       1.0  0.85543  0.68726  0.53652  1.0000
  C   C19       1.0  0.34821  0.24034  0.18441  1.0000
  C   C20       1.0  0.76943  0.10313  0.15804  1.0000
  C   C21       1.0  0.89471  0.66831  0.17278  1.0000
  C   C22       1.0  0.18076  0.10602  0.01259  1.0000
  C   C23       1.0  0.91032  0.08616  0.07583  1.0000
  C   C24       1.0  0.92169  0.83612  0.06706  1.0000
  C   C25       1.0  0.48575  0.23327  0.54160  1.0000
  C   C26       1.0  0.74943  0.24157  0.48024  1.0000
  C   C27       1.0  0.74604  0.49856  0.41365  1.0000
  C   C28       1.0  0.03896  0.02481  0.08094  1.0000
  C   C29       1.0  0.99439  0.02901  0.08244  1.0000
  C   C30       1.0  0.98919  0.97968  0.08387  1.0000
  C   C31       1.0  0.62446  0.31138  0.42009  1.0000
  C   C32       1.0  0.66736  0.30424  0.42105  1.0000
  C   C33       1.0  0.67473  0.35519  0.40419  1.0000
  C   C34       1.0  0.02548  0.04209  0.08142  1.0000
  C   C35       1.0  0.97658  0.99769  0.08279  1.0000
  C   C36       1.0  0.02026  0.99343  0.08293  1.0000
  C   C37       1.0  0.63670  0.29252  0.42659  1.0000
  C   C38       1.0  0.68603  0.33570  0.41063  1.0000
  C   C39       1.0  0.64395  0.34283  0.40780  1.0000
  C   C40       1.0  0.36808  0.29595  0.11153  1.0000
  C   C41       1.0  0.71358  0.07139  0.07509  1.0000
  C   C42       1.0  0.92396  0.64864  0.12029  1.0000
  C   C43       1.0  0.40308  0.30701  0.14385  1.0000
  C   C44       1.0  0.70321  0.09692  0.98490  1.0000
  C   C45       1.0  0.91141  0.61331  0.16924  1.0000
  C   C46       1.0  0.36613  0.32188  0.14130  1.0000
  C   C47       1.0  0.68638  0.04486  0.14580  1.0000
  C   C48       1.0  0.95762  0.65900  0.14487  1.0000
  C   C49       1.0  0.39372  0.34855  0.13064  1.0000
  C   C50       1.0  0.65985  0.04867  0.04920  1.0000
  C   C51       1.0  0.96607  0.63567  0.24769  1.0000
  C   C52       1.0  0.41673  0.34221  0.10243  1.0000
  C   C53       1.0  0.66807  0.07875  0.91739  1.0000
  C   C54       1.0  0.93860  0.60695  0.29940  1.0000
  C   C55       1.0  0.39672  0.37599  0.14387  1.0000
  C   C56       1.0  0.63133  0.02636  0.08320  1.0000
  C   C57       1.0  0.99656  0.64112  0.28984  1.0000
  C   C58       1.0  0.37180  0.37640  0.16874  1.0000
  C   C59       1.0  0.62967  0.00034  0.21713  1.0000
  C   C60       1.0  0.01840  0.67011  0.22840  1.0000
  C   C61       1.0  0.34436  0.34969  0.18080  1.0000
  C   C62       1.0  0.65622  0.99684  0.31585  1.0000
  C   C63       1.0  0.00989  0.69330  0.12503  1.0000
  C   C64       1.0  0.34132  0.32226  0.16597  1.0000
  C   C65       1.0  0.68474  0.01900  0.27879  1.0000
  C   C66       1.0  0.97929  0.68791  0.08245  1.0000
  C   C67       1.0  0.32662  0.15202  0.07141  1.0000
  C   C68       1.0  0.86010  0.17806  0.04660  1.0000
  C   C69       1.0  0.81842  0.69497  0.98307  1.0000
  C   C70       1.0  0.35819  0.16611  0.08745  1.0000
  C   C71       1.0  0.84645  0.19631  0.02414  1.0000
  C   C72       1.0  0.80068  0.66497  0.95473  1.0000
  C   C73       1.0  0.37776  0.19587  0.12417  1.0000
  C   C74       1.0  0.81611  0.18376  0.03894  1.0000
  C   C75       1.0  0.81388  0.64556  0.98714  1.0000
  C   C76       1.0  0.34646  0.19339  0.63125  1.0000
  C   C77       1.0  0.79981  0.14532  0.57384  1.0000
  C   C78       1.0  0.85163  0.63822  0.53936  1.0000
  C   C79       1.0  0.31407  0.17960  0.61134  1.0000
  C   C80       1.0  0.81361  0.12637  0.60227  1.0000
  C   C81       1.0  0.86954  0.66841  0.57432  1.0000
  C   C82       1.0  0.31138  0.16642  0.08721  1.0000
  C   C83       1.0  0.84515  0.14592  0.08899  1.0000
  C   C84       1.0  0.85064  0.70818  0.04774  1.0000
  C   C85       1.0  0.33221  0.22302  0.68244  1.0000
  C   C86       1.0  0.77067  0.09729  0.68325  1.0000
  C   C87       1.0  0.90075  0.64864  0.66100  1.0000
  C   C88       1.0  0.16514  0.08682  0.52463  1.0000
  C   C89       1.0  0.90185  0.07149  0.57732  1.0000
  C   C90       1.0  0.91643  0.81549  0.54327  1.0000
  C   C91       1.0  0.50029  0.25475  0.01292  1.0000
  C   C92       1.0  0.75844  0.25588  0.98060  1.0000
  C   C93       1.0  0.74988  0.51886  0.93607  1.0000
  C   C94       1.0  0.02315  0.00230  0.57355  1.0000
  C   C95       1.0  0.97884  0.00601  0.58413  1.0000
  C   C96       1.0  0.97300  0.95746  0.56450  1.0000
  C   C97       1.0  0.64049  0.33343  0.91484  1.0000
  C   C98       1.0  0.68324  0.32699  0.90549  1.0000
  C   C99       1.0  0.69100  0.37735  0.90571  1.0000
  C   C100      1.0  0.00996  0.01897  0.58495  1.0000
  C   C101      1.0  0.96039  0.97512  0.56995  1.0000
  C   C102      1.0  0.00422  0.97130  0.56609  1.0000
  C   C103      1.0  0.65251  0.31520  0.90977  1.0000
  C   C104      1.0  0.70249  0.35821  0.90769  1.0000
  C   C105      1.0  0.66010  0.36471  0.90825  1.0000
  C   C106      1.0  0.34538  0.27728  0.60766  1.0000
  C   C107      1.0  0.71701  0.05855  0.63109  1.0000
  C   C108      1.0  0.93148  0.62516  0.66184  1.0000
  C   C109      1.0  0.38043  0.29540  0.61080  1.0000
  C   C110      1.0  0.69998  0.07835  0.51509  1.0000
  C   C111      1.0  0.91954  0.59075  0.75074  1.0000
  C   C112      1.0  0.33799  0.29913  0.64215  1.0000
  C   C113      1.0  0.69392  0.03085  0.72806  1.0000
  C   C114      1.0  0.96561  0.63551  0.70574  1.0000
  C   C115      1.0  0.36267  0.32845  0.63592  1.0000
  C   C116      1.0  0.66464  0.02954  0.65410  1.0000
  C   C117      1.0  0.97399  0.61472  0.84876  1.0000
  C   C118      1.0  0.38941  0.32912  0.60150  1.0000
  C   C119      1.0  0.66547  0.05599  0.49932  1.0000
  C   C120      1.0  0.94607  0.58818  0.91128  1.0000
  C   C121      1.0  0.36027  0.35213  0.66233  1.0000
  C   C122      1.0  0.63982  0.00561  0.72434  1.0000
  C   C123      1.0  0.00480  0.62069  0.91576  1.0000
  C   C124      1.0  0.33307  0.34621  0.69515  1.0000
  C   C125      1.0  0.64448  0.98284  0.86718  1.0000
  C   C126      1.0  0.02705  0.64785  0.84020  1.0000
  C   C127      1.0  0.30852  0.31688  0.70211  1.0000
  C   C128      1.0  0.67366  0.98402  0.93926  1.0000
  C   C129      1.0  0.01863  0.66876  0.69941  1.0000
  C   C130      1.0  0.31081  0.29313  0.67466  1.0000
  C   C131      1.0  0.69863  0.00812  0.86949  1.0000
  C   C132      1.0  0.98776  0.66265  0.63077  1.0000
  N   N1        1.0  0.37343  0.23796  0.18822  1.0000
  N   N2        1.0  0.77237  0.13224  0.11498  1.0000
  N   N3        1.0  0.86615  0.64613  0.11040  1.0000
  N   N4        1.0  0.32199  0.21610  0.14615  1.0000
  N   N5        1.0  0.79384  0.10220  0.15183  1.0000
  N   N6        1.0  0.89487  0.69427  0.16061  1.0000
  N   N7        1.0  0.16590  0.07761  0.08047  1.0000
  N   N8        1.0  0.93986  0.09831  0.10310  1.0000
  N   N9        1.0  0.91105  0.85311  0.07382  1.0000
  N   N10       1.0  0.50171  0.26224  0.49031  1.0000
  N   N11       1.0  0.71981  0.22998  0.44444  1.0000
  N   N12       1.0  0.75615  0.48160  0.40008  1.0000
  N   N13       1.0  0.35137  0.26619  0.22001  1.0000
  N   N14       1.0  0.74324  0.07846  0.21060  1.0000
  N   N15       1.0  0.91987  0.66221  0.23904  1.0000
  N   N16       1.0  0.35729  0.22140  0.67527  1.0000
  N   N17       1.0  0.77244  0.12600  0.62594  1.0000
  N   N18       1.0  0.87248  0.62629  0.59414  1.0000
  N   N19       1.0  0.30599  0.19900  0.64084  1.0000
  N   N20       1.0  0.79449  0.09628  0.66883  1.0000
  N   N21       1.0  0.90025  0.67425  0.65002  1.0000
  N   N22       1.0  0.15019  0.05766  0.57238  1.0000
  N   N23       1.0  0.93115  0.08068  0.61848  1.0000
  N   N24       1.0  0.90336  0.82993  0.55420  1.0000
  N   N25       1.0  0.51675  0.28385  0.97133  1.0000
  N   N26       1.0  0.72923  0.24738  0.92474  1.0000
  N   N27       1.0  0.76304  0.50446  0.92520  1.0000
  N   N28       1.0  0.33597  0.24781  0.73448  1.0000
  N   N29       1.0  0.74640  0.07339  0.75892  1.0000
  N   N30       1.0  0.92594  0.64292  0.74129  1.0000
  O   O1        1.0  0.41508  0.29524  0.33041  1.0000
  O   O2        1.0  0.71093  0.11510  0.11498  1.0000
  O   O3        1.0  0.88423  0.59809  0.24031  1.0000
  O   O4        1.0  0.39783  0.28347  0.77393  1.0000
  O   O5        1.0  0.70899  0.10311  0.60185  1.0000
  O   O6        1.0  0.89093  0.57904  0.79903  1.0000
  C   C133      1.0  0.24062  0.09515  0.63537  1.0000
  C   C134      1.0  0.25840  0.12561  0.56599  1.0000
  C  Sn1       1.0  0.24516  0.14557  0.48203  1.0000
  C  Sn2       1.0  0.21354  0.13478  0.46749  1.0000
  C   C135      1.0  0.19596  0.10428  0.53745  1.0000
  C   C136      1.0  0.20943  0.08449  0.62115  1.0000
  H   H103      1.0  0.25105  0.07984  0.70022  1.0000
  O  Te1       1.0  0.26325  0.17593  0.41339  1.0000
  O  Te2       1.0  0.19972  0.15425  0.38429  1.0000
  H   H104      1.0  0.19567  0.06092  0.67496  1.0000
  Mg  Mg1       1.0  0.23393  0.19366  0.31173  1.0000
  C   C137      1.0  0.84835  0.07686  0.52969  1.0000
  C   C138      1.0  0.87969  0.08570  0.56549  1.0000
  C  Sn3       1.0  0.90134  0.11307  0.62502  1.0000
  C  Sn4       1.0  0.89134  0.13188  0.64907  1.0000
  C   C139      1.0  0.85993  0.12282  0.61301  1.0000
  C   C140      1.0  0.83847  0.09540  0.55345  1.0000
  H   H105      1.0  0.83174  0.05563  0.48370  1.0000
  O  Te3       1.0  0.93256  0.12157  0.66010  1.0000
  O  Te4       1.0  0.91248  0.15935  0.70849  1.0000
  H   H106      1.0  0.81421  0.08855  0.52585  1.0000
  Mg  Mg2       1.0  0.95255  0.16108  0.73843  1.0000
  C   C141      1.0  0.86573  0.75616  0.60248  1.0000
  C   C142      1.0  0.89463  0.77821  0.57216  1.0000
  C  Sn5       1.0  0.91251  0.77047  0.52413  1.0000
  C  Sn6       1.0  0.90117  0.74008  0.50617  1.0000
  C   C143      1.0  0.87222  0.71819  0.53666  1.0000
  C   C144      1.0  0.85453  0.72618  0.58472  1.0000
  H   H107      1.0  0.85203  0.76234  0.63957  1.0000
  O  Te5       1.0  0.94134  0.79278  0.49440  1.0000
  O  Te6       1.0  0.91856  0.73173  0.45824  1.0000
  H   H108      1.0  0.83215  0.70911  0.60807  1.0000
  Mg  Mg3       1.0  0.95645  0.77025  0.43184  1.0000
  C   C145      1.0  0.25561  0.11224  0.13403  1.0000
  C   C146      1.0  0.27418  0.14254  0.06692  1.0000
  C  Sn7       1.0  0.30138  0.13129  0.98011  1.0000
  C  Sn8       1.0  0.26975  0.12130  0.96036  1.0000
  C   C147      1.0  0.21172  0.12279  0.02808  1.0000
  C   C148      1.0  0.22441  0.10237  0.11467  1.0000
  H   H109      1.0  0.26543  0.09645  0.20112  1.0000
  O  Te7       1.0  0.32026  0.16148  0.91380  1.0000
  O  Te8       1.0  0.25672  0.14140  0.87422  1.0000
  H   H110      1.0  0.21003  0.07892  0.16672  1.0000
  Mg  Mg4       1.0  0.29184  0.18028  0.80655  1.0000
  C   C149      1.0  0.85455  0.08668  0.03640  1.0000
  C   C150      1.0  0.88624  0.09707  0.07515  1.0000
  C  Sn9       1.0  0.90642  0.12374  0.14516  1.0000
  C  Sn10      1.0  0.89459  0.14026  0.17687  1.0000
  C   C151      1.0  0.86285  0.12967  0.13779  1.0000
  C   C152      1.0  0.84286  0.10296  0.06771  1.0000
  H   H111      1.0  0.87872  0.03417  0.98228  1.0000
  O  Te9       1.0  0.93802  0.13380  0.18304  1.0000
  O  Te10      1.0  0.91425  0.16698  0.24682  1.0000
  H   H112      1.0  0.81832  0.09492  0.03784  1.0000
  Mg  Mg5       1.0  0.95552  0.17148  0.27672  1.0000
  C   C153      1.0  0.91528  0.78072  0.03316  1.0000
  C   C154      1.0  0.90652  0.80057  0.05148  1.0000
  C  Sn11      1.0  0.87793  0.78939  0.08608  1.0000
  C  Sn12      1.0  0.85777  0.75775  0.10262  1.0000
  C   C155      1.0  0.86675  0.73808  0.08419  1.0000
  C   C156      1.0  0.89542  0.74950  0.04952  1.0000
  H   H113      1.0  0.93746  0.78955  0.00644  1.0000
  O  Te11      1.0  0.86954  0.80954  0.10394  1.0000
  O  Te12      1.0  0.82906  0.74597  0.13724  1.0000
  H   H114      1.0  0.90220  0.73413  0.03546  1.0000
  Mg  Mg6       1.0  0.82802  0.78256  0.15064  1.0000
  C   C157      1.0  0.43395  0.25074  0.06866  1.0000
  C   C158      1.0  0.41334  0.21978  0.09215  1.0000
  C  Sn13      1.0  0.42230  0.19810  0.10457  1.0000
  C  Sn14      1.0  0.45248  0.20767  0.09327  1.0000
  C   C159      1.0  0.47293  0.23870  0.06991  1.0000
  C   C160      1.0  0.46372  0.26020  0.05758  1.0000
  H   H115      1.0  0.42683  0.26738  0.05922  1.0000
  O  Te13      1.0  0.40142  0.16725  0.12795  1.0000
  O  Te14      1.0  0.46204  0.18648  0.10535  1.0000
  H   H116      1.0  0.47969  0.28417  0.03952  1.0000
  Mg  Mg7       1.0  0.42523  0.14703  0.13693  1.0000
  C   C161      1.0  0.81083  0.24550  0.09039  1.0000
  C   C162      1.0  0.82082  0.21005  0.99722  1.0000
  C  Sn15      1.0  0.79994  0.18484  0.91422  1.0000
  C  Sn16      1.0  0.80898  0.16287  0.92498  1.0000
  C   C163      1.0  0.79905  0.19853  0.01862  1.0000
  C   C164      1.0  0.81976  0.22384  0.10112  1.0000
  H   H117      1.0  0.82685  0.26508  0.15431  1.0000
  O  Te15      1.0  0.77041  0.18158  0.82162  1.0000
  O  Te16      1.0  0.78857  0.13746  0.84333  1.0000
  H   H118      1.0  0.84271  0.22663  0.17335  1.0000
  Mg  Mg8       1.0  0.75086  0.14308  0.73252  1.0000
  C   C165      1.0  0.80992  0.59424  0.90345  1.0000
  C   C166      1.0  0.79909  0.61166  0.93017  1.0000
  C  Sn17      1.0  0.77055  0.59770  0.97201  1.0000
  C  Sn18      1.0  0.75259  0.56570  0.98733  1.0000
  C   C167      1.0  0.76364  0.54847  0.96047  1.0000
  C   C168      1.0  0.79222  0.56268  0.91861  1.0000
  H   H119      1.0  0.83204  0.60523  0.87116  1.0000
  O  Te17      1.0  0.76007  0.61544  0.99821  1.0000
  O  Te18      1.0  0.68435  0.58300  0.02907  1.0000
  H   H120      1.0  0.80061  0.54918  0.89805  1.0000
  Mg  Mg9       1.0  0.67998  0.61698  0.05255  1.0000
  C   C169      1.0  0.43595  0.23945  0.56725  1.0000
  C   C170      1.0  0.45371  0.22520  0.58974  1.0000
  C  Sn19      1.0  0.44071  0.19347  0.61828  1.0000
  C  Sn20      1.0  0.40935  0.17574  0.62430  1.0000
  C   C171      1.0  0.39177  0.19020  0.60152  1.0000
  C   C172      1.0  0.40501  0.22197  0.57310  1.0000
  H   H121      1.0  0.44619  0.26402  0.54516  1.0000
  O  Te19      1.0  0.45878  0.17961  0.64056  1.0000
  O  Te20      1.0  0.39577  0.14399  0.65256  1.0000
  H   H122      1.0  0.39126  0.23299  0.55557  1.0000
  Mg  Mg10      1.0  0.42985  0.13564  0.67559  1.0000
  C   C173      1.0  0.75064  0.19406  0.38276  1.0000
  C   C174      1.0  0.76078  0.21863  0.46288  1.0000
  C  Sn21      1.0  0.79134  0.23266  0.55707  1.0000
  C  Sn22      1.0  0.81206  0.22184  0.57103  1.0000
  C   C175      1.0  0.80169  0.19726  0.49029  1.0000
  C   C176      1.0  0.77107  0.18338  0.39641  1.0000
  H   H123      1.0  0.72695  0.18333  0.31003  1.0000
  O  Te21      1.0  0.80109  0.25717  0.63636  1.0000
  O  Te22      1.0  0.84273  0.23545  0.66432  1.0000
  H   H124      1.0  0.76322  0.16437  0.33429  1.0000
  Mg  Mg11      1.0  0.84508  0.26816  0.74935  1.0000
  C   C177      1.0  0.76346  0.56969  0.47857  1.0000
  C   C178      1.0  0.79389  0.58888  0.46588  1.0000
  C  Sn23      1.0  0.80974  0.57882  0.41691  1.0000
  C  Sn24      1.0  0.79478  0.54899  0.38001  1.0000
  C   C179      1.0  0.76433  0.52997  0.39296  1.0000
  C   C180      1.0  0.74868  0.54027  0.44213  1.0000
  H   H125      1.0  0.75135  0.57766  0.51651  1.0000
  O  Te23      1.0  0.84014  0.59828  0.40494  1.0000
  O  Te24      1.0  0.81008  0.53835  0.33072  1.0000
  H   H126      1.0  0.72512  0.52542  0.45183  1.0000
  Mg  Mg12      1.0  0.85132  0.57337  0.33274  1.0000
  C   C181      1.0  0.09052  0.02236  0.04317  1.0000
  C   C182      1.0  0.07469  0.03405  0.07821  1.0000
  C  Sn25      1.0  0.08980  0.06360  0.11243  1.0000
  C  Sn26      1.0  0.12134  0.08173  0.11141  1.0000
  C   C183      1.0  0.13697  0.06982  0.07607  1.0000
  C   C184      1.0  0.12163  0.04022  0.04206  1.0000
  H   H127      1.0  0.59449  0.99946  0.01675  1.0000
  O  Te25      1.0  0.07364  0.07493  0.14726  1.0000
  O  Te26      1.0  0.13700  0.11134  0.14511  1.0000
  H   H128      1.0  0.13389  0.03118  0.01482  1.0000
  Mg  Mg13      1.0  0.10503  0.11660  0.18553  1.0000
  C   C185      1.0  0.93981  0.04164  0.16304  1.0000
  C   C186      1.0  0.94944  0.07306  0.11698  1.0000
  C  Sn27      1.0  0.97487  0.09236  0.04085  1.0000
  C  Sn28      1.0  0.99090  0.07990  0.01039  1.0000
  C   C187      1.0  0.98106  0.04843  0.05682  1.0000
  C   C188      1.0  0.95560  0.02933  0.13297  1.0000
  H   H129      1.0  0.92009  0.02685  0.22187  1.0000
  O  Te27      1.0  0.02383  0.09186  0.99569  1.0000
  O  Te28      1.0  0.05602  0.06682  0.93443  1.0000
  H   H130      1.0  0.94813  0.00500  0.16851  1.0000
  Mg  Mg14      1.0  0.05988  0.10807  0.89565  1.0000
  C   C189      1.0  0.93220  0.93028  0.95405  1.0000
  C   C190      1.0  0.92163  0.97630  0.06479  1.0000
  C  Sn29      1.0  0.93667  0.95913  0.18607  1.0000
  C  Sn30      1.0  0.92229  0.92716  0.19635  1.0000
  C   C191      1.0  0.89321  0.91320  0.08489  1.0000
  C   C192      1.0  0.91801  0.89875  0.96405  1.0000
  H   H131      1.0  0.92072  0.94374  0.86047  1.0000
  O  Te29      1.0  0.96570  0.97366  0.29577  1.0000
  O  Te30      1.0  0.93681  0.90945  0.31632  1.0000
  H   H132      1.0  0.89551  0.88777  0.87824  1.0000
  Mg  Mg15      1.0  0.97623  0.93973  0.43778  1.0000
  C   C193      1.0  0.10082  0.05993  0.62577  1.0000
  C   C194      1.0  0.11705  0.04899  0.58798  1.0000
  C  Sn31      1.0  0.10165  0.02129  0.52893  1.0000
  C  Sn32      1.0  0.06939  0.00428  0.50740  1.0000
  C   C195      1.0  0.05335  0.01543  0.54544  1.0000
  C   C196      1.0  0.06900  0.04318  0.60450  1.0000
  H   H133      1.0  0.11292  0.08141  0.67137  1.0000
  O  Te31      1.0  0.11823  0.01068  0.49184  1.0000
  O  Te32      1.0  0.56926  0.97652  0.44852  1.0000
  H   H134      1.0  0.05642  0.05165  0.63363  1.0000
  Mg  Mg16      1.0  0.60201  0.97160  0.41520  1.0000
  C   C197      1.0  0.93361  0.01226  0.67158  1.0000
  C   C198      1.0  0.95832  0.02101  0.60111  1.0000
  C  Sn33      1.0  0.97675  0.05182  0.54275  1.0000
  C  Sn34      1.0  0.97027  0.07422  0.55539  1.0000
  C   C199      1.0  0.94551  0.06523  0.62622  1.0000
  C   C200      1.0  0.92721  0.03435  0.68416  1.0000
  H   H135      1.0  0.91946  0.98837  0.71651  1.0000
  O  Te33      1.0  0.00133  0.06016  0.47262  1.0000
  O  Te34      1.0  0.98832  0.10517  0.49812  1.0000
  H   H136      1.0  0.90809  0.02758  0.73883  1.0000
  Mg  Mg17      1.0  0.01928  0.10519  0.41227  1.0000
  C   C201      1.0  0.95764  0.87961  0.68837  1.0000
  C   C202      1.0  0.92781  0.86337  0.59219  1.0000
  C  Sn35      1.0  0.91104  0.87874  0.46873  1.0000
  C  Sn36      1.0  0.92445  0.91096  0.44129  1.0000
  C   C203      1.0  0.95432  0.92700  0.53807  1.0000
  C   C204      1.0  0.97089  0.91139  0.66133  1.0000
  H   H137      1.0  0.97047  0.86754  0.78367  1.0000
  O  Te35      1.0  0.88126  0.86216  0.37381  1.0000
  O  Te36      1.0  0.90821  0.92689  0.31866  1.0000
  H   H138      1.0  0.99399  0.92397  0.73569  1.0000
  Mg  Mg18      1.0  0.86834  0.89416  0.22153  1.0000
  C   C205      1.0  0.55988  0.30966  0.48851  1.0000
  C   C206      1.0  0.53482  0.28216  0.44737  1.0000
  C  Sn37      1.0  0.53880  0.26132  0.39981  1.0000
  C  Sn38      1.0  0.56846  0.26820  0.39350  1.0000
  C   C207      1.0  0.59339  0.29576  0.43503  1.0000
  C   C208      1.0  0.58915  0.31646  0.48239  1.0000
  H   H139      1.0  0.55660  0.32566  0.52526  1.0000
  O  Te37      1.0  0.51351  0.23396  0.35904  1.0000
  O  Te38      1.0  0.57309  0.24778  0.34645  1.0000
  H   H140      1.0  0.60856  0.33774  0.51436  1.0000
  Mg  Mg19      1.0  0.53145  0.21347  0.30234  1.0000
  C   C209      1.0  0.66765  0.24554  0.51283  1.0000
  C   C210      1.0  0.67773  0.27696  0.45494  1.0000
  C  Sn39      1.0  0.70267  0.29461  0.37366  1.0000
  C  Sn40      1.0  0.71775  0.28048  0.35005  1.0000
  C   C211      1.0  0.70747  0.24903  0.40831  1.0000
  C   C212      1.0  0.68250  0.23159  0.48953  1.0000
  H   H141      1.0  0.64832  0.23204  0.57558  1.0000
  O  Te39      1.0  0.71245  0.32598  0.31666  1.0000
  O  Te40      1.0  0.74273  0.29758  0.26917  1.0000
  H   H142      1.0  0.67469  0.20726  0.53424  1.0000
  Mg  Mg20      1.0  0.74752  0.33957  0.21389  1.0000
  C   C213      1.0  0.74412  0.42076  0.52229  1.0000
  C   C214      1.0  0.73950  0.44588  0.41114  1.0000
  C  Sn41      1.0  0.71106  0.44172  0.29164  1.0000
  C  Sn42      1.0  0.68684  0.41182  0.28360  1.0000
  C   C215      1.0  0.69169  0.38683  0.39546  1.0000
  C   C216      1.0  0.72024  0.39126  0.51450  1.0000
  H   H143      1.0  0.76620  0.42418  0.61448  1.0000
  O  Te41      1.0  0.70684  0.46707  0.18149  1.0000
  O  Te42      1.0  0.65818  0.40701  0.16544  1.0000
  H   H144      1.0  0.72380  0.37180  0.60063  1.0000
  Mg  Mg21      1.0  0.66366  0.44882  0.04252  1.0000
  C   C217      1.0  0.59210  0.33757  0.98053  1.0000
  C   C218      1.0  0.60673  0.32415  0.94980  1.0000
  C  Sn43      1.0  0.58992  0.29507  0.90720  1.0000
  C  Sn44      1.0  0.55786  0.27918  0.89518  1.0000
  C   C219      1.0  0.54343  0.29281  0.92603  1.0000
  C   C220      1.0  0.56047  0.32192  0.96863  1.0000
  H   H145      1.0  0.56564  0.39194  0.01339  1.0000
  O  Te43      1.0  0.60491  0.28199  0.87698  1.0000
  O  Te44      1.0  0.54050  0.25009  0.85276  1.0000
  H   H146      1.0  0.54913  0.33231  0.99230  1.0000
  Mg  Mg22      1.0  0.57135  0.24186  0.82326  1.0000
  C   C221      1.0  0.72771  0.31723  0.83554  1.0000
  C   C222      1.0  0.70080  0.30977  0.87845  1.0000
  C  Sn45      1.0  0.68238  0.27966  0.94938  1.0000
  C  Sn46      1.0  0.69113  0.25665  0.97777  1.0000
  C   C223      1.0  0.71810  0.26436  0.93452  1.0000
  C   C224      1.0  0.73636  0.29456  0.86356  1.0000
  H   H147      1.0  0.74185  0.34060  0.78073  1.0000
  O  Te45      1.0  0.65557  0.27260  0.99145  1.0000
  O  Te46      1.0  0.63351  0.25823  0.04854  1.0000
  H   H148      1.0  0.75720  0.30033  0.83046  1.0000
  Mg  Mg23      1.0  0.59903  0.25992  0.08466  1.0000
  C   C225      1.0  0.74764  0.42825  0.03401  1.0000
  C   C226      1.0  0.75707  0.38074  0.94016  1.0000
  C  Sn47      1.0  0.74081  0.39672  0.81851  1.0000
  C  Sn48      1.0  0.75512  0.42899  0.79054  1.0000
  C   C227      1.0  0.78536  0.44446  0.88499  1.0000
  C   C228      1.0  0.76178  0.46008  0.00645  1.0000
  H   H149      1.0  0.76008  0.41570  0.12791  1.0000
  O  Te47      1.0  0.71064  0.38071  0.72592  1.0000
  O  Te48      1.0  0.73940  0.44554  0.66970  1.0000
  H   H150      1.0  0.78518  0.47222  0.07900  1.0000
  Mg  Mg24      1.0  0.69870  0.41343  0.57545  1.0000
