data_image0
_chemical_formula_structural       H102C132N30O6SnCSn2CSnTe4Mg2SnCSn2CSnTe4Mg2SnCSn2CSnTe4Mg2SnCSn2CSnTe4Mg2SnCSn2CSnTe4Mg2SnCSn2CSnTe4Mg2SnCSn2CSnTe4Mg2SnCSn2CSnTe4Mg2SnCSn2CSnTe4Mg2SnCSn2CSnTe4Mg2SnCSn2CSnTe4Mg2SnCSn2CSnTe4Mg2SnCSn2CSnTe4Mg2SnCSn2CSnTe4Mg2SnCSn2CSnTe4Mg2SnCSn2CSnTe4Mg2SnCSn2CSnTe4Mg2SnCSn2CSnTe4Mg2SnCSn2CSnTe4Mg2SnCSn2CSnTe4Mg2SnCSn2CSnTe4Mg2SnCSn2CSnTe4Mg2SnCSn2CSnTe4Mg2SnCSn2CSnTe4Mg2
_chemical_formula_sum              "H102 C180 N30 O6 Sn96 Te96 Mg48"
_cell_length_a       52.3847
_cell_length_b       52.2476
_cell_length_c       8.04393
_cell_angle_alpha    70.1019
_cell_angle_beta     111.415
_cell_angle_gamma    121.144

_symmetry_space_group_name_H-M    'P1'
_space_group_IT_number       1

loop_
  _space_group_symop_operation_xyz
  'x, y, z'

loop_
  _atom_site_type_symbol
  _atom_site_label
  _atom_site_symmetry_multiplicity
  _atom_site_fract_x
  _atom_site_fract_y
  _atom_site_fract_z
  _atom_site_occupancy
  H   H1        1.0  0.29626  0.11333  0.51595  1.0000
  H   H2        1.0  0.87975  0.18226  0.48777  1.0000
  H   H3        1.0  0.81158  0.68768  0.43595  1.0000
  H   H4        1.0  0.35091  0.13798  0.53705  1.0000
  H   H5        1.0  0.85599  0.21417  0.45463  1.0000
  H   H6        1.0  0.78144  0.63528  0.38802  1.0000
  H   H7        1.0  0.39496  0.25072  0.25590  1.0000
  H   H8        1.0  0.75737  0.13730  0.13365  1.0000
  H   H9        1.0  0.86157  0.62395  0.13085  1.0000
  H   H10       1.0  0.16916  0.12070  0.94226  1.0000
  H   H11       1.0  0.89549  0.06418  0.03049  1.0000
  H   H12       1.0  0.94547  0.84585  0.05636  1.0000
  H   H13       1.0  0.49434  0.21678  0.56403  1.0000
  H   H14       1.0  0.76405  0.26384  0.52205  1.0000
  H   H15       1.0  0.72247  0.48878  0.42804  1.0000
  H   H16       1.0  0.03942  0.06627  0.08293  1.0000
  H   H17       1.0  0.95248  0.98694  0.08332  1.0000
  H   H18       1.0  0.02960  0.97925  0.08057  1.0000
  H   H19       1.0  0.62212  0.26816  0.43598  1.0000
  H   H20       1.0  0.70988  0.34537  0.40750  1.0000
  H   H21       1.0  0.63542  0.35807  0.40449  1.0000
  H   H22       1.0  0.32996  0.26272  0.21193  1.0000
  H   H23       1.0  0.74728  0.05982  0.25685  1.0000
  H   H24       1.0  0.93911  0.68156  0.27139  1.0000
  H   H25       1.0  0.40695  0.29881  0.05082  1.0000
  H   H26       1.0  0.71421  0.11187  0.87250  1.0000
  H   H27       1.0  0.90554  0.60620  0.04127  1.0000
  H   H28       1.0  0.43985  0.35265  0.18855  1.0000
  H   H29       1.0  0.65581  0.09105  0.91042  1.0000
  H   H30       1.0  0.93902  0.60382  0.44231  1.0000
  H   H31       1.0  0.41879  0.35094  0.96014  1.0000
  H   H32       1.0  0.66315  0.07537  0.77915  1.0000
  H   H33       1.0  0.93737  0.58618  0.28426  1.0000
  H   H34       1.0  0.41818  0.39671  0.13714  1.0000
  H   H35       1.0  0.61071  0.02928  0.00876  1.0000
  H   H36       1.0  0.00334  0.62326  0.37131  1.0000
  H   H37       1.0  0.37394  0.39756  0.18122  1.0000
  H   H38       1.0  0.60766  0.98301  0.24728  1.0000
  H   H39       1.0  0.04225  0.67463  0.26091  1.0000
  H   H40       1.0  0.32539  0.35015  0.20373  1.0000
  H   H41       1.0  0.65476  0.97697  0.42284  1.0000
  H   H42       1.0  0.02713  0.71561  0.07719  1.0000
  H   H43       1.0  0.31972  0.30171  0.17324  1.0000
  H   H44       1.0  0.70524  0.01597  0.35575  1.0000
  H   H45       1.0  0.97240  0.70578  0.00178  1.0000
  H   H46       1.0  0.43640  0.30090  0.34185  1.0000
  H   H47       1.0  0.70491  0.13125  0.04643  1.0000
  H   H48       1.0  0.87083  0.57931  0.19346  1.0000
  H   H49       1.0  0.35865  0.29510  0.96542  1.0000
  H   H50       1.0  0.71472  0.06567  0.95840  1.0000
  H   H51       1.0  0.91299  0.65546  0.97914  1.0000
  H   H52       1.0  0.31296  0.12974  0.03327  1.0000
  H   H53       1.0  0.88307  0.18898  0.02462  1.0000
  H   H54       1.0  0.80701  0.70919  0.94806  1.0000
  H   H55       1.0  0.36762  0.15434  0.05782  1.0000
  H   H56       1.0  0.85924  0.22093  0.98886  1.0000
  H   H57       1.0  0.77605  0.65665  0.89973  1.0000
  H   H58       1.0  0.37898  0.23499  0.73671  1.0000
  H   H59       1.0  0.75634  0.13083  0.63180  1.0000
  H   H60       1.0  0.86781  0.60396  0.62225  1.0000
  H   H61       1.0  0.15348  0.10147  0.47127  1.0000
  H   H62       1.0  0.88561  0.04986  0.52931  1.0000
  H   H63       1.0  0.93992  0.82776  0.52255  1.0000
  H   H64       1.0  0.50907  0.23849  0.03400  1.0000
  H   H65       1.0  0.77424  0.27750  0.02939  1.0000
  H   H66       1.0  0.72599  0.50670  0.94984  1.0000
  H   H67       1.0  0.02427  0.04277  0.59525  1.0000
  H   H68       1.0  0.93610  0.96433  0.56664  1.0000
  H   H69       1.0  0.01351  0.95741  0.55899  1.0000
  H   H70       1.0  0.63766  0.29111  0.90971  1.0000
  H   H71       1.0  0.72658  0.36794  0.90876  1.0000
  H   H72       1.0  0.65171  0.37978  0.90957  1.0000
  H   H73       1.0  0.31661  0.24191  0.77066  1.0000
  H   H74       1.0  0.75368  0.05753  0.84166  1.0000
  H   H75       1.0  0.94514  0.66160  0.78262  1.0000
  H   H76       1.0  0.38403  0.29273  0.49337  1.0000
  H   H77       1.0  0.70553  0.08831  0.38219  1.0000
  H   H78       1.0  0.91562  0.57888  0.64756  1.0000
  H   H79       1.0  0.41091  0.33899  0.70223  1.0000
  H   H80       1.0  0.65281  0.06714  0.50312  1.0000
  H   H81       1.0  0.94427  0.59130  0.03438  1.0000
  H   H82       1.0  0.39351  0.34290  0.46742  1.0000
  H   H83       1.0  0.65527  0.04836  0.36813  1.0000
  H   H84       1.0  0.94611  0.56604  0.94212  1.0000
  H   H85       1.0  0.37930  0.37496  0.65780  1.0000
  H   H86       1.0  0.61708  0.00460  0.66890  1.0000
  H   H87       1.0  0.01145  0.60457  0.02565  1.0000
  H   H88       1.0  0.33112  0.36440  0.71827  1.0000
  H   H89       1.0  0.62536  0.96426  0.92409  1.0000
  H   H90       1.0  0.05114  0.65285  0.89168  1.0000
  H   H91       1.0  0.28761  0.31252  0.72928  1.0000
  H   H92       1.0  0.67698  0.96621  0.05032  1.0000
  H   H93       1.0  0.03613  0.68978  0.64189  1.0000
  H   H94       1.0  0.29165  0.27033  0.68030  1.0000
  H   H95       1.0  0.72129  0.00890  0.92630  1.0000
  H   H96       1.0  0.98125  0.67887  0.52086  1.0000
  H   H97       1.0  0.41716  0.28966  0.74796  1.0000
  H   H98       1.0  0.70206  0.11722  0.50793  1.0000
  H   H99       1.0  0.88006  0.55726  0.80167  1.0000
  H   H100      1.0  0.33338  0.27353  0.46724  1.0000
  H   H101      1.0  0.72100  0.05174  0.53075  1.0000
  H   H102      1.0  0.92117  0.62812  0.51520  1.0000
  C   C1        1.0  0.31009  0.13572  0.55253  1.0000
  C   C2        1.0  0.85745  0.17141  0.51909  1.0000
  C   C3        1.0  0.82328  0.67374  0.47124  1.0000
  C   C4        1.0  0.34155  0.14977  0.56726  1.0000
  C   C5        1.0  0.84370  0.18965  0.49706  1.0000
  C   C6        1.0  0.80607  0.64386  0.44289  1.0000
  C   C7        1.0  0.36137  0.17931  0.60742  1.0000
  C   C8        1.0  0.81386  0.17712  0.51970  1.0000
  C   C9        1.0  0.81960  0.62481  0.47415  1.0000
  C   C10       1.0  0.36264  0.20954  0.14980  1.0000
  C   C11       1.0  0.80121  0.15186  0.08097  1.0000
  C   C12       1.0  0.84581  0.65852  0.05532  1.0000
  C   C13       1.0  0.33027  0.19595  0.12713  1.0000
  C   C14       1.0  0.81466  0.13269  0.10637  1.0000
  C   C15       1.0  0.86424  0.68877  0.08816  1.0000
  C   C16       1.0  0.29509  0.15001  0.57268  1.0000
  C   C17       1.0  0.84315  0.13942  0.57085  1.0000
  C   C18       1.0  0.85543  0.68726  0.53652  1.0000
  C   C19       1.0  0.34821  0.24034  0.18441  1.0000
  C   C20       1.0  0.76943  0.10313  0.15804  1.0000
  C   C21       1.0  0.89471  0.66831  0.17278  1.0000
  C   C22       1.0  0.18076  0.10602  0.01259  1.0000
  C   C23       1.0  0.91032  0.08616  0.07583  1.0000
  C   C24       1.0  0.92169  0.83612  0.06706  1.0000
  C   C25       1.0  0.48575  0.23327  0.54160  1.0000
  C   C26       1.0  0.74943  0.24157  0.48024  1.0000
  C   C27       1.0  0.74604  0.49856  0.41365  1.0000
  C   C28       1.0  0.03896  0.02481  0.08094  1.0000
  C   C29       1.0  0.99439  0.02901  0.08244  1.0000
  C   C30       1.0  0.98919  0.97968  0.08387  1.0000
  C   C31       1.0  0.62446  0.31138  0.42009  1.0000
  C   C32       1.0  0.66736  0.30424  0.42105  1.0000
  C   C33       1.0  0.67473  0.35519  0.40419  1.0000
  C   C34       1.0  0.02548  0.04209  0.08142  1.0000
  C   C35       1.0  0.97658  0.99769  0.08279  1.0000
  C   C36       1.0  0.02026  0.99343  0.08293  1.0000
  C   C37       1.0  0.63670  0.29252  0.42659  1.0000
  C   C38       1.0  0.68603  0.33570  0.41063  1.0000
  C   C39       1.0  0.64395  0.34283  0.40780  1.0000
  C   C40       1.0  0.36808  0.29595  0.11153  1.0000
  C   C41       1.0  0.71358  0.07139  0.07509  1.0000
  C   C42       1.0  0.92396  0.64864  0.12029  1.0000
  C   C43       1.0  0.40308  0.30701  0.14385  1.0000
  C   C44       1.0  0.70321  0.09692  0.98490  1.0000
  C   C45       1.0  0.91141  0.61331  0.16924  1.0000
  C   C46       1.0  0.36613  0.32188  0.14130  1.0000
  C   C47       1.0  0.68638  0.04486  0.14580  1.0000
  C   C48       1.0  0.95762  0.65900  0.14487  1.0000
  C   C49       1.0  0.39372  0.34855  0.13064  1.0000
  C   C50       1.0  0.65985  0.04867  0.04920  1.0000
  C   C51       1.0  0.96607  0.63567  0.24769  1.0000
  C   C52       1.0  0.41673  0.34221  0.10243  1.0000
  C   C53       1.0  0.66807  0.07875  0.91739  1.0000
  C   C54       1.0  0.93860  0.60695  0.29940  1.0000
  C   C55       1.0  0.39672  0.37599  0.14387  1.0000
  C   C56       1.0  0.63133  0.02636  0.08320  1.0000
  C   C57       1.0  0.99656  0.64112  0.28984  1.0000
  C   C58       1.0  0.37180  0.37640  0.16874  1.0000
  C   C59       1.0  0.62967  0.00034  0.21713  1.0000
  C   C60       1.0  0.01840  0.67011  0.22840  1.0000
  C   C61       1.0  0.34436  0.34969  0.18080  1.0000
  C   C62       1.0  0.65622  0.99684  0.31585  1.0000
  C   C63       1.0  0.00989  0.69330  0.12503  1.0000
  C   C64       1.0  0.34132  0.32226  0.16597  1.0000
  C   C65       1.0  0.68474  0.01900  0.27879  1.0000
  C   C66       1.0  0.97929  0.68791  0.08245  1.0000
  C   C67       1.0  0.32662  0.15202  0.07141  1.0000
  C   C68       1.0  0.86010  0.17806  0.04660  1.0000
  C   C69       1.0  0.81842  0.69497  0.98307  1.0000
  C   C70       1.0  0.35819  0.16611  0.08745  1.0000
  C   C71       1.0  0.84645  0.19631  0.02414  1.0000
  C   C72       1.0  0.80068  0.66497  0.95473  1.0000
  C   C73       1.0  0.37776  0.19587  0.12417  1.0000
  C   C74       1.0  0.81611  0.18376  0.03894  1.0000
  C   C75       1.0  0.81388  0.64556  0.98714  1.0000
  C   C76       1.0  0.34646  0.19339  0.63125  1.0000
  C   C77       1.0  0.79981  0.14532  0.57384  1.0000
  C   C78       1.0  0.85163  0.63822  0.53936  1.0000
  C   C79       1.0  0.31407  0.17960  0.61134  1.0000
  C   C80       1.0  0.81361  0.12637  0.60227  1.0000
  C   C81       1.0  0.86954  0.66841  0.57432  1.0000
  C   C82       1.0  0.31138  0.16642  0.08721  1.0000
  C   C83       1.0  0.84515  0.14592  0.08899  1.0000
  C   C84       1.0  0.85064  0.70818  0.04774  1.0000
  C   C85       1.0  0.33221  0.22302  0.68244  1.0000
  C   C86       1.0  0.77067  0.09729  0.68325  1.0000
  C   C87       1.0  0.90075  0.64864  0.66100  1.0000
  C   C88       1.0  0.16514  0.08682  0.52463  1.0000
  C   C89       1.0  0.90185  0.07149  0.57732  1.0000
  C   C90       1.0  0.91643  0.81549  0.54327  1.0000
  C   C91       1.0  0.50029  0.25475  0.01292  1.0000
  C   C92       1.0  0.75844  0.25588  0.98060  1.0000
  C   C93       1.0  0.74988  0.51886  0.93607  1.0000
  C   C94       1.0  0.02315  0.00230  0.57355  1.0000
  C   C95       1.0  0.97884  0.00601  0.58413  1.0000
  C   C96       1.0  0.97300  0.95746  0.56450  1.0000
  C   C97       1.0  0.64049  0.33343  0.91484  1.0000
  C   C98       1.0  0.68324  0.32699  0.90549  1.0000
  C   C99       1.0  0.69100  0.37735  0.90571  1.0000
  C   C100      1.0  0.00996  0.01897  0.58495  1.0000
  C   C101      1.0  0.96039  0.97512  0.56995  1.0000
  C   C102      1.0  0.00422  0.97130  0.56609  1.0000
  C   C103      1.0  0.65251  0.31520  0.90977  1.0000
  C   C104      1.0  0.70249  0.35821  0.90769  1.0000
  C   C105      1.0  0.66010  0.36471  0.90825  1.0000
  C   C106      1.0  0.34538  0.27728  0.60766  1.0000
  C   C107      1.0  0.71701  0.05855  0.63109  1.0000
  C   C108      1.0  0.93148  0.62516  0.66184  1.0000
  C   C109      1.0  0.38043  0.29540  0.61080  1.0000
  C   C110      1.0  0.69998  0.07835  0.51509  1.0000
  C   C111      1.0  0.91954  0.59075  0.75074  1.0000
  C   C112      1.0  0.33799  0.29913  0.64215  1.0000
  C   C113      1.0  0.69392  0.03085  0.72806  1.0000
  C   C114      1.0  0.96561  0.63551  0.70574  1.0000
  C   C115      1.0  0.36267  0.32845  0.63592  1.0000
  C   C116      1.0  0.66464  0.02954  0.65410  1.0000
  C   C117      1.0  0.97399  0.61472  0.84876  1.0000
  C   C118      1.0  0.38941  0.32912  0.60150  1.0000
  C   C119      1.0  0.66547  0.05599  0.49932  1.0000
  C   C120      1.0  0.94607  0.58818  0.91128  1.0000
  C   C121      1.0  0.36027  0.35213  0.66233  1.0000
  C   C122      1.0  0.63982  0.00561  0.72434  1.0000
  C   C123      1.0  0.00480  0.62069  0.91576  1.0000
  C   C124      1.0  0.33307  0.34621  0.69515  1.0000
  C   C125      1.0  0.64448  0.98284  0.86718  1.0000
  C   C126      1.0  0.02705  0.64785  0.84020  1.0000
  C   C127      1.0  0.30852  0.31688  0.70211  1.0000
  C   C128      1.0  0.67366  0.98402  0.93926  1.0000
  C   C129      1.0  0.01863  0.66876  0.69941  1.0000
  C   C130      1.0  0.31081  0.29313  0.67466  1.0000
  C   C131      1.0  0.69863  0.00812  0.86949  1.0000
  C   C132      1.0  0.98776  0.66265  0.63077  1.0000
  N   N1        1.0  0.37343  0.23796  0.18822  1.0000
  N   N2        1.0  0.77237  0.13224  0.11498  1.0000
  N   N3        1.0  0.86615  0.64613  0.11040  1.0000
  N   N4        1.0  0.32199  0.21610  0.14615  1.0000
  N   N5        1.0  0.79384  0.10220  0.15183  1.0000
  N   N6        1.0  0.89487  0.69427  0.16061  1.0000
  N   N7        1.0  0.16590  0.07761  0.08047  1.0000
  N   N8        1.0  0.93986  0.09831  0.10310  1.0000
  N   N9        1.0  0.91105  0.85311  0.07382  1.0000
  N   N10       1.0  0.50171  0.26224  0.49031  1.0000
  N   N11       1.0  0.71981  0.22998  0.44444  1.0000
  N   N12       1.0  0.75615  0.48160  0.40008  1.0000
  N   N13       1.0  0.35137  0.26619  0.22001  1.0000
  N   N14       1.0  0.74324  0.07846  0.21060  1.0000
  N   N15       1.0  0.91987  0.66221  0.23904  1.0000
  N   N16       1.0  0.35729  0.22140  0.67527  1.0000
  N   N17       1.0  0.77244  0.12600  0.62594  1.0000
  N   N18       1.0  0.87248  0.62629  0.59414  1.0000
  N   N19       1.0  0.30599  0.19900  0.64084  1.0000
  N   N20       1.0  0.79449  0.09628  0.66883  1.0000
  N   N21       1.0  0.90025  0.67425  0.65002  1.0000
  N   N22       1.0  0.15019  0.05766  0.57238  1.0000
  N   N23       1.0  0.93115  0.08068  0.61848  1.0000
  N   N24       1.0  0.90336  0.82993  0.55420  1.0000
  N   N25       1.0  0.51675  0.28385  0.97133  1.0000
  N   N26       1.0  0.72923  0.24738  0.92474  1.0000
  N   N27       1.0  0.76304  0.50446  0.92520  1.0000
  N   N28       1.0  0.33597  0.24781  0.73448  1.0000
  N   N29       1.0  0.74640  0.07339  0.75892  1.0000
  N   N30       1.0  0.92594  0.64292  0.74129  1.0000
  O   O1        1.0  0.41508  0.29524  0.33041  1.0000
  O   O2        1.0  0.71093  0.11510  0.11498  1.0000
  O   O3        1.0  0.88423  0.59809  0.24031  1.0000
  O   O4        1.0  0.39783  0.28347  0.77393  1.0000
  O   O5        1.0  0.70899  0.10311  0.60185  1.0000
  O   O6        1.0  0.89093  0.57904  0.79903  1.0000
  C  Sn1       1.0  0.23939  0.09559  0.57595  1.0000
  C   C133      1.0  0.25720  0.12676  0.52219  1.0000
  C  Sn2       1.0  0.24552  0.14736  0.48513  1.0000
  C  Sn3       1.0  0.21540  0.13658  0.50226  1.0000
  C   C134      1.0  0.19761  0.10543  0.55602  1.0000
  C  Sn4       1.0  0.20928  0.08482  0.59308  1.0000
  O  Te1       1.0  0.25154  0.07542  0.61231  1.0000
  O  Te2       1.0  0.26375  0.17841  0.43155  1.0000
  O  Te3       1.0  0.20326  0.15679  0.46584  1.0000
  O  Te4       1.0  0.19106  0.05378  0.64666  1.0000
  Mg  Mg1       1.0  0.23699  0.19694  0.39725  1.0000
  Mg  Mg2       1.0  0.21780  0.03523  0.68108  1.0000
  C  Sn5       1.0  0.90339  0.11771  0.69925  1.0000
  C   C135      1.0  0.88996  0.09001  0.64313  1.0000
  C  Sn6       1.0  0.85973  0.07839  0.54024  1.0000
  C  Sn7       1.0  0.84258  0.09480  0.49234  1.0000
  C   C136      1.0  0.85601  0.12249  0.54842  1.0000
  C  Sn8       1.0  0.88623  0.13413  0.65135  1.0000
  O  Te5       1.0  0.93364  0.12890  0.80200  1.0000
  O  Te6       1.0  0.84680  0.05064  0.48577  1.0000
  O  Te7       1.0  0.81230  0.08359  0.38951  1.0000
  O  Te8       1.0  0.89916  0.16186  0.70578  1.0000
  Mg  Mg3       1.0  0.80481  0.04482  0.34748  1.0000
  Mg  Mg4       1.0  0.94115  0.16770  0.84398  1.0000
  C  Sn9       1.0  0.91024  0.74375  0.56027  1.0000
  C   C137      1.0  0.88174  0.72193  0.59771  1.0000
  C  Sn10      1.0  0.86091  0.73086  0.59943  1.0000
  C  Sn11      1.0  0.86871  0.76227  0.56284  1.0000
  C   C138      1.0  0.89719  0.78407  0.52540  1.0000
  C  Sn12      1.0  0.91804  0.77516  0.52369  1.0000
  O  Te9       1.0  0.93071  0.73430  0.55927  1.0000
  O  Te10      1.0  0.83257  0.70862  0.63728  1.0000
  O  Te11      1.0  0.84821  0.77170  0.56388  1.0000
  O  Te12      1.0  0.94637  0.79738  0.48583  1.0000
  Mg  Mg5       1.0  0.81243  0.73285  0.62274  1.0000
  Mg  Mg6       1.0  0.96652  0.77318  0.50024  1.0000
  C  Sn13      1.0  0.21498  0.19941  0.01883  1.0000
  C   C139      1.0  0.23554  0.18674  0.09397  1.0000
  C  Sn14      1.0  0.22482  0.15531  0.12103  1.0000
  C  Sn15      1.0  0.19288  0.13615  0.07187  1.0000
  C   C140      1.0  0.21198  0.11697  0.99675  1.0000
  C  Sn16      1.0  0.22269  0.14840  0.96967  1.0000
  O  Te13      1.0  0.26586  0.19905  0.99298  1.0000
  O  Te14      1.0  0.24581  0.14317  0.19643  1.0000
  O  Te15      1.0  0.18166  0.10464  0.09779  1.0000
  O  Te16      1.0  0.20171  0.16054  0.89429  1.0000
  Mg  Mg7       1.0  0.21932  0.09891  0.20502  1.0000
  Mg  Mg8       1.0  0.22818  0.20480  0.88556  1.0000
  C  Sn17      1.0  0.84653  0.09139  0.09098  1.0000
  C   C141      1.0  0.85827  0.11850  0.15002  1.0000
  C  Sn18      1.0  0.88945  0.13885  0.17094  1.0000
  C  Sn19      1.0  0.90931  0.13197  0.13194  1.0000
  C   C142      1.0  0.89757  0.10489  0.07292  1.0000
  C  Sn20      1.0  0.86639  0.08452  0.05199  1.0000
  O  Te17      1.0  0.81528  0.07139  0.07102  1.0000
  O  Te18      1.0  0.90065  0.16580  0.23020  1.0000
  O  Te19      1.0  0.94058  0.15201  0.15197  1.0000
  O  Te20      1.0  0.89483  0.02574  0.99274  1.0000
  Mg  Mg9       1.0  0.94494  0.18581  0.23638  1.0000
  Mg  Mg10      1.0  0.85054  0.00572  0.98642  1.0000
  C  Sn21      1.0  0.90753  0.76167  0.08273  1.0000
  C   C143      1.0  0.87772  0.74235  0.10697  1.0000
  C  Sn22      1.0  0.85866  0.75439  0.09623  1.0000
  C  Sn23      1.0  0.86960  0.78642  0.06040  1.0000
  C   C144      1.0  0.89939  0.80572  0.03615  1.0000
  C  Sn24      1.0  0.91847  0.79369  0.04689  1.0000
  O  Te21      1.0  0.92619  0.74913  0.09403  1.0000
  O  Te22      1.0  0.82895  0.73462  0.12102  1.0000
  O  Te23      1.0  0.85091  0.79895  0.04911  1.0000
  O  Te24      1.0  0.94816  0.81345  0.02210  1.0000
  Mg  Mg11      1.0  0.81222  0.76266  0.09269  1.0000
  Mg  Mg12      1.0  0.96490  0.78544  0.05031  1.0000
  C  Sn25      1.0  0.44355  0.20368  0.04213  1.0000
  C   C145      1.0  0.46264  0.23486  0.00132  1.0000
  C  Sn26      1.0  0.45700  0.25599  0.03277  1.0000
  C  Sn27      1.0  0.43177  0.24573  0.10665  1.0000
  C   C146      1.0  0.41270  0.21456  0.14744  1.0000
  C  Sn28      1.0  0.41832  0.19342  0.11601  1.0000
  O  Te25      1.0  0.44963  0.18296  0.00958  1.0000
  O  Te26      1.0  0.51604  0.25521  0.99082  1.0000
  O  Te27      1.0  0.42571  0.26647  0.13917  1.0000
  O  Te28      1.0  0.39895  0.16237  0.15794  1.0000
  Mg  Mg13      1.0  0.45869  0.30642  0.05971  1.0000
  Mg  Mg14      1.0  0.41664  0.14298  0.08920  1.0000
  C  Sn29      1.0  0.76724  0.20072  0.87371  1.0000
  C   C147      1.0  0.79764  0.20600  0.95681  1.0000
  C  Sn30      1.0  0.77627  0.25823  0.07669  1.0000
  C  Sn31      1.0  0.76390  0.27366  0.11440  1.0000
  C   C148      1.0  0.73351  0.26837  0.03136  1.0000
  C  Sn32      1.0  0.75486  0.21615  0.91142  1.0000
  O  Te29      1.0  0.74939  0.18024  0.75433  1.0000
  O  Te30      1.0  0.80661  0.26315  0.15807  1.0000
  O  Te31      1.0  0.78178  0.29415  0.23390  1.0000
  O  Te32      1.0  0.72455  0.21123  0.83010  1.0000
  Mg  Mg15      1.0  0.82179  0.29319  0.31106  1.0000
  Mg  Mg16      1.0  0.70934  0.18118  0.67716  1.0000
  C  Sn33      1.0  0.74900  0.57301  0.93131  1.0000
  C   C149      1.0  0.75898  0.55668  0.88547  1.0000
  C  Sn34      1.0  0.78987  0.56857  0.88758  1.0000
  C  Sn35      1.0  0.81123  0.59736  0.93664  1.0000
  C   C150      1.0  0.80125  0.61367  0.98248  1.0000
  C  Sn36      1.0  0.77037  0.60180  0.98038  1.0000
  O  Te33      1.0  0.71802  0.56069  0.92829  1.0000
  O  Te34      1.0  0.79930  0.55183  0.84116  1.0000
  O  Te35      1.0  0.84223  0.60967  0.93963  1.0000
  O  Te36      1.0  0.72130  0.65037  0.02679  1.0000
  Mg  Mg17      1.0  0.84392  0.57822  0.86563  1.0000
  Mg  Mg18      1.0  0.67668  0.62399  0.00246  1.0000
  C  Sn37      1.0  0.41739  0.17563  0.67774  1.0000
  C   C151      1.0  0.40095  0.19033  0.67067  1.0000
  C  Sn38      1.0  0.41101  0.22144  0.59863  1.0000
  C  Sn39      1.0  0.43806  0.23821  0.53215  1.0000
  C   C152      1.0  0.45448  0.22351  0.53920  1.0000
  C  Sn40      1.0  0.44444  0.19240  0.61126  1.0000
  O  Te37      1.0  0.40691  0.14451  0.75032  1.0000
  O  Te38      1.0  0.39420  0.23563  0.59306  1.0000
  O  Te39      1.0  0.44854  0.26935  0.45953  1.0000
  O  Te40      1.0  0.46123  0.17821  0.61681  1.0000
  Mg  Mg19      1.0  0.41774  0.27845  0.48143  1.0000
  Mg  Mg20      1.0  0.43770  0.13539  0.72832  1.0000
  C  Sn41      1.0  0.80466  0.24041  0.51945  1.0000
  C   C153      1.0  0.77362  0.23296  0.44230  1.0000
  C  Sn42      1.0  0.75296  0.20409  0.40043  1.0000
  C  Sn43      1.0  0.76353  0.18220  0.43653  1.0000
  C   C154      1.0  0.79455  0.18965  0.51365  1.0000
  C  Sn44      1.0  0.81523  0.21852  0.55554  1.0000
  O  Te41      1.0  0.82490  0.26942  0.56020  1.0000
  O  Te42      1.0  0.72204  0.19718  0.32332  1.0000
  O  Te43      1.0  0.74326  0.15318  0.39569  1.0000
  O  Te44      1.0  0.84613  0.22543  0.63263  1.0000
  Mg  Mg21      1.0  0.70334  0.15459  0.29207  1.0000
  Mg  Mg22      1.0  0.86485  0.26801  0.66402  1.0000
  C  Sn45      1.0  0.80622  0.57360  0.34123  1.0000
  C   C155      1.0  0.79900  0.59184  0.39083  1.0000
  C  Sn46      1.0  0.77486  0.57860  0.47591  1.0000
  C  Sn47      1.0  0.75758  0.54646  0.51228  1.0000
  C   C156      1.0  0.76481  0.52824  0.46272  1.0000
  C  Sn48      1.0  0.78895  0.54145  0.37760  1.0000
  O  Te45      1.0  0.83046  0.58732  0.25632  1.0000
  O  Te46      1.0  0.76806  0.59731  0.52417  1.0000
  O  Te47      1.0  0.73334  0.53274  0.59726  1.0000
  O  Te48      1.0  0.79575  0.52276  0.32938  1.0000
  Mg  Mg23      1.0  0.73292  0.56787  0.63708  1.0000
  Mg  Mg24      1.0  0.83089  0.55218  0.21655  1.0000
  C  Sn49      1.0  0.14621  0.00268  0.99765  1.0000
  C   C157      1.0  0.12984  0.06297  0.03590  1.0000
  C  Sn50      1.0  0.12503  0.07967  0.11497  1.0000
  C  Sn51      1.0  0.09637  0.06767  0.15679  1.0000
  C   C158      1.0  0.07313  0.03924  0.11857  1.0000
  C  Sn52      1.0  0.07792  0.02253  0.03947  1.0000
  O  Te49      1.0  0.15153  0.98638  0.91859  1.0000
  O  Te50      1.0  0.14863  0.10806  0.15188  1.0000
  O  Te51      1.0  0.09107  0.08400  0.23591  1.0000
  O  Te52      1.0  0.57017  0.99415  0.00259  1.0000
  Mg  Mg25      1.0  0.13032  0.12162  0.26042  1.0000
  Mg  Mg26      1.0  0.62810  0.94872  0.89414  1.0000
  C  Sn53      1.0  0.94407  0.03307  0.10916  1.0000
  C   C159      1.0  0.97034  0.04390  0.04819  1.0000
  C  Sn54      1.0  0.99038  0.07501  0.02179  1.0000
  C  Sn55      1.0  0.98405  0.09571  0.05719  1.0000
  C   C160      1.0  0.95780  0.08488  0.11816  1.0000
  C  Sn56      1.0  0.93774  0.05378  0.14456  1.0000
  O  Te53      1.0  0.92435  0.00189  0.13462  1.0000
  O  Te54      1.0  0.05614  0.05345  0.96068  1.0000
  O  Te55      1.0  0.00380  0.12692  0.03168  1.0000
  O  Te56      1.0  0.91164  0.04349  0.20566  1.0000
  Mg  Mg27      1.0  0.07605  0.09803  0.94668  1.0000
  Mg  Mg28      1.0  0.89172  0.99892  0.21980  1.0000
  C  Sn57      1.0  0.96341  0.89945  0.24173  1.0000
  C   C161      1.0  0.93365  0.88565  0.13681  1.0000
  C  Sn58      1.0  0.96158  0.87111  0.98584  1.0000
  C  Sn59      1.0  0.98001  0.90288  0.93867  1.0000
  C   C162      1.0  0.97010  0.94850  0.04354  1.0000
  C  Sn60      1.0  0.98183  0.93121  0.19457  1.0000
  O  Te57      1.0  0.97465  0.88170  0.39208  1.0000
  O  Te58      1.0  0.93176  0.85681  0.88305  1.0000
  O  Te59      1.0  0.96874  0.92062  0.78820  1.0000
  O  Te60      1.0  0.01164  0.94550  0.29730  1.0000
  Mg  Mg29      1.0  0.92674  0.89070  0.69056  1.0000
  Mg  Mg30      1.0  0.01668  0.91163  0.48976  1.0000
  C  Sn61      1.0  0.09041  0.01642  0.46359  1.0000
  C   C163      1.0  0.11389  0.04340  0.52164  1.0000
  C  Sn62      1.0  0.10928  0.05690  0.62399  1.0000
  C  Sn63      1.0  0.08060  0.04315  0.66938  1.0000
  C   C164      1.0  0.05714  0.01618  0.61137  1.0000
  C  Sn64      1.0  0.06174  0.00266  0.50897  1.0000
  O  Te61      1.0  0.09554  0.00332  0.36140  1.0000
  O  Te62      1.0  0.13309  0.08388  0.68042  1.0000
  O  Te63      1.0  0.07549  0.05627  0.77164  1.0000
  O  Te64      1.0  0.55378  0.97570  0.45258  1.0000
  Mg  Mg31      1.0  0.11499  0.09302  0.81698  1.0000
  Mg  Mg32      1.0  0.57186  0.96653  0.31610  1.0000
  C  Sn65      1.0  0.92995  0.01321  0.61057  1.0000
  C   C165      1.0  0.95659  0.02276  0.55710  1.0000
  C  Sn66      1.0  0.97886  0.05312  0.54698  1.0000
  C  Sn67      1.0  0.97443  0.07438  0.59134  1.0000
  C   C166      1.0  0.94781  0.06482  0.64481  1.0000
  C  Sn68      1.0  0.92552  0.03446  0.65494  1.0000
  O  Te65      1.0  0.90799  0.98274  0.61974  1.0000
  O  Te66      1.0  0.00530  0.06213  0.49311  1.0000
  O  Te67      1.0  0.99642  0.10486  0.58213  1.0000
  O  Te68      1.0  0.89910  0.02545  0.70880  1.0000
  Mg  Mg33      1.0  0.02859  0.10611  0.50160  1.0000
  Mg  Mg34      1.0  0.87581  0.98147  0.70045  1.0000
  C  Sn69      1.0  0.91383  0.88922  0.39881  1.0000
  C   C167      1.0  0.92197  0.86610  0.50863  1.0000
  C  Sn70      1.0  0.94610  0.87167  0.66351  1.0000
  C  Sn71      1.0  0.96243  0.90096  0.70967  1.0000
  C   C168      1.0  0.95428  0.92406  0.59991  1.0000
  C  Sn72      1.0  0.93015  0.91851  0.44497  1.0000
  O  Te69      1.0  0.88962  0.88314  0.24461  1.0000
  O  Te70      1.0  0.95383  0.84820  0.77116  1.0000
  O  Te71      1.0  0.98665  0.90702  0.86401  1.0000
  O  Te72      1.0  0.92242  0.94196  0.33738  1.0000
  Mg  Mg35      1.0  0.98853  0.86765  0.96765  1.0000
  Mg  Mg36      1.0  0.88772  0.92253  0.14092  1.0000
  C  Sn73      1.0  0.57831  0.31154  0.52682  1.0000
  C   C169      1.0  0.59174  0.29821  0.48340  1.0000
  C  Sn74      1.0  0.57342  0.27237  0.40391  1.0000
  C  Sn75      1.0  0.54100  0.25960  0.36694  1.0000
  C   C170      1.0  0.52759  0.27293  0.41032  1.0000
  C  Sn76      1.0  0.54589  0.29876  0.48984  1.0000
  O  Te73      1.0  0.59707  0.33736  0.60620  1.0000
  O  Te74      1.0  0.58737  0.25945  0.36178  1.0000
  O  Te75      1.0  0.52224  0.23376  0.28749  1.0000
  O  Te76      1.0  0.53196  0.31169  0.53194  1.0000
  Mg  Mg37      1.0  0.55204  0.22441  0.25494  1.0000
  Mg  Mg38      1.0  0.56726  0.34673  0.63869  1.0000
  C  Sn77      1.0  0.72381  0.28729  0.40183  1.0000
  C   C171      1.0  0.71466  0.25624  0.47285  1.0000
  C  Sn78      1.0  0.68576  0.23749  0.51156  1.0000
  C  Sn79      1.0  0.66557  0.25004  0.47850  1.0000
  C   C172      1.0  0.67472  0.28107  0.40749  1.0000
  C  Sn80      1.0  0.70362  0.29984  0.36876  1.0000
  O  Te77      1.0  0.75280  0.30561  0.36413  1.0000
  O  Te78      1.0  0.67713  0.20652  0.58256  1.0000
  O  Te79      1.0  0.63655  0.23169  0.51627  1.0000
  O  Te80      1.0  0.71225  0.33079  0.29778  1.0000
  Mg  Mg39      1.0  0.63527  0.19087  0.61159  1.0000
  Mg  Mg40      1.0  0.75409  0.34646  0.26862  1.0000
  C  Sn81      1.0  0.72862  0.40382  0.55160  1.0000
  C   C173      1.0  0.69854  0.39037  0.44957  1.0000
  C  Sn82      1.0  0.68709  0.40777  0.29775  1.0000
  C  Sn83      1.0  0.70609  0.43927  0.24676  1.0000
  C   C174      1.0  0.73615  0.45270  0.34874  1.0000
  C  Sn84      1.0  0.74763  0.43532  0.50061  1.0000
  O  Te81      1.0  0.73960  0.38599  0.70285  1.0000
  O  Te82      1.0  0.65694  0.39382  0.19791  1.0000
  O  Te83      1.0  0.69509  0.45709  0.09537  1.0000
  O  Te84      1.0  0.77776  0.44926  0.60040  1.0000
  Mg  Mg41      1.0  0.65247  0.42768  0.00273  1.0000
  Mg  Mg42      1.0  0.78226  0.41541  0.79553  1.0000
  C  Sn85      1.0  0.57736  0.29000  0.83952  1.0000
  C   C175      1.0  0.60172  0.31813  0.87573  1.0000
  C  Sn86      1.0  0.59965  0.33458  0.97142  1.0000
  C  Sn87      1.0  0.53303  0.35451  0.03229  1.0000
  C   C176      1.0  0.54834  0.29456  0.99611  1.0000
  C  Sn88      1.0  0.55039  0.27808  0.90040  1.0000
  O  Te85      1.0  0.57993  0.27394  0.74364  1.0000
  O  Te86      1.0  0.58465  0.39450  0.00593  1.0000
  O  Te87      1.0  0.53048  0.37060  0.12824  1.0000
  O  Te88      1.0  0.52576  0.25002  0.86591  1.0000
  Mg  Mg43      1.0  0.57021  0.40782  0.14187  1.0000
  Mg  Mg44      1.0  0.54018  0.23668  0.73007  1.0000
  C  Sn89      1.0  0.72009  0.31431  0.78581  1.0000
  C   C177      1.0  0.69483  0.30670  0.84719  1.0000
  C  Sn90      1.0  0.68184  0.27872  0.96084  1.0000
  C  Sn91      1.0  0.65474  0.28976  0.01437  1.0000
  C   C178      1.0  0.71963  0.26553  0.95303  1.0000
  C  Sn92      1.0  0.73263  0.29350  0.83934  1.0000
  O  Te89      1.0  0.73271  0.34240  0.67228  1.0000
  O  Te90      1.0  0.61694  0.30347  0.02040  1.0000
  O  Te91      1.0  0.64210  0.26165  0.12798  1.0000
  O  Te92      1.0  0.75788  0.30060  0.77981  1.0000
  Mg  Mg45      1.0  0.60783  0.26239  0.17343  1.0000
  Mg  Mg46      1.0  0.76701  0.34167  0.62687  1.0000
  C  Sn93      1.0  0.70495  0.43961  0.74360  1.0000
  C   C179      1.0  0.71287  0.41609  0.84686  1.0000
  C  Sn94      1.0  0.69718  0.45251  0.00298  1.0000
  C  Sn95      1.0  0.71353  0.48118  0.05710  1.0000
  C   C180      1.0  0.74525  0.47284  0.95389  1.0000
  C  Sn96      1.0  0.72131  0.46829  0.79772  1.0000
  O  Te93      1.0  0.68094  0.43453  0.58802  1.0000
  O  Te94      1.0  0.70468  0.42866  0.10398  1.0000
  O  Te95      1.0  0.73756  0.48625  0.21281  1.0000
  O  Te96      1.0  0.71380  0.49212  0.69677  1.0000
  Mg  Mg47      1.0  0.73918  0.44670  0.30544  1.0000
  Mg  Mg48      1.0  0.67930  0.47409  0.49535  1.0000
