data_image0
_chemical_formula_structural       H126C114N30O6SnCSn2CSnTe4Mg2SnCSn2CSnTe4Mg2SnCSn2CSnTe4Mg2SnCSn2CSnTe4Mg2SnCSn2CSnTe4Mg2SnCSn2CSnTe4Mg2SnCSn2CSnTe4Mg2SnCSn2CSnTe4Mg2SnCSn2CSnTe4Mg2SnCSn2CSnTe4Mg2SnCSn2CSnTe4Mg2SnCSn2CSnTe4Mg2SnCSn2CSnTe4Mg2SnCSn2CSnTe4Mg2SnCSn2CSnTe4Mg2SnCSn2CSnTe4Mg2SnCSn2CSnTe4Mg2SnCSn2CSnTe4Mg2SnCSn2CSnTe4Mg2SnCSn2CSnTe4Mg2SnCSn2CSnTe4Mg2SnCSn2CSnTe4Mg2SnCSn2CSnTe4Mg2SnCSn2CSnTe4Mg2
_chemical_formula_sum              "H126 C162 N30 O6 Sn96 Te96 Mg48"
_cell_length_a       50.9278
_cell_length_b       50.9496
_cell_length_c       10.1547
_cell_angle_alpha    94.7145
_cell_angle_beta     84.7931
_cell_angle_gamma    120.938

_symmetry_space_group_name_H-M    'P1'
_space_group_IT_number       1

loop_
  _space_group_symop_operation_xyz
  'x, y, z'

loop_
  _atom_site_type_symbol
  _atom_site_label
  _atom_site_symmetry_multiplicity
  _atom_site_fract_x
  _atom_site_fract_y
  _atom_site_fract_z
  _atom_site_occupancy
  H   H1        1.0  0.30787  0.12729  0.46301  1.0000
  H   H2        1.0  0.88245  0.18670  0.54221  1.0000
  H   H3        1.0  0.82874  0.68523  0.40009  1.0000
  H   H4        1.0  0.35369  0.13436  0.08349  1.0000
  H   H5        1.0  0.85610  0.21394  0.01446  1.0000
  H   H6        1.0  0.77440  0.63507  0.00460  1.0000
  H   H7        1.0  0.38272  0.24439  0.14821  1.0000
  H   H8        1.0  0.76250  0.12734  0.24382  1.0000
  H   H9        1.0  0.85684  0.61971  0.15465  1.0000
  H   H10       1.0  0.17107  0.11837  0.28819  1.0000
  H   H11       1.0  0.88235  0.05038  0.30906  1.0000
  H   H12       1.0  0.93579  0.83968  0.42909  1.0000
  H   H13       1.0  0.48573  0.22811  0.39629  1.0000
  H   H14       1.0  0.77601  0.27154  0.29010  1.0000
  H   H15       1.0  0.72203  0.50109  0.30652  1.0000
  H   H16       1.0  0.02843  0.05238  0.25976  1.0000
  H   H17       1.0  0.94306  0.96679  0.22371  1.0000
  H   H18       1.0  0.02797  0.96769  0.21943  1.0000
  H   H19       1.0  0.63293  0.27530  0.33569  1.0000
  H   H20       1.0  0.72266  0.35585  0.34055  1.0000
  H   H21       1.0  0.64311  0.36483  0.36480  1.0000
  H   H22       1.0  0.36521  0.28220  0.12422  1.0000
  H   H23       1.0  0.73105  0.06962  0.25180  1.0000
  H   H24       1.0  0.91431  0.64202  0.14679  1.0000
  H   H25       1.0  0.29686  0.25632  0.56620  1.0000
  H   H26       1.0  0.74290  0.04708  0.51214  1.0000
  H   H27       1.0  0.96160  0.71009  0.57182  1.0000
  H   H28       1.0  0.32400  0.31600  0.06304  1.0000
  H   H29       1.0  0.69093  0.00310  0.06016  1.0000
  H   H30       1.0  0.99023  0.68205  0.04937  1.0000
  H   H31       1.0  0.34054  0.30568  0.55410  1.0000
  H   H32       1.0  0.69499  0.03958  0.46780  1.0000
  H   H33       1.0  0.96266  0.66437  0.53978  1.0000
  H   H34       1.0  0.31688  0.31151  0.29595  1.0000
  H   H35       1.0  0.69531  0.97952  0.23151  1.0000
  H   H36       1.0  0.98745  0.68872  0.28473  1.0000
  H   H37       1.0  0.33146  0.28920  0.35288  1.0000
  H   H38       1.0  0.71490  0.00652  0.36324  1.0000
  H   H39       1.0  0.94979  0.67746  0.35772  1.0000
  H   H40       1.0  0.29416  0.28174  0.40410  1.0000
  H   H41       1.0  0.72291  0.97724  0.31486  1.0000
  H   H42       1.0  0.98181  0.71394  0.39483  1.0000
  H   H43       1.0  0.25814  0.24801  0.08183  1.0000
  H   H44       1.0  0.76297  0.00726  0.98838  1.0000
  H   H45       1.0  0.99212  0.74743  0.06673  1.0000
  H   H46       1.0  0.26029  0.28437  0.57504  1.0000
  H   H47       1.0  0.71023  0.97920  0.54369  1.0000
  H   H48       1.0  0.02664  0.74300  0.54184  1.0000
  H   H49       1.0  0.25232  0.25953  0.24609  1.0000
  H   H50       1.0  0.75009  0.97740  0.10004  1.0000
  H   H51       1.0  0.00594  0.75479  0.22737  1.0000
  H   H52       1.0  0.30496  0.23187  0.29467  1.0000
  H   H53       1.0  0.77305  0.04511  0.33227  1.0000
  H   H54       1.0  0.92224  0.70472  0.29915  1.0000
  H   H55       1.0  0.27700  0.21520  0.17475  1.0000
  H   H56       1.0  0.79231  0.04707  0.17615  1.0000
  H   H57       1.0  0.93893  0.73273  0.17769  1.0000
  H   H58       1.0  0.26834  0.22755  0.33384  1.0000
  H   H59       1.0  0.77957  0.01486  0.27546  1.0000
  H   H60       1.0  0.95508  0.74048  0.33464  1.0000
  H   H61       1.0  0.35911  0.32688  0.21641  1.0000
  H   H62       1.0  0.68198  0.01233  0.27923  1.0000
  H   H63       1.0  0.96262  0.64810  0.21298  1.0000
  H   H64       1.0  0.30299  0.11343  0.99535  1.0000
  H   H65       1.0  0.87855  0.18475  0.90627  1.0000
  H   H66       1.0  0.80622  0.68725  0.93140  1.0000
  H   H67       1.0  0.35779  0.15041  0.55971  1.0000
  H   H68       1.0  0.85933  0.21692  0.63263  1.0000
  H   H69       1.0  0.79878  0.63441  0.49572  1.0000
  H   H70       1.0  0.35990  0.24344  0.78751  1.0000
  H   H71       1.0  0.75130  0.13071  0.72845  1.0000
  H   H72       1.0  0.87967  0.64140  0.77919  1.0000
  H   H73       1.0  0.17765  0.11177  0.74289  1.0000
  H   H74       1.0  0.88618  0.05001  0.73332  1.0000
  H   H75       1.0  0.94680  0.83155  0.85847  1.0000
  H   H76       1.0  0.48909  0.22669  0.81526  1.0000
  H   H77       1.0  0.75887  0.25898  0.92103  1.0000
  H   H78       1.0  0.73347  0.51152  0.83112  1.0000
  H   H79       1.0  0.03399  0.05436  0.70963  1.0000
  H   H80       1.0  0.94571  0.97237  0.74174  1.0000
  H   H81       1.0  0.02701  0.96848  0.77516  1.0000
  H   H82       1.0  0.62862  0.27903  0.83879  1.0000
  H   H83       1.0  0.71883  0.35839  0.79998  1.0000
  H   H84       1.0  0.63951  0.36827  0.84169  1.0000
  H   H85       1.0  0.33779  0.27850  0.77308  1.0000
  H   H86       1.0  0.71573  0.07257  0.69464  1.0000
  H   H87       1.0  0.93850  0.66939  0.78347  1.0000
  H   H88       1.0  0.30824  0.25883  0.99765  1.0000
  H   H89       1.0  0.74863  0.04399  0.02592  1.0000
  H   H90       1.0  0.94908  0.69720  0.00400  1.0000
  H   H91       1.0  0.31036  0.31333  0.59239  1.0000
  H   H92       1.0  0.68415  0.00329  0.52727  1.0000
  H   H93       1.0  0.00173  0.69274  0.55764  1.0000
  H   H94       1.0  0.34820  0.30895  0.94741  1.0000
  H   H95       1.0  0.70105  0.04135  0.03592  1.0000
  H   H96       1.0  0.95972  0.65754  0.94626  1.0000
  H   H97       1.0  0.27955  0.30742  0.80159  1.0000
  H   H98       1.0  0.68370  0.98844  0.74658  1.0000
  H   H99       1.0  0.02714  0.72165  0.75750  1.0000
  H   H100      1.0  0.28738  0.28697  0.91209  1.0000
  H   H101      1.0  0.70372  0.02221  0.85064  1.0000
  H   H102      1.0  0.99964  0.71649  0.89097  1.0000
  H   H103      1.0  0.24932  0.27706  0.89094  1.0000
  H   H104      1.0  0.71072  0.99160  0.85303  1.0000
  H   H105      1.0  0.03073  0.75342  0.85549  1.0000
  H   H106      1.0  0.24653  0.24474  0.53917  1.0000
  H   H107      1.0  0.75034  0.00376  0.51129  1.0000
  H   H108      1.0  0.00307  0.75905  0.53181  1.0000
  H   H109      1.0  0.27499  0.28756  0.12900  1.0000
  H   H110      1.0  0.72309  0.98033  0.01443  1.0000
  H   H111      1.0  0.01222  0.73003  0.11413  1.0000
  H   H112      1.0  0.22712  0.25639  0.66193  1.0000
  H   H113      1.0  0.73645  0.97957  0.64761  1.0000
  H   H114      1.0  0.03424  0.77660  0.63662  1.0000
  H   H115      1.0  0.26558  0.22764  0.85826  1.0000
  H   H116      1.0  0.76381  0.05494  0.81827  1.0000
  H   H117      1.0  0.96520  0.74078  0.87383  1.0000
  H   H118      1.0  0.25162  0.21241  0.70041  1.0000
  H   H119      1.0  0.78156  0.04944  0.66966  1.0000
  H   H120      1.0  0.96485  0.75464  0.72070  1.0000
  H   H121      1.0  0.22984  0.22252  0.81886  1.0000
  H   H122      1.0  0.76707  0.02178  0.79398  1.0000
  H   H123      1.0  0.99732  0.77590  0.81921  1.0000
  H   H124      1.0  0.32631  0.32486  0.80443  1.0000
  H   H125      1.0  0.66911  0.01871  0.72257  1.0000
  H   H126      1.0  0.99525  0.67623  0.76843  1.0000
  C   C1        1.0  0.31683  0.14940  0.51587  1.0000
  C   C2        1.0  0.85817  0.17478  0.57260  1.0000
  C   C3        1.0  0.83962  0.67818  0.46526  1.0000
  C   C4        1.0  0.34551  0.14973  0.06725  1.0000
  C   C5        1.0  0.84414  0.18932  0.02577  1.0000
  C   C6        1.0  0.79915  0.64643  0.00967  1.0000
  C   C7        1.0  0.36480  0.18135  0.09389  1.0000
  C   C8        1.0  0.81561  0.17522  0.09844  1.0000
  C   C9        1.0  0.81176  0.63010  0.05560  1.0000
  C   C10       1.0  0.35274  0.19947  0.06781  1.0000
  C   C11       1.0  0.80151  0.14334  0.10540  1.0000
  C   C12       1.0  0.84378  0.64629  0.05485  1.0000
  C   C13       1.0  0.32332  0.18808  0.01979  1.0000
  C   C14       1.0  0.81344  0.12575  0.03874  1.0000
  C   C15       1.0  0.86306  0.67672  0.01280  1.0000
  C   C16       1.0  0.29974  0.16421  0.52054  1.0000
  C   C17       1.0  0.84108  0.14263  0.55296  1.0000
  C   C18       1.0  0.87042  0.69884  0.49302  1.0000
  C   C19       1.0  0.34116  0.23621  0.06894  1.0000
  C   C20       1.0  0.77193  0.09355  0.14717  1.0000
  C   C21       1.0  0.89296  0.66319  0.08471  1.0000
  C   C22       1.0  0.17754  0.10375  0.33377  1.0000
  C   C23       1.0  0.89784  0.07307  0.35455  1.0000
  C   C24       1.0  0.92728  0.82369  0.34238  1.0000
  C   C25       1.0  0.48403  0.23814  0.30767  1.0000
  C   C26       1.0  0.75998  0.24717  0.26615  1.0000
  C   C27       1.0  0.74466  0.50837  0.25612  1.0000
  C   C28       1.0  0.03200  0.01205  0.23642  1.0000
  C   C29       1.0  0.98370  0.01174  0.24094  1.0000
  C   C30       1.0  0.98363  0.96350  0.21793  1.0000
  C   C31       1.0  0.63368  0.31817  0.35516  1.0000
  C   C32       1.0  0.67925  0.31317  0.34243  1.0000
  C   C33       1.0  0.68496  0.36391  0.35126  1.0000
  C   C34       1.0  0.01587  0.02763  0.24335  1.0000
  C   C35       1.0  0.96790  0.97956  0.22788  1.0000
  C   C36       1.0  0.01572  0.98003  0.22221  1.0000
  C   C37       1.0  0.64728  0.30004  0.34755  1.0000
  C   C38       1.0  0.69784  0.34521  0.34409  1.0000
  C   C39       1.0  0.65296  0.35022  0.36028  1.0000
  C   C40       1.0  0.32116  0.27225  0.08388  1.0000
  C   C41       1.0  0.73631  0.03817  0.12345  1.0000
  C   C42       1.0  0.94917  0.68550  0.09024  1.0000
  C   C43       1.0  0.33918  0.30643  0.05058  1.0000
  C   C44       1.0  0.70232  0.02650  0.10417  1.0000
  C   C45       1.0  0.96521  0.66710  0.04734  1.0000
  C   C46       1.0  0.29735  0.26486  0.20471  1.0000
  C   C47       1.0  0.74296  0.01441  0.17858  1.0000
  C   C48       1.0  0.96490  0.71027  0.20264  1.0000
  C   C49       1.0  0.31108  0.28839  0.31996  1.0000
  C   C50       1.0  0.71744  0.99338  0.27748  1.0000
  C   C51       1.0  0.97118  0.69648  0.31569  1.0000
  C   C52       1.0  0.26926  0.26514  0.16211  1.0000
  C   C53       1.0  0.74488  0.99379  0.06307  1.0000
  C   C54       1.0  0.99552  0.73696  0.14880  1.0000
  C   C55       1.0  0.28628  0.23295  0.25428  1.0000
  C   C56       1.0  0.77381  0.03138  0.24460  1.0000
  C   C57       1.0  0.94410  0.72278  0.25620  1.0000
  C   C58       1.0  0.31663  0.13793  0.01759  1.0000
  C   C59       1.0  0.85686  0.17265  0.96369  1.0000
  C   C60       1.0  0.81755  0.67636  0.96792  1.0000
  C   C61       1.0  0.34512  0.16239  0.57205  1.0000
  C   C62       1.0  0.84512  0.19211  0.62441  1.0000
  C   C63       1.0  0.82240  0.64959  0.52190  1.0000
  C   C64       1.0  0.35862  0.19120  0.64066  1.0000
  C   C65       1.0  0.81362  0.17839  0.66083  1.0000
  C   C66       1.0  0.83472  0.63926  0.61021  1.0000
  C   C67       1.0  0.34138  0.20568  0.64679  1.0000
  C   C68       1.0  0.79691  0.14650  0.64428  1.0000
  C   C69       1.0  0.86571  0.65941  0.63384  1.0000
  C   C70       1.0  0.31327  0.19352  0.58495  1.0000
  C   C71       1.0  0.80946  0.12850  0.59012  1.0000
  C   C72       1.0  0.88361  0.68842  0.57633  1.0000
  C   C73       1.0  0.30437  0.15629  0.99283  1.0000
  C   C74       1.0  0.84205  0.14049  0.96641  1.0000
  C   C75       1.0  0.84997  0.69300  0.96929  1.0000
  C   C76       1.0  0.32153  0.23599  0.68536  1.0000
  C   C77       1.0  0.76186  0.09662  0.64470  1.0000
  C   C78       1.0  0.91433  0.68348  0.69190  1.0000
  C   C79       1.0  0.18251  0.09822  0.80514  1.0000
  C   C80       1.0  0.90144  0.07471  0.75428  1.0000
  C   C81       1.0  0.92180  0.82176  0.86128  1.0000
  C   C82       1.0  0.48242  0.24342  0.79683  1.0000
  C   C83       1.0  0.75136  0.24428  0.83027  1.0000
  C   C84       1.0  0.75665  0.51701  0.79365  1.0000
  C   C85       1.0  0.03477  0.01324  0.74013  1.0000
  C   C86       1.0  0.98820  0.01548  0.72636  1.0000
  C   C87       1.0  0.98432  0.96639  0.75591  1.0000
  C   C88       1.0  0.63046  0.32213  0.83573  1.0000
  C   C89       1.0  0.67557  0.31650  0.82238  1.0000
  C   C90       1.0  0.68190  0.36773  0.82664  1.0000
  C   C91       1.0  0.02027  0.02979  0.72230  1.0000
  C   C92       1.0  0.97055  0.98374  0.74223  1.0000
  C   C93       1.0  0.01640  0.98148  0.75534  1.0000
  C   C94       1.0  0.64359  0.30365  0.83157  1.0000
  C   C95       1.0  0.69422  0.34846  0.81711  1.0000
  C   C96       1.0  0.64983  0.35407  0.83646  1.0000
  C   C97       1.0  0.30141  0.26968  0.66071  1.0000
  C   C98       1.0  0.72707  0.04142  0.60053  1.0000
  C   C99       1.0  0.96891  0.70427  0.65770  1.0000
  C   C100      1.0  0.32304  0.30372  0.63041  1.0000
  C   C101      1.0  0.69423  0.02777  0.55489  1.0000
  C   C102      1.0  0.97894  0.68117  0.60973  1.0000
  C   C103      1.0  0.26931  0.26158  0.72613  1.0000
  C   C104      1.0  0.73176  0.01954  0.68137  1.0000
  C   C105      1.0  0.99453  0.73542  0.71573  1.0000
  C   C106      1.0  0.27178  0.28471  0.83871  1.0000
  C   C107      1.0  0.70586  0.00468  0.78874  1.0000
  C   C108      1.0  0.01395  0.73130  0.81027  1.0000
  C   C109      1.0  0.24988  0.26191  0.61906  1.0000
  C   C110      1.0  0.73207  0.99410  0.58997  1.0000
  C   C111      1.0  0.01575  0.75443  0.59949  1.0000
  C   C112      1.0  0.25311  0.22913  0.77929  1.0000
  C   C113      1.0  0.76289  0.03754  0.74462  1.0000
  C   C114      1.0  0.97966  0.75277  0.78694  1.0000
  N   N1        1.0  0.36421  0.23070  0.09424  1.0000
  N   N2        1.0  0.77466  0.12203  0.17345  1.0000
  N   N3        1.0  0.86361  0.63796  0.09845  1.0000
  N   N4        1.0  0.31702  0.21175  0.01903  1.0000
  N   N5        1.0  0.79429  0.09484  0.06537  1.0000
  N   N6        1.0  0.89364  0.68636  0.03073  1.0000
  N   N7        1.0  0.15823  0.07530  0.35530  1.0000
  N   N8        1.0  0.92674  0.08312  0.36082  1.0000
  N   N9        1.0  0.92960  0.83378  0.22661  1.0000
  N   N10       1.0  0.50712  0.26163  0.25270  1.0000
  N   N11       1.0  0.73072  0.23609  0.26865  1.0000
  N   N12       1.0  0.75566  0.49040  0.23654  1.0000
  N   N13       1.0  0.34446  0.26434  0.09890  1.0000
  N   N14       1.0  0.74805  0.06737  0.20133  1.0000
  N   N15       1.0  0.91734  0.66262  0.12569  1.0000
  N   N16       1.0  0.34643  0.23327  0.70952  1.0000
  N   N17       1.0  0.76622  0.12547  0.67774  1.0000
  N   N18       1.0  0.88601  0.65684  0.70834  1.0000
  N   N19       1.0  0.30184  0.21327  0.60879  1.0000
  N   N20       1.0  0.78688  0.09754  0.58947  1.0000
  N   N21       1.0  0.91372  0.70266  0.61369  1.0000
  N   N22       1.0  0.16203  0.07041  0.83346  1.0000
  N   N23       1.0  0.93090  0.08709  0.74619  1.0000
  N   N24       1.0  0.90995  0.83846  0.84765  1.0000
  N   N25       1.0  0.50181  0.27256  0.80347  1.0000
  N   N26       1.0  0.73018  0.24209  0.76106  1.0000
  N   N27       1.0  0.76461  0.49655  0.77982  1.0000
  N   N28       1.0  0.31864  0.26037  0.73513  1.0000
  N   N29       1.0  0.73449  0.07044  0.67224  1.0000
  N   N30       1.0  0.94062  0.68818  0.74390  1.0000
  O   O1        1.0  0.36600  0.32447  0.12623  1.0000
  O   O2        1.0  0.68563  0.02859  0.22325  1.0000
  O   O3        1.0  0.95467  0.64069  0.12576  1.0000
  O   O4        1.0  0.34035  0.32229  0.74083  1.0000
  O   O5        1.0  0.67429  0.03251  0.65140  1.0000
  O   O6        1.0  0.97808  0.66305  0.71401  1.0000
  C  Sn1       1.0  0.24864  0.16555  0.43499  1.0000
  C   C115      1.0  0.26301  0.15257  0.49249  1.0000
  C  Sn2       1.0  0.25120  0.12099  0.48088  1.0000
  C  Sn3       1.0  0.22448  0.10199  0.41026  1.0000
  C   C116      1.0  0.21013  0.11498  0.35279  1.0000
  C  Sn4       1.0  0.22192  0.14656  0.36437  1.0000
  O  Te1       1.0  0.26085  0.19718  0.44785  1.0000
  O  Te2       1.0  0.26596  0.10853  0.53925  1.0000
  O  Te3       1.0  0.21227  0.07034  0.39745  1.0000
  O  Te4       1.0  0.20718  0.15901  0.30603  1.0000
  Mg  Mg1       1.0  0.24057  0.06417  0.49435  1.0000
  Mg  Mg2       1.0  0.23255  0.20337  0.35081  1.0000
  C  Sn5       1.0  0.89585  0.11850  0.52877  1.0000
  C   C117      1.0  0.88369  0.09186  0.44734  1.0000
  C  Sn6       1.0  0.85741  0.08254  0.37955  1.0000
  C  Sn7       1.0  0.84298  0.10022  0.39337  1.0000
  C   C118      1.0  0.85514  0.12684  0.47473  1.0000
  C  Sn8       1.0  0.88143  0.13618  0.54258  1.0000
  O  Te5       1.0  0.92215  0.12738  0.59559  1.0000
  O  Te6       1.0  0.84567  0.05583  0.29875  1.0000
  O  Te7       1.0  0.81666  0.09131  0.32645  1.0000
  O  Te8       1.0  0.89316  0.16288  0.62332  1.0000
  Mg  Mg3       1.0  0.80938  0.05319  0.22799  1.0000
  Mg  Mg4       1.0  0.92946  0.16555  0.69407  1.0000
  C  Sn9       1.0  0.92228  0.77942  0.50378  1.0000
  C   C119      1.0  0.92113  0.79003  0.38305  1.0000
  C  Sn10      1.0  0.90018  0.77012  0.29111  1.0000
  C  Sn11      1.0  0.87993  0.73896  0.32048  1.0000
  C   C120      1.0  0.88108  0.72836  0.44115  1.0000
  C  Sn12      1.0  0.90203  0.74825  0.53314  1.0000
  O  Te9       1.0  0.94341  0.79972  0.59422  1.0000
  O  Te10      1.0  0.89947  0.78126  0.17107  1.0000
  O  Te11      1.0  0.85879  0.71865  0.22991  1.0000
  O  Te12      1.0  0.90274  0.73713  0.65314  1.0000
  Mg  Mg5       1.0  0.86661  0.74470  0.07994  1.0000
  Mg  Mg6       1.0  0.93558  0.77368  0.74436  1.0000
  C  Sn13      1.0  0.42373  0.18762  0.28441  1.0000
  C   C121      1.0  0.45082  0.21347  0.24060  1.0000
  C  Sn14      1.0  0.45002  0.23281  0.15325  1.0000
  C  Sn15      1.0  0.42154  0.22619  0.10883  1.0000
  C   C122      1.0  0.39447  0.20036  0.15265  1.0000
  C  Sn16      1.0  0.39525  0.18099  0.23999  1.0000
  O  Te13      1.0  0.42507  0.16860  0.37174  1.0000
  O  Te14      1.0  0.47741  0.25852  0.11080  1.0000
  O  Te15      1.0  0.42022  0.24523  0.02143  1.0000
  O  Te16      1.0  0.36788  0.15531  0.28245  1.0000
  Mg  Mg7       1.0  0.45058  0.28713  0.99180  1.0000
  Mg  Mg8       1.0  0.38153  0.13632  0.40150  1.0000
  C  Sn17      1.0  0.75508  0.18903  0.21257  1.0000
  C   C123      1.0  0.76931  0.21950  0.26031  1.0000
  C  Sn18      1.0  0.80108  0.23855  0.24371  1.0000
  C  Sn19      1.0  0.81901  0.22691  0.17793  1.0000
  C   C124      1.0  0.80478  0.19646  0.13021  1.0000
  C  Sn20      1.0  0.77300  0.17740  0.14679  1.0000
  O  Te17      1.0  0.72328  0.17040  0.23027  1.0000
  O  Te18      1.0  0.81479  0.26892  0.29233  1.0000
  O  Te19      1.0  0.85083  0.24557  0.16026  1.0000
  O  Te20      1.0  0.75929  0.14704  0.09819  1.0000
  Mg  Mg9       1.0  0.85888  0.28532  0.24394  1.0000
  Mg  Mg10      1.0  0.71521  0.13063  0.14647  1.0000
  C  Sn21      1.0  0.79810  0.55762  0.13704  1.0000
  C   C125      1.0  0.77137  0.54471  0.21971  1.0000
  C  Sn22      1.0  0.75302  0.55790  0.23511  1.0000
  C  Sn23      1.0  0.76155  0.58454  0.16639  1.0000
  C   C126      1.0  0.78826  0.59743  0.08377  1.0000
  C  Sn24      1.0  0.80663  0.58426  0.06832  1.0000
  O  Te21      1.0  0.81610  0.54405  0.12312  1.0000
  O  Te22      1.0  0.72641  0.54459  0.31834  1.0000
  O  Te23      1.0  0.74352  0.59810  0.18038  1.0000
  O  Te24      1.0  0.82008  0.60718  0.98514  1.0000
  Mg  Mg11      1.0  0.70940  0.57150  0.30495  1.0000
  Mg  Mg12      1.0  0.83709  0.58028  0.99840  1.0000
  C  Sn25      1.0  0.11176  0.07055  0.20492  1.0000
  C   C127      1.0  0.12497  0.06786  0.31396  1.0000
  C  Sn26      1.0  0.10826  0.04302  0.39568  1.0000
  C  Sn27      1.0  0.07771  0.02039  0.36779  1.0000
  C   C128      1.0  0.06452  0.02309  0.25880  1.0000
  C  Sn28      1.0  0.08121  0.04793  0.17704  1.0000
  O  Te25      1.0  0.12888  0.09557  0.12456  1.0000
  O  Te26      1.0  0.12196  0.04082  0.50414  1.0000
  O  Te27      1.0  0.57492  0.99536  0.44827  1.0000
  O  Te28      1.0  0.06753  0.05012  0.06862  1.0000
  Mg  Mg13      1.0  0.60364  0.00249  0.58433  1.0000
  Mg  Mg14      1.0  0.08702  0.09807  0.98833  1.0000
  C  Sn29      1.0  0.93040  0.03174  0.39512  1.0000
  C   C129      1.0  0.93995  0.06112  0.35562  1.0000
  C  Sn30      1.0  0.96259  0.07430  0.25379  1.0000
  C  Sn31      1.0  0.97595  0.05776  0.19003  1.0000
  C   C130      1.0  0.96639  0.02840  0.22952  1.0000
  C  Sn32      1.0  0.94375  0.01520  0.33137  1.0000
  O  Te29      1.0  0.90773  0.01901  0.49715  1.0000
  O  Te30      1.0  0.97177  0.10371  0.21606  1.0000
  O  Te31      1.0  0.99863  0.07052  0.08794  1.0000
  O  Te32      1.0  0.44890  0.98580  0.36908  1.0000
  Mg  Mg15      1.0  0.00345  0.11124  0.07188  1.0000
  Mg  Mg16      1.0  0.41722  0.97825  0.51319  1.0000
  C  Sn33      1.0  0.92619  0.88665  0.29648  1.0000
  C   C131      1.0  0.93303  0.86751  0.21287  1.0000
  C  Sn34      1.0  0.95988  0.87984  0.13108  1.0000
  C  Sn35      1.0  0.98034  0.91198  0.13296  1.0000
  C   C132      1.0  0.97351  0.93111  0.21654  1.0000
  C  Sn36      1.0  0.94665  0.91879  0.29835  1.0000
  O  Te33      1.0  0.89921  0.87382  0.37741  1.0000
  O  Te34      1.0  0.96622  0.86024  0.04830  1.0000
  O  Te35      1.0  0.00734  0.92481  0.05193  1.0000
  O  Te36      1.0  0.94031  0.93838  0.38111  1.0000
  Mg  Mg17      1.0  0.99274  0.89828  0.95638  1.0000
  Mg  Mg18      1.0  0.90067  0.90999  0.47312  1.0000
  C  Sn37      1.0  0.57411  0.26567  0.34476  1.0000
  C   C133      1.0  0.59734  0.29557  0.31750  1.0000
  C  Sn38      1.0  0.59006  0.31718  0.28611  1.0000
  C  Sn39      1.0  0.55891  0.30875  0.28196  1.0000
  C   C134      1.0  0.53570  0.27888  0.30923  1.0000
  C  Sn40      1.0  0.54296  0.25724  0.34060  1.0000
  O  Te37      1.0  0.58193  0.24444  0.37592  1.0000
  O  Te38      1.0  0.61368  0.34693  0.25920  1.0000
  O  Te39      1.0  0.55111  0.33001  0.25077  1.0000
  O  Te40      1.0  0.51936  0.22752  0.36753  1.0000
  Mg  Mg19      1.0  0.59144  0.36767  0.22177  1.0000
  Mg  Mg20      1.0  0.54158  0.20676  0.40504  1.0000
  C  Sn41      1.0  0.68236  0.24480  0.34485  1.0000
  C   C135      1.0  0.70903  0.25049  0.26980  1.0000
  C  Sn42      1.0  0.73035  0.28003  0.22959  1.0000
  C  Sn43      1.0  0.72492  0.30441  0.26520  1.0000
  C   C136      1.0  0.69827  0.29872  0.34021  1.0000
  C  Sn44      1.0  0.67693  0.26918  0.38045  1.0000
  O  Te41      1.0  0.66136  0.21509  0.38397  1.0000
  O  Te42      1.0  0.75684  0.28514  0.15459  1.0000
  O  Te43      1.0  0.74594  0.33413  0.22600  1.0000
  O  Te44      1.0  0.65046  0.26407  0.45542  1.0000
  Mg  Mg21      1.0  0.77860  0.32960  0.12498  1.0000
  Mg  Mg22      1.0  0.62869  0.21962  0.48515  1.0000
  C  Sn45      1.0  0.72119  0.44513  0.42805  1.0000
  C   C137      1.0  0.74199  0.45900  0.32088  1.0000
  C  Sn46      1.0  0.74253  0.44143  0.20871  1.0000
  C  Sn47      1.0  0.72184  0.40933  0.20351  1.0000
  C   C138      1.0  0.70105  0.39548  0.31061  1.0000
  C  Sn48      1.0  0.70050  0.41303  0.42284  1.0000
  O  Te45      1.0  0.72106  0.46314  0.53918  1.0000
  O  Te46      1.0  0.76354  0.45581  0.10283  1.0000
  O  Te47      1.0  0.72199  0.39133  0.09225  1.0000
  O  Te48      1.0  0.67951  0.39867  0.52867  1.0000
  Mg  Mg23      1.0  0.74171  0.43111  0.97320  1.0000
  Mg  Mg24      1.0  0.68815  0.43298  0.65831  1.0000
  C  Sn49      1.0  0.25712  0.15940  0.87316  1.0000
  C   C139      1.0  0.26838  0.14836  0.96127  1.0000
  C  Sn50      1.0  0.25252  0.11731  0.98878  1.0000
  C  Sn51      1.0  0.22483  0.09685  0.92686  1.0000
  C   C140      1.0  0.21359  0.10789  0.83879  1.0000
  C  Sn52      1.0  0.22944  0.13895  0.81124  1.0000
  O  Te49      1.0  0.27336  0.19053  0.84712  1.0000
  O  Te50      1.0  0.27736  0.09719  0.07725  1.0000
  O  Te51      1.0  0.20859  0.06570  0.95297  1.0000
  O  Te52      1.0  0.21775  0.14944  0.72281  1.0000
  Mg  Mg25      1.0  0.24695  0.05277  0.08065  1.0000
  Mg  Mg26      1.0  0.24815  0.19384  0.71929  1.0000
  C  Sn53      1.0  0.90116  0.12314  0.90395  1.0000
  C   C141      1.0  0.88807  0.09449  0.83730  1.0000
  C  Sn54      1.0  0.85875  0.08106  0.79023  1.0000
  C  Sn55      1.0  0.84218  0.09662  0.81011  1.0000
  C   C142      1.0  0.85527  0.12526  0.87670  1.0000
  C  Sn56      1.0  0.88459  0.13870  0.92384  1.0000
  O  Te53      1.0  0.93050  0.13613  0.95016  1.0000
  O  Te54      1.0  0.84614  0.05239  0.72392  1.0000
  O  Te55      1.0  0.81282  0.08361  0.76384  1.0000
  O  Te56      1.0  0.89720  0.16736  0.99008  1.0000
  Mg  Mg27      1.0  0.80545  0.04414  0.67938  1.0000
  Mg  Mg28      1.0  0.95104  0.16600  0.03460  1.0000
  C  Sn57      1.0  0.91446  0.76307  0.85275  1.0000
  C   C143      1.0  0.90437  0.78389  0.85154  1.0000
  C  Sn58      1.0  0.87524  0.77640  0.90540  1.0000
  C  Sn59      1.0  0.85578  0.74750  0.96171  1.0000
  C   C144      1.0  0.86587  0.72671  0.96292  1.0000
  C  Sn60      1.0  0.89501  0.73417  0.90907  1.0000
  O  Te57      1.0  0.94368  0.77104  0.79837  1.0000
  O  Te58      1.0  0.86565  0.79759  0.90300  1.0000
  O  Te59      1.0  0.83969  0.72992  0.01612  1.0000
  O  Te60      1.0  0.90459  0.71301  0.91147  1.0000
  Mg  Mg29      1.0  0.82387  0.77613  0.98941  1.0000
  Mg  Mg30      1.0  0.94637  0.73444  0.82515  1.0000
  C  Sn61      1.0  0.40290  0.18892  0.78719  1.0000
  C   C145      1.0  0.38962  0.20383  0.73673  1.0000
  C  Sn62      1.0  0.40804  0.23292  0.68591  1.0000
  C  Sn63      1.0  0.44041  0.24741  0.68542  1.0000
  C   C146      1.0  0.45369  0.23250  0.73584  1.0000
  C  Sn64      1.0  0.43528  0.20341  0.78671  1.0000
  O  Te61      1.0  0.38404  0.15985  0.83750  1.0000
  O  Te62      1.0  0.39422  0.24738  0.63605  1.0000
  O  Te63      1.0  0.45927  0.27650  0.63506  1.0000
  O  Te64      1.0  0.44908  0.18895  0.83652  1.0000
  Mg  Mg31      1.0  0.42965  0.28688  0.57811  1.0000
  Mg  Mg32      1.0  0.41368  0.14945  0.89441  1.0000
  C  Sn65      1.0  0.79946  0.21343  0.85628  1.0000
  C   C147      1.0  0.79438  0.19354  0.74563  1.0000
  C  Sn66      1.0  0.77664  0.19227  0.64547  1.0000
  C  Sn67      1.0  0.76371  0.21130  0.65608  1.0000
  C   C148      1.0  0.76879  0.23119  0.76666  1.0000
  C  Sn68      1.0  0.78653  0.23246  0.86689  1.0000
  O  Te65      1.0  0.81727  0.21432  0.95521  1.0000
  O  Te66      1.0  0.77188  0.17219  0.53582  1.0000
  O  Te67      1.0  0.74588  0.21040  0.55703  1.0000
  O  Te68      1.0  0.79129  0.25254  0.97647  1.0000
  Mg  Mg33      1.0  0.74595  0.17929  0.42691  1.0000
  Mg  Mg34      1.0  0.83037  0.23583  0.08540  1.0000
  C  Sn69      1.0  0.78266  0.59577  0.76278  1.0000
  C   C149      1.0  0.81286  0.60905  0.70971  1.0000
  C  Sn70      1.0  0.82541  0.59080  0.66797  1.0000
  C  Sn71      1.0  0.80741  0.55859  0.67944  1.0000
  C   C150      1.0  0.77723  0.54533  0.73246  1.0000
  C  Sn72      1.0  0.76465  0.56356  0.77424  1.0000
  O  Te69      1.0  0.77057  0.61446  0.80386  1.0000
  O  Te70      1.0  0.85566  0.60460  0.61528  1.0000
  O  Te71      1.0  0.81952  0.53990  0.63830  1.0000
  O  Te72      1.0  0.73442  0.54978  0.82689  1.0000
  Mg  Mg35      1.0  0.86183  0.56944  0.57302  1.0000
  Mg  Mg36      1.0  0.72822  0.58491  0.86911  1.0000
  C  Sn73      1.0  0.11117  0.02544  0.70859  1.0000
  C   C151      1.0  0.13010  0.05478  0.76348  1.0000
  C  Sn74      1.0  0.11744  0.07147  0.82679  1.0000
  C  Sn75      1.0  0.08518  0.05857  0.83550  1.0000
  C   C152      1.0  0.06627  0.02925  0.78065  1.0000
  C  Sn76      1.0  0.07891  0.01254  0.71730  1.0000
  O  Te73      1.0  0.12432  0.00917  0.64576  1.0000
  O  Te74      1.0  0.13683  0.10076  0.88087  1.0000
  O  Te75      1.0  0.07203  0.07487  0.89839  1.0000
  O  Te76      1.0  0.57387  0.98327  0.66327  1.0000
  Mg  Mg37      1.0  0.10799  0.11391  0.95665  1.0000
  Mg  Mg38      1.0  0.60268  0.97009  0.58752  1.0000
  C  Sn77      1.0  0.98769  0.06884  0.66241  1.0000
  C   C153      1.0  0.97971  0.04333  0.73473  1.0000
  C  Sn78      1.0  0.95117  0.02797  0.80373  1.0000
  C  Sn79      1.0  0.93016  0.03830  0.80031  1.0000
  C   C154      1.0  0.93815  0.06379  0.72800  1.0000
  C  Sn80      1.0  0.96668  0.07917  0.65898  1.0000
  O  Te77      1.0  0.01634  0.08385  0.59417  1.0000
  O  Te78      1.0  0.45804  0.00253  0.87538  1.0000
  O  Te79      1.0  0.90149  0.02327  0.86863  1.0000
  O  Te80      1.0  0.97414  0.10459  0.58735  1.0000
  Mg  Mg39      1.0  0.41624  0.98972  0.95209  1.0000
  Mg  Mg40      1.0  0.01593  0.11741  0.51055  1.0000
  C  Sn81      1.0  0.96669  0.88894  0.76479  1.0000
  C   C155      1.0  0.93874  0.87338  0.83812  1.0000
  C  Sn82      1.0  0.92170  0.88752  0.87472  1.0000
  C  Sn83      1.0  0.93281  0.91785  0.83717  1.0000
  C   C156      1.0  0.96074  0.93339  0.76386  1.0000
  C  Sn84      1.0  0.97780  0.91926  0.72724  1.0000
  O  Te81      1.0  0.98334  0.87435  0.72928  1.0000
  O  Te82      1.0  0.89383  0.87151  0.94807  1.0000
  O  Te83      1.0  0.91613  0.93243  0.87275  1.0000
  O  Te84      1.0  0.00564  0.93526  0.65391  1.0000
  Mg  Mg41      1.0  0.87947  0.90116  0.97271  1.0000
  Mg  Mg42      1.0  0.02001  0.90563  0.62916  1.0000
  C  Sn85      1.0  0.55304  0.26513  0.77024  1.0000
  C   C157      1.0  0.53447  0.27568  0.83368  1.0000
  C  Sn86      1.0  0.54759  0.30507  0.89332  1.0000
  C  Sn87      1.0  0.57994  0.32433  0.88941  1.0000
  C   C158      1.0  0.59849  0.31379  0.82598  1.0000
  C  Sn88      1.0  0.58539  0.28439  0.76633  1.0000
  O  Te85      1.0  0.53943  0.23566  0.71127  1.0000
  O  Te86      1.0  0.52855  0.31510  0.95620  1.0000
  O  Te87      1.0  0.59354  0.35381  0.94845  1.0000
  O  Te88      1.0  0.60441  0.27436  0.70346  1.0000
  Mg  Mg43      1.0  0.57109  0.34747  0.02207  1.0000
  Mg  Mg44      1.0  0.57504  0.23238  0.63750  1.0000
  C  Sn89      1.0  0.72741  0.30959  0.82191  1.0000
  C   C159      1.0  0.69790  0.30130  0.79019  1.0000
  C  Sn90      1.0  0.67595  0.27057  0.76525  1.0000
  C  Sn91      1.0  0.68364  0.24765  0.77223  1.0000
  C   C160      1.0  0.71313  0.25594  0.80395  1.0000
  C  Sn92      1.0  0.73510  0.28667  0.82890  1.0000
  O  Te89      1.0  0.74898  0.34045  0.84648  1.0000
  O  Te90      1.0  0.64661  0.26285  0.73368  1.0000
  O  Te91      1.0  0.66203  0.21678  0.74762  1.0000
  O  Te92      1.0  0.76442  0.29440  0.86047  1.0000
  Mg  Mg45      1.0  0.62515  0.21770  0.70855  1.0000
  Mg  Mg46      1.0  0.78589  0.33953  0.88568  1.0000
  C  Sn93      1.0  0.73717  0.42375  0.88925  1.0000
  C   C161      1.0  0.70616  0.40621  0.86248  1.0000
  C  Sn94      1.0  0.69308  0.41785  0.78732  1.0000
  C  Sn95      1.0  0.71138  0.44765  0.73779  1.0000
  C   C162      1.0  0.74237  0.46517  0.76455  1.0000
  C  Sn96      1.0  0.75547  0.45354  0.83973  1.0000
  O  Te93      1.0  0.74976  0.41164  0.96461  1.0000
  O  Te94      1.0  0.66203  0.39989  0.76189  1.0000
  O  Te95      1.0  0.69876  0.45975  0.66239  1.0000
  O  Te96      1.0  0.78650  0.47149  0.86514  1.0000
  Mg  Mg47      1.0  0.65541  0.42647  0.65435  1.0000
  Mg  Mg48      1.0  0.79315  0.44493  0.97261  1.0000
