data_image0
_chemical_formula_structural       H24C36N12O6SnCSn2CSnTe4Mg2SnCSn2CSnTe4Mg2SnCSn2CSnTe4Mg2SnCSn2CSnTe4Mg2SnCSn2CSnTe4Mg2SnCSn2CSnTe4Mg2
_chemical_formula_sum              "H24 C48 N12 O6 Sn24 Te24 Mg12"
_cell_length_a       22.011
_cell_length_b       22.1019
_cell_length_c       8.05184
_cell_angle_alpha    117.698
_cell_angle_beta     92.2242
_cell_angle_gamma    119.891

_symmetry_space_group_name_H-M    'P1'
_space_group_IT_number       1

loop_
  _space_group_symop_operation_xyz
  'x, y, z'

loop_
  _atom_site_type_symbol
  _atom_site_label
  _atom_site_symmetry_multiplicity
  _atom_site_fract_x
  _atom_site_fract_y
  _atom_site_fract_z
  _atom_site_occupancy
  H   H1        1.0  0.27360  0.53291  0.23809  1.0000
  H   H2        1.0  0.45638  0.73778  0.24002  1.0000
  H   H3        1.0  0.25310  0.71884  0.25487  1.0000
  H   H4        1.0  0.58062  0.62836  0.22477  1.0000
  H   H5        1.0  0.35368  0.94194  0.22445  1.0000
  H   H6        1.0  0.05024  0.41990  0.29059  1.0000
  H   H7        1.0  0.51097  0.68583  0.22491  1.0000
  H   H8        1.0  0.29711  0.81582  0.22567  1.0000
  H   H9        1.0  0.17568  0.48799  0.28240  1.0000
  H   H10       1.0  0.44218  0.50549  0.23799  1.0000
  H   H11       1.0  0.48290  0.93305  0.23745  1.0000
  H   H12       1.0  0.05582  0.54939  0.25489  1.0000
  H   H13       1.0  0.28303  0.53756  0.73371  1.0000
  H   H14       1.0  0.46773  0.74357  0.74368  1.0000
  H   H15       1.0  0.26424  0.72489  0.75346  1.0000
  H   H16       1.0  0.59011  0.63248  0.72832  1.0000
  H   H17       1.0  0.36564  0.94842  0.72656  1.0000
  H   H18       1.0  0.05979  0.42482  0.78422  1.0000
  H   H19       1.0  0.52092  0.68985  0.72460  1.0000
  H   H20       1.0  0.30946  0.82297  0.73102  1.0000
  H   H21       1.0  0.18565  0.49296  0.77709  1.0000
  H   H22       1.0  0.45111  0.50931  0.73923  1.0000
  H   H23       1.0  0.49380  0.93749  0.73166  1.0000
  H   H24       1.0  0.06756  0.55707  0.75772  1.0000
  C   C1        1.0  0.36879  0.62994  0.23706  1.0000
  C   C2        1.0  0.35934  0.73662  0.24543  1.0000
  C   C3        1.0  0.25470  0.62231  0.24822  1.0000
  C   C4        1.0  0.29578  0.58963  0.24020  1.0000
  C   C5        1.0  0.40009  0.70357  0.24119  1.0000
  C   C6        1.0  0.28702  0.69582  0.25008  1.0000
  C   C7        1.0  0.52446  0.59859  0.23027  1.0000
  C   C8        1.0  0.38629  0.91860  0.23245  1.0000
  C   C9        1.0  0.07271  0.47232  0.27398  1.0000
  C   C10       1.0  0.48457  0.63079  0.23125  1.0000
  C   C11       1.0  0.35507  0.84759  0.23524  1.0000
  C   C12       1.0  0.14386  0.51127  0.26823  1.0000
  C   C13       1.0  0.63106  0.36964  0.25972  1.0000
  C   C14       1.0  0.62287  0.26242  0.25833  1.0000
  C   C15       1.0  0.73052  0.36162  0.26093  1.0000
  C   C16       1.0  0.40947  0.59203  0.23403  1.0000
  C   C17       1.0  0.39636  0.81463  0.24536  1.0000
  C   C18       1.0  0.17731  0.58291  0.25461  1.0000
  C   C19       1.0  0.37895  0.63499  0.73599  1.0000
  C   C20       1.0  0.37071  0.74268  0.74640  1.0000
  C   C21       1.0  0.26522  0.62807  0.74663  1.0000
  C   C22       1.0  0.30571  0.59471  0.73747  1.0000
  C   C23       1.0  0.41110  0.70926  0.74277  1.0000
  C   C24       1.0  0.29807  0.70181  0.74934  1.0000
  C   C25       1.0  0.53382  0.60278  0.73282  1.0000
  C   C26       1.0  0.39799  0.92457  0.73252  1.0000
  C   C27       1.0  0.08299  0.47807  0.77067  1.0000
  C   C28       1.0  0.49414  0.63490  0.73135  1.0000
  C   C29       1.0  0.36701  0.85401  0.73706  1.0000
  C   C30       1.0  0.15428  0.51704  0.76574  1.0000
  C   C31       1.0  0.64227  0.37591  0.76285  1.0000
  C   C32       1.0  0.63421  0.26811  0.75747  1.0000
  C   C33       1.0  0.74161  0.36783  0.76059  1.0000
  C   C34       1.0  0.41888  0.59636  0.73281  1.0000
  C   C35       1.0  0.40800  0.82059  0.74580  1.0000
  C   C36       1.0  0.18822  0.58953  0.75544  1.0000
  N   N1        1.0  0.70212  0.40370  0.26312  1.0000
  N   N2        1.0  0.58928  0.29960  0.25914  1.0000
  N   N3        1.0  0.69316  0.29074  0.25831  1.0000
  N   N4        1.0  0.49642  0.52939  0.23477  1.0000
  N   N5        1.0  0.45682  0.96115  0.23442  1.0000
  N   N6        1.0  0.02826  0.49691  0.26264  1.0000
  N   N7        1.0  0.71334  0.41035  0.76583  1.0000
  N   N8        1.0  0.60072  0.30572  0.76138  1.0000
  N   N9        1.0  0.70431  0.29640  0.75554  1.0000
  N   N10       1.0  0.50565  0.53381  0.73856  1.0000
  N   N11       1.0  0.46816  0.96631  0.73119  1.0000
  N   N12       1.0  0.03915  0.50352  0.76126  1.0000
  O   O1        1.0  0.37654  0.52633  0.23559  1.0000
  O   O2        1.0  0.46369  0.84983  0.25337  1.0000
  O   O3        1.0  0.14281  0.61400  0.24772  1.0000
  O   O4        1.0  0.38544  0.53054  0.73380  1.0000
  O   O5        1.0  0.47504  0.85495  0.75124  1.0000
  O   O6        1.0  0.15470  0.62226  0.75437  1.0000
  C  Sn1       1.0  0.60994  0.50655  0.18950  1.0000
  C   C37       1.0  0.53854  0.48513  0.18974  1.0000
  C  Sn2       1.0  0.49605  0.42917  0.24251  1.0000
  C  Sn3       1.0  0.52555  0.39393  0.29628  1.0000
  C   C38       1.0  0.59690  0.41536  0.29605  1.0000
  C  Sn4       1.0  0.63943  0.47131  0.24327  1.0000
  O  Te1       1.0  0.65143  0.56263  0.13624  1.0000
  O  Te2       1.0  0.42481  0.40869  0.24158  1.0000
  O  Te3       1.0  0.48399  0.33781  0.34956  1.0000
  O  Te4       1.0  0.71064  0.49180  0.24422  1.0000
  Mg  Mg1       1.0  0.38985  0.32941  0.32565  1.0000
  Mg  Mg2       1.0  0.74567  0.57111  0.16028  1.0000
  C  Sn5       1.0  0.50671  0.15519  0.33657  1.0000
  C   C39       1.0  0.57532  0.18964  0.30838  1.0000
  C  Sn6       1.0  0.60253  0.14132  0.22548  1.0000
  C  Sn7       1.0  0.56027  0.05677  0.16945  1.0000
  C   C40       1.0  0.99211  0.02236  0.19760  1.0000
  C  Sn8       1.0  0.46445  0.07065  0.28053  1.0000
  O  Te5       1.0  0.48058  0.20466  0.41970  1.0000
  O  Te6       1.0  0.67129  0.17715  0.19882  1.0000
  O  Te7       1.0  0.08688  0.00731  0.08627  1.0000
  O  Te8       1.0  0.89614  0.03486  0.30716  1.0000
  Mg  Mg3       1.0  0.68320  0.08438  0.07955  1.0000
  Mg  Mg4       1.0  0.38375  0.12755  0.42632  1.0000
  C  Sn9       1.0  0.89146  0.36357  0.20925  1.0000
  C   C41       1.0  0.94026  0.43485  0.20894  1.0000
  C  Sn10      1.0  0.92513  0.49388  0.25289  1.0000
  C  Sn11      1.0  0.85988  0.48144  0.29822  1.0000
  C   C42       1.0  0.81113  0.41020  0.29856  1.0000
  C  Sn12      1.0  0.82621  0.35113  0.25459  1.0000
  O  Te9       1.0  0.90770  0.30538  0.16489  1.0000
  O  Te10      1.0  0.97474  0.56463  0.25158  1.0000
  O  Te11      1.0  0.84367  0.53970  0.34260  1.0000
  O  Te12      1.0  0.77665  0.28042  0.25592  1.0000
  Mg  Mg5       1.0  0.92831  0.62605  0.32185  1.0000
  Mg  Mg6       1.0  0.82304  0.21899  0.18577  1.0000
  C  Sn13      1.0  0.65325  0.51829  0.82162  1.0000
  C   C43       1.0  0.62024  0.44390  0.81450  1.0000
  C  Sn14      1.0  0.54251  0.38965  0.75455  1.0000
  C  Sn15      1.0  0.49680  0.41016  0.70046  1.0000
  C   C44       1.0  0.52980  0.48451  0.70756  1.0000
  C  Sn16      1.0  0.60754  0.53880  0.76753  1.0000
  O  Te13      1.0  0.73108  0.57158  0.88200  1.0000
  O  Te14      1.0  0.51080  0.31565  0.74869  1.0000
  O  Te15      1.0  0.41891  0.35679  0.64005  1.0000
  O  Te16      1.0  0.63924  0.61275  0.77337  1.0000
  Mg  Mg7       1.0  0.40209  0.26329  0.65632  1.0000
  Mg  Mg8       1.0  0.74793  0.66513  0.86561  1.0000
  C  Sn17      1.0  0.01858  0.16050  0.83408  1.0000
  C   C45       1.0  0.58673  0.19500  0.80567  1.0000
  C  Sn18      1.0  0.11443  0.14675  0.72272  1.0000
  C  Sn19      1.0  0.07229  0.06224  0.66687  1.0000
  C   C46       1.0  0.00377  0.02777  0.69525  1.0000
  C  Sn20      1.0  0.97644  0.07598  0.77823  1.0000
  O  Te17      1.0  0.99238  0.20988  0.91726  1.0000
  O  Te18      1.0  0.68272  0.18264  0.69583  1.0000
  O  Te19      1.0  0.09855  0.01286  0.58364  1.0000
  O  Te20      1.0  0.90778  0.04014  0.80509  1.0000
  Mg  Mg9       1.0  0.19517  0.08997  0.57658  1.0000
  Mg  Mg10      1.0  0.89567  0.13273  0.92423  1.0000
  C  Sn21      1.0  0.90273  0.37041  0.70948  1.0000
  C   C47       1.0  0.95129  0.44159  0.70857  1.0000
  C  Sn22      1.0  0.93600  0.50049  0.75246  1.0000
  C  Sn23      1.0  0.87083  0.48802  0.79834  1.0000
  C   C48       1.0  0.82232  0.41688  0.79926  1.0000
  C  Sn24      1.0  0.83756  0.35793  0.75536  1.0000
  O  Te21      1.0  0.91913  0.31235  0.66517  1.0000
  O  Te22      1.0  0.98537  0.57115  0.75055  1.0000
  O  Te23      1.0  0.85446  0.54616  0.84266  1.0000
  O  Te24      1.0  0.78824  0.28732  0.75729  1.0000
  Mg  Mg11      1.0  0.93880  0.63241  0.82100  1.0000
  Mg  Mg12      1.0  0.83477  0.22605  0.68697  1.0000
