data_image0
_chemical_formula_structural       H36C48N12O12SnCSn2CSnTe4Mg2SnCSn2CSnTe4Mg2SnCSn2CSnTe4Mg2SnCSn2CSnTe4Mg2SnCSn2CSnTe4Mg2SnCSn2CSnTe4Mg2
_chemical_formula_sum              "H36 C60 N12 O12 Sn24 Te24 Mg12"
_cell_length_a       25.9514
_cell_length_b       25.8309
_cell_length_c       7.91481
_cell_angle_alpha    84.7995
_cell_angle_beta     125.187
_cell_angle_gamma    119.187

_symmetry_space_group_name_H-M    'P1'
_space_group_IT_number       1

loop_
  _space_group_symop_operation_xyz
  'x, y, z'

loop_
  _atom_site_type_symbol
  _atom_site_label
  _atom_site_symmetry_multiplicity
  _atom_site_fract_x
  _atom_site_fract_y
  _atom_site_fract_z
  _atom_site_occupancy
  H   H1        1.0  0.32841  0.58407  0.32620  1.0000
  H   H2        1.0  0.47804  0.76090  0.33297  1.0000
  H   H3        1.0  0.29209  0.73164  0.28683  1.0000
  H   H4        1.0  0.59613  0.67877  0.35223  1.0000
  H   H5        1.0  0.36937  0.92673  0.25723  1.0000
  H   H6        1.0  0.13635  0.47264  0.33847  1.0000
  H   H7        1.0  0.53543  0.72478  0.36265  1.0000
  H   H8        1.0  0.33032  0.82159  0.28879  1.0000
  H   H9        1.0  0.24641  0.53667  0.35569  1.0000
  H   H10       1.0  0.70891  0.45426  0.15234  1.0000
  H   H11       1.0  0.56458  0.28182  0.17819  1.0000
  H   H12       1.0  0.74238  0.30483  0.18956  1.0000
  H   H13       1.0  0.47424  0.56694  0.31972  1.0000
  H   H14       1.0  0.48060  0.91741  0.27050  1.0000
  H   H15       1.0  0.12745  0.58310  0.27068  1.0000
  H   H16       1.0  0.67580  0.47770  0.29010  1.0000
  H   H17       1.0  0.54298  0.20125  0.15864  1.0000
  H   H18       1.0  0.82860  0.36980  0.22226  1.0000
  H   H19       1.0  0.28952  0.54501  0.84279  1.0000
  H   H20       1.0  0.43381  0.71828  0.81840  1.0000
  H   H21       1.0  0.24927  0.69105  0.77617  1.0000
  H   H22       1.0  0.53572  0.62917  0.77622  1.0000
  H   H23       1.0  0.32461  0.88430  0.73337  1.0000
  H   H24       1.0  0.09253  0.43211  0.82679  1.0000
  H   H25       1.0  0.48342  0.67877  0.81825  1.0000
  H   H26       1.0  0.28289  0.77824  0.75372  1.0000
  H   H27       1.0  0.20649  0.49796  0.86297  1.0000
  H   H28       1.0  0.66617  0.41240  0.64293  1.0000
  H   H29       1.0  0.51698  0.23744  0.64487  1.0000
  H   H30       1.0  0.70562  0.26587  0.70734  1.0000
  H   H31       1.0  0.42855  0.52280  0.81281  1.0000
  H   H32       1.0  0.43895  0.87579  0.76312  1.0000
  H   H33       1.0  0.08195  0.54164  0.74861  1.0000
  H   H34       1.0  0.61280  0.43332  0.68585  1.0000
  H   H35       1.0  0.50519  0.16124  0.67032  1.0000
  H   H36       1.0  0.77774  0.32447  0.67223  1.0000
  C   C1        1.0  0.40769  0.66891  0.33330  1.0000
  C   C2        1.0  0.38916  0.75394  0.31168  1.0000
  C   C3        1.0  0.30308  0.65432  0.30928  1.0000
  C   C4        1.0  0.34412  0.63141  0.32388  1.0000
  C   C5        1.0  0.42981  0.72997  0.32799  1.0000
  C   C6        1.0  0.32590  0.71573  0.30106  1.0000
  C   C7        1.0  0.54771  0.65058  0.34900  1.0000
  C   C8        1.0  0.39852  0.90625  0.26541  1.0000
  C   C9        1.0  0.15084  0.51851  0.31497  1.0000
  C   C10       1.0  0.51290  0.67627  0.35574  1.0000
  C   C11       1.0  0.37700  0.84688  0.28370  1.0000
  C   C12       1.0  0.21287  0.55511  0.32303  1.0000
  C   C13       1.0  0.63147  0.36925  0.16624  1.0000
  C   C14       1.0  0.65207  0.28603  0.18259  1.0000
  C   C15       1.0  0.73188  0.38501  0.16573  1.0000
  C   C16       1.0  0.69122  0.40691  0.16120  1.0000
  C   C17       1.0  0.61139  0.30846  0.17320  1.0000
  C   C18       1.0  0.71234  0.32472  0.17891  1.0000
  C   C19       1.0  0.44669  0.64017  0.34148  1.0000
  C   C20       1.0  0.41579  0.81921  0.30062  1.0000
  C   C21       1.0  0.23446  0.61630  0.29605  1.0000
  C   C22       1.0  0.58789  0.38949  0.17615  1.0000
  C   C23       1.0  0.63950  0.22397  0.21436  1.0000
  C   C24       1.0  0.79605  0.43094  0.16496  1.0000
  C   C25       1.0  0.36572  0.62767  0.83307  1.0000
  C   C26       1.0  0.34609  0.71238  0.80053  1.0000
  C   C27       1.0  0.26206  0.61458  0.81091  1.0000
  C   C28       1.0  0.30372  0.59158  0.83081  1.0000
  C   C29       1.0  0.38656  0.68808  0.81853  1.0000
  C   C30       1.0  0.28354  0.67510  0.79446  1.0000
  C   C31       1.0  0.49322  0.60336  0.79884  1.0000
  C   C32       1.0  0.35465  0.86410  0.74647  1.0000
  C   C33       1.0  0.10739  0.47809  0.80424  1.0000
  C   C34       1.0  0.46314  0.63116  0.82317  1.0000
  C   C35       1.0  0.33160  0.80420  0.75832  1.0000
  C   C36       1.0  0.17143  0.51551  0.82239  1.0000
  C   C37       1.0  0.58527  0.32583  0.64231  1.0000
  C   C38       1.0  0.61058  0.24462  0.67729  1.0000
  C   C39       1.0  0.69133  0.34443  0.66764  1.0000
  C   C40       1.0  0.64772  0.36488  0.65000  1.0000
  C   C41       1.0  0.56635  0.26535  0.65205  1.0000
  C   C42       1.0  0.67309  0.28455  0.68529  1.0000
  C   C43       1.0  0.40289  0.59764  0.83639  1.0000
  C   C44       1.0  0.37143  0.77682  0.78136  1.0000
  C   C45       1.0  0.19308  0.57661  0.79506  1.0000
  C   C46       1.0  0.53756  0.34417  0.63625  1.0000
  C   C47       1.0  0.59835  0.18241  0.70698  1.0000
  C   C48       1.0  0.75684  0.39093  0.67406  1.0000
  N   N1        1.0  0.52302  0.59027  0.33325  1.0000
  N   N2        1.0  0.45599  0.94136  0.25720  1.0000
  N   N3        1.0  0.10699  0.53797  0.28435  1.0000
  N   N4        1.0  0.62274  0.45217  0.24205  1.0000
  N   N5        1.0  0.57428  0.18403  0.18749  1.0000
  N   N6        1.0  0.84087  0.41176  0.19345  1.0000
  N   N7        1.0  0.47101  0.54391  0.79706  1.0000
  N   N8        1.0  0.41490  0.90014  0.75122  1.0000
  N   N9        1.0  0.06139  0.49639  0.76158  1.0000
  N   N10       1.0  0.56512  0.40619  0.67014  1.0000
  N   N11       1.0  0.53549  0.14360  0.69322  1.0000
  N   N12       1.0  0.79795  0.37006  0.68464  1.0000
  O   O1        1.0  0.41963  0.58343  0.33459  1.0000
  O   O2        1.0  0.47265  0.84881  0.30489  1.0000
  O   O3        1.0  0.19737  0.63962  0.26350  1.0000
  O   O4        1.0  0.52665  0.35148  0.13490  1.0000
  O   O5        1.0  0.68592  0.21117  0.26367  1.0000
  O   O6        1.0  0.80624  0.48224  0.14070  1.0000
  O   O7        1.0  0.37785  0.54176  0.84215  1.0000
  O   O8        1.0  0.42813  0.80606  0.78497  1.0000
  O   O9        1.0  0.15467  0.59920  0.75542  1.0000
  O   O10       1.0  0.47955  0.30531  0.61132  1.0000
  O   O11       1.0  0.64260  0.16877  0.74217  1.0000
  O   O12       1.0  0.77134  0.44419  0.67003  1.0000
  C  Sn1       1.0  0.50868  0.46071  0.17313  1.0000
  C   C49       1.0  0.57465  0.48052  0.20274  1.0000
  C  Sn2       1.0  0.63466  0.54142  0.31097  1.0000
  C  Sn3       1.0  0.62862  0.58340  0.39141  1.0000
  C   C50       1.0  0.56269  0.56359  0.36182  1.0000
  C  Sn4       1.0  0.50264  0.50269  0.25357  1.0000
  O  Te1       1.0  0.44939  0.39961  0.06445  1.0000
  O  Te2       1.0  0.70004  0.56015  0.33854  1.0000
  O  Te3       1.0  0.68798  0.64454  0.50015  1.0000
  O  Te4       1.0  0.43730  0.48396  0.22602  1.0000
  Mg  Mg1       1.0  0.76543  0.64808  0.49751  1.0000
  Mg  Mg2       1.0  0.37189  0.39603  0.06719  1.0000
  C  Sn5       1.0  0.57052  0.04806  0.30621  1.0000
  C   C51       1.0  0.99274  0.01309  0.29810  1.0000
  C  Sn6       1.0  0.45777  0.03226  0.22640  1.0000
  C  Sn7       1.0  0.47160  0.08752  0.16130  1.0000
  C   C52       1.0  0.53474  0.12245  0.16939  1.0000
  C  Sn8       1.0  0.58435  0.10332  0.24111  1.0000
  O  Te5       1.0  0.10472  0.02802  0.37843  1.0000
  O  Te6       1.0  0.88040  0.99654  0.21979  1.0000
  O  Te7       1.0  0.42273  0.10755  0.08905  1.0000
  O  Te8       1.0  0.64708  0.13900  0.24770  1.0000
  Mg  Mg3       1.0  0.34494  0.04307  0.10915  1.0000
  Mg  Mg4       1.0  0.69715  0.09250  0.35820  1.0000
  C  Sn9       1.0  0.96578  0.41976  0.29814  1.0000
  C   C53       1.0  0.92572  0.44428  0.27956  1.0000
  C  Sn10      1.0  0.93985  0.50081  0.23122  1.0000
  C  Sn11      1.0  0.99514  0.53350  0.20068  1.0000
  C   C54       1.0  0.03516  0.50898  0.21923  1.0000
  C  Sn12      1.0  0.02108  0.45245  0.26760  1.0000
  O  Te9       1.0  0.95073  0.36317  0.34657  1.0000
  O  Te10      1.0  0.89909  0.52440  0.21354  1.0000
  O  Te11      1.0  0.01017  0.59013  0.15223  1.0000
  O  Te12      1.0  0.06179  0.42885  0.28525  1.0000
  Mg  Mg5       1.0  0.93990  0.60320  0.14491  1.0000
  Mg  Mg6       1.0  0.02099  0.35005  0.35376  1.0000
  C  Sn13      1.0  0.55430  0.53310  0.70350  1.0000
  C   C55       1.0  0.49528  0.51366  0.71118  1.0000
  C  Sn14      1.0  0.45962  0.45477  0.73160  1.0000
  C  Sn15      1.0  0.48347  0.41448  0.74475  1.0000
  C   C56       1.0  0.54246  0.43393  0.73711  1.0000
  C  Sn16      1.0  0.57815  0.49281  0.71665  1.0000
  O  Te13      1.0  0.58913  0.59217  0.68305  1.0000
  O  Te14      1.0  0.40074  0.43637  0.73886  1.0000
  O  Te15      1.0  0.44858  0.35537  0.76522  1.0000
  O  Te16      1.0  0.63700  0.51122  0.70943  1.0000
  Mg  Mg7       1.0  0.37100  0.35148  0.76802  1.0000
  Mg  Mg8       1.0  0.66681  0.59610  0.68039  1.0000
  C  Sn17      1.0  0.53097  0.00746  0.80752  1.0000
  C   C57       1.0  0.46758  0.97237  0.79835  1.0000
  C  Sn18      1.0  0.41762  0.99125  0.72442  1.0000
  C  Sn19      1.0  0.43128  0.04632  0.65814  1.0000
  C   C58       1.0  0.00923  0.08136  0.66729  1.0000
  C  Sn20      1.0  0.05923  0.06253  0.74124  1.0000
  O  Te17      1.0  0.58015  0.98771  0.88197  1.0000
  O  Te18      1.0  0.35465  0.95542  0.71679  1.0000
  O  Te19      1.0  0.89663  0.06605  0.58366  1.0000
  O  Te20      1.0  0.12216  0.09832  0.74885  1.0000
  Mg  Mg9       1.0  0.30408  0.00153  0.60309  1.0000
  Mg  Mg10      1.0  0.65814  0.05224  0.86241  1.0000
  C  Sn21      1.0  0.91908  0.37644  0.76821  1.0000
  C   C59       1.0  0.87959  0.40094  0.75427  1.0000
  C  Sn22      1.0  0.89396  0.45789  0.70953  1.0000
  C  Sn23      1.0  0.94893  0.49103  0.67792  1.0000
  C   C60       1.0  0.98838  0.46653  0.69181  1.0000
  C  Sn24      1.0  0.97405  0.40958  0.73659  1.0000
  O  Te21      1.0  0.90379  0.31942  0.81309  1.0000
  O  Te22      1.0  0.85378  0.48146  0.69647  1.0000
  O  Te23      1.0  0.96420  0.54809  0.63301  1.0000
  O  Te24      1.0  0.01419  0.38601  0.74961  1.0000
  Mg  Mg11      1.0  0.89473  0.56094  0.63144  1.0000
  Mg  Mg12      1.0  0.97326  0.30653  0.81452  1.0000
