data_image0
_chemical_formula_structural       H24C36N12O6C2Sn2C2HTe2HMgC2Sn2C2HTe2HMgC2Sn2C2HTe2HMgC2Sn2C2HTe2HMgC2Sn2C2HTe2HMgC2Sn2C2HTe2HMg
_chemical_formula_sum              "H36 C60 N12 O6 Sn12 Te12 Mg6"
_cell_length_a       22.011
_cell_length_b       22.1019
_cell_length_c       8.05184
_cell_angle_alpha    117.698
_cell_angle_beta     92.2242
_cell_angle_gamma    119.891

_symmetry_space_group_name_H-M    'P1'
_space_group_IT_number       1

loop_
  _space_group_symop_operation_xyz
  'x, y, z'

loop_
  _atom_site_type_symbol
  _atom_site_label
  _atom_site_symmetry_multiplicity
  _atom_site_fract_x
  _atom_site_fract_y
  _atom_site_fract_z
  _atom_site_occupancy
  H   H1        1.0  0.27360  0.53291  0.23809  1.0000
  H   H2        1.0  0.45638  0.73778  0.24002  1.0000
  H   H3        1.0  0.25310  0.71884  0.25487  1.0000
  H   H4        1.0  0.58062  0.62836  0.22477  1.0000
  H   H5        1.0  0.35368  0.94194  0.22445  1.0000
  H   H6        1.0  0.05024  0.41990  0.29059  1.0000
  H   H7        1.0  0.51097  0.68583  0.22491  1.0000
  H   H8        1.0  0.29711  0.81582  0.22567  1.0000
  H   H9        1.0  0.17568  0.48799  0.28240  1.0000
  H   H10       1.0  0.44218  0.50549  0.23799  1.0000
  H   H11       1.0  0.48290  0.93305  0.23745  1.0000
  H   H12       1.0  0.05582  0.54939  0.25489  1.0000
  H   H13       1.0  0.28303  0.53756  0.73371  1.0000
  H   H14       1.0  0.46773  0.74357  0.74368  1.0000
  H   H15       1.0  0.26424  0.72489  0.75346  1.0000
  H   H16       1.0  0.59011  0.63248  0.72832  1.0000
  H   H17       1.0  0.36564  0.94842  0.72656  1.0000
  H   H18       1.0  0.05979  0.42482  0.78422  1.0000
  H   H19       1.0  0.52092  0.68985  0.72460  1.0000
  H   H20       1.0  0.30946  0.82297  0.73102  1.0000
  H   H21       1.0  0.18565  0.49296  0.77709  1.0000
  H   H22       1.0  0.45111  0.50931  0.73923  1.0000
  H   H23       1.0  0.49380  0.93749  0.73166  1.0000
  H   H24       1.0  0.06756  0.55707  0.75772  1.0000
  C   C1        1.0  0.36879  0.62994  0.23706  1.0000
  C   C2        1.0  0.35934  0.73662  0.24543  1.0000
  C   C3        1.0  0.25470  0.62231  0.24822  1.0000
  C   C4        1.0  0.29578  0.58963  0.24020  1.0000
  C   C5        1.0  0.40009  0.70357  0.24119  1.0000
  C   C6        1.0  0.28702  0.69582  0.25008  1.0000
  C   C7        1.0  0.52446  0.59859  0.23027  1.0000
  C   C8        1.0  0.38629  0.91860  0.23245  1.0000
  C   C9        1.0  0.07271  0.47232  0.27398  1.0000
  C   C10       1.0  0.48457  0.63079  0.23125  1.0000
  C   C11       1.0  0.35507  0.84759  0.23524  1.0000
  C   C12       1.0  0.14386  0.51127  0.26823  1.0000
  C   C13       1.0  0.63106  0.36964  0.25972  1.0000
  C   C14       1.0  0.62287  0.26242  0.25833  1.0000
  C   C15       1.0  0.73052  0.36162  0.26093  1.0000
  C   C16       1.0  0.40947  0.59203  0.23403  1.0000
  C   C17       1.0  0.39636  0.81463  0.24536  1.0000
  C   C18       1.0  0.17731  0.58291  0.25461  1.0000
  C   C19       1.0  0.37895  0.63499  0.73599  1.0000
  C   C20       1.0  0.37071  0.74268  0.74640  1.0000
  C   C21       1.0  0.26522  0.62807  0.74663  1.0000
  C   C22       1.0  0.30571  0.59471  0.73747  1.0000
  C   C23       1.0  0.41110  0.70926  0.74277  1.0000
  C   C24       1.0  0.29807  0.70181  0.74934  1.0000
  C   C25       1.0  0.53382  0.60278  0.73282  1.0000
  C   C26       1.0  0.39799  0.92457  0.73252  1.0000
  C   C27       1.0  0.08299  0.47807  0.77067  1.0000
  C   C28       1.0  0.49414  0.63490  0.73135  1.0000
  C   C29       1.0  0.36701  0.85401  0.73706  1.0000
  C   C30       1.0  0.15428  0.51704  0.76574  1.0000
  C   C31       1.0  0.64227  0.37591  0.76285  1.0000
  C   C32       1.0  0.63421  0.26811  0.75747  1.0000
  C   C33       1.0  0.74161  0.36783  0.76059  1.0000
  C   C34       1.0  0.41888  0.59636  0.73281  1.0000
  C   C35       1.0  0.40800  0.82059  0.74580  1.0000
  C   C36       1.0  0.18822  0.58953  0.75544  1.0000
  N   N1        1.0  0.70212  0.40370  0.26312  1.0000
  N   N2        1.0  0.58928  0.29960  0.25914  1.0000
  N   N3        1.0  0.69316  0.29074  0.25831  1.0000
  N   N4        1.0  0.49642  0.52939  0.23477  1.0000
  N   N5        1.0  0.45682  0.96115  0.23442  1.0000
  N   N6        1.0  0.02826  0.49691  0.26264  1.0000
  N   N7        1.0  0.71334  0.41035  0.76583  1.0000
  N   N8        1.0  0.60072  0.30572  0.76138  1.0000
  N   N9        1.0  0.70431  0.29640  0.75554  1.0000
  N   N10       1.0  0.50565  0.53381  0.73856  1.0000
  N   N11       1.0  0.46816  0.96631  0.73119  1.0000
  N   N12       1.0  0.03915  0.50352  0.76126  1.0000
  O   O1        1.0  0.37654  0.52633  0.23559  1.0000
  O   O2        1.0  0.46369  0.84983  0.25337  1.0000
  O   O3        1.0  0.14281  0.61400  0.24772  1.0000
  O   O4        1.0  0.38544  0.53054  0.73380  1.0000
  O   O5        1.0  0.47504  0.85495  0.75124  1.0000
  O   O6        1.0  0.15470  0.62226  0.75437  1.0000
  C   C37       1.0  0.48800  0.40068  0.23854  1.0000
  C   C38       1.0  0.52098  0.47630  0.25159  1.0000
  C  Sn1       1.0  0.59466  0.51923  0.25733  1.0000
  C  Sn2       1.0  0.63593  0.48567  0.24980  1.0000
  C   C39       1.0  0.60240  0.40994  0.23660  1.0000
  C   C40       1.0  0.52865  0.36751  0.23101  1.0000
  H   H25       1.0  0.43092  0.36782  0.23410  1.0000
  O  Te1       1.0  0.62677  0.59472  0.27046  1.0000
  O  Te2       1.0  0.70964  0.52726  0.25522  1.0000
  H   H26       1.0  0.50311  0.30894  0.22078  1.0000
  Mg  Mg1       1.0  0.72890  0.62814  0.27353  1.0000
  C   C41       1.0  0.60617  0.11923  0.22454  1.0000
  C   C42       1.0  0.58694  0.17265  0.24019  1.0000
  C  Sn3       1.0  0.51951  0.15767  0.26575  1.0000
  C  Sn4       1.0  0.47056  0.08789  0.27584  1.0000
  C   C43       1.0  0.99075  0.03486  0.26017  1.0000
  C   C44       1.0  0.05835  0.05041  0.23455  1.0000
  H   H27       1.0  0.65849  0.13128  0.20482  1.0000
  O  Te3       1.0  0.50115  0.21165  0.28105  1.0000
  O  Te4       1.0  0.40284  0.07148  0.30140  1.0000
  H   H28       1.0  0.07325  0.00907  0.22257  1.0000
  Mg  Mg2       1.0  0.40262  0.16309  0.31460  1.0000
  C   C45       1.0  0.89857  0.37484  0.27586  1.0000
  C   C46       1.0  0.94561  0.44055  0.25486  1.0000
  C  Sn5       1.0  0.92316  0.48807  0.24427  1.0000
  C  Sn6       1.0  0.85227  0.46933  0.25500  1.0000
  C   C47       1.0  0.80564  0.40350  0.27615  1.0000
  C   C48       1.0  0.82865  0.35633  0.28653  1.0000
  H   H29       1.0  0.91639  0.33837  0.28400  1.0000
  O  Te5       1.0  0.97084  0.55348  0.22322  1.0000
  O  Te6       1.0  0.82845  0.51584  0.24487  1.0000
  H   H30       1.0  0.79224  0.30550  0.30292  1.0000
  Mg  Mg3       1.0  0.91332  0.59882  0.21611  1.0000
  C   C49       1.0  0.49793  0.40478  0.73941  1.0000
  C   C50       1.0  0.53061  0.48092  0.75521  1.0000
  C  Sn7       1.0  0.60466  0.52517  0.76451  1.0000
  C  Sn8       1.0  0.64661  0.49242  0.75778  1.0000
  C   C51       1.0  0.61338  0.41617  0.74181  1.0000
  C   C52       1.0  0.53926  0.37241  0.73268  1.0000
  H   H31       1.0  0.44057  0.37089  0.73223  1.0000
  O  Te7       1.0  0.63645  0.60117  0.78035  1.0000
  O  Te8       1.0  0.72070  0.53534  0.76673  1.0000
  H   H32       1.0  0.51396  0.31344  0.72032  1.0000
  Mg  Mg4       1.0  0.73931  0.63645  0.78781  1.0000
  C   C53       1.0  0.98142  0.10754  0.77611  1.0000
  C   C54       1.0  0.99645  0.04863  0.73542  1.0000
  C  Sn9       1.0  0.06352  0.06316  0.70772  1.0000
  C  Sn10      1.0  0.11643  0.13811  0.72114  1.0000
  C   C55       1.0  0.60048  0.19668  0.76205  1.0000
  C   C56       1.0  0.03359  0.18150  0.78946  1.0000
  H   H33       1.0  0.92937  0.09583  0.79742  1.0000
  O  Te9       1.0  0.07763  0.00363  0.66710  1.0000
  O  Te10      1.0  0.18392  0.15423  0.69417  1.0000
  H   H34       1.0  0.52158  0.22715  0.82109  1.0000
  Mg  Mg5       1.0  0.17756  0.05403  0.64183  1.0000
  C   C57       1.0  0.86888  0.36148  0.76409  1.0000
  C   C58       1.0  0.82728  0.39353  0.77203  1.0000
  C  Sn11      1.0  0.85625  0.46464  0.76612  1.0000
  C  Sn12      1.0  0.92821  0.50425  0.75194  1.0000
  C   C59       1.0  0.96936  0.47167  0.74394  1.0000
  C   C60       1.0  0.93985  0.40050  0.75002  1.0000
  H   H35       1.0  0.84603  0.30639  0.76868  1.0000
  O  Te11      1.0  0.81395  0.49584  0.77427  1.0000
  O  Te12      1.0  0.95849  0.57539  0.74570  1.0000
  H   H36       1.0  0.97205  0.37567  0.74374  1.0000
  Mg  Mg6       1.0  0.87934  0.59432  0.76113  1.0000
