data_image0
_chemical_formula_structural       H48C66N12O12SnCSn2CSnTe4Mg2SnCSn2CSnTe4Mg2SnCSn2CSnTe4Mg2
_chemical_formula_sum              "H48 C72 N12 O12 Sn12 Te12 Mg6"
_cell_length_a       25.9514
_cell_length_b       25.8309
_cell_length_c       7.91481
_cell_angle_alpha    84.7995
_cell_angle_beta     125.187
_cell_angle_gamma    119.187

_symmetry_space_group_name_H-M    'P1'
_space_group_IT_number       1

loop_
  _space_group_symop_operation_xyz
  'x, y, z'

loop_
  _atom_site_type_symbol
  _atom_site_label
  _atom_site_symmetry_multiplicity
  _atom_site_fract_x
  _atom_site_fract_y
  _atom_site_fract_z
  _atom_site_occupancy
  H   H1        1.0  0.32841  0.58407  0.32620  1.0000
  H   H2        1.0  0.47804  0.76090  0.33297  1.0000
  H   H3        1.0  0.29209  0.73164  0.28683  1.0000
  H   H4        1.0  0.59613  0.67877  0.35223  1.0000
  H   H5        1.0  0.36937  0.92673  0.25723  1.0000
  H   H6        1.0  0.13635  0.47264  0.33847  1.0000
  H   H7        1.0  0.53543  0.72478  0.36265  1.0000
  H   H8        1.0  0.33032  0.82159  0.28879  1.0000
  H   H9        1.0  0.24641  0.53667  0.35569  1.0000
  H   H10       1.0  0.70891  0.45426  0.15234  1.0000
  H   H11       1.0  0.56458  0.28182  0.17819  1.0000
  H   H12       1.0  0.74238  0.30483  0.18956  1.0000
  H   H13       1.0  0.69367  0.57233  0.34735  1.0000
  H   H14       1.0  0.91294  0.36432  0.22132  1.0000
  H   H15       1.0  0.65347  0.63567  0.38931  1.0000
  H   H16       1.0  0.02879  0.41613  0.25863  1.0000
  H   H17       1.0  0.45382  0.47133  0.23506  1.0000
  H   H18       1.0  0.03617  0.58631  0.25994  1.0000
  H   H19       1.0  0.49447  0.40747  0.19086  1.0000
  H   H20       1.0  0.91623  0.53246  0.20881  1.0000
  H   H21       1.0  0.47424  0.56694  0.31972  1.0000
  H   H22       1.0  0.48060  0.91741  0.27050  1.0000
  H   H23       1.0  0.12745  0.58310  0.27068  1.0000
  H   H24       1.0  0.67580  0.47770  0.29010  1.0000
  H   H25       1.0  0.54298  0.20125  0.15864  1.0000
  H   H26       1.0  0.82860  0.36980  0.22226  1.0000
  H   H27       1.0  0.28952  0.54501  0.84279  1.0000
  H   H28       1.0  0.43381  0.71828  0.81840  1.0000
  H   H29       1.0  0.24927  0.69105  0.77617  1.0000
  H   H30       1.0  0.53572  0.62917  0.77622  1.0000
  H   H31       1.0  0.32461  0.88430  0.73337  1.0000
  H   H32       1.0  0.09253  0.43211  0.82679  1.0000
  H   H33       1.0  0.48342  0.67877  0.81825  1.0000
  H   H34       1.0  0.28289  0.77824  0.75372  1.0000
  H   H35       1.0  0.20649  0.49796  0.86297  1.0000
  H   H36       1.0  0.66617  0.41240  0.64293  1.0000
  H   H37       1.0  0.51698  0.23744  0.64487  1.0000
  H   H38       1.0  0.70562  0.26587  0.70734  1.0000
  H   H39       1.0  0.86551  0.32089  0.68665  1.0000
  H   H40       1.0  0.98095  0.37320  0.72105  1.0000
  H   H41       1.0  0.98987  0.54381  0.73660  1.0000
  H   H42       1.0  0.87324  0.49063  0.70197  1.0000
  H   H43       1.0  0.42855  0.52280  0.81281  1.0000
  H   H44       1.0  0.43895  0.87579  0.76312  1.0000
  H   H45       1.0  0.08195  0.54164  0.74861  1.0000
  H   H46       1.0  0.61280  0.43332  0.68585  1.0000
  H   H47       1.0  0.50519  0.16124  0.67032  1.0000
  H   H48       1.0  0.77774  0.32447  0.67223  1.0000
  C   C1        1.0  0.40769  0.66891  0.33330  1.0000
  C   C2        1.0  0.38916  0.75394  0.31168  1.0000
  C   C3        1.0  0.30308  0.65432  0.30928  1.0000
  C   C4        1.0  0.34412  0.63141  0.32388  1.0000
  C   C5        1.0  0.42981  0.72997  0.32799  1.0000
  C   C6        1.0  0.32590  0.71573  0.30106  1.0000
  C   C7        1.0  0.54771  0.65058  0.34900  1.0000
  C   C8        1.0  0.39852  0.90625  0.26541  1.0000
  C   C9        1.0  0.15084  0.51851  0.31497  1.0000
  C   C10       1.0  0.51290  0.67627  0.35574  1.0000
  C   C11       1.0  0.37700  0.84688  0.28370  1.0000
  C   C12       1.0  0.21287  0.55511  0.32303  1.0000
  C   C13       1.0  0.63147  0.36925  0.16624  1.0000
  C   C14       1.0  0.65207  0.28603  0.18259  1.0000
  C   C15       1.0  0.73188  0.38501  0.16573  1.0000
  C   C16       1.0  0.69122  0.40691  0.16120  1.0000
  C   C17       1.0  0.61139  0.30846  0.17320  1.0000
  C   C18       1.0  0.71234  0.32472  0.17891  1.0000
  C   C19       1.0  0.44669  0.64017  0.34148  1.0000
  C   C20       1.0  0.41579  0.81921  0.30062  1.0000
  C   C21       1.0  0.23446  0.61630  0.29605  1.0000
  C   C22       1.0  0.59668  0.48542  0.26597  1.0000
  C   C23       1.0  0.90720  0.44512  0.21451  1.0000
  C   C24       1.0  0.64087  0.55001  0.32225  1.0000
  C   C25       1.0  0.93994  0.41312  0.22897  1.0000
  C   C26       1.0  0.61796  0.58589  0.34536  1.0000
  C   C27       1.0  0.00580  0.44251  0.25226  1.0000
  C   C28       1.0  0.54986  0.55780  0.31245  1.0000
  C   C29       1.0  0.04125  0.50547  0.26337  1.0000
  C   C30       1.0  0.50636  0.49326  0.25908  1.0000
  C   C31       1.0  0.00858  0.53745  0.24998  1.0000
  C   C32       1.0  0.52870  0.45721  0.23431  1.0000
  C   C33       1.0  0.94199  0.50794  0.22301  1.0000
  C   C34       1.0  0.58789  0.38949  0.17615  1.0000
  C   C35       1.0  0.63950  0.22397  0.21436  1.0000
  C   C36       1.0  0.79605  0.43094  0.16496  1.0000
  C   C37       1.0  0.36572  0.62767  0.83307  1.0000
  C   C38       1.0  0.34609  0.71238  0.80053  1.0000
  C   C39       1.0  0.26206  0.61458  0.81091  1.0000
  C   C40       1.0  0.30372  0.59158  0.83081  1.0000
  C   C41       1.0  0.38656  0.68808  0.81853  1.0000
  C   C42       1.0  0.28354  0.67510  0.79446  1.0000
  C   C43       1.0  0.49322  0.60336  0.79884  1.0000
  C   C44       1.0  0.35465  0.86410  0.74647  1.0000
  C   C45       1.0  0.10739  0.47809  0.80424  1.0000
  C   C46       1.0  0.46314  0.63116  0.82317  1.0000
  C   C47       1.0  0.33160  0.80420  0.75832  1.0000
  C   C48       1.0  0.17143  0.51551  0.82239  1.0000
  C   C49       1.0  0.58527  0.32583  0.64231  1.0000
  C   C50       1.0  0.61058  0.24462  0.67729  1.0000
  C   C51       1.0  0.69133  0.34443  0.66764  1.0000
  C   C52       1.0  0.64772  0.36488  0.65000  1.0000
  C   C53       1.0  0.56635  0.26535  0.65205  1.0000
  C   C54       1.0  0.67309  0.28455  0.68529  1.0000
  C   C55       1.0  0.40289  0.59764  0.83639  1.0000
  C   C56       1.0  0.37143  0.77682  0.78136  1.0000
  C   C57       1.0  0.19308  0.57661  0.79506  1.0000
  C   C58       1.0  0.86252  0.40266  0.69700  1.0000
  C   C59       1.0  0.89321  0.37004  0.69967  1.0000
  C   C60       1.0  0.95875  0.39971  0.72037  1.0000
  C   C61       1.0  0.99500  0.46314  0.73686  1.0000
  C   C62       1.0  0.96260  0.49492  0.72700  1.0000
  C   C63       1.0  0.89739  0.46558  0.70723  1.0000
  C   C64       1.0  0.53756  0.34417  0.63625  1.0000
  C   C65       1.0  0.59835  0.18241  0.70698  1.0000
  C   C66       1.0  0.75684  0.39093  0.67406  1.0000
  N   N1        1.0  0.52302  0.59027  0.33325  1.0000
  N   N2        1.0  0.45599  0.94136  0.25720  1.0000
  N   N3        1.0  0.10699  0.53797  0.28435  1.0000
  N   N4        1.0  0.62274  0.45217  0.24205  1.0000
  N   N5        1.0  0.57428  0.18403  0.18749  1.0000
  N   N6        1.0  0.84087  0.41176  0.19345  1.0000
  N   N7        1.0  0.47101  0.54391  0.79706  1.0000
  N   N8        1.0  0.41490  0.90014  0.75122  1.0000
  N   N9        1.0  0.06139  0.49639  0.76158  1.0000
  N   N10       1.0  0.56512  0.40619  0.67014  1.0000
  N   N11       1.0  0.53549  0.14360  0.69322  1.0000
  N   N12       1.0  0.79795  0.37006  0.68464  1.0000
  O   O1        1.0  0.41963  0.58343  0.33459  1.0000
  O   O2        1.0  0.47265  0.84881  0.30489  1.0000
  O   O3        1.0  0.19737  0.63962  0.26350  1.0000
  O   O4        1.0  0.52665  0.35148  0.13490  1.0000
  O   O5        1.0  0.68592  0.21117  0.26367  1.0000
  O   O6        1.0  0.80624  0.48224  0.14070  1.0000
  O   O7        1.0  0.37785  0.54176  0.84215  1.0000
  O   O8        1.0  0.42813  0.80606  0.78497  1.0000
  O   O9        1.0  0.15467  0.59920  0.75542  1.0000
  O   O10       1.0  0.47955  0.30531  0.61132  1.0000
  O   O11       1.0  0.64260  0.16877  0.74217  1.0000
  O   O12       1.0  0.77134  0.44419  0.67003  1.0000
  C  Sn1       1.0  0.46841  0.43699  0.78246  1.0000
  C   C67       1.0  0.50066  0.50062  0.81618  1.0000
  C  Sn2       1.0  0.55114  0.53504  0.77285  1.0000
  C  Sn3       1.0  0.56976  0.50525  0.69403  1.0000
  C   C68       1.0  0.53751  0.44166  0.66032  1.0000
  C  Sn4       1.0  0.48703  0.40720  0.70364  1.0000
  O  Te1       1.0  0.41807  0.40350  0.82686  1.0000
  O  Te2       1.0  0.58268  0.59859  0.80790  1.0000
  O  Te3       1.0  0.62015  0.53880  0.64965  1.0000
  O  Te4       1.0  0.45549  0.34369  0.66859  1.0000
  Mg  Mg1       1.0  0.64829  0.62428  0.72330  1.0000
  Mg  Mg2       1.0  0.38984  0.31795  0.75303  1.0000
  C  Sn5       1.0  0.56162  0.07052  0.16779  1.0000
  C   C69       1.0  0.54091  0.11212  0.15861  1.0000
  C  Sn6       1.0  0.49380  0.10059  0.21040  1.0000
  C  Sn7       1.0  0.46687  0.04637  0.27279  1.0000
  C   C70       1.0  0.97299  0.00481  0.28197  1.0000
  C  Sn8       1.0  0.02008  0.01629  0.23018  1.0000
  O  Te5       1.0  0.60877  0.08298  0.11533  1.0000
  O  Te6       1.0  0.47385  0.14285  0.19997  1.0000
  O  Te7       1.0  0.41968  0.03393  0.32525  1.0000
  O  Te8       1.0  0.04004  0.97408  0.24062  1.0000
  Mg  Mg3       1.0  0.40834  0.10545  0.28680  1.0000
  Mg  Mg4       1.0  0.10558  0.01144  0.15394  1.0000
  C  Sn9       1.0  0.00811  0.02983  0.66967  1.0000
  C   C71       1.0  0.50088  0.07095  0.65534  1.0000
  C  Sn10      1.0  0.45243  0.05905  0.70215  1.0000
  C  Sn11      1.0  0.91068  0.00493  0.76471  1.0000
  C   C72       1.0  0.93252  0.96386  0.77905  1.0000
  C  Sn12      1.0  0.98096  0.97572  0.73223  1.0000
  O  Te9       1.0  0.05659  0.04267  0.62215  1.0000
  O  Te10      1.0  0.43137  0.10083  0.68661  1.0000
  O  Te11      1.0  0.86216  0.99212  0.81224  1.0000
  O  Te12      1.0  0.00202  0.93398  0.74778  1.0000
  Mg  Mg5       1.0  0.36425  0.06305  0.76786  1.0000
  Mg  Mg6       1.0  0.06917  0.97172  0.66668  1.0000
