data_image0
_chemical_formula_structural       H36C54N12O6C2Sn2C2HTe2HMgC2Sn2C2HTe2HMgC2Sn2C2HTe2HMg
_chemical_formula_sum              "H42 C66 N12 O6 Sn6 Te6 Mg3"
_cell_length_a       22.011
_cell_length_b       22.1019
_cell_length_c       8.05184
_cell_angle_alpha    117.698
_cell_angle_beta     92.2242
_cell_angle_gamma    119.891

_symmetry_space_group_name_H-M    'P1'
_space_group_IT_number       1

loop_
  _space_group_symop_operation_xyz
  'x, y, z'

loop_
  _atom_site_type_symbol
  _atom_site_label
  _atom_site_symmetry_multiplicity
  _atom_site_fract_x
  _atom_site_fract_y
  _atom_site_fract_z
  _atom_site_occupancy
  H   H1        1.0  0.27360  0.53291  0.23809  1.0000
  H   H2        1.0  0.45638  0.73778  0.24002  1.0000
  H   H3        1.0  0.25310  0.71884  0.25487  1.0000
  H   H4        1.0  0.58062  0.62836  0.22477  1.0000
  H   H5        1.0  0.35368  0.94194  0.22445  1.0000
  H   H6        1.0  0.05024  0.41990  0.29059  1.0000
  H   H7        1.0  0.51097  0.68583  0.22491  1.0000
  H   H8        1.0  0.29711  0.81582  0.22567  1.0000
  H   H9        1.0  0.17568  0.48799  0.28240  1.0000
  H   H10       1.0  0.81074  0.30237  0.27386  1.0000
  H   H11       1.0  0.94039  0.35925  0.27723  1.0000
  H   H12       1.0  0.95154  0.55471  0.24809  1.0000
  H   H13       1.0  0.82117  0.49646  0.24713  1.0000
  H   H14       1.0  0.44218  0.50549  0.23799  1.0000
  H   H15       1.0  0.48290  0.93305  0.23745  1.0000
  H   H16       1.0  0.05582  0.54939  0.25489  1.0000
  H   H17       1.0  0.28303  0.53756  0.73371  1.0000
  H   H18       1.0  0.46773  0.74357  0.74368  1.0000
  H   H19       1.0  0.26424  0.72489  0.75346  1.0000
  H   H20       1.0  0.59011  0.63248  0.72832  1.0000
  H   H21       1.0  0.36564  0.94842  0.72656  1.0000
  H   H22       1.0  0.05979  0.42482  0.78422  1.0000
  H   H23       1.0  0.52092  0.68985  0.72460  1.0000
  H   H24       1.0  0.30946  0.82297  0.73102  1.0000
  H   H25       1.0  0.18565  0.49296  0.77709  1.0000
  H   H26       1.0  0.49968  0.19970  0.79788  1.0000
  H   H27       1.0  0.82216  0.30929  0.77482  1.0000
  H   H28       1.0  0.42580  0.06940  0.79059  1.0000
  H   H29       1.0  0.95164  0.36607  0.77717  1.0000
  H   H30       1.0  0.59792  0.03033  0.68949  1.0000
  H   H31       1.0  0.96264  0.56203  0.75031  1.0000
  H   H32       1.0  0.67309  0.16480  0.70815  1.0000
  H   H33       1.0  0.83171  0.50269  0.74722  1.0000
  H   H34       1.0  0.45111  0.50931  0.73923  1.0000
  H   H35       1.0  0.49380  0.93749  0.73166  1.0000
  H   H36       1.0  0.06756  0.55707  0.75772  1.0000
  C   C1        1.0  0.36879  0.62994  0.23706  1.0000
  C   C2        1.0  0.35934  0.73662  0.24543  1.0000
  C   C3        1.0  0.25470  0.62231  0.24822  1.0000
  C   C4        1.0  0.29578  0.58963  0.24020  1.0000
  C   C5        1.0  0.40009  0.70357  0.24119  1.0000
  C   C6        1.0  0.28702  0.69582  0.25008  1.0000
  C   C7        1.0  0.52446  0.59859  0.23027  1.0000
  C   C8        1.0  0.38629  0.91860  0.23245  1.0000
  C   C9        1.0  0.07271  0.47232  0.27398  1.0000
  C   C10       1.0  0.48457  0.63079  0.23125  1.0000
  C   C11       1.0  0.35507  0.84759  0.23524  1.0000
  C   C12       1.0  0.14386  0.51127  0.26823  1.0000
  C   C13       1.0  0.63106  0.36964  0.25972  1.0000
  C   C14       1.0  0.62287  0.26242  0.25833  1.0000
  C   C15       1.0  0.73052  0.36162  0.26093  1.0000
  C   C16       1.0  0.40947  0.59203  0.23403  1.0000
  C   C17       1.0  0.39636  0.81463  0.24536  1.0000
  C   C18       1.0  0.17731  0.58291  0.25461  1.0000
  C   C19       1.0  0.80746  0.39563  0.26068  1.0000
  C   C20       1.0  0.84206  0.35740  0.26752  1.0000
  C   C21       1.0  0.91504  0.38979  0.26973  1.0000
  C   C22       1.0  0.95548  0.46189  0.26483  1.0000
  C   C23       1.0  0.92098  0.50022  0.25711  1.0000
  C   C24       1.0  0.84819  0.46756  0.25551  1.0000
  C   C25       1.0  0.37895  0.63499  0.73599  1.0000
  C   C26       1.0  0.37071  0.74268  0.74640  1.0000
  C   C27       1.0  0.26522  0.62807  0.74663  1.0000
  C   C28       1.0  0.30571  0.59471  0.73747  1.0000
  C   C29       1.0  0.41110  0.70926  0.74277  1.0000
  C   C30       1.0  0.29807  0.70181  0.74934  1.0000
  C   C31       1.0  0.53382  0.60278  0.73282  1.0000
  C   C32       1.0  0.39799  0.92457  0.73252  1.0000
  C   C33       1.0  0.08299  0.47807  0.77067  1.0000
  C   C34       1.0  0.49414  0.63490  0.73135  1.0000
  C   C35       1.0  0.36701  0.85401  0.73706  1.0000
  C   C36       1.0  0.15428  0.51704  0.76574  1.0000
  C   C37       1.0  0.64227  0.37591  0.76285  1.0000
  C   C38       1.0  0.63421  0.26811  0.75747  1.0000
  C   C39       1.0  0.74161  0.36783  0.76059  1.0000
  C   C40       1.0  0.41888  0.59636  0.73281  1.0000
  C   C41       1.0  0.40800  0.82059  0.74580  1.0000
  C   C42       1.0  0.18822  0.58953  0.75544  1.0000
  C   C43       1.0  0.59086  0.19037  0.75208  1.0000
  C   C44       1.0  0.81856  0.40210  0.76031  1.0000
  C   C45       1.0  0.52037  0.16178  0.77274  1.0000
  C   C46       1.0  0.85340  0.36421  0.76792  1.0000
  C   C47       1.0  0.47864  0.08798  0.76574  1.0000
  C   C48       1.0  0.92634  0.39668  0.76981  1.0000
  C   C49       1.0  0.50648  0.03999  0.73606  1.0000
  C   C50       1.0  0.96657  0.46878  0.76476  1.0000
  C   C51       1.0  0.57696  0.06807  0.71442  1.0000
  C   C52       1.0  0.93208  0.50727  0.75824  1.0000
  C   C53       1.0  0.61859  0.14245  0.72417  1.0000
  C   C54       1.0  0.85911  0.47412  0.75557  1.0000
  N   N1        1.0  0.70212  0.40370  0.26312  1.0000
  N   N2        1.0  0.58928  0.29960  0.25914  1.0000
  N   N3        1.0  0.69316  0.29074  0.25831  1.0000
  N   N4        1.0  0.49642  0.52939  0.23477  1.0000
  N   N5        1.0  0.45682  0.96115  0.23442  1.0000
  N   N6        1.0  0.02826  0.49691  0.26264  1.0000
  N   N7        1.0  0.71334  0.41035  0.76583  1.0000
  N   N8        1.0  0.60072  0.30572  0.76138  1.0000
  N   N9        1.0  0.70431  0.29640  0.75554  1.0000
  N   N10       1.0  0.50565  0.53381  0.73856  1.0000
  N   N11       1.0  0.46816  0.96631  0.73119  1.0000
  N   N12       1.0  0.03915  0.50352  0.76126  1.0000
  O   O1        1.0  0.37654  0.52633  0.23559  1.0000
  O   O2        1.0  0.46369  0.84983  0.25337  1.0000
  O   O3        1.0  0.14281  0.61400  0.24772  1.0000
  O   O4        1.0  0.38544  0.53054  0.73380  1.0000
  O   O5        1.0  0.47504  0.85495  0.75124  1.0000
  O   O6        1.0  0.15470  0.62226  0.75437  1.0000
  C   C55       1.0  0.63360  0.53234  0.76424  1.0000
  C   C56       1.0  0.55974  0.50629  0.74114  1.0000
  C  Sn1       1.0  0.50854  0.43425  0.73589  1.0000
  C  Sn2       1.0  0.53188  0.38759  0.75420  1.0000
  C   C57       1.0  0.60591  0.41421  0.77739  1.0000
  C   C58       1.0  0.65668  0.48637  0.78238  1.0000
  H   H37       1.0  0.67290  0.58820  0.76821  1.0000
  O  Te1       1.0  0.43495  0.40909  0.71265  1.0000
  O  Te2       1.0  0.48187  0.31537  0.74952  1.0000
  H   H38       1.0  0.71387  0.50656  0.80039  1.0000
  Mg  Mg1       1.0  0.38753  0.30638  0.71502  1.0000
  C   C59       1.0  0.46958  0.10227  0.27879  1.0000
  C   C60       1.0  0.98487  0.04321  0.23742  1.0000
  C  Sn3       1.0  0.55144  0.05760  0.20917  1.0000
  C  Sn4       1.0  0.60439  0.13257  0.22273  1.0000
  C   C61       1.0  0.58899  0.19129  0.26433  1.0000
  C   C62       1.0  0.52179  0.17625  0.29227  1.0000
  H   H39       1.0  0.41760  0.09067  0.30052  1.0000
  O  Te3       1.0  0.06581  0.99791  0.16788  1.0000
  O  Te4       1.0  0.67178  0.14855  0.19522  1.0000
  H   H40       1.0  0.51030  0.22202  0.32443  1.0000
  Mg  Mg2       1.0  0.66524  0.04816  0.14205  1.0000
  C   C63       1.0  0.62336  0.52585  0.25578  1.0000
  C   C64       1.0  0.54986  0.50087  0.23513  1.0000
  C  Sn5       1.0  0.49866  0.42984  0.23360  1.0000
  C  Sn6       1.0  0.52163  0.38311  0.25319  1.0000
  C   C65       1.0  0.59530  0.40867  0.27391  1.0000
  C   C66       1.0  0.64607  0.47982  0.27519  1.0000
  H   H41       1.0  0.66265  0.58093  0.25688  1.0000
  O  Te5       1.0  0.42544  0.40573  0.21277  1.0000
  O  Te6       1.0  0.47162  0.31190  0.25221  1.0000
  H   H42       1.0  0.70298  0.49918  0.29130  1.0000
  Mg  Mg3       1.0  0.37785  0.30414  0.21993  1.0000
