data_image0
_chemical_formula_structural       H168C210N30F6C2Sn2C2HTe2HMgC2Sn2C2HTe2HMgC2Sn2C2HTe2HMgC2Sn2C2HTe2HMgC2Sn2C2HTe2HMgC2Sn2C2HTe2HMg
_chemical_formula_sum              "H180 C234 N30 F6 Sn12 Te12 Mg6"
_cell_length_a       31.1756
_cell_length_b       31.3838
_cell_length_c       11.3047
_cell_angle_alpha    89.6279
_cell_angle_beta     90.6532
_cell_angle_gamma    119.996

_symmetry_space_group_name_H-M    'P1'
_space_group_IT_number       1

loop_
  _space_group_symop_operation_xyz
  'x, y, z'

loop_
  _atom_site_type_symbol
  _atom_site_label
  _atom_site_symmetry_multiplicity
  _atom_site_fract_x
  _atom_site_fract_y
  _atom_site_fract_z
  _atom_site_occupancy
  H   H1        1.0  0.31439  0.27875  0.47397  1.0000
  H   H2        1.0  0.72179  0.03333  0.46639  1.0000
  H   H3        1.0  0.96718  0.68737  0.47643  1.0000
  H   H4        1.0  0.41732  0.32616  0.18549  1.0000
  H   H5        1.0  0.67471  0.08991  0.17541  1.0000
  H   H6        1.0  0.90956  0.58417  0.18737  1.0000
  H   H7        1.0  0.23395  0.04179  0.33028  1.0000
  H   H8        1.0  0.96076  0.19068  0.32920  1.0000
  H   H9        1.0  0.81156  0.77057  0.32492  1.0000
  H   H10       1.0  0.33676  0.08758  0.04184  1.0000
  H   H11       1.0  0.91529  0.24908  0.03922  1.0000
  H   H12       1.0  0.75285  0.66794  0.03540  1.0000
  H   H13       1.0  0.35351  0.34874  0.04729  1.0000
  H   H14       1.0  0.64763  0.99891  0.02827  1.0000
  H   H15       1.0  0.99597  0.64767  0.04527  1.0000
  H   H16       1.0  0.31766  0.35431  0.42809  1.0000
  H   H17       1.0  0.64579  0.96102  0.41740  1.0000
  H   H18       1.0  0.03994  0.68411  0.42629  1.0000
  H   H19       1.0  0.37083  0.40774  0.48286  1.0000
  H   H20       1.0  0.59175  0.95987  0.47005  1.0000
  H   H21       1.0  0.04146  0.63201  0.48356  1.0000
  H   H22       1.0  0.46654  0.38291  0.35841  1.0000
  H   H23       1.0  0.61643  0.07989  0.34082  1.0000
  H   H24       1.0  0.91942  0.53581  0.35985  1.0000
  H   H25       1.0  0.43944  0.35697  0.49635  1.0000
  H   H26       1.0  0.64208  0.07896  0.48061  1.0000
  H   H27       1.0  0.92090  0.56342  0.49693  1.0000
  H   H28       1.0  0.45552  0.41890  0.46083  1.0000
  H   H29       1.0  0.57994  0.03276  0.44353  1.0000
  H   H30       1.0  0.96707  0.54729  0.46397  1.0000
  H   H31       1.0  0.35675  0.38430  0.22348  1.0000
  H   H32       1.0  0.61684  0.97066  0.21068  1.0000
  H   H33       1.0  0.02902  0.64370  0.22391  1.0000
  H   H34       1.0  0.41700  0.39443  0.19446  1.0000
  H   H35       1.0  0.60636  0.02018  0.17894  1.0000
  H   H36       1.0  0.97791  0.58424  0.19501  1.0000
  H   H37       1.0  0.40943  0.43411  0.29160  1.0000
  H   H38       1.0  0.56600  0.97233  0.27473  1.0000
  H   H39       1.0  0.02609  0.59099  0.29119  1.0000
  H   H40       1.0  0.34228  0.01748  0.14618  1.0000
  H   H41       1.0  0.98947  0.32478  0.14508  1.0000
  H   H42       1.0  0.67791  0.66681  0.12131  1.0000
  H   H43       1.0  0.29602  0.95428  0.15368  1.0000
  H   H44       1.0  0.05202  0.33950  0.16581  1.0000
  H   H45       1.0  0.66273  0.71392  0.13951  1.0000
  H   H46       1.0  0.31141  0.99202  0.28154  1.0000
  H   H47       1.0  0.00960  0.31489  0.28479  1.0000
  H   H48       1.0  0.68303  0.69314  0.26307  1.0000
  H   H49       1.0  0.20593  0.93001  0.18498  1.0000
  H   H50       1.0  0.07314  0.27066  0.18020  1.0000
  H   H51       1.0  0.73005  0.80187  0.17599  1.0000
  H   H52       1.0  0.18759  0.97508  0.19452  1.0000
  H   H53       1.0  0.02535  0.20823  0.18771  1.0000
  H   H54       1.0  0.79300  0.81770  0.19195  1.0000
  H   H55       1.0  0.22254  0.96839  0.31075  1.0000
  H   H56       1.0  0.03538  0.24880  0.30686  1.0000
  H   H57       1.0  0.74952  0.78289  0.30315  1.0000
  H   H58       1.0  0.29078  0.01888  0.46714  1.0000
  H   H59       1.0  0.98464  0.26656  0.45898  1.0000
  H   H60       1.0  0.72070  0.70415  0.45762  1.0000
  H   H61       1.0  0.22898  0.00469  0.49041  1.0000
  H   H62       1.0  0.99593  0.21780  0.49129  1.0000
  H   H63       1.0  0.76925  0.76579  0.47279  1.0000
  H   H64       1.0  0.24467  0.95724  0.49623  1.0000
  H   H65       1.0  0.04568  0.28001  0.49482  1.0000
  H   H66       1.0  0.70619  0.75109  0.48323  1.0000
  H   H67       1.0  0.25370  0.20562  0.08858  1.0000
  H   H68       1.0  0.79178  0.04944  0.08935  1.0000
  H   H69       1.0  0.95276  0.74766  0.08255  1.0000
  H   H70       1.0  0.39865  0.16041  0.43526  1.0000
  H   H71       1.0  0.84152  0.23568  0.42091  1.0000
  H   H72       1.0  0.76118  0.60278  0.42231  1.0000
  H   H73       1.0  0.16903  0.03579  0.10854  1.0000
  H   H74       1.0  0.96288  0.13120  0.10545  1.0000
  H   H75       1.0  0.86801  0.83347  0.09583  1.0000
  H   H76       1.0  0.12175  0.13039  0.37290  1.0000
  H   H77       1.0  0.86883  0.99118  0.37719  1.0000
  H   H78       1.0  0.00982  0.87913  0.36811  1.0000
  H   H79       1.0  0.09922  0.99109  0.24317  1.0000
  H   H80       1.0  0.00852  0.10581  0.23946  1.0000
  H   H81       1.0  0.89273  0.90242  0.23261  1.0000
  H   H82       1.0  0.04171  0.09062  0.36818  1.0000
  H   H83       1.0  0.90861  0.95052  0.35773  1.0000
  H   H84       1.0  0.04954  0.95816  0.35938  1.0000
  H   H85       1.0  0.31316  0.27829  0.97478  1.0000
  H   H86       1.0  0.71928  0.03439  0.96635  1.0000
  H   H87       1.0  0.96423  0.68643  0.97343  1.0000
  H   H88       1.0  0.41672  0.32673  0.68758  1.0000
  H   H89       1.0  0.67301  0.09139  0.67437  1.0000
  H   H90       1.0  0.90882  0.58364  0.68336  1.0000
  H   H91       1.0  0.23353  0.04167  0.82947  1.0000
  H   H92       1.0  0.95831  0.18951  0.82892  1.0000
  H   H93       1.0  0.80758  0.76761  0.81659  1.0000
  H   H94       1.0  0.33798  0.08791  0.54468  1.0000
  H   H95       1.0  0.91414  0.24699  0.53435  1.0000
  H   H96       1.0  0.74819  0.66239  0.53257  1.0000
  H   H97       1.0  0.35384  0.34969  0.54512  1.0000
  H   H98       1.0  0.65014  0.00124  0.53332  1.0000
  H   H99       1.0  0.00051  0.64938  0.54458  1.0000
  H   H100      1.0  0.31639  0.35379  0.93326  1.0000
  H   H101      1.0  0.64136  0.96014  0.90725  1.0000
  H   H102      1.0  0.03800  0.68323  0.93147  1.0000
  H   H103      1.0  0.36963  0.40707  0.98811  1.0000
  H   H104      1.0  0.58861  0.96024  0.96490  1.0000
  H   H105      1.0  0.03737  0.63004  0.98839  1.0000
  H   H106      1.0  0.46519  0.38451  0.85394  1.0000
  H   H107      1.0  0.61570  0.08240  0.84820  1.0000
  H   H108      1.0  0.91819  0.53572  0.85285  1.0000
  H   H109      1.0  0.43994  0.35841  0.99330  1.0000
  H   H110      1.0  0.64116  0.07897  0.98639  1.0000
  H   H111      1.0  0.91942  0.56148  0.99280  1.0000
  H   H112      1.0  0.45454  0.41998  0.95883  1.0000
  H   H113      1.0  0.57872  0.03403  0.94766  1.0000
  H   H114      1.0  0.96587  0.54623  0.95617  1.0000
  H   H115      1.0  0.35301  0.38289  0.72673  1.0000
  H   H116      1.0  0.61278  0.97381  0.70590  1.0000
  H   H117      1.0  0.02938  0.64629  0.72687  1.0000
  H   H118      1.0  0.41339  0.39416  0.69420  1.0000
  H   H119      1.0  0.60493  0.02531  0.67961  1.0000
  H   H120      1.0  0.97972  0.58664  0.69254  1.0000
  H   H121      1.0  0.40576  0.43371  0.79175  1.0000
  H   H122      1.0  0.56319  0.97707  0.77266  1.0000
  H   H123      1.0  0.02702  0.59358  0.79225  1.0000
  H   H124      1.0  0.34184  0.01519  0.64808  1.0000
  H   H125      1.0  0.98741  0.32240  0.63237  1.0000
  H   H126      1.0  0.67115  0.65829  0.64691  1.0000
  H   H127      1.0  0.29497  0.95291  0.66921  1.0000
  H   H128      1.0  0.04994  0.33753  0.65648  1.0000
  H   H129      1.0  0.65586  0.70538  0.66351  1.0000
  H   H130      1.0  0.31283  0.99550  0.78785  1.0000
  H   H131      1.0  0.00729  0.31508  0.77516  1.0000
  H   H132      1.0  0.68399  0.69080  0.78279  1.0000
  H   H133      1.0  0.20499  0.92990  0.68304  1.0000
  H   H134      1.0  0.03396  0.25183  0.81040  1.0000
  H   H135      1.0  0.72373  0.79548  0.66356  1.0000
  H   H136      1.0  0.18774  0.97577  0.69064  1.0000
  H   H137      1.0  0.07097  0.26839  0.68217  1.0000
  H   H138      1.0  0.78709  0.81185  0.66644  1.0000
  H   H139      1.0  0.22070  0.96772  0.80959  1.0000
  H   H140      1.0  0.02275  0.20677  0.70188  1.0000
  H   H141      1.0  0.74907  0.78304  0.79097  1.0000
  H   H142      1.0  0.28708  0.01925  0.96329  1.0000
  H   H143      1.0  0.98467  0.27152  0.96405  1.0000
  H   H144      1.0  0.73732  0.72055  0.95355  1.0000
  H   H145      1.0  0.22584  0.00500  0.99375  1.0000
  H   H146      1.0  0.99680  0.22275  0.98730  1.0000
  H   H147      1.0  0.78578  0.78047  0.98762  1.0000
  H   H148      1.0  0.24169  0.95758  0.99502  1.0000
  H   H149      1.0  0.04614  0.28508  0.99405  1.0000
  H   H150      1.0  0.72301  0.76751  0.98267  1.0000
  H   H151      1.0  0.25259  0.20565  0.58593  1.0000
  H   H152      1.0  0.79413  0.04706  0.58568  1.0000
  H   H153      1.0  0.95452  0.74709  0.59137  1.0000
  H   H154      1.0  0.39803  0.15980  0.93335  1.0000
  H   H155      1.0  0.84299  0.23798  0.92745  1.0000
  H   H156      1.0  0.76260  0.60527  0.92893  1.0000
  H   H157      1.0  0.16893  0.03549  0.60824  1.0000
  H   H158      1.0  0.96523  0.13097  0.60813  1.0000
  H   H159      1.0  0.87041  0.83362  0.60424  1.0000
  H   H160      1.0  0.12292  0.13066  0.87403  1.0000
  H   H161      1.0  0.86986  0.99047  0.87758  1.0000
  H   H162      1.0  0.00890  0.87651  0.88551  1.0000
  H   H163      1.0  0.10047  0.99104  0.74605  1.0000
  H   H164      1.0  0.01012  0.10572  0.74400  1.0000
  H   H165      1.0  0.89483  0.90264  0.74033  1.0000
  H   H166      1.0  0.04306  0.09033  0.86799  1.0000
  H   H167      1.0  0.90994  0.94981  0.86947  1.0000
  H   H168      1.0  0.05100  0.95792  0.86542  1.0000
  C   C1        1.0  0.33025  0.27060  0.39838  1.0000
  C   C2        1.0  0.73000  0.05804  0.39161  1.0000
  C   C3        1.0  0.94274  0.67146  0.40036  1.0000
  C   C4        1.0  0.31316  0.22109  0.37060  1.0000
  C   C5        1.0  0.77987  0.09139  0.36665  1.0000
  C   C6        1.0  0.91005  0.68868  0.37202  1.0000
  C   C7        1.0  0.33385  0.20884  0.27243  1.0000
  C   C8        1.0  0.79263  0.12473  0.26858  1.0000
  C   C9        1.0  0.87684  0.66852  0.27256  1.0000
  C   C10       1.0  0.37149  0.24861  0.20587  1.0000
  C   C11       1.0  0.75281  0.12255  0.19992  1.0000
  C   C12       1.0  0.87843  0.63065  0.20667  1.0000
  C   C13       1.0  0.38769  0.29750  0.23741  1.0000
  C   C14       1.0  0.70351  0.08912  0.22886  1.0000
  C   C15       1.0  0.91105  0.61397  0.23915  1.0000
  C   C16       1.0  0.36762  0.30931  0.33370  1.0000
  C   C17       1.0  0.69125  0.05643  0.32429  1.0000
  C   C18       1.0  0.94381  0.63411  0.33543  1.0000
  C   C19       1.0  0.27617  0.18039  0.43612  1.0000
  C   C20       1.0  0.82056  0.09523  0.43439  1.0000
  C   C21       1.0  0.90650  0.72552  0.43773  1.0000
  C   C22       1.0  0.26034  0.13139  0.40703  1.0000
  C   C23       1.0  0.87003  0.12814  0.40646  1.0000
  C   C24       1.0  0.87366  0.74210  0.40689  1.0000
  C   C25       1.0  0.28046  0.11890  0.30892  1.0000
  C   C26       1.0  0.88312  0.16089  0.30766  1.0000
  C   C27       1.0  0.84118  0.72293  0.30649  1.0000
  C   C28       1.0  0.31779  0.15841  0.24220  1.0000
  C   C29       1.0  0.84353  0.15910  0.23972  1.0000
  C   C30       1.0  0.84280  0.68533  0.24020  1.0000
  C   C31       1.0  0.33817  0.14576  0.14409  1.0000
  C   C32       1.0  0.85658  0.19223  0.14102  1.0000
  C   C33       1.0  0.80948  0.66541  0.14063  1.0000
  C   C34       1.0  0.37531  0.18658  0.07947  1.0000
  C   C35       1.0  0.81566  0.18879  0.07486  1.0000
  C   C36       1.0  0.81249  0.62777  0.07705  1.0000
  C   C37       1.0  0.39184  0.23582  0.10804  1.0000
  C   C38       1.0  0.76601  0.15615  0.10232  1.0000
  C   C39       1.0  0.84491  0.61064  0.10793  1.0000
  C   C40       1.0  0.26379  0.06985  0.27818  1.0000
  C   C41       1.0  0.93257  0.19277  0.27677  1.0000
  C   C42       1.0  0.80937  0.74052  0.27328  1.0000
  C   C43       1.0  0.28369  0.05759  0.18324  1.0000
  C   C44       1.0  0.94527  0.22506  0.18107  1.0000
  C   C45       1.0  0.77715  0.72137  0.17651  1.0000
  C   C46       1.0  0.32120  0.09616  0.11760  1.0000
  C   C47       1.0  0.90659  0.22463  0.11495  1.0000
  C   C48       1.0  0.77735  0.68329  0.11191  1.0000
  C   C49       1.0  0.38859  0.36310  0.37058  1.0000
  C   C50       1.0  0.63684  0.02270  0.35760  1.0000
  C   C51       1.0  0.97728  0.61326  0.37161  1.0000
  C   C52       1.0  0.35558  0.36865  0.46200  1.0000
  C   C53       1.0  0.63111  0.98407  0.45006  1.0000
  C   C54       1.0  0.01701  0.64679  0.46178  1.0000
  C   C55       1.0  0.44065  0.38160  0.42533  1.0000
  C   C56       1.0  0.61759  0.05549  0.40930  1.0000
  C   C57       1.0  0.94425  0.56187  0.42701  1.0000
  C   C58       1.0  0.39315  0.39564  0.26335  1.0000
  C   C59       1.0  0.60492  0.99508  0.24879  1.0000
  C   C60       1.0  0.00397  0.60779  0.26376  1.0000
  C   C61       1.0  0.26584  0.00388  0.15113  1.0000
  C   C62       1.0  0.99964  0.26051  0.14996  1.0000
  C   C63       1.0  0.74239  0.74091  0.14129  1.0000
  C   C64       1.0  0.30644  0.99131  0.18508  1.0000
  C   C65       1.0  0.01347  0.31304  0.18883  1.0000
  C   C66       1.0  0.68833  0.70126  0.16799  1.0000
  C   C67       1.0  0.21772  0.96755  0.21463  1.0000
  C   C68       1.0  0.03516  0.24605  0.21031  1.0000
  C   C69       1.0  0.75466  0.78851  0.20752  1.0000
  C   C70       1.0  0.25471  0.99612  0.01780  1.0000
  C   C71       1.0  0.00712  0.26005  0.01588  1.0000
  C   C72       1.0  0.74733  0.75296  0.00832  1.0000
  C   C73       1.0  0.21892  0.12805  0.06254  1.0000
  C   C74       1.0  0.87004  0.09029  0.06342  1.0000
  C   C75       1.0  0.90981  0.78267  0.05381  1.0000
  C   C76       1.0  0.43589  0.23857  0.46074  1.0000
  C   C77       1.0  0.76282  0.19712  0.44677  1.0000
  C   C78       1.0  0.80271  0.56586  0.45019  1.0000
  C   C79       1.0  0.18366  0.10723  0.15814  1.0000
  C   C80       1.0  0.89112  0.07564  0.15961  1.0000
  C   C81       1.0  0.92477  0.81822  0.14887  1.0000
  C   C82       1.0  0.16972  0.13212  0.23758  1.0000
  C   C83       1.0  0.86639  0.03724  0.24090  1.0000
  C   C84       1.0  0.96375  0.83188  0.23020  1.0000
  C   C85       1.0  0.13110  0.10818  0.31712  1.0000
  C   C86       1.0  0.89097  0.02248  0.32008  1.0000
  C   C87       1.0  0.97831  0.87016  0.31043  1.0000
  C   C88       1.0  0.10330  0.05634  0.31905  1.0000
  C   C89       1.0  0.94313  0.04598  0.31985  1.0000
  C   C90       1.0  0.95396  0.89775  0.31180  1.0000
  C   C91       1.0  0.11968  0.03099  0.24643  1.0000
  C   C92       1.0  0.96844  0.08714  0.24494  1.0000
  C   C93       1.0  0.91232  0.88198  0.23661  1.0000
  C   C94       1.0  0.15839  0.05557  0.16901  1.0000
  C   C95       1.0  0.94328  0.10134  0.16793  1.0000
  C   C96       1.0  0.89846  0.84378  0.15794  1.0000
  C   C97       1.0  0.05250  0.02815  0.36839  1.0000
  C   C98       1.0  0.97151  0.02325  0.36869  1.0000
  C   C99       1.0  0.97631  0.94777  0.36408  1.0000
  C   C100      1.0  0.61857  0.31586  0.22064  1.0000
  C   C101      1.0  0.68559  0.30496  0.21583  1.0000
  C   C102      1.0  0.69659  0.38245  0.21765  1.0000
  C   C103      1.0  0.02354  0.05084  0.37493  1.0000
  C   C104      1.0  0.94851  0.97174  0.36965  1.0000
  C   C105      1.0  0.02812  0.97645  0.37017  1.0000
  C   C106      1.0  0.32943  0.27051  0.89943  1.0000
  C   C107      1.0  0.72767  0.05887  0.89103  1.0000
  C   C108      1.0  0.94018  0.67044  0.89682  1.0000
  C   C109      1.0  0.31286  0.22108  0.87162  1.0000
  C   C110      1.0  0.77762  0.09180  0.86587  1.0000
  C   C111      1.0  0.90740  0.68736  0.86692  1.0000
  C   C112      1.0  0.33371  0.20896  0.77365  1.0000
  C   C113      1.0  0.79056  0.12456  0.76642  1.0000
  C   C114      1.0  0.87443  0.66683  0.76729  1.0000
  C   C115      1.0  0.37141  0.24892  0.70763  1.0000
  C   C116      1.0  0.75092  0.12276  0.69787  1.0000
  C   C117      1.0  0.87672  0.62926  0.70170  1.0000
  C   C118      1.0  0.38717  0.29777  0.73914  1.0000
  C   C119      1.0  0.70155  0.09009  0.72777  1.0000
  C   C120      1.0  0.90972  0.61317  0.73516  1.0000
  C   C121      1.0  0.36670  0.30941  0.83501  1.0000
  C   C122      1.0  0.68908  0.05748  0.82342  1.0000
  C   C123      1.0  0.94192  0.63337  0.83244  1.0000
  C   C124      1.0  0.27606  0.18031  0.93694  1.0000
  C   C125      1.0  0.81811  0.09564  0.93451  1.0000
  C   C126      1.0  0.90382  0.72454  0.93080  1.0000
  C   C127      1.0  0.25998  0.13129  0.90739  1.0000
  C   C128      1.0  0.86759  0.12782  0.90539  1.0000
  C   C129      1.0  0.87102  0.74099  0.89876  1.0000
  C   C130      1.0  0.28013  0.11884  0.80915  1.0000
  C   C131      1.0  0.88082  0.15990  0.80530  1.0000
  C   C132      1.0  0.83809  0.72077  0.79949  1.0000
  C   C133      1.0  0.31767  0.15851  0.74318  1.0000
  C   C134      1.0  0.84150  0.15822  0.73656  1.0000
  C   C135      1.0  0.84003  0.68307  0.73444  1.0000
  C   C136      1.0  0.33830  0.14593  0.64544  1.0000
  C   C137      1.0  0.85486  0.19092  0.63680  1.0000
  C   C138      1.0  0.80673  0.66252  0.63521  1.0000
  C   C139      1.0  0.37551  0.18691  0.58124  1.0000
  C   C140      1.0  0.81406  0.18774  0.57044  1.0000
  C   C141      1.0  0.81076  0.62562  0.57112  1.0000
  C   C142      1.0  0.39211  0.23614  0.61042  1.0000
  C   C143      1.0  0.76437  0.15588  0.59915  1.0000
  C   C144      1.0  0.84363  0.60908  0.60220  1.0000
  C   C145      1.0  0.26352  0.06982  0.77795  1.0000
  C   C146      1.0  0.93038  0.19147  0.77506  1.0000
  C   C147      1.0  0.80552  0.73739  0.76621  1.0000
  C   C148      1.0  0.28389  0.05756  0.68388  1.0000
  C   C149      1.0  0.94338  0.22334  0.67849  1.0000
  C   C150      1.0  0.77232  0.71656  0.67166  1.0000
  C   C151      1.0  0.32168  0.09632  0.61917  1.0000
  C   C152      1.0  0.90501  0.22284  0.61086  1.0000
  C   C153      1.0  0.77325  0.67883  0.60759  1.0000
  C   C154      1.0  0.38712  0.36323  0.87160  1.0000
  C   C155      1.0  0.63465  0.02413  0.85677  1.0000
  C   C156      1.0  0.97572  0.61310  0.87006  1.0000
  C   C157      1.0  0.35456  0.36816  0.96546  1.0000
  C   C158      1.0  0.62804  0.98364  0.94442  1.0000
  C   C159      1.0  0.01387  0.64566  0.96424  1.0000
  C   C160      1.0  0.43987  0.38274  0.92306  1.0000
  C   C161      1.0  0.61644  0.05683  0.91388  1.0000
  C   C162      1.0  0.94282  0.56095  0.92154  1.0000
  C   C163      1.0  0.38995  0.39516  0.76449  1.0000
  C   C164      1.0  0.60223  0.99878  0.74696  1.0000
  C   C165      1.0  0.00442  0.60973  0.76379  1.0000
  C   C166      1.0  0.26632  0.00367  0.65276  1.0000
  C   C167      1.0  0.99786  0.25840  0.64804  1.0000
  C   C168      1.0  0.73504  0.73327  0.64013  1.0000
  C   C169      1.0  0.30647  0.99118  0.69183  1.0000
  C   C170      1.0  0.01134  0.31151  0.67994  1.0000
  C   C171      1.0  0.68345  0.69456  0.68620  1.0000
  C   C172      1.0  0.21717  0.96748  0.71311  1.0000
  C   C173      1.0  0.03316  0.24542  0.71512  1.0000
  C   C174      1.0  0.74979  0.78378  0.69412  1.0000
  C   C175      1.0  0.25739  0.99577  0.51867  1.0000
  C   C176      1.0  0.00638  0.25563  0.51530  1.0000
  C   C177      1.0  0.73252  0.73862  0.50542  1.0000
  C   C178      1.0  0.21897  0.12802  0.56175  1.0000
  C   C179      1.0  0.87247  0.08976  0.56293  1.0000
  C   C180      1.0  0.91144  0.78208  0.56489  1.0000
  C   C181      1.0  0.43543  0.23803  0.95831  1.0000
  C   C182      1.0  0.76423  0.19790  0.95140  1.0000
  C   C183      1.0  0.80312  0.56724  0.95692  1.0000
  C   C184      1.0  0.18371  0.10713  0.65744  1.0000
  C   C185      1.0  0.89318  0.07498  0.65947  1.0000
  C   C186      1.0  0.92582  0.81701  0.66157  1.0000
  C   C187      1.0  0.16992  0.13205  0.73728  1.0000
  C   C188      1.0  0.86812  0.03664  0.74073  1.0000
  C   C189      1.0  0.96355  0.82965  0.74619  1.0000
  C   C190      1.0  0.13182  0.10815  0.81810  1.0000
  C   C191      1.0  0.89228  0.02168  0.82056  1.0000
  C   C192      1.0  0.97813  0.86823  0.82574  1.0000
  C   C193      1.0  0.10439  0.05628  0.82146  1.0000
  C   C194      1.0  0.94442  0.04529  0.82212  1.0000
  C   C195      1.0  0.95491  0.89691  0.82325  1.0000
  C   C196      1.0  0.12066  0.03096  0.74845  1.0000
  C   C197      1.0  0.97001  0.08663  0.74785  1.0000
  C   C198      1.0  0.91385  0.88164  0.74629  1.0000
  C   C199      1.0  0.15874  0.05548  0.66931  1.0000
  C   C200      1.0  0.94525  0.10075  0.66946  1.0000
  C   C201      1.0  0.90007  0.84324  0.66831  1.0000
  C   C202      1.0  0.05380  0.02795  0.87199  1.0000
  C   C203      1.0  0.97279  0.02290  0.87285  1.0000
  C   C204      1.0  0.97773  0.94742  0.87301  1.0000
  C   C205      1.0  0.61877  0.31627  0.72336  1.0000
  C   C206      1.0  0.68629  0.30607  0.72361  1.0000
  C   C207      1.0  0.69648  0.38330  0.72460  1.0000
  C   C208      1.0  0.02483  0.05061  0.87721  1.0000
  C   C209      1.0  0.94995  0.97143  0.87815  1.0000
  C   C210      1.0  0.02959  0.97624  0.87613  1.0000
  N   N1        1.0  0.24903  0.17751  0.03592  1.0000
  N   N2        1.0  0.82031  0.07160  0.03567  1.0000
  N   N3        1.0  0.92866  0.75193  0.02961  1.0000
  N   N4        1.0  0.22528  0.09967  0.48443  1.0000
  N   N5        1.0  0.90147  0.12426  0.48541  1.0000
  N   N6        1.0  0.87712  0.77677  0.48523  1.0000
  N   N7        1.0  0.40378  0.18923  0.48563  1.0000
  N   N8        1.0  0.81239  0.21372  0.47312  1.0000
  N   N9        1.0  0.78504  0.59769  0.47396  1.0000
  N   N10       1.0  0.42873  0.26697  0.03287  1.0000
  N   N11       1.0  0.73488  0.16215  0.02584  1.0000
  N   N12       1.0  0.83873  0.57356  0.03356  1.0000
  N   N13       1.0  0.63579  0.28412  0.21571  1.0000
  N   N14       1.0  0.71752  0.35387  0.21373  1.0000
  N   N15       1.0  0.64736  0.36529  0.21825  1.0000
  N   N16       1.0  0.24891  0.17752  0.53479  1.0000
  N   N17       1.0  0.82281  0.07065  0.53423  1.0000
  N   N18       1.0  0.93080  0.75196  0.53835  1.0000
  N   N19       1.0  0.22485  0.09963  0.98468  1.0000
  N   N20       1.0  0.89902  0.12403  0.98449  1.0000
  N   N21       1.0  0.87514  0.77672  0.97455  1.0000
  N   N22       1.0  0.40353  0.18869  0.98401  1.0000
  N   N23       1.0  0.81383  0.21501  0.97832  1.0000
  N   N24       1.0  0.78618  0.59971  0.98052  1.0000
  N   N25       1.0  0.42919  0.26736  0.53586  1.0000
  N   N26       1.0  0.73337  0.16206  0.52256  1.0000
  N   N27       1.0  0.83828  0.57245  0.52729  1.0000
  N   N28       1.0  0.63652  0.28493  0.72072  1.0000
  N   N29       1.0  0.71786  0.35506  0.72272  1.0000
  N   N30       1.0  0.64717  0.36577  0.72182  1.0000
  F   F1        1.0  0.19371  0.18288  0.23345  1.0000
  F   F2        1.0  0.81524  0.01094  0.23895  1.0000
  F   F3        1.0  0.99101  0.80821  0.22775  1.0000
  F   F4        1.0  0.19368  0.18285  0.73328  1.0000
  F   F5        1.0  0.81699  0.01073  0.73884  1.0000
  F   F6        1.0  0.98917  0.80427  0.74947  1.0000
  C   C211      1.0  0.54185  0.32907  0.31840  1.0000
  C   C212      1.0  0.56327  0.30450  0.26377  1.0000
  C  Sn1       1.0  0.53770  0.25316  0.25782  1.0000
  C  Sn2       1.0  0.48979  0.22602  0.30753  1.0000
  C   C213      1.0  0.46866  0.25095  0.36192  1.0000
  C   C214      1.0  0.49459  0.30233  0.36741  1.0000
  H   H169      1.0  0.56189  0.36883  0.32260  1.0000
  O  Te1       1.0  0.55966  0.22919  0.20295  1.0000
  O  Te2       1.0  0.46340  0.17468  0.30278  1.0000
  H   H170      1.0  0.47798  0.32135  0.40965  1.0000
  Mg  Mg1       1.0  0.50900  0.15875  0.21871  1.0000
  C   C215      1.0  0.67275  0.21236  0.29448  1.0000
  C   C216      1.0  0.69742  0.26045  0.25068  1.0000
  C  Sn3       1.0  0.74910  0.28814  0.25479  1.0000
  C  Sn4       1.0  0.77649  0.26719  0.30368  1.0000
  C   C217      1.0  0.75147  0.21904  0.34719  1.0000
  C   C218      1.0  0.69975  0.19166  0.34267  1.0000
  H   H171      1.0  0.63274  0.19117  0.29093  1.0000
  O  Te3       1.0  0.77315  0.33614  0.21068  1.0000
  O  Te4       1.0  0.82817  0.29404  0.30885  1.0000
  H   H172      1.0  0.68067  0.15442  0.37652  1.0000
  Mg  Mg2       1.0  0.84408  0.35801  0.23746  1.0000
  C   C219      1.0  0.80064  0.48343  0.34641  1.0000
  C   C220      1.0  0.78873  0.52070  0.35520  1.0000
  C  Sn5       1.0  0.74431  0.51409  0.30721  1.0000
  C  Sn6       1.0  0.71128  0.46929  0.24941  1.0000
  C   C221      1.0  0.72352  0.43221  0.24115  1.0000
  C   C222      1.0  0.76807  0.43922  0.28946  1.0000
  H   H173      1.0  0.83510  0.48883  0.38383  1.0000
  O  Te5       1.0  0.73299  0.55172  0.31675  1.0000
  O  Te6       1.0  0.66663  0.46171  0.20070  1.0000
  H   H174      1.0  0.77727  0.41034  0.28270  1.0000
  Mg  Mg3       1.0  0.66773  0.52394  0.23623  1.0000
  C   C223      1.0  0.52370  0.23269  0.77384  1.0000
  C   C224      1.0  0.55684  0.28165  0.74442  1.0000
  C  Sn7       1.0  0.54855  0.31915  0.78268  1.0000
  C  Sn8       1.0  0.50628  0.30730  0.85168  1.0000
  C   C225      1.0  0.47337  0.25821  0.88072  1.0000
  C   C226      1.0  0.48201  0.22097  0.84194  1.0000
  H   H175      1.0  0.53039  0.20388  0.74390  1.0000
  O  Te7       1.0  0.58202  0.36787  0.75245  1.0000
  O  Te8       1.0  0.49712  0.34406  0.89112  1.0000
  H   H176      1.0  0.45636  0.18307  0.86480  1.0000
  Mg  Mg4       1.0  0.55350  0.40498  0.82704  1.0000
  C   C227      1.0  0.78065  0.27817  0.79680  1.0000
  C   C228      1.0  0.75600  0.23264  0.85406  1.0000
  C  Sn9       1.0  0.70429  0.20524  0.85270  1.0000
  C  Sn10      1.0  0.67685  0.22386  0.79280  1.0000
  C   C229      1.0  0.70187  0.26944  0.73571  1.0000
  C   C230      1.0  0.75362  0.29656  0.73766  1.0000
  H   H177      1.0  0.82070  0.29915  0.79825  1.0000
  O  Te9       1.0  0.68025  0.15982  0.91040  1.0000
  O  Te10      1.0  0.62515  0.19723  0.79001  1.0000
  H   H178      1.0  0.77270  0.33179  0.69325  1.0000
  Mg  Mg5       1.0  0.60926  0.13722  0.88171  1.0000
  C   C231      1.0  0.78760  0.46132  0.81688  1.0000
  C   C232      1.0  0.74065  0.43910  0.76386  1.0000
  C  Sn11      1.0  0.71397  0.46396  0.75807  1.0000
  C  Sn12      1.0  0.73479  0.51197  0.80630  1.0000
  C   C233      1.0  0.78180  0.53389  0.85908  1.0000
  C   C234      1.0  0.80817  0.50867  0.86443  1.0000
  H   H179      1.0  0.80802  0.44182  0.82097  1.0000
  O  Te11      1.0  0.66710  0.44121  0.70482  1.0000
  O  Te12      1.0  0.70894  0.53766  0.80167  1.0000
  H   H180      1.0  0.84453  0.52590  0.90542  1.0000
  Mg  Mg6       1.0  0.64632  0.49112  0.72009  1.0000
