data_image0
_chemical_formula_structural       H156C180N24SnCSn2CSnTe4Mg2SnCSn2CSnTe4Mg2SnCSn2CSnTe4Mg2SnCSn2CSnTe4Mg2SnCSn2CSnTe4Mg2SnCSn2CSnTe4Mg2SnCSn2CSnTe4Mg2SnCSn2CSnTe4Mg2SnCSn2CSnTe4Mg2SnCSn2CSnTe4Mg2SnCSn2CSnTe4Mg2SnCSn2CSnTe4Mg2
_chemical_formula_sum              "H156 C204 N24 Sn48 Te48 Mg24"
_cell_length_a       36.5747
_cell_length_b       36.1653
_cell_length_c       11.1497
_cell_angle_alpha    90.1328
_cell_angle_beta     89.7518
_cell_angle_gamma    120.42

_symmetry_space_group_name_H-M    'P1'
_space_group_IT_number       1

loop_
  _space_group_symop_operation_xyz
  'x, y, z'

loop_
  _atom_site_type_symbol
  _atom_site_label
  _atom_site_symmetry_multiplicity
  _atom_site_fract_x
  _atom_site_fract_y
  _atom_site_fract_z
  _atom_site_occupancy
  H   H1        1.0  0.32086  0.23645  0.03753  1.0000
  H   H2        1.0  0.76853  0.08410  0.02691  1.0000
  H   H3        1.0  0.91554  0.68250  0.02906  1.0000
  H   H4        1.0  0.43564  0.28306  0.33143  1.0000
  H   H5        1.0  0.71825  0.15190  0.32716  1.0000
  H   H6        1.0  0.85185  0.56623  0.31977  1.0000
  H   H7        1.0  0.23020  0.05588  0.18637  1.0000
  H   H8        1.0  0.94460  0.17640  0.18943  1.0000
  H   H9        1.0  0.82267  0.76771  0.19607  1.0000
  H   H10       1.0  0.34760  0.10090  0.99453  1.0000
  H   H11       1.0  0.89883  0.24680  0.99127  1.0000
  H   H12       1.0  0.75440  0.65044  0.99520  1.0000
  H   H13       1.0  0.36812  0.28759  0.17587  1.0000
  H   H14       1.0  0.71705  0.07630  0.16863  1.0000
  H   H15       1.0  0.92287  0.63746  0.16309  1.0000
  H   H16       1.0  0.34040  0.30276  0.07451  1.0000
  H   H17       1.0  0.70455  0.03450  0.06256  1.0000
  H   H18       1.0  0.96480  0.66627  0.05759  1.0000
  H   H19       1.0  0.38709  0.34246  0.14532  1.0000
  H   H20       1.0  0.66352  0.03784  0.13691  1.0000
  H   H21       1.0  0.95925  0.62017  0.12943  1.0000
  H   H22       1.0  0.46459  0.32758  0.47747  1.0000
  H   H23       1.0  0.67456  0.13667  0.47736  1.0000
  H   H24       1.0  0.86738  0.53722  0.46478  1.0000
  H   H25       1.0  0.44480  0.30375  0.11589  1.0000
  H   H26       1.0  0.69838  0.13563  0.11734  1.0000
  H   H27       1.0  0.86273  0.55901  0.10908  1.0000
  H   H28       1.0  0.45754  0.35765  0.08772  1.0000
  H   H29       1.0  0.64564  0.09285  0.09047  1.0000
  H   H30       1.0  0.90363  0.54730  0.07641  1.0000
  H   H31       1.0  0.36971  0.33214  0.36698  1.0000
  H   H32       1.0  0.67099  0.03691  0.35578  1.0000
  H   H33       1.0  0.96513  0.63513  0.35029  1.0000
  H   H34       1.0  0.42179  0.34385  0.33054  1.0000
  H   H35       1.0  0.65928  0.07765  0.32178  1.0000
  H   H36       1.0  0.92515  0.58201  0.31543  1.0000
  H   H37       1.0  0.41399  0.37317  0.44599  1.0000
  H   H38       1.0  0.62912  0.03853  0.43293  1.0000
  H   H39       1.0  0.96333  0.59104  0.42718  1.0000
  H   H40       1.0  0.33363  0.03431  0.04993  1.0000
  H   H41       1.0  0.96883  0.30350  0.03441  1.0000
  H   H42       1.0  0.69798  0.66224  0.05058  1.0000
  H   H43       1.0  0.29231  0.98138  0.01763  1.0000
  H   H44       1.0  0.02102  0.31190  0.03169  1.0000
  H   H45       1.0  0.68806  0.70541  0.04362  1.0000
  H   H46       1.0  0.29713  0.00310  0.16417  1.0000
  H   H47       1.0  0.99025  0.29439  0.16595  1.0000
  H   H48       1.0  0.70713  0.69506  0.17856  1.0000
  H   H49       1.0  0.21494  0.96349  0.03425  1.0000
  H   H50       1.0  0.03459  0.25170  0.02578  1.0000
  H   H51       1.0  0.74765  0.78158  0.03419  1.0000
  H   H52       1.0  0.20249  0.00458  0.05311  1.0000
  H   H53       1.0  0.99332  0.19765  0.04269  1.0000
  H   H54       1.0  0.80124  0.79476  0.04849  1.0000
  H   H55       1.0  0.22457  0.99036  0.17387  1.0000
  H   H56       1.0  0.00872  0.23372  0.16641  1.0000
  H   H57       1.0  0.76616  0.77460  0.17408  1.0000
  H   H58       1.0  0.29998  0.05319  0.36244  1.0000
  H   H59       1.0  0.94471  0.25669  0.35659  1.0000
  H   H60       1.0  0.74939  0.69533  0.36556  1.0000
  H   H61       1.0  0.24613  0.03941  0.36343  1.0000
  H   H62       1.0  0.96143  0.21868  0.35348  1.0000
  H   H63       1.0  0.78727  0.75069  0.36702  1.0000
  H   H64       1.0  0.25948  0.99845  0.36004  1.0000
  H   H65       1.0  0.99967  0.27431  0.35222  1.0000
  H   H66       1.0  0.73225  0.73330  0.36375  1.0000
  H   H67       1.0  0.25298  0.16869  0.08399  1.0000
  H   H68       1.0  0.83692  0.08759  0.06939  1.0000
  H   H69       1.0  0.91696  0.75112  0.07287  1.0000
  H   H70       1.0  0.41287  0.16964  0.44820  1.0000
  H   H71       1.0  0.82842  0.24731  0.44762  1.0000
  H   H72       1.0  0.75710  0.58641  0.44178  1.0000
  H   H73       1.0  0.04324  0.08230  0.17270  1.0000
  H   H74       1.0  0.92196  0.96619  0.17753  1.0000
  H   H75       1.0  0.03622  0.96019  0.19066  1.0000
  H   H76       1.0  0.62163  0.25277  0.35127  1.0000
  H   H77       1.0  0.74338  0.36793  0.33943  1.0000
  H   H78       1.0  0.62986  0.37556  0.34515  1.0000
  H   H79       1.0  0.31929  0.23437  0.53165  1.0000
  H   H80       1.0  0.76623  0.08462  0.53110  1.0000
  H   H81       1.0  0.91667  0.68236  0.52708  1.0000
  H   H82       1.0  0.43598  0.28309  0.83312  1.0000
  H   H83       1.0  0.71690  0.14933  0.82931  1.0000
  H   H84       1.0  0.85082  0.56711  0.81867  1.0000
  H   H85       1.0  0.22840  0.05700  0.69558  1.0000
  H   H86       1.0  0.94463  0.17927  0.67812  1.0000
  H   H87       1.0  0.82284  0.76939  0.69680  1.0000
  H   H88       1.0  0.34418  0.10090  0.49642  1.0000
  H   H89       1.0  0.89748  0.25113  0.49446  1.0000
  H   H90       1.0  0.75378  0.65211  0.49662  1.0000
  H   H91       1.0  0.36527  0.28495  0.67293  1.0000
  H   H92       1.0  0.71314  0.07588  0.66739  1.0000
  H   H93       1.0  0.92495  0.63757  0.66120  1.0000
  H   H94       1.0  0.33745  0.29953  0.57002  1.0000
  H   H95       1.0  0.70081  0.03471  0.55893  1.0000
  H   H96       1.0  0.96638  0.66669  0.55468  1.0000
  H   H97       1.0  0.38322  0.33964  0.64364  1.0000
  H   H98       1.0  0.65977  0.03876  0.63038  1.0000
  H   H99       1.0  0.96158  0.62078  0.62603  1.0000
  H   H100      1.0  0.46615  0.32802  0.97599  1.0000
  H   H101      1.0  0.67314  0.13263  0.97977  1.0000
  H   H102      1.0  0.86422  0.53725  0.96867  1.0000
  H   H103      1.0  0.44294  0.30347  0.61771  1.0000
  H   H104      1.0  0.69660  0.13646  0.61767  1.0000
  H   H105      1.0  0.86427  0.55858  0.60495  1.0000
  H   H106      1.0  0.45490  0.35690  0.58768  1.0000
  H   H107      1.0  0.64388  0.09552  0.58223  1.0000
  H   H108      1.0  0.90602  0.54786  0.57532  1.0000
  H   H109      1.0  0.37075  0.33182  0.86650  1.0000
  H   H110      1.0  0.67194  0.03475  0.85887  1.0000
  H   H111      1.0  0.96304  0.63474  0.85226  1.0000
  H   H112      1.0  0.42312  0.34435  0.83023  1.0000
  H   H113      1.0  0.65824  0.07434  0.82855  1.0000
  H   H114      1.0  0.92296  0.58150  0.81779  1.0000
  H   H115      1.0  0.41475  0.37395  0.94365  1.0000
  H   H116      1.0  0.63035  0.03519  0.94132  1.0000
  H   H117      1.0  0.96149  0.59079  0.92870  1.0000
  H   H118      1.0  0.32697  0.02846  0.54633  1.0000
  H   H119      1.0  0.96719  0.30799  0.54833  1.0000
  H   H120      1.0  0.69724  0.66460  0.55097  1.0000
  H   H121      1.0  0.28120  0.97656  0.54203  1.0000
  H   H122      1.0  0.01967  0.31727  0.54104  1.0000
  H   H123      1.0  0.68844  0.70857  0.55199  1.0000
  H   H124      1.0  0.29456  0.00749  0.67608  1.0000
  H   H125      1.0  0.98906  0.29608  0.67407  1.0000
  H   H126      1.0  0.70847  0.69646  0.68191  1.0000
  H   H127      1.0  0.20848  0.96642  0.52670  1.0000
  H   H128      1.0  0.03383  0.25711  0.51742  1.0000
  H   H129      1.0  0.74996  0.78471  0.52739  1.0000
  H   H130      1.0  0.19980  0.01015  0.54440  1.0000
  H   H131      1.0  0.99254  0.20283  0.52864  1.0000
  H   H132      1.0  0.80246  0.79623  0.55439  1.0000
  H   H133      1.0  0.21668  0.99161  0.66852  1.0000
  H   H134      1.0  0.00837  0.23670  0.65742  1.0000
  H   H135      1.0  0.76424  0.77636  0.67246  1.0000
  H   H136      1.0  0.29873  0.05315  0.85382  1.0000
  H   H137      1.0  0.94623  0.24941  0.85556  1.0000
  H   H138      1.0  0.75052  0.69477  0.86316  1.0000
  H   H139      1.0  0.24435  0.03648  0.86714  1.0000
  H   H140      1.0  0.95978  0.20888  0.86247  1.0000
  H   H141      1.0  0.78862  0.75001  0.86901  1.0000
  H   H142      1.0  0.26031  0.99761  0.85585  1.0000
  H   H143      1.0  0.00026  0.26368  0.85166  1.0000
  H   H144      1.0  0.73372  0.73301  0.86239  1.0000
  H   H145      1.0  0.25075  0.16595  0.57429  1.0000
  H   H146      1.0  0.83425  0.08652  0.57761  1.0000
  H   H147      1.0  0.91385  0.74876  0.57763  1.0000
  H   H148      1.0  0.41592  0.16856  0.95024  1.0000
  H   H149      1.0  0.83005  0.24413  0.94160  1.0000
  H   H150      1.0  0.75661  0.58397  0.94379  1.0000
  H   H151      1.0  0.04203  0.08117  0.67921  1.0000
  H   H152      1.0  0.92070  0.96476  0.68523  1.0000
  H   H153      1.0  0.03519  0.95927  0.66643  1.0000
  H   H154      1.0  0.62360  0.25120  0.83960  1.0000
  H   H155      1.0  0.74512  0.36708  0.84181  1.0000
  H   H156      1.0  0.63128  0.37382  0.84082  1.0000
  C   C1        1.0  0.33804  0.23095  0.46137  1.0000
  C   C2        1.0  0.76981  0.10686  0.46035  1.0000
  C   C3        1.0  0.89499  0.66348  0.45589  1.0000
  C   C4        1.0  0.31927  0.19284  0.39366  1.0000
  C   C5        1.0  0.80793  0.12691  0.39416  1.0000
  C   C6        1.0  0.87485  0.68149  0.39106  1.0000
  C   C7        1.0  0.34259  0.18760  0.29747  1.0000
  C   C8        1.0  0.81324  0.15536  0.29714  1.0000
  C   C9        1.0  0.84678  0.65793  0.29413  1.0000
  C   C10       1.0  0.38555  0.22103  0.28021  1.0000
  C   C11       1.0  0.77989  0.16430  0.27813  1.0000
  C   C12       1.0  0.83821  0.61528  0.27391  1.0000
  C   C13       1.0  0.40306  0.25837  0.35016  1.0000
  C   C14       1.0  0.74270  0.14416  0.34721  1.0000
  C   C15       1.0  0.85875  0.59849  0.34100  1.0000
  C   C16       1.0  0.37935  0.26469  0.43863  1.0000
  C   C17       1.0  0.73622  0.11386  0.43564  1.0000
  C   C18       1.0  0.88855  0.62270  0.42949  1.0000
  C   C19       1.0  0.27704  0.15782  0.41096  1.0000
  C   C20       1.0  0.84281  0.12028  0.41312  1.0000
  C   C21       1.0  0.88039  0.72297  0.41301  1.0000
  C   C22       1.0  0.25825  0.12232  0.33436  1.0000
  C   C23       1.0  0.87851  0.13761  0.33828  1.0000
  C   C24       1.0  0.86212  0.74086  0.34091  1.0000
  C   C25       1.0  0.28095  0.11731  0.23712  1.0000
  C   C26       1.0  0.88345  0.16503  0.23964  1.0000
  C   C27       1.0  0.83533  0.71816  0.24192  1.0000
  C   C28       1.0  0.32390  0.15022  0.22102  1.0000
  C   C29       1.0  0.85046  0.17440  0.22126  1.0000
  C   C30       1.0  0.82720  0.67586  0.22064  1.0000
  C   C31       1.0  0.34723  0.14422  0.12623  1.0000
  C   C32       1.0  0.85611  0.20325  0.12468  1.0000
  C   C33       1.0  0.79863  0.65230  0.12448  1.0000
  C   C34       1.0  0.38954  0.17906  0.10956  1.0000
  C   C35       1.0  0.82115  0.20979  0.10564  1.0000
  C   C36       1.0  0.79241  0.61049  0.10422  1.0000
  C   C37       1.0  0.40849  0.21510  0.18438  1.0000
  C   C38       1.0  0.78548  0.19253  0.18058  1.0000
  C   C39       1.0  0.80952  0.59195  0.17837  1.0000
  C   C40       1.0  0.26302  0.07977  0.16801  1.0000
  C   C41       1.0  0.92064  0.18483  0.17023  1.0000
  C   C42       1.0  0.81504  0.73528  0.17495  1.0000
  C   C43       1.0  0.28711  0.07192  0.08591  1.0000
  C   C44       1.0  0.92791  0.21618  0.08549  1.0000
  C   C45       1.0  0.78408  0.71078  0.09054  1.0000
  C   C46       1.0  0.32868  0.10543  0.06226  1.0000
  C   C47       1.0  0.89452  0.22371  0.06048  1.0000
  C   C48       1.0  0.77747  0.66984  0.06328  1.0000
  C   C49       1.0  0.39759  0.30866  0.49971  1.0000
  C   C50       1.0  0.69220  0.08704  0.49362  1.0000
  C   C51       1.0  0.91496  0.60537  0.48695  1.0000
  C   C52       1.0  0.37195  0.31037  0.10511  1.0000
  C   C53       1.0  0.69515  0.05698  0.09680  1.0000
  C   C54       1.0  0.94150  0.63420  0.09066  1.0000
  C   C55       1.0  0.44456  0.32558  0.04822  1.0000
  C   C56       1.0  0.67691  0.11340  0.04935  1.0000
  C   C57       1.0  0.88412  0.55961  0.03900  1.0000
  C   C58       1.0  0.40084  0.34133  0.40475  1.0000
  C   C59       1.0  0.66106  0.05834  0.39484  1.0000
  C   C60       1.0  0.94393  0.60334  0.38887  1.0000
  C   C61       1.0  0.27038  0.02724  0.03123  1.0000
  C   C62       1.0  0.97191  0.24428  0.02894  1.0000
  C   C63       1.0  0.75536  0.72599  0.03735  1.0000
  C   C64       1.0  0.30030  0.01064  0.06805  1.0000
  C   C65       1.0  0.98892  0.29131  0.06790  1.0000
  C   C66       1.0  0.70942  0.69525  0.08037  1.0000
  C   C67       1.0  0.22549  0.99475  0.07632  1.0000
  C   C68       1.0  0.00379  0.23085  0.06900  1.0000
  C   C69       1.0  0.76856  0.77193  0.07665  1.0000
  C   C70       1.0  0.26839  0.03010  0.39706  1.0000
  C   C71       1.0  0.96896  0.24994  0.38945  1.0000
  C   C72       1.0  0.75601  0.72647  0.40059  1.0000
  C   C73       1.0  0.21107  0.10970  0.47018  1.0000
  C   C74       1.0  0.89050  0.10322  0.47612  1.0000
  C   C75       1.0  0.89538  0.78762  0.47993  1.0000
  C   C76       1.0  0.45592  0.22563  0.05070  1.0000
  C   C77       1.0  0.77381  0.22735  0.04303  1.0000
  C   C78       1.0  0.77320  0.54398  0.04449  1.0000
  C   C79       1.0  0.04520  0.02394  0.18861  1.0000
  C   C80       1.0  0.98007  0.02729  0.18047  1.0000
  C   C81       1.0  0.97611  0.95773  0.18866  1.0000
  C   C82       1.0  0.62024  0.31157  0.34117  1.0000
  C   C83       1.0  0.68491  0.30740  0.33946  1.0000
  C   C84       1.0  0.68959  0.37730  0.33663  1.0000
  C   C85       1.0  0.02449  0.04770  0.18432  1.0000
  C   C86       1.0  0.95627  0.98235  0.18646  1.0000
  C   C87       1.0  0.02056  0.97897  0.19398  1.0000
  C   C88       1.0  0.64050  0.28738  0.33997  1.0000
  C   C89       1.0  0.70903  0.35230  0.33383  1.0000
  C   C90       1.0  0.64513  0.35650  0.33680  1.0000
  C   C91       1.0  0.33891  0.23259  0.96600  1.0000
  C   C92       1.0  0.77106  0.10613  0.95685  1.0000
  C   C93       1.0  0.89418  0.66410  0.95673  1.0000
  C   C94       1.0  0.31943  0.19436  0.89892  1.0000
  C   C95       1.0  0.80863  0.12681  0.88856  1.0000
  C   C96       1.0  0.87475  0.68267  0.89094  1.0000
  C   C97       1.0  0.34195  0.18850  0.80178  1.0000
  C   C98       1.0  0.81288  0.15535  0.79313  1.0000
  C   C99       1.0  0.84687  0.65941  0.79331  1.0000
  C   C100      1.0  0.38494  0.22139  0.78334  1.0000
  C   C101      1.0  0.77889  0.16353  0.77698  1.0000
  C   C102      1.0  0.83840  0.61682  0.77204  1.0000
  C   C103      1.0  0.40331  0.25884  0.85265  1.0000
  C   C104      1.0  0.74206  0.14244  0.84728  1.0000
  C   C105      1.0  0.85819  0.59950  0.84025  1.0000
  C   C106      1.0  0.38031  0.26579  0.94181  1.0000
  C   C107      1.0  0.73686  0.11241  0.93516  1.0000
  C   C108      1.0  0.88735  0.62314  0.93066  1.0000
  C   C109      1.0  0.27728  0.15968  0.91838  1.0000
  C   C110      1.0  0.84405  0.12093  0.90495  1.0000
  C   C111      1.0  0.88078  0.72440  0.91247  1.0000
  C   C112      1.0  0.25794  0.12355  0.84414  1.0000
  C   C113      1.0  0.87933  0.13872  0.82855  1.0000
  C   C114      1.0  0.86263  0.74256  0.84074  1.0000
  C   C115      1.0  0.27973  0.11819  0.74480  1.0000
  C   C116      1.0  0.88342  0.16656  0.73188  1.0000
  C   C117      1.0  0.83555  0.71988  0.74210  1.0000
  C   C118      1.0  0.32260  0.15098  0.72593  1.0000
  C   C119      1.0  0.84997  0.17547  0.71697  1.0000
  C   C120      1.0  0.82737  0.67757  0.72031  1.0000
  C   C121      1.0  0.34519  0.14460  0.62958  1.0000
  C   C122      1.0  0.85504  0.20516  0.62365  1.0000
  C   C123      1.0  0.79854  0.65402  0.62458  1.0000
  C   C124      1.0  0.38756  0.17917  0.61123  1.0000
  C   C125      1.0  0.81957  0.21102  0.60735  1.0000
  C   C126      1.0  0.79247  0.61232  0.60324  1.0000
  C   C127      1.0  0.40706  0.21499  0.68662  1.0000
  C   C128      1.0  0.78386  0.19251  0.68222  1.0000
  C   C129      1.0  0.81020  0.59384  0.67518  1.0000
  C   C130      1.0  0.26111  0.08070  0.67541  1.0000
  C   C131      1.0  0.92041  0.18754  0.66202  1.0000
  C   C132      1.0  0.81516  0.73698  0.67541  1.0000
  C   C133      1.0  0.28433  0.07265  0.59039  1.0000
  C   C134      1.0  0.92723  0.21990  0.58149  1.0000
  C   C135      1.0  0.78403  0.71251  0.59128  1.0000
  C   C136      1.0  0.32593  0.10578  0.56551  1.0000
  C   C137      1.0  0.89344  0.22704  0.55992  1.0000
  C   C138      1.0  0.77717  0.67149  0.56411  1.0000
  C   C139      1.0  0.39946  0.31004  0.00111  1.0000
  C   C140      1.0  0.69355  0.08520  0.99645  1.0000
  C   C141      1.0  0.91311  0.60522  0.98924  1.0000
  C   C142      1.0  0.36900  0.30777  0.60240  1.0000
  C   C143      1.0  0.69192  0.05759  0.59327  1.0000
  C   C144      1.0  0.94344  0.63452  0.58804  1.0000
  C   C145      1.0  0.44256  0.32482  0.54882  1.0000
  C   C146      1.0  0.67602  0.11570  0.54591  1.0000
  C   C147      1.0  0.88632  0.55964  0.53625  1.0000
  C   C148      1.0  0.40212  0.34192  0.90426  1.0000
  C   C149      1.0  0.66168  0.05558  0.90027  1.0000
  C   C150      1.0  0.94190  0.60296  0.89094  1.0000
  C   C151      1.0  0.26669  0.02797  0.53462  1.0000
  C   C152      1.0  0.97118  0.24955  0.52686  1.0000
  C   C153      1.0  0.75535  0.72779  0.53811  1.0000
  C   C154      1.0  0.29408  0.00912  0.57791  1.0000
  C   C155      1.0  0.98762  0.29543  0.57571  1.0000
  C   C156      1.0  0.70964  0.69746  0.58360  1.0000
  C   C157      1.0  0.22021  0.99745  0.57146  1.0000
  C   C158      1.0  0.00318  0.23554  0.56026  1.0000
  C   C159      1.0  0.76896  0.77398  0.57607  1.0000
  C   C160      1.0  0.26861  0.02892  0.89398  1.0000
  C   C161      1.0  0.96924  0.24144  0.89164  1.0000
  C   C162      1.0  0.75702  0.72566  0.89994  1.0000
  C   C163      1.0  0.21216  0.11195  0.98365  1.0000
  C   C164      1.0  0.89278  0.10502  0.96526  1.0000
  C   C165      1.0  0.89632  0.78925  0.97973  1.0000
  C   C166      1.0  0.45390  0.22550  0.55155  1.0000
  C   C167      1.0  0.77162  0.22837  0.54943  1.0000
  C   C168      1.0  0.77378  0.54625  0.54047  1.0000
  C   C169      1.0  0.04391  0.02268  0.67852  1.0000
  C   C170      1.0  0.97868  0.02579  0.68663  1.0000
  C   C171      1.0  0.97504  0.95631  0.68341  1.0000
  C   C172      1.0  0.62199  0.30992  0.83514  1.0000
  C   C173      1.0  0.68697  0.30618  0.83335  1.0000
  C   C174      1.0  0.69113  0.37590  0.83395  1.0000
  C   C175      1.0  0.02323  0.04640  0.68585  1.0000
  C   C176      1.0  0.95510  0.98079  0.68971  1.0000
  C   C177      1.0  0.01952  0.97774  0.67961  1.0000
  C   C178      1.0  0.64247  0.28594  0.83150  1.0000
  C   C179      1.0  0.71085  0.35119  0.83213  1.0000
  C   C180      1.0  0.64669  0.35491  0.83211  1.0000
  N   N1        1.0  0.24617  0.14946  0.49675  1.0000
  N   N2        1.0  0.85068  0.09771  0.49973  1.0000
  N   N3        1.0  0.90216  0.75364  0.50070  1.0000
  N   N4        1.0  0.21787  0.09324  0.37130  1.0000
  N   N5        1.0  0.90736  0.12677  0.37756  1.0000
  N   N6        1.0  0.87159  0.78045  0.38274  1.0000
  N   N7        1.0  0.42042  0.18614  0.02551  1.0000
  N   N8        1.0  0.81339  0.23238  0.01888  1.0000
  N   N9        1.0  0.76916  0.57937  0.01929  1.0000
  N   N10       1.0  0.44936  0.24300  0.14819  1.0000
  N   N11       1.0  0.75711  0.20411  0.14213  1.0000
  N   N12       1.0  0.79683  0.55096  0.14197  1.0000
  N   N13       1.0  0.24720  0.15215  0.00596  1.0000
  N   N14       1.0  0.85286  0.09892  0.99088  1.0000
  N   N15       1.0  0.90280  0.75506  0.99995  1.0000
  N   N16       1.0  0.21802  0.09466  0.88492  1.0000
  N   N17       1.0  0.90882  0.12844  0.86611  1.0000
  N   N18       1.0  0.87241  0.78218  0.88278  1.0000
  N   N19       1.0  0.41818  0.18613  0.52610  1.0000
  N   N20       1.0  0.81140  0.23414  0.52360  1.0000
  N   N21       1.0  0.76902  0.58136  0.51797  1.0000
  N   N22       1.0  0.44780  0.24271  0.64995  1.0000
  N   N23       1.0  0.75511  0.20399  0.64670  1.0000
  N   N24       1.0  0.79794  0.55314  0.63672  1.0000
  C  Sn1       1.0  0.12870  0.04582  0.99896  1.0000
  C   C181      1.0  0.16343  0.08659  0.02802  1.0000
  C  Sn2       1.0  0.16262  0.10640  0.13489  1.0000
  C  Sn3       1.0  0.12767  0.08496  0.21443  1.0000
  C   C182      1.0  0.09426  0.04416  0.18537  1.0000
  C  Sn4       1.0  0.09504  0.02433  0.07850  1.0000
  O  Te1       1.0  0.13018  0.02663  0.89164  1.0000
  O  Te2       1.0  0.19642  0.14723  0.16197  1.0000
  O  Te3       1.0  0.12621  0.10419  0.32181  1.0000
  O  Te4       1.0  0.56193  0.98352  0.05142  1.0000
  Mg  Mg1       1.0  0.17982  0.16008  0.31893  1.0000
  Mg  Mg2       1.0  0.57721  0.97068  0.89452  1.0000
  C  Sn5       1.0  0.90679  0.03507  0.16069  1.0000
  C   C183      1.0  0.94637  0.04086  0.12909  1.0000
  C  Sn6       1.0  0.97346  0.07438  0.05305  1.0000
  C  Sn7       1.0  0.96072  0.10273  0.00770  1.0000
  C   C184      1.0  0.92116  0.09694  0.03931  1.0000
  C  Sn8       1.0  0.89405  0.06342  0.11534  1.0000
  O  Te5       1.0  0.88023  0.00134  0.23684  1.0000
  O  Te6       1.0  0.01287  0.07952  0.02270  1.0000
  O  Te7       1.0  0.98603  0.13653  0.93149  1.0000
  O  Te8       1.0  0.85466  0.05828  0.14571  1.0000
  Mg  Mg3       1.0  0.03660  0.13034  0.91611  1.0000
  Mg  Mg4       1.0  0.82963  0.00754  0.25233  1.0000
  C  Sn9       1.0  0.96608  0.87415  0.17562  1.0000
  C   C185      1.0  0.96173  0.90891  0.14177  1.0000
  C  Sn10      1.0  0.92907  0.90290  0.06505  1.0000
  C  Sn11      1.0  0.90013  0.86128  0.02130  1.0000
  C   C186      1.0  0.90448  0.82655  0.05516  1.0000
  C  Sn12      1.0  0.93714  0.83253  0.13187  1.0000
  O  Te9       1.0  0.99897  0.88090  0.25241  1.0000
  O  Te10      1.0  0.92537  0.93815  0.03244  1.0000
  O  Te11      1.0  0.86593  0.85461  0.94444  1.0000
  O  Te12      1.0  0.94084  0.79731  0.16449  1.0000
  Mg  Mg5       1.0  0.87402  0.91271  0.92579  1.0000
  Mg  Mg6       1.0  0.99086  0.82276  0.27118  1.0000
  C  Sn13      1.0  0.15812  0.09294  0.67955  1.0000
  C   C187      1.0  0.17206  0.08339  0.57333  1.0000
  C  Sn14      1.0  0.14284  0.05521  0.48970  1.0000
  C  Sn15      1.0  0.09876  0.03621  0.51267  1.0000
  C   C188      1.0  0.08485  0.04577  0.61882  1.0000
  C  Sn16      1.0  0.11405  0.07394  0.70252  1.0000
  O  Te13      1.0  0.18789  0.12120  0.76188  1.0000
  O  Te14      1.0  0.15753  0.04614  0.38417  1.0000
  O  Te15      1.0  0.06899  0.00793  0.43022  1.0000
  O  Te16      1.0  0.09937  0.08301  0.80798  1.0000
  Mg  Mg7       1.0  0.10461  0.00566  0.29956  1.0000
  Mg  Mg8       1.0  0.15226  0.12350  0.89262  1.0000
  C  Sn17      1.0  0.90459  0.03235  0.66840  1.0000
  C   C189      1.0  0.94494  0.03970  0.63933  1.0000
  C  Sn18      1.0  0.97217  0.07443  0.56697  1.0000
  C  Sn19      1.0  0.95879  0.10241  0.52278  1.0000
  C   C190      1.0  0.91846  0.09506  0.55186  1.0000
  C  Sn20      1.0  0.89121  0.06033  0.62421  1.0000
  O  Te17      1.0  0.37855  0.99744  0.74089  1.0000
  O  Te18      1.0  0.01236  0.08112  0.53909  1.0000
  O  Te19      1.0  0.98553  0.13734  0.45023  1.0000
  O  Te20      1.0  0.85105  0.05364  0.65210  1.0000
  Mg  Mg9       1.0  0.03726  0.13308  0.43719  1.0000
  Mg  Mg10      1.0  0.82613  0.00170  0.75404  1.0000
  C  Sn21      1.0  0.96945  0.87587  0.65672  1.0000
  C   C191      1.0  0.95987  0.90806  0.63479  1.0000
  C  Sn22      1.0  0.92242  0.89850  0.57607  1.0000
  C  Sn23      1.0  0.89394  0.85586  0.53855  1.0000
  C   C192      1.0  0.90352  0.82370  0.56050  1.0000
  C  Sn24      1.0  0.94097  0.83324  0.61920  1.0000
  O  Te21      1.0  0.00707  0.88616  0.71557  1.0000
  O  Te22      1.0  0.91354  0.93122  0.55511  1.0000
  O  Te23      1.0  0.85630  0.84560  0.47965  1.0000
  O  Te24      1.0  0.94985  0.80054  0.64017  1.0000
  Mg  Mg11      1.0  0.85826  0.90124  0.47170  1.0000
  Mg  Mg12      1.0  0.00511  0.83047  0.72363  1.0000
  C  Sn25      1.0  0.56071  0.30060  0.51232  1.0000
  C   C193      1.0  0.57569  0.28830  0.41345  1.0000
  C  Sn26      1.0  0.54739  0.25575  0.33707  1.0000
  C  Sn27      1.0  0.50318  0.23510  0.35992  1.0000
  C   C194      1.0  0.48822  0.24741  0.45872  1.0000
  C  Sn28      1.0  0.51650  0.27994  0.53517  1.0000
  O  Te25      1.0  0.58958  0.33321  0.58748  1.0000
  O  Te26      1.0  0.56313  0.24400  0.23882  1.0000
  O  Te27      1.0  0.47431  0.20246  0.28466  1.0000
  O  Te28      1.0  0.50078  0.29170  0.63335  1.0000
  Mg  Mg13      1.0  0.51118  0.19782  0.16238  1.0000
  Mg  Mg14      1.0  0.55270  0.33789  0.70982  1.0000
  C  Sn29      1.0  0.69859  0.26225  0.51528  1.0000
  C   C195      1.0  0.70885  0.28689  0.41085  1.0000
  C  Sn30      1.0  0.73861  0.28788  0.32997  1.0000
  C  Sn31      1.0  0.75850  0.26370  0.35392  1.0000
  C   C196      1.0  0.74823  0.23908  0.45828  1.0000
  C  Sn32      1.0  0.71848  0.23808  0.53923  1.0000
  O  Te29      1.0  0.66875  0.26174  0.59487  1.0000
  O  Te30      1.0  0.74836  0.31276  0.22619  1.0000
  O  Te31      1.0  0.78836  0.26423  0.27422  1.0000
  O  Te32      1.0  0.70872  0.21321  0.64294  1.0000
  Mg  Mg15      1.0  0.79103  0.30302  0.14514  1.0000
  Mg  Mg16      1.0  0.66604  0.22290  0.72402  1.0000
  C  Sn33      1.0  0.71753  0.46814  0.30975  1.0000
  C   C197      1.0  0.72249  0.43347  0.34027  1.0000
  C  Sn34      1.0  0.74167  0.43348  0.44835  1.0000
  C  Sn35      1.0  0.75618  0.46886  0.52763  1.0000
  C   C198      1.0  0.75121  0.50350  0.49711  1.0000
  C  Sn36      1.0  0.73204  0.50352  0.38903  1.0000
  O  Te33      1.0  0.69827  0.46744  0.20124  1.0000
  O  Te34      1.0  0.74628  0.39846  0.47688  1.0000
  O  Te35      1.0  0.77545  0.46953  0.63620  1.0000
  O  Te36      1.0  0.72742  0.53851  0.36050  1.0000
  Mg  Mg17      1.0  0.77454  0.41434  0.63510  1.0000
  Mg  Mg18      1.0  0.69915  0.52266  0.20234  1.0000
  C  Sn37      1.0  0.56501  0.29782  0.01175  1.0000
  C   C199      1.0  0.57744  0.28604  0.90920  1.0000
  C  Sn38      1.0  0.54808  0.25518  0.83089  1.0000
  C  Sn39      1.0  0.50407  0.23575  0.85554  1.0000
  C   C200      1.0  0.49037  0.24759  0.95803  1.0000
  C  Sn40      1.0  0.52100  0.27840  0.03641  1.0000
  O  Te37      1.0  0.59493  0.32875  0.08879  1.0000
  O  Te38      1.0  0.56257  0.24386  0.72895  1.0000
  O  Te39      1.0  0.47416  0.20481  0.77840  1.0000
  O  Te40      1.0  0.50654  0.28972  0.13827  1.0000
  Mg  Mg19      1.0  0.50951  0.20014  0.65113  1.0000
  Mg  Mg20      1.0  0.55956  0.33345  0.21612  1.0000
  C  Sn41      1.0  0.77312  0.28830  0.88320  1.0000
  C   C201      1.0  0.75976  0.25826  0.97602  1.0000
  C  Sn42      1.0  0.71846  0.23554  0.01071  1.0000
  C  Sn43      1.0  0.68730  0.24308  0.95135  1.0000
  C   C202      1.0  0.70066  0.27309  0.85858  1.0000
  C  Sn44      1.0  0.74325  0.29578  0.82384  1.0000
  O  Te41      1.0  0.81585  0.31059  0.85000  1.0000
  O  Te42      1.0  0.70587  0.20568  0.10378  1.0000
  O  Te43      1.0  0.64454  0.22075  0.98463  1.0000
  O  Te44      1.0  0.75584  0.32562  0.73081  1.0000
  Mg  Mg21      1.0  0.64414  0.18331  0.11648  1.0000
  Mg  Mg22      1.0  0.81756  0.34799  0.71800  1.0000
  C  Sn45      1.0  0.76723  0.46504  0.00221  1.0000
  C   C203      1.0  0.76391  0.50093  0.96546  1.0000
  C  Sn46      1.0  0.73335  0.49655  0.88289  1.0000
  C  Sn47      1.0  0.70418  0.45550  0.83613  1.0000
  C   C204      1.0  0.70621  0.41969  0.87289  1.0000
  C  Sn48      1.0  0.73677  0.42403  0.95545  1.0000
  O  Te45      1.0  0.79804  0.47016  0.08486  1.0000
  O  Te46      1.0  0.73196  0.53285  0.84748  1.0000
  O  Te47      1.0  0.67335  0.45040  0.75342  1.0000
  O  Te48      1.0  0.73816  0.38776  0.99088  1.0000
  Mg  Mg23      1.0  0.68419  0.50947  0.73284  1.0000
  Mg  Mg24      1.0  0.78720  0.41105  0.10555  1.0000
