data_image0
_chemical_formula_structural       H156C180N24C2Sn2C2HTe2HMgC2Sn2C2HTe2HMgC2Sn2C2HTe2HMgC2Sn2C2HTe2HMgC2Sn2C2HTe2HMgC2Sn2C2HTe2HMgC2Sn2C2HTe2HMgC2Sn2C2HTe2HMgC2Sn2C2HTe2HMgC2Sn2C2HTe2HMgC2Sn2C2HTe2HMgC2Sn2C2HTe2HMg
_chemical_formula_sum              "H180 C228 N24 Sn24 Te24 Mg12"
_cell_length_a       36.5747
_cell_length_b       36.1653
_cell_length_c       11.1497
_cell_angle_alpha    90.1328
_cell_angle_beta     89.7518
_cell_angle_gamma    120.42

_symmetry_space_group_name_H-M    'P1'
_space_group_IT_number       1

loop_
  _space_group_symop_operation_xyz
  'x, y, z'

loop_
  _atom_site_type_symbol
  _atom_site_label
  _atom_site_symmetry_multiplicity
  _atom_site_fract_x
  _atom_site_fract_y
  _atom_site_fract_z
  _atom_site_occupancy
  H   H1        1.0  0.32086  0.23645  0.03753  1.0000
  H   H2        1.0  0.76853  0.08410  0.02691  1.0000
  H   H3        1.0  0.91554  0.68250  0.02906  1.0000
  H   H4        1.0  0.43564  0.28306  0.33143  1.0000
  H   H5        1.0  0.71825  0.15190  0.32716  1.0000
  H   H6        1.0  0.85185  0.56623  0.31977  1.0000
  H   H7        1.0  0.23020  0.05588  0.18637  1.0000
  H   H8        1.0  0.94460  0.17640  0.18943  1.0000
  H   H9        1.0  0.82267  0.76771  0.19607  1.0000
  H   H10       1.0  0.34760  0.10090  0.99453  1.0000
  H   H11       1.0  0.89883  0.24680  0.99127  1.0000
  H   H12       1.0  0.75440  0.65044  0.99520  1.0000
  H   H13       1.0  0.36812  0.28759  0.17587  1.0000
  H   H14       1.0  0.71705  0.07630  0.16863  1.0000
  H   H15       1.0  0.92287  0.63746  0.16309  1.0000
  H   H16       1.0  0.34040  0.30276  0.07451  1.0000
  H   H17       1.0  0.70455  0.03450  0.06256  1.0000
  H   H18       1.0  0.96480  0.66627  0.05759  1.0000
  H   H19       1.0  0.38709  0.34246  0.14532  1.0000
  H   H20       1.0  0.66352  0.03784  0.13691  1.0000
  H   H21       1.0  0.95925  0.62017  0.12943  1.0000
  H   H22       1.0  0.46459  0.32758  0.47747  1.0000
  H   H23       1.0  0.67456  0.13667  0.47736  1.0000
  H   H24       1.0  0.86738  0.53722  0.46478  1.0000
  H   H25       1.0  0.44480  0.30375  0.11589  1.0000
  H   H26       1.0  0.69838  0.13563  0.11734  1.0000
  H   H27       1.0  0.86273  0.55901  0.10908  1.0000
  H   H28       1.0  0.45754  0.35765  0.08772  1.0000
  H   H29       1.0  0.64564  0.09285  0.09047  1.0000
  H   H30       1.0  0.90363  0.54730  0.07641  1.0000
  H   H31       1.0  0.36971  0.33214  0.36698  1.0000
  H   H32       1.0  0.67099  0.03691  0.35578  1.0000
  H   H33       1.0  0.96513  0.63513  0.35029  1.0000
  H   H34       1.0  0.42179  0.34385  0.33054  1.0000
  H   H35       1.0  0.65928  0.07765  0.32178  1.0000
  H   H36       1.0  0.92515  0.58201  0.31543  1.0000
  H   H37       1.0  0.41399  0.37317  0.44599  1.0000
  H   H38       1.0  0.62912  0.03853  0.43293  1.0000
  H   H39       1.0  0.96333  0.59104  0.42718  1.0000
  H   H40       1.0  0.33363  0.03431  0.04993  1.0000
  H   H41       1.0  0.96883  0.30350  0.03441  1.0000
  H   H42       1.0  0.69798  0.66224  0.05058  1.0000
  H   H43       1.0  0.29231  0.98138  0.01763  1.0000
  H   H44       1.0  0.02102  0.31190  0.03169  1.0000
  H   H45       1.0  0.68806  0.70541  0.04362  1.0000
  H   H46       1.0  0.29713  0.00310  0.16417  1.0000
  H   H47       1.0  0.99025  0.29439  0.16595  1.0000
  H   H48       1.0  0.70713  0.69506  0.17856  1.0000
  H   H49       1.0  0.21494  0.96349  0.03425  1.0000
  H   H50       1.0  0.03459  0.25170  0.02578  1.0000
  H   H51       1.0  0.74765  0.78158  0.03419  1.0000
  H   H52       1.0  0.20249  0.00458  0.05311  1.0000
  H   H53       1.0  0.99332  0.19765  0.04269  1.0000
  H   H54       1.0  0.80124  0.79476  0.04849  1.0000
  H   H55       1.0  0.22457  0.99036  0.17387  1.0000
  H   H56       1.0  0.00872  0.23372  0.16641  1.0000
  H   H57       1.0  0.76616  0.77460  0.17408  1.0000
  H   H58       1.0  0.29998  0.05319  0.36244  1.0000
  H   H59       1.0  0.94471  0.25669  0.35659  1.0000
  H   H60       1.0  0.74939  0.69533  0.36556  1.0000
  H   H61       1.0  0.24613  0.03941  0.36343  1.0000
  H   H62       1.0  0.96143  0.21868  0.35348  1.0000
  H   H63       1.0  0.78727  0.75069  0.36702  1.0000
  H   H64       1.0  0.25948  0.99845  0.36004  1.0000
  H   H65       1.0  0.99967  0.27431  0.35222  1.0000
  H   H66       1.0  0.73225  0.73330  0.36375  1.0000
  H   H67       1.0  0.25298  0.16869  0.08399  1.0000
  H   H68       1.0  0.83692  0.08759  0.06939  1.0000
  H   H69       1.0  0.91696  0.75112  0.07287  1.0000
  H   H70       1.0  0.41287  0.16964  0.44820  1.0000
  H   H71       1.0  0.82842  0.24731  0.44762  1.0000
  H   H72       1.0  0.75710  0.58641  0.44178  1.0000
  H   H73       1.0  0.04324  0.08230  0.17270  1.0000
  H   H74       1.0  0.92196  0.96619  0.17753  1.0000
  H   H75       1.0  0.03622  0.96019  0.19066  1.0000
  H   H76       1.0  0.62163  0.25277  0.35127  1.0000
  H   H77       1.0  0.74338  0.36793  0.33943  1.0000
  H   H78       1.0  0.62986  0.37556  0.34515  1.0000
  H   H79       1.0  0.31929  0.23437  0.53165  1.0000
  H   H80       1.0  0.76623  0.08462  0.53110  1.0000
  H   H81       1.0  0.91667  0.68236  0.52708  1.0000
  H   H82       1.0  0.43598  0.28309  0.83312  1.0000
  H   H83       1.0  0.71690  0.14933  0.82931  1.0000
  H   H84       1.0  0.85082  0.56711  0.81867  1.0000
  H   H85       1.0  0.22840  0.05700  0.69558  1.0000
  H   H86       1.0  0.94463  0.17927  0.67812  1.0000
  H   H87       1.0  0.82284  0.76939  0.69680  1.0000
  H   H88       1.0  0.34418  0.10090  0.49642  1.0000
  H   H89       1.0  0.89748  0.25113  0.49446  1.0000
  H   H90       1.0  0.75378  0.65211  0.49662  1.0000
  H   H91       1.0  0.36527  0.28495  0.67293  1.0000
  H   H92       1.0  0.71314  0.07588  0.66739  1.0000
  H   H93       1.0  0.92495  0.63757  0.66120  1.0000
  H   H94       1.0  0.33745  0.29953  0.57002  1.0000
  H   H95       1.0  0.70081  0.03471  0.55893  1.0000
  H   H96       1.0  0.96638  0.66669  0.55468  1.0000
  H   H97       1.0  0.38322  0.33964  0.64364  1.0000
  H   H98       1.0  0.65977  0.03876  0.63038  1.0000
  H   H99       1.0  0.96158  0.62078  0.62603  1.0000
  H   H100      1.0  0.46615  0.32802  0.97599  1.0000
  H   H101      1.0  0.67314  0.13263  0.97977  1.0000
  H   H102      1.0  0.86422  0.53725  0.96867  1.0000
  H   H103      1.0  0.44294  0.30347  0.61771  1.0000
  H   H104      1.0  0.69660  0.13646  0.61767  1.0000
  H   H105      1.0  0.86427  0.55858  0.60495  1.0000
  H   H106      1.0  0.45490  0.35690  0.58768  1.0000
  H   H107      1.0  0.64388  0.09552  0.58223  1.0000
  H   H108      1.0  0.90602  0.54786  0.57532  1.0000
  H   H109      1.0  0.37075  0.33182  0.86650  1.0000
  H   H110      1.0  0.67194  0.03475  0.85887  1.0000
  H   H111      1.0  0.96304  0.63474  0.85226  1.0000
  H   H112      1.0  0.42312  0.34435  0.83023  1.0000
  H   H113      1.0  0.65824  0.07434  0.82855  1.0000
  H   H114      1.0  0.92296  0.58150  0.81779  1.0000
  H   H115      1.0  0.41475  0.37395  0.94365  1.0000
  H   H116      1.0  0.63035  0.03519  0.94132  1.0000
  H   H117      1.0  0.96149  0.59079  0.92870  1.0000
  H   H118      1.0  0.32697  0.02846  0.54633  1.0000
  H   H119      1.0  0.96719  0.30799  0.54833  1.0000
  H   H120      1.0  0.69724  0.66460  0.55097  1.0000
  H   H121      1.0  0.28120  0.97656  0.54203  1.0000
  H   H122      1.0  0.01967  0.31727  0.54104  1.0000
  H   H123      1.0  0.68844  0.70857  0.55199  1.0000
  H   H124      1.0  0.29456  0.00749  0.67608  1.0000
  H   H125      1.0  0.98906  0.29608  0.67407  1.0000
  H   H126      1.0  0.70847  0.69646  0.68191  1.0000
  H   H127      1.0  0.20848  0.96642  0.52670  1.0000
  H   H128      1.0  0.03383  0.25711  0.51742  1.0000
  H   H129      1.0  0.74996  0.78471  0.52739  1.0000
  H   H130      1.0  0.19980  0.01015  0.54440  1.0000
  H   H131      1.0  0.99254  0.20283  0.52864  1.0000
  H   H132      1.0  0.80246  0.79623  0.55439  1.0000
  H   H133      1.0  0.21668  0.99161  0.66852  1.0000
  H   H134      1.0  0.00837  0.23670  0.65742  1.0000
  H   H135      1.0  0.76424  0.77636  0.67246  1.0000
  H   H136      1.0  0.29873  0.05315  0.85382  1.0000
  H   H137      1.0  0.94623  0.24941  0.85556  1.0000
  H   H138      1.0  0.75052  0.69477  0.86316  1.0000
  H   H139      1.0  0.24435  0.03648  0.86714  1.0000
  H   H140      1.0  0.95978  0.20888  0.86247  1.0000
  H   H141      1.0  0.78862  0.75001  0.86901  1.0000
  H   H142      1.0  0.26031  0.99761  0.85585  1.0000
  H   H143      1.0  0.00026  0.26368  0.85166  1.0000
  H   H144      1.0  0.73372  0.73301  0.86239  1.0000
  H   H145      1.0  0.25075  0.16595  0.57429  1.0000
  H   H146      1.0  0.83425  0.08652  0.57761  1.0000
  H   H147      1.0  0.91385  0.74876  0.57763  1.0000
  H   H148      1.0  0.41592  0.16856  0.95024  1.0000
  H   H149      1.0  0.83005  0.24413  0.94160  1.0000
  H   H150      1.0  0.75661  0.58397  0.94379  1.0000
  H   H151      1.0  0.04203  0.08117  0.67921  1.0000
  H   H152      1.0  0.92070  0.96476  0.68523  1.0000
  H   H153      1.0  0.03519  0.95927  0.66643  1.0000
  H   H154      1.0  0.62360  0.25120  0.83960  1.0000
  H   H155      1.0  0.74512  0.36708  0.84181  1.0000
  H   H156      1.0  0.63128  0.37382  0.84082  1.0000
  C   C1        1.0  0.33804  0.23095  0.46137  1.0000
  C   C2        1.0  0.76981  0.10686  0.46035  1.0000
  C   C3        1.0  0.89499  0.66348  0.45589  1.0000
  C   C4        1.0  0.31927  0.19284  0.39366  1.0000
  C   C5        1.0  0.80793  0.12691  0.39416  1.0000
  C   C6        1.0  0.87485  0.68149  0.39106  1.0000
  C   C7        1.0  0.34259  0.18760  0.29747  1.0000
  C   C8        1.0  0.81324  0.15536  0.29714  1.0000
  C   C9        1.0  0.84678  0.65793  0.29413  1.0000
  C   C10       1.0  0.38555  0.22103  0.28021  1.0000
  C   C11       1.0  0.77989  0.16430  0.27813  1.0000
  C   C12       1.0  0.83821  0.61528  0.27391  1.0000
  C   C13       1.0  0.40306  0.25837  0.35016  1.0000
  C   C14       1.0  0.74270  0.14416  0.34721  1.0000
  C   C15       1.0  0.85875  0.59849  0.34100  1.0000
  C   C16       1.0  0.37935  0.26469  0.43863  1.0000
  C   C17       1.0  0.73622  0.11386  0.43564  1.0000
  C   C18       1.0  0.88855  0.62270  0.42949  1.0000
  C   C19       1.0  0.27704  0.15782  0.41096  1.0000
  C   C20       1.0  0.84281  0.12028  0.41312  1.0000
  C   C21       1.0  0.88039  0.72297  0.41301  1.0000
  C   C22       1.0  0.25825  0.12232  0.33436  1.0000
  C   C23       1.0  0.87851  0.13761  0.33828  1.0000
  C   C24       1.0  0.86212  0.74086  0.34091  1.0000
  C   C25       1.0  0.28095  0.11731  0.23712  1.0000
  C   C26       1.0  0.88345  0.16503  0.23964  1.0000
  C   C27       1.0  0.83533  0.71816  0.24192  1.0000
  C   C28       1.0  0.32390  0.15022  0.22102  1.0000
  C   C29       1.0  0.85046  0.17440  0.22126  1.0000
  C   C30       1.0  0.82720  0.67586  0.22064  1.0000
  C   C31       1.0  0.34723  0.14422  0.12623  1.0000
  C   C32       1.0  0.85611  0.20325  0.12468  1.0000
  C   C33       1.0  0.79863  0.65230  0.12448  1.0000
  C   C34       1.0  0.38954  0.17906  0.10956  1.0000
  C   C35       1.0  0.82115  0.20979  0.10564  1.0000
  C   C36       1.0  0.79241  0.61049  0.10422  1.0000
  C   C37       1.0  0.40849  0.21510  0.18438  1.0000
  C   C38       1.0  0.78548  0.19253  0.18058  1.0000
  C   C39       1.0  0.80952  0.59195  0.17837  1.0000
  C   C40       1.0  0.26302  0.07977  0.16801  1.0000
  C   C41       1.0  0.92064  0.18483  0.17023  1.0000
  C   C42       1.0  0.81504  0.73528  0.17495  1.0000
  C   C43       1.0  0.28711  0.07192  0.08591  1.0000
  C   C44       1.0  0.92791  0.21618  0.08549  1.0000
  C   C45       1.0  0.78408  0.71078  0.09054  1.0000
  C   C46       1.0  0.32868  0.10543  0.06226  1.0000
  C   C47       1.0  0.89452  0.22371  0.06048  1.0000
  C   C48       1.0  0.77747  0.66984  0.06328  1.0000
  C   C49       1.0  0.39759  0.30866  0.49971  1.0000
  C   C50       1.0  0.69220  0.08704  0.49362  1.0000
  C   C51       1.0  0.91496  0.60537  0.48695  1.0000
  C   C52       1.0  0.37195  0.31037  0.10511  1.0000
  C   C53       1.0  0.69515  0.05698  0.09680  1.0000
  C   C54       1.0  0.94150  0.63420  0.09066  1.0000
  C   C55       1.0  0.44456  0.32558  0.04822  1.0000
  C   C56       1.0  0.67691  0.11340  0.04935  1.0000
  C   C57       1.0  0.88412  0.55961  0.03900  1.0000
  C   C58       1.0  0.40084  0.34133  0.40475  1.0000
  C   C59       1.0  0.66106  0.05834  0.39484  1.0000
  C   C60       1.0  0.94393  0.60334  0.38887  1.0000
  C   C61       1.0  0.27038  0.02724  0.03123  1.0000
  C   C62       1.0  0.97191  0.24428  0.02894  1.0000
  C   C63       1.0  0.75536  0.72599  0.03735  1.0000
  C   C64       1.0  0.30030  0.01064  0.06805  1.0000
  C   C65       1.0  0.98892  0.29131  0.06790  1.0000
  C   C66       1.0  0.70942  0.69525  0.08037  1.0000
  C   C67       1.0  0.22549  0.99475  0.07632  1.0000
  C   C68       1.0  0.00379  0.23085  0.06900  1.0000
  C   C69       1.0  0.76856  0.77193  0.07665  1.0000
  C   C70       1.0  0.26839  0.03010  0.39706  1.0000
  C   C71       1.0  0.96896  0.24994  0.38945  1.0000
  C   C72       1.0  0.75601  0.72647  0.40059  1.0000
  C   C73       1.0  0.21107  0.10970  0.47018  1.0000
  C   C74       1.0  0.89050  0.10322  0.47612  1.0000
  C   C75       1.0  0.89538  0.78762  0.47993  1.0000
  C   C76       1.0  0.45592  0.22563  0.05070  1.0000
  C   C77       1.0  0.77381  0.22735  0.04303  1.0000
  C   C78       1.0  0.77320  0.54398  0.04449  1.0000
  C   C79       1.0  0.04520  0.02394  0.18861  1.0000
  C   C80       1.0  0.98007  0.02729  0.18047  1.0000
  C   C81       1.0  0.97611  0.95773  0.18866  1.0000
  C   C82       1.0  0.62024  0.31157  0.34117  1.0000
  C   C83       1.0  0.68491  0.30740  0.33946  1.0000
  C   C84       1.0  0.68959  0.37730  0.33663  1.0000
  C   C85       1.0  0.02449  0.04770  0.18432  1.0000
  C   C86       1.0  0.95627  0.98235  0.18646  1.0000
  C   C87       1.0  0.02056  0.97897  0.19398  1.0000
  C   C88       1.0  0.64050  0.28738  0.33997  1.0000
  C   C89       1.0  0.70903  0.35230  0.33383  1.0000
  C   C90       1.0  0.64513  0.35650  0.33680  1.0000
  C   C91       1.0  0.33891  0.23259  0.96600  1.0000
  C   C92       1.0  0.77106  0.10613  0.95685  1.0000
  C   C93       1.0  0.89418  0.66410  0.95673  1.0000
  C   C94       1.0  0.31943  0.19436  0.89892  1.0000
  C   C95       1.0  0.80863  0.12681  0.88856  1.0000
  C   C96       1.0  0.87475  0.68267  0.89094  1.0000
  C   C97       1.0  0.34195  0.18850  0.80178  1.0000
  C   C98       1.0  0.81288  0.15535  0.79313  1.0000
  C   C99       1.0  0.84687  0.65941  0.79331  1.0000
  C   C100      1.0  0.38494  0.22139  0.78334  1.0000
  C   C101      1.0  0.77889  0.16353  0.77698  1.0000
  C   C102      1.0  0.83840  0.61682  0.77204  1.0000
  C   C103      1.0  0.40331  0.25884  0.85265  1.0000
  C   C104      1.0  0.74206  0.14244  0.84728  1.0000
  C   C105      1.0  0.85819  0.59950  0.84025  1.0000
  C   C106      1.0  0.38031  0.26579  0.94181  1.0000
  C   C107      1.0  0.73686  0.11241  0.93516  1.0000
  C   C108      1.0  0.88735  0.62314  0.93066  1.0000
  C   C109      1.0  0.27728  0.15968  0.91838  1.0000
  C   C110      1.0  0.84405  0.12093  0.90495  1.0000
  C   C111      1.0  0.88078  0.72440  0.91247  1.0000
  C   C112      1.0  0.25794  0.12355  0.84414  1.0000
  C   C113      1.0  0.87933  0.13872  0.82855  1.0000
  C   C114      1.0  0.86263  0.74256  0.84074  1.0000
  C   C115      1.0  0.27973  0.11819  0.74480  1.0000
  C   C116      1.0  0.88342  0.16656  0.73188  1.0000
  C   C117      1.0  0.83555  0.71988  0.74210  1.0000
  C   C118      1.0  0.32260  0.15098  0.72593  1.0000
  C   C119      1.0  0.84997  0.17547  0.71697  1.0000
  C   C120      1.0  0.82737  0.67757  0.72031  1.0000
  C   C121      1.0  0.34519  0.14460  0.62958  1.0000
  C   C122      1.0  0.85504  0.20516  0.62365  1.0000
  C   C123      1.0  0.79854  0.65402  0.62458  1.0000
  C   C124      1.0  0.38756  0.17917  0.61123  1.0000
  C   C125      1.0  0.81957  0.21102  0.60735  1.0000
  C   C126      1.0  0.79247  0.61232  0.60324  1.0000
  C   C127      1.0  0.40706  0.21499  0.68662  1.0000
  C   C128      1.0  0.78386  0.19251  0.68222  1.0000
  C   C129      1.0  0.81020  0.59384  0.67518  1.0000
  C   C130      1.0  0.26111  0.08070  0.67541  1.0000
  C   C131      1.0  0.92041  0.18754  0.66202  1.0000
  C   C132      1.0  0.81516  0.73698  0.67541  1.0000
  C   C133      1.0  0.28433  0.07265  0.59039  1.0000
  C   C134      1.0  0.92723  0.21990  0.58149  1.0000
  C   C135      1.0  0.78403  0.71251  0.59128  1.0000
  C   C136      1.0  0.32593  0.10578  0.56551  1.0000
  C   C137      1.0  0.89344  0.22704  0.55992  1.0000
  C   C138      1.0  0.77717  0.67149  0.56411  1.0000
  C   C139      1.0  0.39946  0.31004  0.00111  1.0000
  C   C140      1.0  0.69355  0.08520  0.99645  1.0000
  C   C141      1.0  0.91311  0.60522  0.98924  1.0000
  C   C142      1.0  0.36900  0.30777  0.60240  1.0000
  C   C143      1.0  0.69192  0.05759  0.59327  1.0000
  C   C144      1.0  0.94344  0.63452  0.58804  1.0000
  C   C145      1.0  0.44256  0.32482  0.54882  1.0000
  C   C146      1.0  0.67602  0.11570  0.54591  1.0000
  C   C147      1.0  0.88632  0.55964  0.53625  1.0000
  C   C148      1.0  0.40212  0.34192  0.90426  1.0000
  C   C149      1.0  0.66168  0.05558  0.90027  1.0000
  C   C150      1.0  0.94190  0.60296  0.89094  1.0000
  C   C151      1.0  0.26669  0.02797  0.53462  1.0000
  C   C152      1.0  0.97118  0.24955  0.52686  1.0000
  C   C153      1.0  0.75535  0.72779  0.53811  1.0000
  C   C154      1.0  0.29408  0.00912  0.57791  1.0000
  C   C155      1.0  0.98762  0.29543  0.57571  1.0000
  C   C156      1.0  0.70964  0.69746  0.58360  1.0000
  C   C157      1.0  0.22021  0.99745  0.57146  1.0000
  C   C158      1.0  0.00318  0.23554  0.56026  1.0000
  C   C159      1.0  0.76896  0.77398  0.57607  1.0000
  C   C160      1.0  0.26861  0.02892  0.89398  1.0000
  C   C161      1.0  0.96924  0.24144  0.89164  1.0000
  C   C162      1.0  0.75702  0.72566  0.89994  1.0000
  C   C163      1.0  0.21216  0.11195  0.98365  1.0000
  C   C164      1.0  0.89278  0.10502  0.96526  1.0000
  C   C165      1.0  0.89632  0.78925  0.97973  1.0000
  C   C166      1.0  0.45390  0.22550  0.55155  1.0000
  C   C167      1.0  0.77162  0.22837  0.54943  1.0000
  C   C168      1.0  0.77378  0.54625  0.54047  1.0000
  C   C169      1.0  0.04391  0.02268  0.67852  1.0000
  C   C170      1.0  0.97868  0.02579  0.68663  1.0000
  C   C171      1.0  0.97504  0.95631  0.68341  1.0000
  C   C172      1.0  0.62199  0.30992  0.83514  1.0000
  C   C173      1.0  0.68697  0.30618  0.83335  1.0000
  C   C174      1.0  0.69113  0.37590  0.83395  1.0000
  C   C175      1.0  0.02323  0.04640  0.68585  1.0000
  C   C176      1.0  0.95510  0.98079  0.68971  1.0000
  C   C177      1.0  0.01952  0.97774  0.67961  1.0000
  C   C178      1.0  0.64247  0.28594  0.83150  1.0000
  C   C179      1.0  0.71085  0.35119  0.83213  1.0000
  C   C180      1.0  0.64669  0.35491  0.83211  1.0000
  N   N1        1.0  0.24617  0.14946  0.49675  1.0000
  N   N2        1.0  0.85068  0.09771  0.49973  1.0000
  N   N3        1.0  0.90216  0.75364  0.50070  1.0000
  N   N4        1.0  0.21787  0.09324  0.37130  1.0000
  N   N5        1.0  0.90736  0.12677  0.37756  1.0000
  N   N6        1.0  0.87159  0.78045  0.38274  1.0000
  N   N7        1.0  0.42042  0.18614  0.02551  1.0000
  N   N8        1.0  0.81339  0.23238  0.01888  1.0000
  N   N9        1.0  0.76916  0.57937  0.01929  1.0000
  N   N10       1.0  0.44936  0.24300  0.14819  1.0000
  N   N11       1.0  0.75711  0.20411  0.14213  1.0000
  N   N12       1.0  0.79683  0.55096  0.14197  1.0000
  N   N13       1.0  0.24720  0.15215  0.00596  1.0000
  N   N14       1.0  0.85286  0.09892  0.99088  1.0000
  N   N15       1.0  0.90280  0.75506  0.99995  1.0000
  N   N16       1.0  0.21802  0.09466  0.88492  1.0000
  N   N17       1.0  0.90882  0.12844  0.86611  1.0000
  N   N18       1.0  0.87241  0.78218  0.88278  1.0000
  N   N19       1.0  0.41818  0.18613  0.52610  1.0000
  N   N20       1.0  0.81140  0.23414  0.52360  1.0000
  N   N21       1.0  0.76902  0.58136  0.51797  1.0000
  N   N22       1.0  0.44780  0.24271  0.64995  1.0000
  N   N23       1.0  0.75511  0.20399  0.64670  1.0000
  N   N24       1.0  0.79794  0.55314  0.63672  1.0000
  C   C181      1.0  0.11103  0.02672  0.04570  1.0000
  C   C182      1.0  0.09440  0.03824  0.14229  1.0000
  C  Sn1       1.0  0.11812  0.07858  0.19551  1.0000
  C  Sn2       1.0  0.15924  0.10787  0.15098  1.0000
  C   C183      1.0  0.17559  0.09604  0.05425  1.0000
  C   C184      1.0  0.15159  0.05558  0.00170  1.0000
  H   H157      1.0  0.59312  0.99542  0.00499  1.0000
  O  Te1       1.0  0.10102  0.08958  0.29196  1.0000
  O  Te2       1.0  0.18362  0.14840  0.20246  1.0000
  H   H158      1.0  0.16317  0.04673  0.92687  1.0000
  Mg  Mg1       1.0  0.14651  0.14853  0.33206  1.0000
  C   C185      1.0  0.96471  0.09656  0.99211  1.0000
  C   C186      1.0  0.92559  0.08955  0.01822  1.0000
  C  Sn3       1.0  0.90260  0.06390  0.11555  1.0000
  C  Sn4       1.0  0.92050  0.04492  0.18794  1.0000
  C   C187      1.0  0.96096  0.05210  0.16112  1.0000
  C   C188      1.0  0.98368  0.07781  0.06349  1.0000
  H   H159      1.0  0.98231  0.11647  0.91662  1.0000
  O  Te3       1.0  0.86226  0.05727  0.14034  1.0000
  O  Te4       1.0  0.89822  0.01915  0.28577  1.0000
  H   H160      1.0  0.01498  0.08321  0.04335  1.0000
  Mg  Mg2       1.0  0.84433  0.01963  0.28337  1.0000
  C   C189      1.0  0.91830  0.89368  0.02999  1.0000
  C   C190      1.0  0.94249  0.90890  0.13436  1.0000
  C  Sn5       1.0  0.95367  0.88288  0.19804  1.0000
  C  Sn6       1.0  0.94035  0.84086  0.15622  1.0000
  C   C191      1.0  0.91618  0.82594  0.05166  1.0000
  C   C192      1.0  0.90386  0.85229  0.98865  1.0000
  H   H161      1.0  0.90849  0.91408  0.98120  1.0000
  O  Te5       1.0  0.97785  0.89860  0.30217  1.0000
  O  Te6       1.0  0.95109  0.81419  0.21810  1.0000
  H   H162      1.0  0.88515  0.84050  0.90781  1.0000
  Mg  Mg3       1.0  0.98448  0.85010  0.35534  1.0000
  C   C193      1.0  0.13341  0.08962  0.69755  1.0000
  C   C194      1.0  0.09621  0.05478  0.65296  1.0000
  C  Sn7       1.0  0.09715  0.03441  0.54735  1.0000
  C  Sn8       1.0  0.13610  0.04925  0.48545  1.0000
  C   C195      1.0  0.17315  0.08411  0.53085  1.0000
  C   C196      1.0  0.17185  0.10427  0.63659  1.0000
  H   H163      1.0  0.13241  0.10521  0.77939  1.0000
  O  Te7       1.0  0.56034  0.99966  0.50401  1.0000
  O  Te8       1.0  0.13795  0.02947  0.37973  1.0000
  H   H164      1.0  0.20066  0.13123  0.67113  1.0000
  Mg  Mg4       1.0  0.57905  0.98330  0.35638  1.0000
  C   C197      1.0  0.97387  0.08530  0.53245  1.0000
  C   C198      1.0  0.96372  0.05953  0.63454  1.0000
  C  Sn9       1.0  0.92508  0.04530  0.69353  1.0000
  C  Sn10      1.0  0.89612  0.05714  0.64926  1.0000
  C   C199      1.0  0.90655  0.08290  0.54701  1.0000
  C   C200      1.0  0.94531  0.09697  0.48870  1.0000
  H   H165      1.0  0.00385  0.09617  0.48729  1.0000
  O  Te9       1.0  0.91545  0.01959  0.79544  1.0000
  O  Te10      1.0  0.85727  0.04335  0.70646  1.0000
  H   H166      1.0  0.95315  0.11690  0.40962  1.0000
  Mg  Mg5       1.0  0.85856  0.00883  0.84219  1.0000
  C   C201      1.0  0.95257  0.84810  0.65721  1.0000
  C   C202      1.0  0.91867  0.82815  0.57727  1.0000
  C  Sn11      1.0  0.90064  0.85087  0.52912  1.0000
  C  Sn12      1.0  0.91693  0.89438  0.56176  1.0000
  C   C203      1.0  0.95087  0.91406  0.64174  1.0000
  C   C204      1.0  0.96866  0.89102  0.68941  1.0000
  H   H167      1.0  0.96635  0.83029  0.69405  1.0000
  O  Te11      1.0  0.86678  0.83044  0.44941  1.0000
  O  Te12      1.0  0.89952  0.91784  0.51494  1.0000
  H   H168      1.0  0.99492  0.90649  0.75124  1.0000
  Mg  Mg6       1.0  0.85374  0.87588  0.40965  1.0000
  C   C205      1.0  0.51030  0.22963  0.35995  1.0000
  C   C206      1.0  0.49526  0.24017  0.46224  1.0000
  C  Sn13      1.0  0.52089  0.27887  0.52188  1.0000
  C  Sn14      1.0  0.56231  0.30748  0.47808  1.0000
  C   C207      1.0  0.57705  0.29666  0.37563  1.0000
  C   C208      1.0  0.55114  0.25785  0.31666  1.0000
  H   H169      1.0  0.49025  0.19962  0.31428  1.0000
  O  Te13      1.0  0.50538  0.28889  0.62398  1.0000
  O  Te14      1.0  0.58859  0.34638  0.53593  1.0000
  H   H170      1.0  0.56278  0.24971  0.23742  1.0000
  Mg  Mg7       1.0  0.55316  0.34568  0.67169  1.0000
  C   C209      1.0  0.70228  0.24129  0.53301  1.0000
  C   C210      1.0  0.73835  0.24111  0.49204  1.0000
  C  Sn15      1.0  0.75976  0.26432  0.38965  1.0000
  C  Sn16      1.0  0.74470  0.28813  0.32733  1.0000
  C   C211      1.0  0.70860  0.28812  0.36910  1.0000
  C   C212      1.0  0.68742  0.26478  0.47163  1.0000
  H   H171      1.0  0.68589  0.22325  0.61238  1.0000
  O  Te15      1.0  0.79574  0.26378  0.34991  1.0000
  O  Te16      1.0  0.76550  0.31161  0.22478  1.0000
  H   H172      1.0  0.65950  0.26494  0.50338  1.0000
  Mg  Mg8       1.0  0.81317  0.30085  0.20574  1.0000
  C   C213      1.0  0.71849  0.48810  0.35545  1.0000
  C   C214      1.0  0.74592  0.50405  0.45342  1.0000
  C  Sn17      1.0  0.76009  0.47895  0.50852  1.0000
  C  Sn18      1.0  0.74650  0.43712  0.46450  1.0000
  C   C215      1.0  0.71908  0.42148  0.36639  1.0000
  C   C216      1.0  0.70509  0.44686  0.31195  1.0000
  H   H173      1.0  0.70767  0.50775  0.31328  1.0000
  O  Te17      1.0  0.78748  0.49537  0.60634  1.0000
  O  Te18      1.0  0.76019  0.41136  0.51786  1.0000
  H   H174      1.0  0.68387  0.43452  0.23605  1.0000
  Mg  Mg9       1.0  0.79738  0.44800  0.64880  1.0000
  C   C217      1.0  0.56004  0.30696  0.99542  1.0000
  C   C218      1.0  0.57576  0.29361  0.90069  1.0000
  C  Sn19      1.0  0.54901  0.25571  0.83902  1.0000
  C  Sn20      1.0  0.50573  0.23079  0.87300  1.0000
  C   C219      1.0  0.49030  0.24445  0.96784  1.0000
  C   C220      1.0  0.51865  0.28236  0.02896  1.0000
  H   H175      1.0  0.58225  0.33630  0.04267  1.0000
  O  Te19      1.0  0.56524  0.24283  0.74463  1.0000
  O  Te20      1.0  0.47830  0.19279  0.81287  1.0000
  H   H176      1.0  0.50646  0.29271  0.10225  1.0000
  Mg  Mg10      1.0  0.51534  0.18863  0.69016  1.0000
  C   C221      1.0  0.70208  0.23551  0.01453  1.0000
  C   C222      1.0  0.73911  0.23893  0.97975  1.0000
  C  Sn21      1.0  0.76282  0.26612  0.88569  1.0000
  C  Sn22      1.0  0.74780  0.29035  0.82553  1.0000
  C   C223      1.0  0.70943  0.28678  0.86106  1.0000
  C   C224      1.0  0.68596  0.25946  0.95527  1.0000
  H   H177      1.0  0.68392  0.21439  0.08746  1.0000
  O  Te21      1.0  0.80104  0.26909  0.85207  1.0000
  O  Te22      1.0  0.77087  0.31778  0.73127  1.0000
  H   H178      1.0  0.65629  0.25688  0.98222  1.0000
  Mg  Mg11      1.0  0.82109  0.31087  0.71831  1.0000
  C   C225      1.0  0.75658  0.45942  0.02950  1.0000
  C   C226      1.0  0.75738  0.49692  0.98786  1.0000
  C  Sn23      1.0  0.73563  0.49603  0.88419  1.0000
  C  Sn24      1.0  0.71134  0.45688  0.82126  1.0000
  C   C227      1.0  0.70943  0.41959  0.86371  1.0000
  C   C228      1.0  0.73133  0.42084  0.96752  1.0000
  H   H179      1.0  0.77351  0.46038  0.10985  1.0000
  O  Te23      1.0  0.73807  0.53374  0.84380  1.0000
  O  Te24      1.0  0.68928  0.45508  0.71744  1.0000
  H   H180      1.0  0.72969  0.39184  0.99978  1.0000
  Mg  Mg12      1.0  0.70243  0.51500  0.69790  1.0000
