data_image0
_chemical_formula_structural       H60C90N12C2Sn2C2HTe2HMgC2Sn2C2HTe2HMgC2Sn2C2HTe2HMgC2Sn2C2HTe2HMgC2Sn2C2HTe2HMgC2Sn2C2HTe2HMgC2Sn2C2HTe2HMgC2Sn2C2HTe2HMgC2Sn2C2HTe2HMgC2Sn2C2HTe2HMgC2Sn2C2HTe2HMgC2Sn2C2HTe2HMgC2Sn2C2HTe2HMg
_chemical_formula_sum              "H86 C142 N12 Sn26 Te26 Mg13"
_cell_length_a       28.5548
_cell_length_b       23.7161
_cell_length_c       9.46288
_cell_angle_alpha    84.4516
_cell_angle_beta     84.0559
_cell_angle_gamma    89.8449

_symmetry_space_group_name_H-M    'P1'
_space_group_IT_number       1

loop_
  _space_group_symop_operation_xyz
  'x, y, z'

loop_
  _atom_site_type_symbol
  _atom_site_label
  _atom_site_symmetry_multiplicity
  _atom_site_fract_x
  _atom_site_fract_y
  _atom_site_fract_z
  _atom_site_occupancy
  H   H1        1.0  0.36649  0.06147  0.45395  1.0000
  H   H2        1.0  0.21057  0.86703  0.49791  1.0000
  H   H3        1.0  0.12964  0.85919  0.42969  1.0000
  H   H4        1.0  0.17753  0.73932  0.13400  1.0000
  H   H5        1.0  0.25778  0.74624  0.20411  1.0000
  H   H6        1.0  0.26395  0.69975  0.50728  1.0000
  H   H7        1.0  0.31447  0.61473  0.47653  1.0000
  H   H8        1.0  0.41949  0.71955  0.21835  1.0000
  H   H9        1.0  0.37049  0.80403  0.25493  1.0000
  H   H10       1.0  0.45770  0.66060  0.37524  1.0000
  H   H11       1.0  0.99293  0.61578  0.93459  1.0000
  H   H12       1.0  0.78696  0.30537  0.22910  1.0000
  H   H13       1.0  0.86031  0.35934  0.19526  1.0000
  H   H14       1.0  0.79338  0.49235  0.94644  1.0000
  H   H15       1.0  0.71993  0.43862  0.98572  1.0000
  H   H16       1.0  0.61794  0.31000  0.33277  1.0000
  H   H17       1.0  0.54576  0.25522  0.41084  1.0000
  H   H18       1.0  0.59283  0.12852  0.13231  1.0000
  H   H19       1.0  0.66494  0.18364  0.05431  1.0000
  H   H20       1.0  0.81982  0.06545  0.27082  1.0000
  H   H21       1.0  0.88710  0.00074  0.27332  1.0000
  H   H22       1.0  0.95970  0.10265  0.91858  1.0000
  H   H23       1.0  0.89406  0.16976  0.91937  1.0000
  H   H24       1.0  0.99584  0.01251  0.01356  1.0000
  H   H25       1.0  0.39991  0.02985  0.08394  1.0000
  H   H26       1.0  0.04489  0.78127  0.54346  1.0000
  H   H27       1.0  0.00683  0.69403  0.49240  1.0000
  H   H28       1.0  0.08617  0.59740  0.79331  1.0000
  H   H29       1.0  0.12337  0.68617  0.84838  1.0000
  H   H30       1.0  0.12091  0.90153  0.64199  1.0000
  H   H31       1.0  0.06286  0.97834  0.62044  1.0000
  H   H32       1.0  0.95339  0.86514  0.82358  1.0000
  H   H33       1.0  0.01148  0.78670  0.83791  1.0000
  H   H34       1.0  0.26326  0.70565  0.98529  1.0000
  H   H35       1.0  0.31654  0.62344  0.96133  1.0000
  H   H36       1.0  0.43076  0.73678  0.79607  1.0000
  H   H37       1.0  0.91237  0.41979  0.71262  1.0000
  H   H38       1.0  0.98124  0.48327  0.69618  1.0000
  H   H39       1.0  0.92692  0.58646  0.35216  1.0000
  H   H40       1.0  0.85775  0.52404  0.36856  1.0000
  H   H41       1.0  0.51841  0.17581  0.03942  1.0000
  H   H42       1.0  0.37784  0.81829  0.81738  1.0000
  H   H43       1.0  0.46565  0.66534  0.91174  1.0000
  H   H44       1.0  0.99384  0.61754  0.43619  1.0000
  H   H45       1.0  0.70087  0.42590  0.78981  1.0000
  H   H46       1.0  0.63891  0.49282  0.85008  1.0000
  H   H47       1.0  0.54973  0.41506  0.58195  1.0000
  H   H48       1.0  0.61087  0.34497  0.53280  1.0000
  H   H49       1.0  0.78650  0.31068  0.73679  1.0000
  H   H50       1.0  0.85980  0.36438  0.70235  1.0000
  H   H51       1.0  0.79434  0.49487  0.44230  1.0000
  H   H52       1.0  0.72090  0.44141  0.48153  1.0000
  H   H53       1.0  0.45152  0.11262  0.12523  1.0000
  H   H54       1.0  0.45038  0.05866  0.70459  1.0000
  H   H55       1.0  0.51743  0.12212  0.61706  1.0000
  H   H56       1.0  0.81220  0.05407  0.71732  1.0000
  H   H57       1.0  0.88040  0.99029  0.73216  1.0000
  H   H58       1.0  0.96916  0.11707  0.48288  1.0000
  H   H59       1.0  0.90230  0.18287  0.47836  1.0000
  H   H60       1.0  0.00150  0.02316  0.54659  1.0000
  C   C1        1.0  0.40133  0.04142  0.44406  1.0000
  C   C2        1.0  0.24012  0.80691  0.35663  1.0000
  C   C3        1.0  0.20354  0.83976  0.41642  1.0000
  C   C4        1.0  0.15788  0.83504  0.37856  1.0000
  C   C5        1.0  0.14743  0.79804  0.27826  1.0000
  C   C6        1.0  0.18440  0.76661  0.21549  1.0000
  C   C7        1.0  0.22973  0.77092  0.25403  1.0000
  C   C8        1.0  0.31418  0.75759  0.38428  1.0000
  C   C9        1.0  0.44416  0.62087  0.34286  1.0000
  C   C10       1.0  0.99156  0.58371  0.02692  1.0000
  C   C11       1.0  0.70067  0.33800  0.13320  1.0000
  C   C12       1.0  0.69374  0.28024  0.14413  1.0000
  C   C13       1.0  0.64755  0.25153  0.18693  1.0000
  C   C14       1.0  0.74738  0.36674  0.10762  1.0000
  C   C15       1.0  0.78819  0.34624  0.16645  1.0000
  C   C16       1.0  0.83011  0.37715  0.14609  1.0000
  C   C17       1.0  0.83394  0.43040  0.06495  1.0000
  C   C18       1.0  0.79299  0.45096  0.00676  1.0000
  C   C19       1.0  0.75109  0.42030  0.02830  1.0000
  C   C20       1.0  0.61230  0.27085  0.28618  1.0000
  C   C21       1.0  0.57117  0.23980  0.32989  1.0000
  C   C22       1.0  0.56364  0.18696  0.27936  1.0000
  C   C23       1.0  0.59843  0.16791  0.17851  1.0000
  C   C24       1.0  0.63904  0.19947  0.13313  1.0000
  C   C25       1.0  0.92864  0.04762  0.09914  1.0000
  C   C26       1.0  0.92930  0.09515  0.99768  1.0000
  C   C27       1.0  0.89170  0.13286  0.99753  1.0000
  C   C28       1.0  0.96790  0.00797  0.10343  1.0000
  C   C29       1.0  0.29837  0.70386  0.44583  1.0000
  C   C30       1.0  0.32627  0.65629  0.42742  1.0000
  C   C31       1.0  0.37116  0.66152  0.34994  1.0000
  C   C32       1.0  0.38617  0.71543  0.28557  1.0000
  C   C33       1.0  0.35816  0.76257  0.30290  1.0000
  C   C34       1.0  0.85140  0.12418  0.09695  1.0000
  C   C35       1.0  0.85061  0.07512  0.19499  1.0000
  C   C36       1.0  0.88817  0.03819  0.19717  1.0000
  C   C37       1.0  0.40739  0.04115  0.96805  1.0000
  C   C38       1.0  0.08606  0.74012  0.70096  1.0000
  C   C39       1.0  0.07003  0.83843  0.73820  1.0000
  C   C40       1.0  0.31662  0.76815  0.90224  1.0000
  C   C41       1.0  0.44999  0.62846  0.87131  1.0000
  C   C42       1.0  0.99313  0.58479  0.52683  1.0000
  C   C43       1.0  0.70126  0.34057  0.63108  1.0000
  C   C44       1.0  0.69582  0.28259  0.63773  1.0000
  C   C45       1.0  0.74768  0.37030  0.60785  1.0000
  C   C46       1.0  0.66114  0.37977  0.65723  1.0000
  C   C47       1.0  0.66759  0.42339  0.74450  1.0000
  C   C48       1.0  0.63255  0.46203  0.77631  1.0000
  C   C49       1.0  0.58873  0.46043  0.72057  1.0000
  C   C50       1.0  0.58226  0.41706  0.63186  1.0000
  C   C51       1.0  0.61732  0.37755  0.60192  1.0000
  C   C52       1.0  0.78797  0.35079  0.67088  1.0000
  C   C53       1.0  0.82995  0.38150  0.65033  1.0000
  C   C54       1.0  0.83428  0.43390  0.56574  1.0000
  C   C55       1.0  0.79369  0.45391  0.50470  1.0000
  C   C56       1.0  0.75178  0.42325  0.52597  1.0000
  C   C57       1.0  0.92958  0.04916  0.61013  1.0000
  C   C58       1.0  0.93478  0.10348  0.53580  1.0000
  C   C59       1.0  0.89682  0.14044  0.53206  1.0000
  C   C60       1.0  0.96958  0.01101  0.61844  1.0000
  C   C61       1.0  0.05408  0.74087  0.59745  1.0000
  C   C62       1.0  0.03276  0.69145  0.56911  1.0000
  C   C63       1.0  0.04347  0.63859  0.64021  1.0000
  C   C64       1.0  0.07776  0.63784  0.73744  1.0000
  C   C65       1.0  0.09875  0.68759  0.76795  1.0000
  C   C66       1.0  0.08403  0.89335  0.67968  1.0000
  C   C67       1.0  0.05110  0.93651  0.66780  1.0000
  C   C68       1.0  0.00304  0.92647  0.71528  1.0000
  C   C69       1.0  0.99003  0.87218  0.78163  1.0000
  C   C70       1.0  0.02259  0.82888  0.79174  1.0000
  C   C71       1.0  0.30008  0.71250  0.94510  1.0000
  C   C72       1.0  0.32975  0.66634  0.93087  1.0000
  C   C73       1.0  0.37766  0.67368  0.87884  1.0000
  C   C74       1.0  0.39440  0.72968  0.84128  1.0000
  C   C75       1.0  0.36455  0.77577  0.85163  1.0000
  C   C76       1.0  0.52372  0.15400  0.82182  1.0000
  C   C77       1.0  0.87817  0.46787  0.54613  1.0000
  C   C78       1.0  0.85179  0.12435  0.59885  1.0000
  C   C79       1.0  0.91524  0.45599  0.63244  1.0000
  C   C80       1.0  0.95418  0.49157  0.62412  1.0000
  C   C81       1.0  0.95804  0.54055  0.52668  1.0000
  C   C82       1.0  0.92311  0.55027  0.43264  1.0000
  C   C83       1.0  0.88398  0.51500  0.44282  1.0000
  C   C84       1.0  0.50341  0.15095  0.96453  1.0000
  C   C85       1.0  0.46554  0.11486  0.01352  1.0000
  C   C86       1.0  0.44584  0.08124  0.91996  1.0000
  C   C87       1.0  0.46543  0.08499  0.77636  1.0000
  C   C88       1.0  0.50347  0.12036  0.72857  1.0000
  C   C89       1.0  0.84666  0.06890  0.66870  1.0000
  C   C90       1.0  0.88456  0.03252  0.67614  1.0000
  N   N1        1.0  0.40693  0.98707  0.45468  1.0000
  N   N2        1.0  0.28602  0.80698  0.40090  1.0000
  N   N3        1.0  0.10106  0.79240  0.24017  1.0000
  N   N4        1.0  0.39960  0.61393  0.33454  1.0000
  N   N5        1.0  0.01673  0.58798  0.13209  1.0000
  N   N6        1.0  0.96794  0.96854  0.20799  1.0000
  N   N7        1.0  0.38472  0.01937  0.87455  1.0000
  N   N8        1.0  0.28557  0.81500  0.90346  1.0000
  N   N9        1.0  0.10209  0.79253  0.73943  1.0000
  N   N10       1.0  0.40536  0.62590  0.85820  1.0000
  N   N11       1.0  0.01873  0.58824  0.63125  1.0000
  N   N12       1.0  0.96629  0.96519  0.70524  1.0000
  C   C91       1.0  0.44328  0.15303  0.40414  1.0000
  C   C92       1.0  0.43994  0.09409  0.40902  1.0000
  C  Sn1       1.0  0.48023  0.06183  0.38068  1.0000
  C  Sn2       1.0  0.52465  0.08922  0.34690  1.0000
  C   C93       1.0  0.52763  0.14821  0.34239  1.0000
  C   C94       1.0  0.48708  0.18008  0.37089  1.0000
  H   H61       1.0  0.41191  0.17769  0.42626  1.0000
  O  Te1       1.0  0.47626  0.00298  0.38596  1.0000
  O  Te2       1.0  0.56549  0.05801  0.31817  1.0000
  H   H62       1.0  0.48968  0.22571  0.36720  1.0000
  Mg  Mg1       1.0  0.53977  0.97886  0.33858  1.0000
  C   C95       1.0  0.99198  0.85885  0.29118  1.0000
  C   C96       1.0  0.00033  0.91629  0.24811  1.0000
  C  Sn3       1.0  0.04541  0.93526  0.19278  1.0000
  C  Sn4       1.0  0.08277  0.89588  0.18042  1.0000
  C   C97       1.0  0.07405  0.83850  0.22370  1.0000
  C   C98       1.0  0.02880  0.81999  0.27897  1.0000
  H   H63       1.0  0.95697  0.84452  0.33387  1.0000
  O  Te3       1.0  0.05314  0.99280  0.15031  1.0000
  O  Te4       1.0  0.12816  0.91369  0.12543  1.0000
  H   H64       1.0  0.02234  0.77550  0.31221  1.0000
  Mg  Mg2       1.0  0.12112  0.99645  0.08202  1.0000
  C   C99       1.0  0.49145  0.49863  0.74467  1.0000
  C   C100      1.0  0.54033  0.50074  0.74541  1.0000
  C  Sn5       1.0  0.56157  0.54626  0.79808  1.0000
  C  Sn6       1.0  0.53326  0.59041  0.85097  1.0000
  C   C101      1.0  0.48439  0.58788  0.84986  1.0000
  C   C102      1.0  0.46350  0.54215  0.79687  1.0000
  H   H65       1.0  0.47528  0.46323  0.70374  1.0000
  O  Te5       1.0  0.61045  0.54771  0.79798  1.0000
  O  Te6       1.0  0.55358  0.63639  0.90428  1.0000
  H   H66       1.0  0.42565  0.54050  0.79640  1.0000
  Mg  Mg3       1.0  0.62169  0.61926  0.88161  1.0000
  C   C103      1.0  0.74012  0.17818  0.72177  1.0000
  C   C104      1.0  0.73469  0.23007  0.64191  1.0000
  C  Sn7       1.0  0.76854  0.24886  0.53010  1.0000
  C  Sn8       1.0  0.80854  0.21497  0.49787  1.0000
  C   C105      1.0  0.81363  0.16311  0.57834  1.0000
  C   C106      1.0  0.77954  0.14472  0.69002  1.0000
  H   H67       1.0  0.71373  0.16394  0.80814  1.0000
  O  Te7       1.0  0.76258  0.30082  0.45142  1.0000
  O  Te8       1.0  0.84290  0.23272  0.38666  1.0000
  H   H68       1.0  0.78374  0.10453  0.75178  1.0000
  Mg  Mg4       1.0  0.81903  0.30675  0.31018  1.0000
  C   C107      1.0  0.04308  0.73396  0.07974  1.0000
  C   C108      1.0  0.07547  0.74165  0.17739  1.0000
  C  Sn9       1.0  0.09331  0.69492  0.25559  1.0000
  C  Sn10      1.0  0.07840  0.63951  0.23538  1.0000
  C   C109      1.0  0.04601  0.63226  0.13735  1.0000
  C   C110      1.0  0.02837  0.67932  0.05970  1.0000
  H   H69       1.0  0.02945  0.77036  0.01959  1.0000
  O  Te9       1.0  0.12563  0.70336  0.35275  1.0000
  O  Te10      1.0  0.09569  0.59205  0.31209  1.0000
  H   H70       1.0  0.96909  0.63488  0.98403  1.0000
  Mg  Mg5       1.0  0.13909  0.62534  0.43215  1.0000
  C   C111      1.0  0.47303  0.51571  0.23211  1.0000
  C   C112      1.0  0.47530  0.56520  0.30026  1.0000
  C  Sn11      1.0  0.51830  0.58388  0.33764  1.0000
  C  Sn12      1.0  0.55973  0.55234  0.30605  1.0000
  C   C113      1.0  0.55709  0.50291  0.23776  1.0000
  C   C114      1.0  0.51387  0.48460  0.20086  1.0000
  H   H71       1.0  0.43960  0.50155  0.20349  1.0000
  O  Te11      1.0  0.51995  0.63340  0.40572  1.0000
  O  Te12      1.0  0.60317  0.57006  0.34218  1.0000
  H   H72       1.0  0.51213  0.44630  0.14802  1.0000
  Mg  Mg6       1.0  0.58741  0.64028  0.43374  1.0000
  C   C115      1.0  0.16526  0.84273  0.90216  1.0000
  C   C116      1.0  0.14979  0.81144  0.79789  1.0000
  C  Sn13      1.0  0.18090  0.77622  0.72432  1.0000
  C  Sn14      1.0  0.22836  0.77233  0.75599  1.0000
  C   C117      1.0  0.24349  0.80377  0.86056  1.0000
  C   C118      1.0  0.21206  0.83889  0.93350  1.0000
  H   H73       1.0  0.14094  0.86988  0.95866  1.0000
  O  Te13      1.0  0.16486  0.74528  0.62042  1.0000
  O  Te14      1.0  0.26020  0.73744  0.68411  1.0000
  H   H74       1.0  0.25828  0.90155  0.01429  1.0000
  Mg  Mg7       1.0  0.22160  0.70362  0.55145  1.0000
  C   C119      1.0  0.79901  0.22019  0.97754  1.0000
  C   C120      1.0  0.84565  0.21456  0.07524  1.0000
  C  Sn15      1.0  0.81677  0.20042  0.20208  1.0000
  C  Sn16      1.0  0.77470  0.23107  0.23134  1.0000
  C   C121      1.0  0.76258  0.27509  0.13286  1.0000
  C   C122      1.0  0.79175  0.28889  0.00629  1.0000
  H   H75       1.0  0.82156  0.23086  0.87957  1.0000
  O  Te15      1.0  0.82970  0.15626  0.29856  1.0000
  O  Te16      1.0  0.74518  0.21781  0.35727  1.0000
  H   H76       1.0  0.74789  0.28455  0.93062  1.0000
  Mg  Mg8       1.0  0.77793  0.15412  0.45546  1.0000
  C   C123      1.0  0.60833  0.38514  0.07992  1.0000
  C   C124      1.0  0.65190  0.37850  0.13430  1.0000
  C  Sn17      1.0  0.66406  0.41230  0.23809  1.0000
  C  Sn18      1.0  0.63194  0.45345  0.28817  1.0000
  C   C125      1.0  0.58843  0.45973  0.23317  1.0000
  C   C126      1.0  0.57662  0.42570  0.12931  1.0000
  H   H77       1.0  0.56495  0.32032  0.99962  1.0000
  O  Te17      1.0  0.70774  0.40513  0.29123  1.0000
  O  Te18      1.0  0.64319  0.48778  0.39188  1.0000
  H   H78       1.0  0.54287  0.43082  0.08729  1.0000
  Mg  Mg9       1.0  0.70697  0.46204  0.43147  1.0000
  C   C127      1.0  0.91171  0.54255  0.91437  1.0000
  C   C128      1.0  0.98207  0.58160  0.00320  1.0000
  C  Sn19      1.0  0.98467  0.53890  0.11460  1.0000
  C  Sn20      1.0  0.95042  0.49483  0.13721  1.0000
  C   C129      1.0  0.91444  0.49460  0.04769  1.0000
  C   C130      1.0  0.87793  0.49909  0.93656  1.0000
  H   H79       1.0  0.90996  0.57576  0.82833  1.0000
  O  Te19      1.0  0.02099  0.54015  0.20238  1.0000
  O  Te20      1.0  0.95220  0.45161  0.24772  1.0000
  H   H80       1.0  0.84997  0.49860  0.86774  1.0000
  Mg  Mg10      1.0  0.00843  0.47182  0.33878  1.0000
  C   C131      1.0  0.31225  0.95742  0.79321  1.0000
  C   C132      1.0  0.34525  0.97352  0.88800  1.0000
  C  Sn21      1.0  0.35520  0.93490  0.99904  1.0000
  C  Sn22      1.0  0.37044  0.91762  0.01518  1.0000
  C   C133      1.0  0.30549  0.86345  0.91972  1.0000
  C   C134      1.0  0.29351  0.90243  0.80901  1.0000
  H   H81       1.0  0.30525  0.98757  0.70750  1.0000
  O  Te21      1.0  0.42019  0.99017  0.09283  1.0000
  O  Te22      1.0  0.38205  0.87817  0.12518  1.0000
  H   H82       1.0  0.26973  0.88994  0.73558  1.0000
  Mg  Mg11      1.0  0.42540  0.92118  0.22588  1.0000
  C   C135      1.0  0.63001  0.19442  0.60595  1.0000
  C   C136      1.0  0.64597  0.24404  0.65437  1.0000
  C  Sn23      1.0  0.62175  0.26623  0.77228  1.0000
  C  Sn24      1.0  0.58081  0.23812  0.84282  1.0000
  C   C137      1.0  0.56515  0.18848  0.79361  1.0000
  C   C138      1.0  0.58964  0.16666  0.67549  1.0000
  H   H83       1.0  0.64898  0.17751  0.51461  1.0000
  O  Te23      1.0  0.63817  0.31586  0.81923  1.0000
  O  Te24      1.0  0.55594  0.25936  0.96095  1.0000
  H   H84       1.0  0.57730  0.12822  0.63808  1.0000
  Mg  Mg12      1.0  0.59220  0.32825  0.98473  1.0000
  C   C139      1.0  0.35898  0.85357  0.52677  1.0000
  C   C140      1.0  0.31654  0.85401  0.46522  1.0000
  C  Sn25      1.0  0.30135  0.90357  0.39197  1.0000
  C  Sn26      1.0  0.32925  0.95355  0.38028  1.0000
  C   C141      1.0  0.37167  0.95266  0.44214  1.0000
  C   C142      1.0  0.38652  0.90284  0.51524  1.0000
  H   H85       1.0  0.37049  0.81502  0.58326  1.0000
  O  Te25      1.0  0.25885  0.90328  0.33116  1.0000
  O  Te26      1.0  0.31716  0.00366  0.30762  1.0000
  H   H86       1.0  0.41940  0.90250  0.56280  1.0000
  Mg  Mg13      1.0  0.25428  0.98204  0.24289  1.0000
