data_image0
_chemical_formula_structural       H56C94N12SnCSn2CSnTe4Mg2SnCSn2CSnTe4Mg2SnCSn2CSnTe4Mg2SnCSn2CSnTe4Mg2SnCSn2CSnTe4Mg2SnCSn2CSnTe4Mg2SnCSn2CSnTe4Mg2SnCSn2CSnTe4Mg2SnCSn2CSnTe4Mg2
_chemical_formula_sum              "H56 C112 N12 Sn36 Te36 Mg18"
_cell_length_a       23.2207
_cell_length_b       23.5199
_cell_length_c       8.50032
_cell_angle_alpha    107.824
_cell_angle_beta     98.8417
_cell_angle_gamma    90.5444

_symmetry_space_group_name_H-M    'P1'
_space_group_IT_number       1

loop_
  _space_group_symop_operation_xyz
  'x, y, z'

loop_
  _atom_site_type_symbol
  _atom_site_label
  _atom_site_symmetry_multiplicity
  _atom_site_fract_x
  _atom_site_fract_y
  _atom_site_fract_z
  _atom_site_occupancy
  H   H1        1.0  0.90693  0.24544  0.96109  1.0000
  H   H2        1.0  0.53887  0.30092  0.24066  1.0000
  H   H3        1.0  0.95224  0.32906  0.12362  1.0000
  H   H4        1.0  0.01951  0.40875  0.11139  1.0000
  H   H5        1.0  0.88075  0.47267  0.82638  1.0000
  H   H6        1.0  0.81413  0.39030  0.82659  1.0000
  H   H7        1.0  0.65496  0.45176  0.37064  1.0000
  H   H8        1.0  0.50516  0.35802  0.02088  1.0000
  H   H9        1.0  0.01851  0.01734  0.10785  1.0000
  H   H10       1.0  0.03776  0.49779  0.04443  1.0000
  H   H11       1.0  0.40840  0.04235  0.13653  1.0000
  H   H12       1.0  0.66833  0.13769  0.15972  1.0000
  H   H13       1.0  0.76645  0.12541  0.09642  1.0000
  H   H14       1.0  0.77481  0.40490  0.02044  1.0000
  H   H15       1.0  0.67764  0.41809  0.09172  1.0000
  H   H16       1.0  0.26776  0.86862  0.30323  1.0000
  H   H17       1.0  0.16127  0.85724  0.22884  1.0000
  H   H18       1.0  0.17339  0.67872  0.90493  1.0000
  H   H19       1.0  0.27966  0.68920  0.98563  1.0000
  H   H20       1.0  0.99693  0.71396  0.80861  1.0000
  H   H21       1.0  0.94552  0.61622  0.76804  1.0000
  H   H22       1.0  0.08251  0.57869  0.11852  1.0000
  H   H23       1.0  0.13213  0.67575  0.16170  1.0000
  H   H24       1.0  0.44848  0.82909  0.38929  1.0000
  H   H25       1.0  0.50105  0.92492  0.41793  1.0000
  H   H26       1.0  0.36130  0.96282  0.07611  1.0000
  H   H27       1.0  0.31008  0.86777  0.04504  1.0000
  H   H28       1.0  0.53564  0.60586  0.29461  1.0000
  H   H29       1.0  0.45936  0.45522  0.04199  1.0000
  H   H30       1.0  0.60979  0.54824  0.39040  1.0000
  H   H31       1.0  0.90373  0.24812  0.45166  1.0000
  H   H32       1.0  0.53630  0.30081  0.73823  1.0000
  H   H33       1.0  0.94946  0.33168  0.61398  1.0000
  H   H34       1.0  0.01593  0.41272  0.60564  1.0000
  H   H35       1.0  0.87622  0.47734  0.32583  1.0000
  H   H36       1.0  0.80996  0.39444  0.32609  1.0000
  H   H37       1.0  0.80385  0.08812  0.34508  1.0000
  H   H38       1.0  0.86443  0.00241  0.36207  1.0000
  H   H39       1.0  0.99792  0.12486  0.71073  1.0000
  H   H40       1.0  0.93761  0.21026  0.69394  1.0000
  H   H41       1.0  0.01507  0.02095  0.62235  1.0000
  H   H42       1.0  0.03351  0.50223  0.54445  1.0000
  H   H43       1.0  0.41011  0.03873  0.61566  1.0000
  H   H44       1.0  0.66763  0.13977  0.66094  1.0000
  H   H45       1.0  0.76562  0.12801  0.59524  1.0000
  H   H46       1.0  0.77186  0.40855  0.52488  1.0000
  H   H47       1.0  0.67518  0.42098  0.59985  1.0000
  H   H48       1.0  0.26586  0.86979  0.80826  1.0000
  H   H49       1.0  0.15928  0.86039  0.73136  1.0000
  H   H50       1.0  0.16952  0.68285  0.40012  1.0000
  H   H51       1.0  0.27535  0.69164  0.47912  1.0000
  H   H52       1.0  0.30159  0.69766  0.77896  1.0000
  H   H53       1.0  0.34666  0.60129  0.76489  1.0000
  H   H54       1.0  0.49514  0.66292  0.60393  1.0000
  H   H55       1.0  0.44866  0.75707  0.60734  1.0000
  H   H56       1.0  0.53085  0.60653  0.79487  1.0000
  C   C1        1.0  0.66280  0.22916  0.15231  1.0000
  C   C2        1.0  0.69102  0.17446  0.13858  1.0000
  C   C3        1.0  0.74597  0.16696  0.09933  1.0000
  C   C4        1.0  0.77734  0.21212  0.06152  1.0000
  C   C5        1.0  0.75028  0.26715  0.06793  1.0000
  C   C6        1.0  0.69351  0.27591  0.11642  1.0000
  C   C7        1.0  0.78079  0.31412  0.03229  1.0000
  C   C8        1.0  0.75236  0.36845  0.04370  1.0000
  C   C9        1.0  0.69805  0.37640  0.08682  1.0000
  C   C10       1.0  0.66720  0.33153  0.12728  1.0000
  C   C11       1.0  0.83466  0.20501  0.02273  1.0000
  C   C12       1.0  0.86340  0.25203  0.99277  1.0000
  C   C13       1.0  0.83886  0.30646  0.99708  1.0000
  C   C14       1.0  0.50195  0.45378  0.11437  1.0000
  C   C15       1.0  0.52765  0.39979  0.10325  1.0000
  C   C16       1.0  0.97289  0.00468  0.04614  1.0000
  C   C17       1.0  0.99292  0.49712  0.97893  1.0000
  C   C18       1.0  0.50596  0.56582  0.23192  1.0000
  C   C19       1.0  0.45315  0.04331  0.20313  1.0000
  C   C20       1.0  0.28270  0.77992  0.14891  1.0000
  C   C21       1.0  0.24755  0.82658  0.21658  1.0000
  C   C22       1.0  0.18696  0.82018  0.17425  1.0000
  C   C23       1.0  0.15836  0.76691  0.06232  1.0000
  C   C24       1.0  0.19359  0.72053  0.99297  1.0000
  C   C25       1.0  0.25400  0.72666  0.03707  1.0000
  C   C26       1.0  0.06822  0.70213  0.98986  1.0000
  C   C27       1.0  0.37520  0.84106  0.21345  1.0000
  C   C28       1.0  0.01543  0.68449  0.87712  1.0000
  C   C29       1.0  0.98661  0.62982  0.85389  1.0000
  C   C30       1.0  0.61127  0.34042  0.17563  1.0000
  C   C31       1.0  0.58157  0.29336  0.20300  1.0000
  C   C32       1.0  0.60512  0.23770  0.19132  1.0000
  C   C33       1.0  0.58354  0.39803  0.19327  1.0000
  C   C34       1.0  0.87726  0.35379  0.97907  1.0000
  C   C35       1.0  0.93658  0.35912  0.05358  1.0000
  C   C36       1.0  0.97436  0.40461  0.04903  1.0000
  C   C37       1.0  0.95424  0.44723  0.97147  1.0000
  C   C38       1.0  0.89568  0.44100  0.89173  1.0000
  C   C39       1.0  0.85834  0.39514  0.89464  1.0000
  C   C40       1.0  0.61231  0.45246  0.29783  1.0000
  C   C41       1.0  0.58685  0.50658  0.30864  1.0000
  C   C42       1.0  0.00966  0.58983  0.93810  1.0000
  C   C43       1.0  0.06385  0.60691  0.04600  1.0000
  C   C44       1.0  0.09198  0.66204  0.07225  1.0000
  C   C45       1.0  0.42964  0.85790  0.31895  1.0000
  C   C46       1.0  0.45916  0.91170  0.33573  1.0000
  C   C47       1.0  0.43579  0.95155  0.25116  1.0000
  C   C48       1.0  0.38043  0.93494  0.14919  1.0000
  C   C49       1.0  0.35132  0.88087  0.12989  1.0000
  C   C50       1.0  0.53139  0.50819  0.21710  1.0000
  C   C51       1.0  0.66132  0.23096  0.65261  1.0000
  C   C52       1.0  0.69004  0.17660  0.63919  1.0000
  C   C53       1.0  0.74494  0.16955  0.59936  1.0000
  C   C54       1.0  0.77557  0.21496  0.56032  1.0000
  C   C55       1.0  0.74825  0.26997  0.56831  1.0000
  C   C56       1.0  0.69167  0.27828  0.61832  1.0000
  C   C57       1.0  0.77833  0.31721  0.53250  1.0000
  C   C58       1.0  0.74989  0.37176  0.54797  1.0000
  C   C59       1.0  0.69578  0.37927  0.59280  1.0000
  C   C60       1.0  0.66504  0.33384  0.63116  1.0000
  C   C61       1.0  0.83251  0.20806  0.51855  1.0000
  C   C62       1.0  0.86056  0.25492  0.48613  1.0000
  C   C63       1.0  0.83590  0.30955  0.49282  1.0000
  C   C64       1.0  0.96991  0.00864  0.55626  1.0000
  C   C65       1.0  0.98901  0.50152  0.47668  1.0000
  C   C66       1.0  0.50152  0.56623  0.73139  1.0000
  C   C67       1.0  0.45335  0.04154  0.69266  1.0000
  C   C68       1.0  0.27972  0.78185  0.64735  1.0000
  C   C69       1.0  0.24517  0.82857  0.71827  1.0000
  C   C70       1.0  0.18457  0.82324  0.67509  1.0000
  C   C71       1.0  0.15555  0.77073  0.56026  1.0000
  C   C72       1.0  0.19022  0.72428  0.48854  1.0000
  C   C73       1.0  0.25052  0.72956  0.53214  1.0000
  C   C74       1.0  0.37162  0.73455  0.69533  1.0000
  C   C75       1.0  0.60883  0.34192  0.67806  1.0000
  C   C76       1.0  0.57933  0.29408  0.70239  1.0000
  C   C77       1.0  0.60344  0.23865  0.69025  1.0000
  C   C78       1.0  0.86613  0.15519  0.52149  1.0000
  C   C79       1.0  0.87384  0.35718  0.47409  1.0000
  C   C80       1.0  0.93335  0.36243  0.54674  1.0000
  C   C81       1.0  0.97070  0.40852  0.54385  1.0000
  C   C82       1.0  0.95021  0.45153  0.46824  1.0000
  C   C83       1.0  0.89149  0.44533  0.38967  1.0000
  C   C84       1.0  0.85442  0.39917  0.39242  1.0000
  C   C85       1.0  0.84590  0.09601  0.42736  1.0000
  C   C86       1.0  0.87953  0.04811  0.43576  1.0000
  C   C87       1.0  0.93448  0.05786  0.53952  1.0000
  C   C88       1.0  0.95542  0.11687  0.63038  1.0000
  C   C89       1.0  0.92178  0.16469  0.62106  1.0000
  C   C90       1.0  0.34397  0.68981  0.74049  1.0000
  C   C91       1.0  0.36888  0.63587  0.73188  1.0000
  C   C92       1.0  0.42466  0.62552  0.68691  1.0000
  C   C93       1.0  0.45329  0.67108  0.64681  1.0000
  C   C94       1.0  0.42694  0.72415  0.64780  1.0000
  N   N1        1.0  0.95271  0.94958  0.99562  1.0000
  N   N2        1.0  0.47116  0.00231  0.26892  1.0000
  N   N3        1.0  0.34481  0.78592  0.19111  1.0000
  N   N4        1.0  0.09651  0.75936  0.02296  1.0000
  N   N5        1.0  0.45145  0.57010  0.17973  1.0000
  N   N6        1.0  0.97460  0.53859  0.91568  1.0000
  N   N7        1.0  0.94969  0.95353  0.50135  1.0000
  N   N8        1.0  0.46991  0.00218  0.76613  1.0000
  N   N9        1.0  0.34182  0.78673  0.69031  1.0000
  N   N10       1.0  0.09380  0.76330  0.52049  1.0000
  N   N11       1.0  0.44697  0.56991  0.67781  1.0000
  N   N12       1.0  0.97130  0.54276  0.41171  1.0000
  C  Sn1       1.0  0.49084  0.18409  0.66084  1.0000
  C   C95       1.0  0.54951  0.19773  0.73368  1.0000
  C  Sn2       1.0  0.58244  0.15546  0.78599  1.0000
  C  Sn3       1.0  0.55618  0.09835  0.76497  1.0000
  C   C96       1.0  0.49755  0.08474  0.69214  1.0000
  C  Sn4       1.0  0.46459  0.12699  0.63982  1.0000
  O  Te1       1.0  0.45876  0.22704  0.60946  1.0000
  O  Te2       1.0  0.64101  0.17013  0.85852  1.0000
  O  Te3       1.0  0.59795  0.05540  0.81643  1.0000
  O  Te4       1.0  0.40605  0.11234  0.56730  1.0000
  Mg  Mg1       1.0  0.67622  0.09654  0.90839  1.0000
  Mg  Mg2       1.0  0.38044  0.18588  0.51731  1.0000
  C  Sn5       1.0  0.46246  0.69062  0.18182  1.0000
  C   C97       1.0  0.44244  0.64337  0.23051  1.0000
  C  Sn6       1.0  0.38430  0.63852  0.25157  1.0000
  C  Sn7       1.0  0.34535  0.68178  0.22328  1.0000
  C   C98       1.0  0.36536  0.72898  0.17461  1.0000
  C  Sn8       1.0  0.42350  0.73387  0.15354  1.0000
  O  Te5       1.0  0.52075  0.69458  0.16151  1.0000
  O  Te6       1.0  0.36531  0.59090  0.30036  1.0000
  O  Te7       1.0  0.28701  0.67778  0.24365  1.0000
  O  Te8       1.0  0.44249  0.78145  0.10475  1.0000
  Mg  Mg3       1.0  0.28187  0.60479  0.31151  1.0000
  Mg  Mg4       1.0  0.52591  0.76759  0.09348  1.0000
  C  Sn9       1.0  0.04704  0.89047  0.41829  1.0000
  C   C99       1.0  0.99223  0.90050  0.46676  1.0000
  C  Sn10      1.0  0.97170  0.86877  0.56357  1.0000
  C  Sn11      1.0  0.00671  0.82614  0.61305  1.0000
  C   C100      1.0  0.06149  0.81613  0.56461  1.0000
  C  Sn12      1.0  0.08205  0.84784  0.46777  1.0000
  O  Te9       1.0  0.06668  0.92271  0.32152  1.0000
  O  Te10      1.0  0.91675  0.87956  0.61046  1.0000
  O  Te11      1.0  0.98702  0.79389  0.70989  1.0000
  O  Te12      1.0  0.13697  0.83707  0.42091  1.0000
  Mg  Mg5       1.0  0.90917  0.82444  0.74255  1.0000
  Mg  Mg6       1.0  0.14460  0.89219  0.28890  1.0000
  C  Sn13      1.0  0.52321  0.41124  0.56169  1.0000
  C   C101      1.0  0.57691  0.40210  0.64731  1.0000
  C  Sn14      1.0  0.60543  0.44741  0.78678  1.0000
  C  Sn15      1.0  0.57971  0.50300  0.84190  1.0000
  C   C102      1.0  0.52603  0.51212  0.75632  1.0000
  C  Sn16      1.0  0.49749  0.46684  0.61681  1.0000
  O  Te13      1.0  0.49548  0.36532  0.42258  1.0000
  O  Te14      1.0  0.65910  0.43723  0.87030  1.0000
  O  Te15      1.0  0.60749  0.54894  0.98113  1.0000
  O  Te16      1.0  0.44385  0.47699  0.53333  1.0000
  Mg  Mg7       1.0  0.62257  0.40240  0.05332  1.0000
  Mg  Mg8       1.0  0.42299  0.40068  0.35036  1.0000
  C  Sn17      1.0  0.09524  0.64543  0.53132  1.0000
  C   C103      1.0  0.07745  0.69042  0.46198  1.0000
  C  Sn18      1.0  0.01984  0.68963  0.38367  1.0000
  C  Sn19      1.0  0.97915  0.64292  0.37456  1.0000
  C   C104      1.0  0.99694  0.59797  0.44389  1.0000
  C  Sn20      1.0  0.05455  0.59872  0.52220  1.0000
  O  Te17      1.0  0.15306  0.64712  0.60902  1.0000
  O  Te18      1.0  0.00308  0.73509  0.31522  1.0000
  O  Te19      1.0  0.92130  0.64126  0.29677  1.0000
  O  Te20      1.0  0.07131  0.55330  0.59065  1.0000
  Mg  Mg9       1.0  0.91945  0.71325  0.22234  1.0000
  Mg  Mg10      1.0  0.15491  0.57511  0.68363  1.0000
  C  Sn21      1.0  0.94687  0.12401  0.17090  1.0000
  C   C105      1.0  0.93392  0.06349  0.08165  1.0000
  C  Sn22      1.0  0.94576  0.15724  0.94533  1.0000
  C  Sn23      1.0  0.91254  0.20125  0.89712  1.0000
  C   C106      1.0  0.92550  0.26173  0.98633  1.0000
  C  Sn24      1.0  0.91365  0.16802  0.12270  1.0000
  O  Te21      1.0  0.99254  0.14040  0.30677  1.0000
  O  Te22      1.0  0.93362  0.09646  0.85807  1.0000
  O  Te23      1.0  0.86684  0.18481  0.76114  1.0000
  O  Te24      1.0  0.92580  0.22876  0.20991  1.0000
  Mg  Mg11      1.0  0.86712  0.09645  0.68172  1.0000
  Mg  Mg12      1.0  0.99231  0.22882  0.38622  1.0000
  C  Sn25      1.0  0.48053  0.13707  0.08450  1.0000
  C   C107      1.0  0.49251  0.09377  0.16479  1.0000
  C  Sn26      1.0  0.54200  0.10111  0.28716  1.0000
  C  Sn27      1.0  0.58030  0.15283  0.33026  1.0000
  C   C108      1.0  0.56831  0.19610  0.25002  1.0000
  C  Sn28      1.0  0.51883  0.18879  0.12761  1.0000
  O  Te25      1.0  0.48813  0.23997  0.96256  1.0000
  O  Te26      1.0  0.55307  0.05719  0.36565  1.0000
  O  Te27      1.0  0.63007  0.16106  0.45231  1.0000
  O  Te28      1.0  0.50775  0.23268  0.04916  1.0000
  Mg  Mg13      1.0  0.62640  0.08874  0.52387  1.0000
  Mg  Mg14      1.0  0.49176  0.31236  0.89099  1.0000
  C  Sn29      1.0  0.98917  0.81010  0.02481  1.0000
  C   C109      1.0  0.10340  0.91341  0.99072  1.0000
  C  Sn30      1.0  0.13659  0.96079  0.97593  1.0000
  C  Sn31      1.0  0.11243  0.01723  0.99573  1.0000
  C   C110      1.0  0.99824  0.91391  0.02982  1.0000
  C  Sn32      1.0  0.96501  0.86654  0.04461  1.0000
  O  Te29      1.0  0.95678  0.76211  0.03908  1.0000
  O  Te30      1.0  0.19336  0.95184  0.94174  1.0000
  O  Te31      1.0  0.14487  0.06524  0.98142  1.0000
  O  Te32      1.0  0.90827  0.87547  0.07880  1.0000
  Mg  Mg15      1.0  0.22019  0.03094  0.93390  1.0000
  Mg  Mg16      1.0  0.88142  0.79642  0.08675  1.0000
  C  Sn33      1.0  0.42893  0.87712  0.86652  1.0000
  C   C111      1.0  0.37536  0.85311  0.76697  1.0000
  C  Sn34      1.0  0.35150  0.87543  0.63821  1.0000
  C  Sn35      1.0  0.38184  0.92271  0.60824  1.0000
  C   C112      1.0  0.43538  0.94669  0.70772  1.0000
  C  Sn36      1.0  0.45927  0.92441  0.83654  1.0000
  O  Te33      1.0  0.45197  0.85411  0.99454  1.0000
  O  Te34      1.0  0.29787  0.85071  0.54039  1.0000
  O  Te35      1.0  0.35875  0.94571  0.48008  1.0000
  O  Te36      1.0  0.51287  0.94909  0.93430  1.0000
  Mg  Mg17      1.0  0.28442  0.89723  0.38080  1.0000
  Mg  Mg18      1.0  0.46904  0.79142  0.09386  1.0000
