data_image0
_chemical_formula_structural       H8C12N12C2Sn2C2HTe2HMgC2Sn2C2HTe2HMgC2Sn2C2HTe2HMgC2Sn2C2HTe2HMgC2Sn2C2HTe2HMgC2Sn2C2HTe2HMgC2Sn2C2HTe2HMgC2Sn2C2HTe2HMgC2Sn2C2HTe2HMgC2Sn2C2HTe2HMgC2Sn2C2HTe2HMgC2Sn2C2HTe2HMgC2Sn2C2HTe2HMgC2Sn2C2HTe2HMgC2Sn2C2HTe2HMgC2Sn2C2HTe2HMgC2Sn2C2HTe2HMgC2Sn2C2HTe2HMgC2Sn2C2HTe2HMgC2Sn2C2HTe2HMgC2Sn2C2HTe2HMgC2Sn2C2HTe2HMgC2Sn2C2HTe2HMgC2Sn2C2HTe2HMgC2Sn2C2HTe2HMgC2Sn2C2HTe2HMg
_chemical_formula_sum              "H60 C116 N12 Sn52 Te52 Mg26"
_cell_length_a       28.5548
_cell_length_b       23.7161
_cell_length_c       9.46288
_cell_angle_alpha    84.4516
_cell_angle_beta     84.0559
_cell_angle_gamma    89.8449

_symmetry_space_group_name_H-M    'P1'
_space_group_IT_number       1

loop_
  _space_group_symop_operation_xyz
  'x, y, z'

loop_
  _atom_site_type_symbol
  _atom_site_label
  _atom_site_symmetry_multiplicity
  _atom_site_fract_x
  _atom_site_fract_y
  _atom_site_fract_z
  _atom_site_occupancy
  H   H1        1.0  0.36649  0.06147  0.45395  1.0000
  H   H2        1.0  0.45770  0.66060  0.37524  1.0000
  H   H3        1.0  0.99293  0.61578  0.93459  1.0000
  H   H4        1.0  0.99584  0.01251  0.01356  1.0000
  H   H5        1.0  0.39991  0.02985  0.08394  1.0000
  H   H6        1.0  0.46565  0.66534  0.91174  1.0000
  H   H7        1.0  0.99384  0.61754  0.43619  1.0000
  H   H8        1.0  0.00150  0.02316  0.54659  1.0000
  C   C1        1.0  0.40133  0.04142  0.44406  1.0000
  C   C2        1.0  0.44416  0.62087  0.34286  1.0000
  C   C3        1.0  0.99156  0.58371  0.02692  1.0000
  C   C4        1.0  0.70067  0.33800  0.13320  1.0000
  C   C5        1.0  0.69374  0.28024  0.14413  1.0000
  C   C6        1.0  0.96790  0.00797  0.10343  1.0000
  C   C7        1.0  0.40739  0.04115  0.96805  1.0000
  C   C8        1.0  0.44999  0.62846  0.87131  1.0000
  C   C9        1.0  0.99313  0.58479  0.52683  1.0000
  C   C10       1.0  0.70126  0.34057  0.63108  1.0000
  C   C11       1.0  0.69582  0.28259  0.63773  1.0000
  C   C12       1.0  0.96958  0.01101  0.61844  1.0000
  N   N1        1.0  0.40693  0.98707  0.45468  1.0000
  N   N2        1.0  0.28602  0.80698  0.40090  1.0000
  N   N3        1.0  0.10106  0.79240  0.24017  1.0000
  N   N4        1.0  0.39960  0.61393  0.33454  1.0000
  N   N5        1.0  0.01673  0.58798  0.13209  1.0000
  N   N6        1.0  0.96794  0.96854  0.20799  1.0000
  N   N7        1.0  0.38472  0.01937  0.87455  1.0000
  N   N8        1.0  0.28557  0.81500  0.90346  1.0000
  N   N9        1.0  0.10209  0.79253  0.73943  1.0000
  N   N10       1.0  0.40536  0.62590  0.85820  1.0000
  N   N11       1.0  0.01873  0.58824  0.63125  1.0000
  N   N12       1.0  0.96629  0.96519  0.70524  1.0000
  C   C13       1.0  0.22126  0.76349  0.23436  1.0000
  C   C14       1.0  0.23890  0.79923  0.32564  1.0000
  C  Sn1       1.0  0.20864  0.83479  0.40108  1.0000
  C  Sn2       1.0  0.15982  0.83444  0.38463  1.0000
  C   C15       1.0  0.14250  0.79850  0.29311  1.0000
  C   C16       1.0  0.17310  0.76311  0.21811  1.0000
  H   H9        1.0  0.24492  0.73608  0.17638  1.0000
  O  Te1       1.0  0.22686  0.87025  0.49180  1.0000
  O  Te2       1.0  0.12878  0.86953  0.45878  1.0000
  H   H10       1.0  0.15942  0.73541  0.14751  1.0000
  Mg  Mg1       1.0  0.17047  0.91036  0.56980  1.0000
  C   C17       1.0  0.32046  0.95038  0.36711  1.0000
  C   C18       1.0  0.35755  0.95244  0.45195  1.0000
  C  Sn3       1.0  0.37205  0.90320  0.52822  1.0000
  C  Sn4       1.0  0.34892  0.85100  0.51914  1.0000
  C   C19       1.0  0.31187  0.84938  0.43389  1.0000
  C   C20       1.0  0.29764  0.89891  0.35805  1.0000
  H   H11       1.0  0.31171  0.98869  0.30836  1.0000
  O  Te3       1.0  0.40916  0.90601  0.61253  1.0000
  O  Te4       1.0  0.36270  0.80115  0.59421  1.0000
  H   H12       1.0  0.26894  0.89729  0.29229  1.0000
  Mg  Mg2       1.0  0.41510  0.82661  0.69479  1.0000
  C   C21       1.0  0.60833  0.38514  0.07992  1.0000
  C   C22       1.0  0.65190  0.37850  0.13430  1.0000
  C  Sn5       1.0  0.66406  0.41230  0.23809  1.0000
  C  Sn6       1.0  0.63194  0.45345  0.28817  1.0000
  C   C23       1.0  0.58843  0.45973  0.23317  1.0000
  C   C24       1.0  0.57662  0.42570  0.12931  1.0000
  H   H13       1.0  0.56495  0.32032  0.99962  1.0000
  O  Te5       1.0  0.70774  0.40513  0.29123  1.0000
  O  Te6       1.0  0.64319  0.48778  0.39188  1.0000
  H   H14       1.0  0.54287  0.43082  0.08729  1.0000
  Mg  Mg3       1.0  0.70697  0.46204  0.43147  1.0000
  C   C25       1.0  0.75744  0.43391  0.01529  1.0000
  C   C26       1.0  0.74805  0.37938  0.08210  1.0000
  C  Sn7       1.0  0.78296  0.34911  0.14923  1.0000
  C  Sn8       1.0  0.82808  0.37402  0.14934  1.0000
  C   C27       1.0  0.83711  0.42862  0.08230  1.0000
  C   C28       1.0  0.80192  0.45852  0.01540  1.0000
  H   H15       1.0  0.69597  0.41859  0.96359  1.0000
  O  Te7       1.0  0.77299  0.29466  0.21543  1.0000
  O  Te8       1.0  0.86361  0.34472  0.21569  1.0000
  H   H16       1.0  0.77496  0.46229  0.96376  1.0000
  Mg  Mg4       1.0  0.83297  0.27166  0.29153  1.0000
  C   C29       1.0  0.60935  0.17012  0.15303  1.0000
  C   C30       1.0  0.57313  0.17961  0.25898  1.0000
  C  Sn9       1.0  0.57314  0.22871  0.32954  1.0000
  C  Sn10      1.0  0.61012  0.26898  0.29309  1.0000
  C   C31       1.0  0.64618  0.25912  0.18688  1.0000
  C   C32       1.0  0.64584  0.20983  0.11698  1.0000
  H   H17       1.0  0.60908  0.13201  0.09889  1.0000
  O  Te9       1.0  0.53669  0.23751  0.43517  1.0000
  O  Te10      1.0  0.61098  0.31842  0.36188  1.0000
  H   H18       1.0  0.67387  0.20252  0.03489  1.0000
  Mg  Mg5       1.0  0.55344  0.31136  0.49856  1.0000
  C   C33       1.0  0.79901  0.22019  0.97754  1.0000
  C   C34       1.0  0.84565  0.21456  0.07524  1.0000
  C  Sn11      1.0  0.81677  0.20042  0.20208  1.0000
  C  Sn12      1.0  0.77470  0.23107  0.23134  1.0000
  C   C35       1.0  0.76258  0.27509  0.13286  1.0000
  C   C36       1.0  0.79175  0.28889  0.00629  1.0000
  H   H19       1.0  0.82156  0.23086  0.87957  1.0000
  O  Te11      1.0  0.82970  0.15626  0.29856  1.0000
  O  Te12      1.0  0.74518  0.21781  0.35727  1.0000
  H   H20       1.0  0.74789  0.28455  0.93062  1.0000
  Mg  Mg6       1.0  0.77793  0.15412  0.45546  1.0000
  C   C37       1.0  0.92355  0.10770  0.97973  1.0000
  C   C38       1.0  0.96465  0.09836  0.07357  1.0000
  C  Sn13      1.0  0.92935  0.08003  0.18154  1.0000
  C  Sn14      1.0  0.88641  0.11021  0.19553  1.0000
  C   C39       1.0  0.87987  0.15797  0.10105  1.0000
  C   C40       1.0  0.88120  0.13748  0.99343  1.0000
  H   H21       1.0  0.95105  0.12160  0.89641  1.0000
  O  Te13      1.0  0.93680  0.03219  0.27441  1.0000
  O  Te14      1.0  0.85053  0.09281  0.30245  1.0000
  H   H22       1.0  0.87586  0.17448  0.92073  1.0000
  Mg  Mg7       1.0  0.87737  0.02510  0.40302  1.0000
  C   C41       1.0  0.02981  0.70747  0.07005  1.0000
  C   C42       1.0  0.03934  0.65126  0.11633  1.0000
  C  Sn15      1.0  0.07252  0.63893  0.21332  1.0000
  C  Sn16      1.0  0.09653  0.68381  0.26478  1.0000
  C   C43       1.0  0.08672  0.73990  0.21791  1.0000
  C   C44       1.0  0.05347  0.75176  0.12080  1.0000
  H   H23       1.0  0.96983  0.67818  0.99498  1.0000
  O  Te15      1.0  0.08163  0.58253  0.25841  1.0000
  O  Te16      1.0  0.12985  0.67269  0.36181  1.0000
  H   H24       1.0  0.04607  0.79528  0.08506  1.0000
  Mg  Mg8       1.0  0.13008  0.58889  0.39158  1.0000
  C   C45       1.0  0.06438  0.93335  0.16794  1.0000
  C   C46       1.0  0.01547  0.93169  0.19956  1.0000
  C  Sn17      1.0  0.99293  0.88172  0.26125  1.0000
  C  Sn18      1.0  0.01996  0.83258  0.29176  1.0000
  C   C47       1.0  0.06887  0.83469  0.25981  1.0000
  C   C48       1.0  0.09106  0.88491  0.19804  1.0000
  H   H25       1.0  0.08156  0.97221  0.12022  1.0000
  O  Te17      1.0  0.94404  0.88079  0.29211  1.0000
  O  Te18      1.0  0.99833  0.78208  0.35344  1.0000
  H   H26       1.0  0.12893  0.88619  0.17366  1.0000
  Mg  Mg9       1.0  0.93075  0.80194  0.37581  1.0000
  C   C49       1.0  0.31555  0.66255  0.44594  1.0000
  C   C50       1.0  0.35853  0.65824  0.36262  1.0000
  C  Sn19      1.0  0.38082  0.70671  0.29079  1.0000
  C  Sn20      1.0  0.35961  0.76044  0.30282  1.0000
  C   C51       1.0  0.31662  0.76431  0.38651  1.0000
  C   C52       1.0  0.29461  0.71554  0.45791  1.0000
  H   H27       1.0  0.29853  0.62482  0.50125  1.0000
  O  Te19      1.0  0.42375  0.70164  0.20796  1.0000
  O  Te20      1.0  0.38114  0.80957  0.23220  1.0000
  H   H28       1.0  0.26135  0.71890  0.52248  1.0000
  Mg  Mg10      1.0  0.43939  0.78087  0.13206  1.0000
  C   C53       1.0  0.55814  0.56412  0.31779  1.0000
  C   C54       1.0  0.55466  0.51105  0.26693  1.0000
  C  Sn21      1.0  0.51154  0.49200  0.23137  1.0000
  C  Sn22      1.0  0.47121  0.52681  0.24709  1.0000
  C   C55       1.0  0.47506  0.57985  0.29797  1.0000
  C   C56       1.0  0.51838  0.59849  0.33328  1.0000
  H   H29       1.0  0.59166  0.57856  0.34504  1.0000
  O  Te21      1.0  0.50869  0.43886  0.18076  1.0000
  O  Te22      1.0  0.42768  0.50882  0.21230  1.0000
  H   H30       1.0  0.52107  0.63960  0.37256  1.0000
  Mg  Mg11      1.0  0.44158  0.43305  0.14759  1.0000
  C   C57       1.0  0.94557  0.47866  0.14697  1.0000
  C   C58       1.0  0.95870  0.52441  0.04635  1.0000
  C  Sn23      1.0  0.89515  0.50352  0.94134  1.0000
  C  Sn24      1.0  0.85191  0.47468  0.93728  1.0000
  C   C59       1.0  0.87331  0.46745  0.03849  1.0000
  C   C60       1.0  0.90292  0.45021  0.14308  1.0000
  H   H31       1.0  0.96846  0.46533  0.22795  1.0000
  O  Te23      1.0  0.90881  0.54929  0.84160  1.0000
  O  Te24      1.0  0.82194  0.49137  0.83351  1.0000
  H   H32       1.0  0.89273  0.41480  0.22103  1.0000
  Mg  Mg12      1.0  0.85603  0.55614  0.72083  1.0000
  C   C61       1.0  0.50037  0.05774  0.36884  1.0000
  C   C62       1.0  0.45426  0.07214  0.41578  1.0000
  C  Sn25      1.0  0.44126  0.12898  0.41552  1.0000
  C  Sn26      1.0  0.47511  0.17211  0.36728  1.0000
  C   C63       1.0  0.52114  0.15727  0.32043  1.0000
  C   C64       1.0  0.53378  0.10026  0.32118  1.0000
  H   H33       1.0  0.51015  0.01363  0.36934  1.0000
  O  Te25      1.0  0.39505  0.14262  0.46283  1.0000
  O  Te26      1.0  0.46306  0.22926  0.36584  1.0000
  H   H34       1.0  0.56947  0.08913  0.28475  1.0000
  Mg  Mg13      1.0  0.39565  0.22653  0.44067  1.0000
  C   C65       1.0  0.19825  0.76354  0.71386  1.0000
  C   C66       1.0  0.15633  0.78789  0.76767  1.0000
  C  Sn27      1.0  0.15683  0.82693  0.86904  1.0000
  C  Sn28      1.0  0.20017  0.84178  0.91720  1.0000
  C   C67       1.0  0.24192  0.81720  0.86263  1.0000
  C   C68       1.0  0.24101  0.77818  0.76126  1.0000
  H   H35       1.0  0.19756  0.73336  0.63537  1.0000
  O  Te27      1.0  0.11463  0.85085  0.92172  1.0000
  O  Te28      1.0  0.23592  0.91916  0.01840  1.0000
  H   H36       1.0  0.27348  0.75935  0.71955  1.0000
  Mg  Mg14      1.0  0.16905  0.94025  0.05833  1.0000
  C   C69       1.0  0.35705  0.91376  0.03080  1.0000
  C   C70       1.0  0.32393  0.92293  0.93124  1.0000
  C  Sn29      1.0  0.29404  0.92615  0.82285  1.0000
  C  Sn30      1.0  0.26249  0.88079  0.81426  1.0000
  C   C71       1.0  0.26163  0.83333  0.91443  1.0000
  C   C72       1.0  0.32593  0.86901  0.02243  1.0000
  H   H37       1.0  0.38030  0.91161  0.11441  1.0000
  O  Te29      1.0  0.29787  0.97405  0.72423  1.0000
  O  Te30      1.0  0.23223  0.88292  0.70704  1.0000
  H   H38       1.0  0.32504  0.83214  0.09955  1.0000
  Mg  Mg15      1.0  0.24748  0.95716  0.59758  1.0000
  C   C73       1.0  0.58663  0.40518  0.61081  1.0000
  C   C74       1.0  0.58564  0.44828  0.70185  1.0000
  C  Sn31      1.0  0.62499  0.45893  0.77174  1.0000
  C  Sn32      1.0  0.66606  0.42575  0.74983  1.0000
  C   C75       1.0  0.66671  0.38276  0.65846  1.0000
  C   C76       1.0  0.62712  0.37245  0.58910  1.0000
  H   H39       1.0  0.55601  0.39722  0.55707  1.0000
  O  Te31      1.0  0.62340  0.50214  0.86237  1.0000
  O  Te32      1.0  0.70590  0.43550  0.81830  1.0000
  H   H40       1.0  0.62791  0.33910  0.51854  1.0000
  Mg  Mg16      1.0  0.68658  0.49918  0.93159  1.0000
  C   C77       1.0  0.78141  0.45209  0.49522  1.0000
  C   C78       1.0  0.82383  0.44098  0.55379  1.0000
  C  Sn33      1.0  0.82938  0.39080  0.64051  1.0000
  C  Sn34      1.0  0.79171  0.35108  0.66891  1.0000
  C   C79       1.0  0.74943  0.36258  0.60972  1.0000
  C   C80       1.0  0.74424  0.41293  0.52312  1.0000
  H   H41       1.0  0.77741  0.49103  0.42815  1.0000
  O  Te33      1.0  0.87200  0.38037  0.69821  1.0000
  O  Te34      1.0  0.79632  0.30058  0.75517  1.0000
  H   H42       1.0  0.71141  0.42151  0.47772  1.0000
  Mg  Mg17      1.0  0.86123  0.30555  0.80928  1.0000
  C   C81       1.0  0.63001  0.19442  0.60595  1.0000
  C   C82       1.0  0.64597  0.24404  0.65437  1.0000
  C  Sn35      1.0  0.62175  0.26623  0.77228  1.0000
  C  Sn36      1.0  0.58081  0.23812  0.84282  1.0000
  C   C83       1.0  0.56515  0.18848  0.79361  1.0000
  C   C84       1.0  0.58964  0.16666  0.67549  1.0000
  H   H43       1.0  0.64898  0.17751  0.51461  1.0000
  O  Te35      1.0  0.63817  0.31586  0.81923  1.0000
  O  Te36      1.0  0.55594  0.25936  0.96095  1.0000
  H   H44       1.0  0.57730  0.12822  0.63808  1.0000
  Mg  Mg18      1.0  0.59220  0.32825  0.98473  1.0000
  C   C85       1.0  0.76111  0.15901  0.72200  1.0000
  C   C86       1.0  0.80086  0.15909  0.62251  1.0000
  C  Sn37      1.0  0.80892  0.20378  0.51522  1.0000
  C  Sn38      1.0  0.77654  0.24918  0.50769  1.0000
  C   C87       1.0  0.73689  0.24872  0.60779  1.0000
  C   C88       1.0  0.72916  0.20378  0.71469  1.0000
  H   H45       1.0  0.75514  0.12426  0.80476  1.0000
  O  Te37      1.0  0.84880  0.20318  0.41665  1.0000
  O  Te38      1.0  0.78375  0.29439  0.40159  1.0000
  H   H46       1.0  0.69840  0.20375  0.79176  1.0000
  Mg  Mg19      1.0  0.84327  0.27436  0.29174  1.0000
  C   C89       1.0  0.87197  0.03548  0.68821  1.0000
  C   C90       1.0  0.91817  0.04322  0.62453  1.0000
  C  Sn39      1.0  0.93212  0.09477  0.54779  1.0000
  C  Sn40      1.0  0.89913  0.13933  0.53477  1.0000
  C   C91       1.0  0.85299  0.13118  0.59896  1.0000
  C   C92       1.0  0.83940  0.07942  0.67547  1.0000
  H   H47       1.0  0.86146  0.99544  0.74747  1.0000
  O  Te39      1.0  0.97842  0.10178  0.48479  1.0000
  O  Te40      1.0  0.91214  0.19130  0.45872  1.0000
  H   H48       1.0  0.80363  0.07345  0.72484  1.0000
  Mg  Mg20      1.0  0.97928  0.18036  0.39200  1.0000
  C   C93       1.0  0.08699  0.64472  0.75551  1.0000
  C   C94       1.0  0.05147  0.63756  0.66758  1.0000
  C  Sn41      1.0  0.03457  0.68412  0.58642  1.0000
  C  Sn42      1.0  0.05367  0.73881  0.59361  1.0000
  C   C95       1.0  0.08922  0.74553  0.68183  1.0000
  C   C96       1.0  0.10586  0.69864  0.76263  1.0000
  H   H49       1.0  0.09988  0.60844  0.81797  1.0000
  O  Te41      1.0  0.99906  0.67622  0.49917  1.0000
  O  Te42      1.0  0.03745  0.78608  0.51359  1.0000
  H   H50       1.0  0.13338  0.70420  0.83062  1.0000
  Mg  Mg21      1.0  0.98858  0.75372  0.41049  1.0000
  C   C97       1.0  0.99222  0.85665  0.78890  1.0000
  C   C98       1.0  0.99987  0.91412  0.74465  1.0000
  C  Sn43      1.0  0.04475  0.93373  0.68895  1.0000
  C  Sn44      1.0  0.08259  0.89499  0.67745  1.0000
  C   C99       1.0  0.07456  0.83757  0.72192  1.0000
  C   C100      1.0  0.02952  0.81841  0.77754  1.0000
  H   H51       1.0  0.95737  0.84181  0.83186  1.0000
  O  Te43      1.0  0.05403  0.99129  0.64529  1.0000
  O  Te44      1.0  0.12779  0.91345  0.62213  1.0000
  H   H52       1.0  0.02360  0.77390  0.81171  1.0000
  Mg  Mg22      1.0  0.12199  0.99595  0.57698  1.0000
  C   C101      1.0  0.39244  0.74521  0.83292  1.0000
  C   C102      1.0  0.38367  0.68796  0.87749  1.0000
  C  Sn45      1.0  0.33851  0.66967  0.93398  1.0000
  C  Sn46      1.0  0.30151  0.70953  0.94589  1.0000
  C   C103      1.0  0.31063  0.76670  0.90091  1.0000
  C   C104      1.0  0.35596  0.78455  0.84458  1.0000
  H   H53       1.0  0.42750  0.75901  0.78927  1.0000
  O  Te45      1.0  0.33037  0.61233  0.97805  1.0000
  O  Te46      1.0  0.29028  0.73087  0.00191  1.0000
  H   H54       1.0  0.36272  0.82886  0.81000  1.0000
  Mg  Mg23      1.0  0.29670  0.64813  0.04740  1.0000
  C   C105      1.0  0.54340  0.58729  0.85207  1.0000
  C   C106      1.0  0.49535  0.58843  0.83526  1.0000
  C  Sn47      1.0  0.47419  0.54323  0.78098  1.0000
  C  Sn48      1.0  0.50174  0.49608  0.74296  1.0000
  C   C107      1.0  0.54977  0.49533  0.76028  1.0000
  C   C108      1.0  0.57059  0.54079  0.81465  1.0000
  H   H55       1.0  0.55951  0.62244  0.89421  1.0000
  O  Te47      1.0  0.42614  0.54506  0.76482  1.0000
  O  Te48      1.0  0.48148  0.45033  0.68851  1.0000
  H   H56       1.0  0.60779  0.53988  0.82774  1.0000
  Mg  Mg24      1.0  0.41465  0.47252  0.68615  1.0000
  C   C109      1.0  0.94711  0.47953  0.64417  1.0000
  C   C110      1.0  0.96008  0.52590  0.54534  1.0000
  C  Sn49      1.0  0.93019  0.54489  0.44310  1.0000
  C  Sn50      1.0  0.88652  0.51685  0.44004  1.0000
  C   C111      1.0  0.87386  0.47052  0.53944  1.0000
  C   C112      1.0  0.90405  0.45186  0.64126  1.0000
  H   H57       1.0  0.97045  0.46511  0.72301  1.0000
  O  Te49      1.0  0.94369  0.59127  0.34511  1.0000
  O  Te50      1.0  0.85597  0.53496  0.33903  1.0000
  H   H58       1.0  0.89398  0.41598  0.71783  1.0000
  Mg  Mg25      1.0  0.89006  0.60008  0.22794  1.0000
  C   C113      1.0  0.49554  0.10860  0.72167  1.0000
  C   C114      1.0  0.51766  0.14819  0.79318  1.0000
  C  Sn51      1.0  0.50461  0.15256  0.93811  1.0000
  C  Sn52      1.0  0.50297  0.15503  0.01256  1.0000
  C   C115      1.0  0.44685  0.07706  0.94008  1.0000
  C   C116      1.0  0.46018  0.07306  0.79503  1.0000
  H   H59       1.0  0.50587  0.10548  0.60947  1.0000
  O  Te51      1.0  0.56129  0.23083  0.00790  1.0000
  O  Te52      1.0  0.48925  0.15848  0.15744  1.0000
  H   H60       1.0  0.44307  0.04238  0.73972  1.0000
  Mg  Mg26      1.0  0.53027  0.21947  0.20577  1.0000
