data_image0
_chemical_formula_structural       H8C12N12SnCSn2CSnTe4Mg2SnCSn2CSnTe4Mg2SnCSn2CSnTe4Mg2SnCSn2CSnTe4Mg2SnCSn2CSnTe4Mg2SnCSn2CSnTe4Mg2SnCSn2CSnTe4Mg2SnCSn2CSnTe4Mg2SnCSn2CSnTe4Mg2SnCSn2CSnTe4Mg2SnCSn2CSnTe4Mg2SnCSn2CSnTe4Mg2SnCSn2CSnTe4Mg2SnCSn2CSnTe4Mg2SnCSn2CSnTe4Mg2SnCSn2CSnTe4Mg2SnCSn2CSnTe4Mg2SnCSn2CSnTe4Mg2SnCSn2CSnTe4Mg2SnCSn2CSnTe4Mg2SnCSn2CSnTe4Mg2SnCSn2CSnTe4Mg2SnCSn2CSnTe4Mg2SnCSn2CSnTe4Mg2SnCSn2CSnTe4Mg2SnCSn2CSnTe4Mg2
_chemical_formula_sum              "H8 C64 N12 Sn104 Te104 Mg52"
_cell_length_a       28.5548
_cell_length_b       23.7161
_cell_length_c       9.46288
_cell_angle_alpha    84.4516
_cell_angle_beta     84.0559
_cell_angle_gamma    89.8449

_symmetry_space_group_name_H-M    'P1'
_space_group_IT_number       1

loop_
  _space_group_symop_operation_xyz
  'x, y, z'

loop_
  _atom_site_type_symbol
  _atom_site_label
  _atom_site_symmetry_multiplicity
  _atom_site_fract_x
  _atom_site_fract_y
  _atom_site_fract_z
  _atom_site_occupancy
  H   H1        1.0  0.36649  0.06147  0.45395  1.0000
  H   H2        1.0  0.45770  0.66060  0.37524  1.0000
  H   H3        1.0  0.99293  0.61578  0.93459  1.0000
  H   H4        1.0  0.99584  0.01251  0.01356  1.0000
  H   H5        1.0  0.39991  0.02985  0.08394  1.0000
  H   H6        1.0  0.46565  0.66534  0.91174  1.0000
  H   H7        1.0  0.99384  0.61754  0.43619  1.0000
  H   H8        1.0  0.00150  0.02316  0.54659  1.0000
  C   C1        1.0  0.40133  0.04142  0.44406  1.0000
  C   C2        1.0  0.44416  0.62087  0.34286  1.0000
  C   C3        1.0  0.99156  0.58371  0.02692  1.0000
  C   C4        1.0  0.70067  0.33800  0.13320  1.0000
  C   C5        1.0  0.69374  0.28024  0.14413  1.0000
  C   C6        1.0  0.96790  0.00797  0.10343  1.0000
  C   C7        1.0  0.40739  0.04115  0.96805  1.0000
  C   C8        1.0  0.44999  0.62846  0.87131  1.0000
  C   C9        1.0  0.99313  0.58479  0.52683  1.0000
  C   C10       1.0  0.70126  0.34057  0.63108  1.0000
  C   C11       1.0  0.69582  0.28259  0.63773  1.0000
  C   C12       1.0  0.96958  0.01101  0.61844  1.0000
  N   N1        1.0  0.40693  0.98707  0.45468  1.0000
  N   N2        1.0  0.28602  0.80698  0.40090  1.0000
  N   N3        1.0  0.10106  0.79240  0.24017  1.0000
  N   N4        1.0  0.39960  0.61393  0.33454  1.0000
  N   N5        1.0  0.01673  0.58798  0.13209  1.0000
  N   N6        1.0  0.96794  0.96854  0.20799  1.0000
  N   N7        1.0  0.38472  0.01937  0.87455  1.0000
  N   N8        1.0  0.28557  0.81500  0.90346  1.0000
  N   N9        1.0  0.10209  0.79253  0.73943  1.0000
  N   N10       1.0  0.40536  0.62590  0.85820  1.0000
  N   N11       1.0  0.01873  0.58824  0.63125  1.0000
  N   N12       1.0  0.96629  0.96519  0.70524  1.0000
  C  Sn1       1.0  0.16928  0.85146  0.36189  1.0000
  C   C13       1.0  0.15284  0.81681  0.26603  1.0000
  C  Sn2       1.0  0.17999  0.77172  0.21986  1.0000
  C  Sn3       1.0  0.22450  0.76101  0.27064  1.0000
  C   C14       1.0  0.24091  0.79564  0.36646  1.0000
  C  Sn4       1.0  0.21379  0.84075  0.41266  1.0000
  O  Te1       1.0  0.14154  0.89630  0.40661  1.0000
  O  Te2       1.0  0.16281  0.73768  0.12395  1.0000
  O  Te3       1.0  0.25223  0.71613  0.22583  1.0000
  O  Te4       1.0  0.23094  0.87477  0.50854  1.0000
  Mg  Mg1       1.0  0.21358  0.68170  0.09439  1.0000
  Mg  Mg2       1.0  0.18019  0.93074  0.53822  1.0000
  C  Sn5       1.0  0.31301  0.91958  0.33195  1.0000
  C   C15       1.0  0.31546  0.86344  0.39090  1.0000
  C  Sn6       1.0  0.34319  0.84926  0.50218  1.0000
  C  Sn7       1.0  0.36897  0.89209  0.55572  1.0000
  C   C16       1.0  0.36651  0.94819  0.49680  1.0000
  C  Sn8       1.0  0.33880  0.96242  0.38549  1.0000
  O  Te5       1.0  0.28507  0.93280  0.22077  1.0000
  O  Te6       1.0  0.34509  0.79283  0.55936  1.0000
  O  Te7       1.0  0.39693  0.87883  0.66699  1.0000
  O  Te8       1.0  0.33913  0.01880  0.32834  1.0000
  Mg  Mg3       1.0  0.38810  0.79596  0.70968  1.0000
  Mg  Mg4       1.0  0.29611  0.01573  0.17808  1.0000
  C  Sn9       1.0  0.61809  0.39796  0.05334  1.0000
  C   C17       1.0  0.65921  0.38837  0.12002  1.0000
  C  Sn10      1.0  0.66468  0.41140  0.24777  1.0000
  C  Sn11      1.0  0.62827  0.44468  0.31024  1.0000
  C   C18       1.0  0.58718  0.45425  0.24359  1.0000
  C  Sn12      1.0  0.58168  0.43124  0.11581  1.0000
  O  Te9       1.0  0.57915  0.33605  0.92568  1.0000
  O  Te10      1.0  0.70612  0.40124  0.31241  1.0000
  O  Te11      1.0  0.63302  0.46813  0.43799  1.0000
  O  Te12      1.0  0.54027  0.44138  0.05119  1.0000
  Mg  Mg5       1.0  0.69598  0.44229  0.48542  1.0000
  Mg  Mg6       1.0  0.51612  0.36187  0.87823  1.0000
  C  Sn13      1.0  0.77894  0.45500  0.04220  1.0000
  C   C19       1.0  0.82271  0.43957  0.08703  1.0000
  C  Sn14      1.0  0.83146  0.38336  0.13517  1.0000
  C  Sn15      1.0  0.79573  0.34169  0.13849  1.0000
  C   C20       1.0  0.75200  0.35712  0.09366  1.0000
  C  Sn16      1.0  0.74321  0.41332  0.04552  1.0000
  O  Te13      1.0  0.73674  0.47297  0.99447  1.0000
  O  Te14      1.0  0.87549  0.36897  0.17950  1.0000
  O  Te15      1.0  0.80374  0.28521  0.18627  1.0000
  O  Te16      1.0  0.69922  0.42772  0.00119  1.0000
  Mg  Mg7       1.0  0.86939  0.28649  0.23556  1.0000
  Mg  Mg8       1.0  0.67105  0.47170  0.94504  1.0000
  C  Sn17      1.0  0.61463  0.16339  0.19482  1.0000
  C   C21       1.0  0.57653  0.17674  0.29050  1.0000
  C  Sn18      1.0  0.57102  0.23183  0.32988  1.0000
  C  Sn19      1.0  0.60427  0.27447  0.27238  1.0000
  C   C22       1.0  0.64233  0.26110  0.17675  1.0000
  C  Sn20      1.0  0.64788  0.20602  0.13732  1.0000
  O  Te17      1.0  0.61944  0.10804  0.15694  1.0000
  O  Te18      1.0  0.53266  0.24416  0.42575  1.0000
  O  Te19      1.0  0.59943  0.32985  0.31035  1.0000
  O  Te20      1.0  0.68621  0.19369  0.04150  1.0000
  Mg  Mg9       1.0  0.54131  0.32580  0.44460  1.0000
  Mg  Mg10      1.0  0.67757  0.11208  0.02251  1.0000
  C  Sn21      1.0  0.75253  0.19637  0.25537  1.0000
  C   C23       1.0  0.74083  0.24009  0.15555  1.0000
  C  Sn22      1.0  0.76255  0.24413  0.01570  1.0000
  C  Sn23      1.0  0.76243  0.16513  0.97471  1.0000
  C   C24       1.0  0.80834  0.15991  0.07448  1.0000
  C  Sn24      1.0  0.78664  0.15584  0.21438  1.0000
  O  Te21      1.0  0.73036  0.19315  0.39460  1.0000
  O  Te22      1.0  0.71606  0.24976  0.91782  1.0000
  O  Te23      1.0  0.78459  0.16839  0.83535  1.0000
  O  Te24      1.0  0.79888  0.11177  0.31222  1.0000
  Mg  Mg11      1.0  0.75599  0.23615  0.74072  1.0000
  Mg  Mg12      1.0  0.75895  0.12532  0.48931  1.0000
  C  Sn25      1.0  0.96330  0.15277  0.01817  1.0000
  C   C25       1.0  0.96724  0.10196  0.10401  1.0000
  C  Sn26      1.0  0.92751  0.07663  0.18328  1.0000
  C  Sn27      1.0  0.88289  0.10260  0.17656  1.0000
  C   C26       1.0  0.87896  0.15337  0.09075  1.0000
  C  Sn28      1.0  0.91868  0.17873  0.01145  1.0000
  O  Te25      1.0  0.96926  0.13887  0.93983  1.0000
  O  Te26      1.0  0.93234  0.02585  0.26837  1.0000
  O  Te27      1.0  0.84268  0.07798  0.25501  1.0000
  O  Te28      1.0  0.87963  0.19101  0.92639  1.0000
  Mg  Mg13      1.0  0.86723  0.00875  0.35526  1.0000
  Mg  Mg14      1.0  0.94471  0.20813  0.83940  1.0000
  C  Sn29      1.0  0.07308  0.64748  0.27908  1.0000
  C   C27       1.0  0.03971  0.64108  0.18360  1.0000
  C  Sn30      1.0  0.03130  0.68524  0.08079  1.0000
  C  Sn31      1.0  0.05680  0.73688  0.07318  1.0000
  C   C28       1.0  0.09015  0.74325  0.16861  1.0000
  C  Sn32      1.0  0.09858  0.69911  0.27147  1.0000
  O  Te29      1.0  0.08092  0.60276  0.38098  1.0000
  O  Te30      1.0  0.96352  0.63939  0.98652  1.0000
  O  Te31      1.0  0.01470  0.74314  0.97117  1.0000
  O  Te32      1.0  0.13211  0.70648  0.36568  1.0000
  Mg  Mg15      1.0  0.96543  0.71266  0.86642  1.0000
  Mg  Mg16      1.0  0.13025  0.63323  0.48577  1.0000
  C  Sn33      1.0  0.99700  0.86629  0.32925  1.0000
  C   C29       1.0  0.00534  0.92234  0.27196  1.0000
  C  Sn34      1.0  0.04662  0.93698  0.18359  1.0000
  C  Sn35      1.0  0.08026  0.89471  0.15174  1.0000
  C   C30       1.0  0.07192  0.83870  0.20899  1.0000
  C  Sn36      1.0  0.03065  0.82402  0.29740  1.0000
  O  Te33      1.0  0.95549  0.85261  0.41733  1.0000
  O  Te34      1.0  0.05418  0.99330  0.12761  1.0000
  O  Te35      1.0  0.12180  0.90844  0.06358  1.0000
  O  Te36      1.0  0.02308  0.76774  0.35333  1.0000
  Mg  Mg17      1.0  0.11611  0.99095  0.01301  1.0000
  Mg  Mg18      1.0  0.96116  0.77004  0.46788  1.0000
  C  Sn37      1.0  0.35998  0.75243  0.25747  1.0000
  C   C31       1.0  0.31657  0.75543  0.33936  1.0000
  C  Sn38      1.0  0.30068  0.71037  0.43868  1.0000
  C  Sn39      1.0  0.32878  0.66130  0.45660  1.0000
  C   C32       1.0  0.37216  0.65832  0.37477  1.0000
  C  Sn40      1.0  0.38807  0.70336  0.27539  1.0000
  O  Te37      1.0  0.37516  0.79799  0.15881  1.0000
  O  Te38      1.0  0.25716  0.71435  0.51928  1.0000
  O  Te39      1.0  0.31355  0.61573  0.55536  1.0000
  O  Te40      1.0  0.43157  0.69941  0.19484  1.0000
  Mg  Mg19      1.0  0.25174  0.64121  0.64006  1.0000
  Mg  Mg20      1.0  0.43703  0.77252  0.07409  1.0000
  C  Sn41      1.0  0.55348  0.55197  0.35650  1.0000
  C   C33       1.0  0.54999  0.50182  0.29184  1.0000
  C  Sn42      1.0  0.51053  0.49113  0.22252  1.0000
  C  Sn43      1.0  0.47379  0.53142  0.21763  1.0000
  C   C34       1.0  0.47729  0.58154  0.28224  1.0000
  C  Sn44      1.0  0.51674  0.59227  0.35161  1.0000
  O  Te41      1.0  0.59325  0.56178  0.42521  1.0000
  O  Te42      1.0  0.50783  0.44067  0.15870  1.0000
  O  Te43      1.0  0.43400  0.52157  0.14885  1.0000
  O  Te44      1.0  0.51945  0.64269  0.41538  1.0000
  Mg  Mg21      1.0  0.44658  0.44663  0.07780  1.0000
  Mg  Mg22      1.0  0.58069  0.63679  0.49625  1.0000
  C  Sn45      1.0  0.89778  0.51143  0.90298  1.0000
  C   C35       1.0  0.92066  0.50286  0.00124  1.0000
  C  Sn46      1.0  0.94316  0.49434  0.12572  1.0000
  C  Sn47      1.0  0.97772  0.53368  0.15260  1.0000
  C   C36       1.0  0.98905  0.58069  0.05439  1.0000
  C  Sn48      1.0  0.93234  0.55076  0.92986  1.0000
  O  Te45      1.0  0.87484  0.51909  0.77925  1.0000
  O  Te46      1.0  0.93123  0.44699  0.22235  1.0000
  O  Te47      1.0  0.00067  0.52598  0.27646  1.0000
  O  Te48      1.0  0.94425  0.59808  0.83329  1.0000
  Mg  Mg23      1.0  0.97225  0.45499  0.37568  1.0000
  Mg  Mg24      1.0  0.90324  0.59014  0.67997  1.0000
  C  Sn49      1.0  0.50045  0.06039  0.41551  1.0000
  C   C37       1.0  0.45362  0.07596  0.44788  1.0000
  C  Sn50      1.0  0.43907  0.13119  0.41039  1.0000
  C  Sn51      1.0  0.47202  0.17168  0.33899  1.0000
  C   C38       1.0  0.51882  0.15610  0.30664  1.0000
  C  Sn52      1.0  0.53339  0.10088  0.34411  1.0000
  O  Te49      1.0  0.51421  0.00494  0.45399  1.0000
  O  Te50      1.0  0.39207  0.14576  0.44392  1.0000
  O  Te51      1.0  0.45822  0.22716  0.30053  1.0000
  O  Te52      1.0  0.58036  0.08630  0.31060  1.0000
  Mg  Mg25      1.0  0.39034  0.22659  0.36931  1.0000
  Mg  Mg26      1.0  0.58213  0.00549  0.38509  1.0000
  C  Sn53      1.0  0.16871  0.85345  0.86019  1.0000
  C   C39       1.0  0.15311  0.81738  0.76616  1.0000
  C  Sn54      1.0  0.18096  0.77222  0.72395  1.0000
  C  Sn55      1.0  0.22530  0.76288  0.77690  1.0000
  C   C40       1.0  0.24086  0.79893  0.87090  1.0000
  C  Sn56      1.0  0.21305  0.84411  0.91314  1.0000
  O  Te53      1.0  0.14029  0.89834  0.90095  1.0000
  O  Te54      1.0  0.16462  0.73674  0.62980  1.0000
  O  Te55      1.0  0.25371  0.71795  0.73605  1.0000
  O  Te56      1.0  0.26359  0.91804  0.00725  1.0000
  Mg  Mg27      1.0  0.21610  0.68129  0.60571  1.0000
  Mg  Mg28      1.0  0.21213  0.97348  0.03147  1.0000
  C  Sn57      1.0  0.33281  0.87099  0.99315  1.0000
  C   C41       1.0  0.32973  0.92037  0.90130  1.0000
  C  Sn58      1.0  0.29153  0.92866  0.82076  1.0000
  C  Sn59      1.0  0.25565  0.88674  0.83232  1.0000
  C   C42       1.0  0.25873  0.83740  0.92414  1.0000
  C  Sn60      1.0  0.33116  0.86754  0.00471  1.0000
  O  Te57      1.0  0.40555  0.90206  0.07265  1.0000
  O  Te58      1.0  0.29148  0.97837  0.72963  1.0000
  O  Te59      1.0  0.21713  0.89418  0.75272  1.0000
  O  Te60      1.0  0.33346  0.81788  0.09581  1.0000
  Mg  Mg29      1.0  0.22978  0.96898  0.64347  1.0000
  Mg  Mg30      1.0  0.39288  0.82723  0.18207  1.0000
  C  Sn61      1.0  0.58225  0.39672  0.65510  1.0000
  C   C43       1.0  0.58399  0.44311  0.73497  1.0000
  C  Sn62      1.0  0.62703  0.46215  0.77114  1.0000
  C  Sn63      1.0  0.66922  0.43426  0.72648  1.0000
  C   C44       1.0  0.66747  0.38790  0.64665  1.0000
  C  Sn64      1.0  0.62444  0.36883  0.61045  1.0000
  O  Te61      1.0  0.53884  0.37841  0.62016  1.0000
  O  Te62      1.0  0.62788  0.50860  0.85110  1.0000
  O  Te63      1.0  0.71265  0.45260  0.76150  1.0000
  O  Te64      1.0  0.62358  0.32241  0.53051  1.0000
  Mg  Mg31      1.0  0.69564  0.51771  0.87206  1.0000
  Mg  Mg32      1.0  0.55585  0.31329  0.50943  1.0000
  C  Sn65      1.0  0.77948  0.45831  0.53914  1.0000
  C   C45       1.0  0.82294  0.44344  0.58704  1.0000
  C  Sn66      1.0  0.83144  0.38765  0.63938  1.0000
  C  Sn67      1.0  0.79576  0.34583  0.64385  1.0000
  C   C46       1.0  0.75234  0.36070  0.59595  1.0000
  C  Sn68      1.0  0.74381  0.41649  0.54361  1.0000
  O  Te65      1.0  0.77177  0.51434  0.48724  1.0000
  O  Te66      1.0  0.87516  0.37381  0.68672  1.0000
  O  Te67      1.0  0.80351  0.28976  0.69581  1.0000
  O  Te68      1.0  0.70012  0.43033  0.49627  1.0000
  Mg  Mg33      1.0  0.86880  0.29174  0.74806  1.0000
  Mg  Mg34      1.0  0.70645  0.51238  0.43485  1.0000
  C  Sn69      1.0  0.61316  0.16987  0.66177  1.0000
  C   C47       1.0  0.57905  0.17807  0.77476  1.0000
  C  Sn70      1.0  0.57721  0.22911  0.83739  1.0000
  C  Sn71      1.0  0.61013  0.27289  0.78596  1.0000
  C   C48       1.0  0.64421  0.26469  0.67303  1.0000
  C  Sn72      1.0  0.64608  0.21366  0.61035  1.0000
  O  Te69      1.0  0.61434  0.11850  0.60076  1.0000
  O  Te70      1.0  0.54280  0.23630  0.95025  1.0000
  O  Te71      1.0  0.60892  0.32429  0.84708  1.0000
  O  Te72      1.0  0.68046  0.20646  0.49754  1.0000
  Mg  Mg35      1.0  0.55547  0.31387  0.99821  1.0000
  Mg  Mg36      1.0  0.66780  0.12892  0.44945  1.0000
  C  Sn73      1.0  0.75639  0.15118  0.68407  1.0000
  C   C49       1.0  0.79813  0.15528  0.59241  1.0000
  C  Sn74      1.0  0.81138  0.20656  0.51322  1.0000
  C  Sn75      1.0  0.78231  0.25476  0.52596  1.0000
  C   C50       1.0  0.74059  0.25066  0.61759  1.0000
  C  Sn76      1.0  0.72731  0.19939  0.69682  1.0000
  O  Te73      1.0  0.74384  0.09949  0.76222  1.0000
  O  Te74      1.0  0.85327  0.20961  0.42225  1.0000
  O  Te75      1.0  0.79489  0.30648  0.44771  1.0000
  O  Te76      1.0  0.68546  0.19633  0.78775  1.0000
  Mg  Mg37      1.0  0.85526  0.28942  0.33815  1.0000
  Mg  Mg38      1.0  0.68344  0.11654  0.87196  1.0000
  C  Sn77      1.0  0.87175  0.03115  0.64277  1.0000
  C   C51       1.0  0.91876  0.04207  0.59055  1.0000
  C  Sn78      1.0  0.93437  0.09757  0.54932  1.0000
  C  Sn79      1.0  0.90233  0.14311  0.56059  1.0000
  C   C52       1.0  0.85536  0.13219  0.61280  1.0000
  C  Sn80      1.0  0.83971  0.07669  0.65404  1.0000
  O  Te77      1.0  0.85691  0.97533  0.68337  1.0000
  O  Te78      1.0  0.98153  0.10743  0.49738  1.0000
  O  Te79      1.0  0.91721  0.19896  0.51993  1.0000
  O  Te80      1.0  0.79258  0.06683  0.70597  1.0000
  Mg  Mg39      1.0  0.98488  0.19084  0.45571  1.0000
  Mg  Mg40      1.0  0.78920  0.98344  0.74774  1.0000
  C  Sn81      1.0  0.04607  0.70199  0.53712  1.0000
  C   C53       1.0  0.05169  0.64689  0.59972  1.0000
  C  Sn82      1.0  0.07301  0.63754  0.72620  1.0000
  C  Sn83      1.0  0.08902  0.68423  0.79154  1.0000
  C   C54       1.0  0.08340  0.73929  0.72897  1.0000
  C  Sn84      1.0  0.06209  0.74869  0.60246  1.0000
  O  Te81      1.0  0.02465  0.71035  0.41066  1.0000
  O  Te82      1.0  0.07824  0.58207  0.78675  1.0000
  O  Te83      1.0  0.11045  0.67583  0.91810  1.0000
  O  Te84      1.0  0.05684  0.80412  0.54193  1.0000
  Mg  Mg41      1.0  0.10961  0.59241  0.95961  1.0000
  Mg  Mg42      1.0  0.02546  0.79383  0.36913  1.0000
  C  Sn85      1.0  0.01038  0.83140  0.75591  1.0000
  C   C55       1.0  0.05867  0.83366  0.71234  1.0000
  C  Sn86      1.0  0.08208  0.88579  0.68330  1.0000
  C  Sn87      1.0  0.05669  0.93672  0.69820  1.0000
  C   C56       1.0  0.00843  0.93445  0.74177  1.0000
  C  Sn88      1.0  0.98499  0.88233  0.77081  1.0000
  O  Te85      1.0  0.98770  0.77882  0.78437  1.0000
  O  Te86      1.0  0.13037  0.88697  0.63985  1.0000
  O  Te87      1.0  0.08166  0.98933  0.66969  1.0000
  O  Te88      1.0  0.93673  0.88113  0.81426  1.0000
  Mg  Mg43      1.0  0.14555  0.96897  0.61364  1.0000
  Mg  Mg44      1.0  0.92152  0.79916  0.84057  1.0000
  C  Sn89      1.0  0.37011  0.76737  0.80516  1.0000
  C   C57       1.0  0.32260  0.76726  0.85844  1.0000
  C  Sn90      1.0  0.30210  0.71920  0.93769  1.0000
  C  Sn91      1.0  0.32968  0.67024  0.96433  1.0000
  C   C58       1.0  0.37717  0.67037  0.91109  1.0000
  C  Sn92      1.0  0.39769  0.71840  0.83180  1.0000
  O  Te89      1.0  0.38986  0.81588  0.72620  1.0000
  O  Te90      1.0  0.25453  0.72010  0.98980  1.0000
  O  Te91      1.0  0.34412  0.66017  0.04336  1.0000
  O  Te92      1.0  0.44523  0.71753  0.77973  1.0000
  Mg  Mg45      1.0  0.27788  0.68208  0.09173  1.0000
  Mg  Mg46      1.0  0.45615  0.79399  0.67786  1.0000
  C  Sn93      1.0  0.47304  0.51598  0.80555  1.0000
  C   C59       1.0  0.47986  0.56826  0.85726  1.0000
  C  Sn94      1.0  0.52495  0.59191  0.84804  1.0000
  C  Sn95      1.0  0.56404  0.56271  0.78575  1.0000
  C   C60       1.0  0.55722  0.51047  0.73407  1.0000
  C  Sn96      1.0  0.51214  0.48678  0.74327  1.0000
  O  Te93      1.0  0.42765  0.49314  0.81588  1.0000
  O  Te94      1.0  0.53089  0.64422  0.90052  1.0000
  O  Te95      1.0  0.60946  0.58560  0.77546  1.0000
  O  Te96      1.0  0.50619  0.43451  0.69081  1.0000
  Mg  Mg47      1.0  0.59959  0.65797  0.86206  1.0000
  Mg  Mg48      1.0  0.43750  0.42074  0.72914  1.0000
  C  Sn97      1.0  0.89799  0.51522  0.40460  1.0000
  C   C61       1.0  0.88677  0.46757  0.50093  1.0000
  C  Sn98      1.0  0.91007  0.45756  0.62354  1.0000
  C  Sn99      1.0  0.94532  0.49599  0.65049  1.0000
  C   C62       1.0  0.95652  0.54361  0.55422  1.0000
  C  Sn100     1.0  0.93324  0.55365  0.43155  1.0000
  O  Te97      1.0  0.87424  0.52440  0.28272  1.0000
  O  Te98      1.0  0.89825  0.40962  0.71825  1.0000
  O  Te99      1.0  0.96907  0.48677  0.77250  1.0000
  O  Te100     1.0  0.94504  0.60157  0.33690  1.0000
  Mg  Mg49      1.0  0.94049  0.41550  0.86949  1.0000
  Mg  Mg50      1.0  0.90281  0.59574  0.18567  1.0000
  C  Sn101     1.0  0.46460  0.13632  0.00266  1.0000
  C   C63       1.0  0.40719  0.06069  0.92687  1.0000
  C  Sn102     1.0  0.42757  0.04613  0.79480  1.0000
  C  Sn103     1.0  0.47206  0.06917  0.73732  1.0000
  C   C64       1.0  0.49522  0.10630  0.81310  1.0000
  C  Sn104     1.0  0.47486  0.12089  0.94517  1.0000
  O  Te101     1.0  0.44357  0.15028  0.13450  1.0000
  O  Te102     1.0  0.40371  0.00891  0.72099  1.0000
  O  Te103     1.0  0.49308  0.05518  0.60536  1.0000
  O  Te104     1.0  0.53293  0.19655  0.01898  1.0000
  Mg  Mg51      1.0  0.44680  0.00272  0.54538  1.0000
  Mg  Mg52      1.0  0.48989  0.20275  0.19463  1.0000
