data_image0
_chemical_formula_structural       H60C90N12SnCSn2CSnTe4Mg2SnCSn2CSnTe4Mg2SnCSn2CSnTe4Mg2SnCSn2CSnTe4Mg2SnCSn2CSnTe4Mg2SnCSn2CSnTe4Mg2SnCSn2CSnTe4Mg2SnCSn2CSnTe4Mg2SnCSn2CSnTe4Mg2SnCSn2CSnTe4Mg2SnCSn2CSnTe4Mg2SnCSn2CSnTe4Mg2SnCSn2CSnTe4Mg2
_chemical_formula_sum              "H60 C116 N12 Sn52 Te52 Mg26"
_cell_length_a       28.5548
_cell_length_b       23.7161
_cell_length_c       9.46288
_cell_angle_alpha    84.4516
_cell_angle_beta     84.0559
_cell_angle_gamma    89.8449

_symmetry_space_group_name_H-M    'P1'
_space_group_IT_number       1

loop_
  _space_group_symop_operation_xyz
  'x, y, z'

loop_
  _atom_site_type_symbol
  _atom_site_label
  _atom_site_symmetry_multiplicity
  _atom_site_fract_x
  _atom_site_fract_y
  _atom_site_fract_z
  _atom_site_occupancy
  H   H1        1.0  0.36649  0.06147  0.45395  1.0000
  H   H2        1.0  0.04060  0.78151  0.05098  1.0000
  H   H3        1.0  0.00224  0.69442  0.00123  1.0000
  H   H4        1.0  0.08641  0.59692  0.28656  1.0000
  H   H5        1.0  0.12404  0.68533  0.34095  1.0000
  H   H6        1.0  0.91104  0.41873  0.21675  1.0000
  H   H7        1.0  0.97925  0.48346  0.20057  1.0000
  H   H8        1.0  0.92615  0.58260  0.84777  1.0000
  H   H9        1.0  0.85791  0.51921  0.86360  1.0000
  H   H10       1.0  0.35402  0.80686  0.56735  1.0000
  H   H11       1.0  0.40840  0.88659  0.58575  1.0000
  H   H12       1.0  0.32415  0.99737  0.32993  1.0000
  H   H13       1.0  0.27194  0.91735  0.30259  1.0000
  H   H14       1.0  0.45770  0.66060  0.37524  1.0000
  H   H15       1.0  0.99293  0.61578  0.93459  1.0000
  H   H16       1.0  0.69719  0.41805  0.30884  1.0000
  H   H17       1.0  0.63396  0.48523  0.36616  1.0000
  H   H18       1.0  0.55509  0.42061  0.05094  1.0000
  H   H19       1.0  0.61658  0.35030  0.00673  1.0000
  H   H20       1.0  0.78696  0.30537  0.22910  1.0000
  H   H21       1.0  0.86031  0.35934  0.19526  1.0000
  H   H22       1.0  0.79338  0.49235  0.94644  1.0000
  H   H23       1.0  0.71993  0.43862  0.98572  1.0000
  H   H24       1.0  0.61794  0.31000  0.33277  1.0000
  H   H25       1.0  0.54576  0.25522  0.41084  1.0000
  H   H26       1.0  0.59283  0.12852  0.13231  1.0000
  H   H27       1.0  0.66494  0.18364  0.05431  1.0000
  H   H28       1.0  0.99584  0.01251  0.01356  1.0000
  H   H29       1.0  0.39991  0.02985  0.08394  1.0000
  H   H30       1.0  0.20945  0.87115  0.99559  1.0000
  H   H31       1.0  0.12876  0.86128  0.92567  1.0000
  H   H32       1.0  0.17903  0.73848  0.64068  1.0000
  H   H33       1.0  0.25918  0.74797  0.71205  1.0000
  H   H34       1.0  0.04489  0.78127  0.54346  1.0000
  H   H35       1.0  0.00683  0.69403  0.49240  1.0000
  H   H36       1.0  0.08617  0.59740  0.79331  1.0000
  H   H37       1.0  0.12337  0.68617  0.84838  1.0000
  H   H38       1.0  0.12091  0.90153  0.64199  1.0000
  H   H39       1.0  0.06286  0.97834  0.62044  1.0000
  H   H40       1.0  0.95339  0.86514  0.82358  1.0000
  H   H41       1.0  0.01148  0.78670  0.83791  1.0000
  H   H42       1.0  0.26326  0.70565  0.98529  1.0000
  H   H43       1.0  0.31654  0.62344  0.96133  1.0000
  H   H44       1.0  0.43076  0.73678  0.79607  1.0000
  H   H45       1.0  0.51841  0.17581  0.03942  1.0000
  H   H46       1.0  0.37784  0.81829  0.81738  1.0000
  H   H47       1.0  0.46565  0.66534  0.91174  1.0000
  H   H48       1.0  0.99384  0.61754  0.43619  1.0000
  H   H49       1.0  0.70087  0.42590  0.78981  1.0000
  H   H50       1.0  0.63891  0.49282  0.85008  1.0000
  H   H51       1.0  0.54973  0.41506  0.58195  1.0000
  H   H52       1.0  0.61087  0.34497  0.53280  1.0000
  H   H53       1.0  0.62869  0.30159  0.85655  1.0000
  H   H54       1.0  0.55580  0.24779  0.93478  1.0000
  H   H55       1.0  0.58866  0.14011  0.59630  1.0000
  H   H56       1.0  0.66013  0.19583  0.51671  1.0000
  H   H57       1.0  0.45152  0.11262  0.12523  1.0000
  H   H58       1.0  0.45038  0.05866  0.70459  1.0000
  H   H59       1.0  0.51743  0.12212  0.61706  1.0000
  H   H60       1.0  0.00150  0.02316  0.54659  1.0000
  C   C1        1.0  0.40133  0.04142  0.44406  1.0000
  C   C2        1.0  0.08449  0.74021  0.20123  1.0000
  C   C3        1.0  0.30962  0.85602  0.43135  1.0000
  C   C4        1.0  0.30044  0.91092  0.37010  1.0000
  C   C5        1.0  0.44416  0.62087  0.34286  1.0000
  C   C6        1.0  0.99156  0.58371  0.02692  1.0000
  C   C7        1.0  0.70067  0.33800  0.13320  1.0000
  C   C8        1.0  0.69374  0.28024  0.14413  1.0000
  C   C9        1.0  0.64755  0.25153  0.18693  1.0000
  C   C10       1.0  0.74738  0.36674  0.10762  1.0000
  C   C11       1.0  0.66134  0.37844  0.15593  1.0000
  C   C12       1.0  0.66566  0.41862  0.25377  1.0000
  C   C13       1.0  0.63028  0.45719  0.28362  1.0000
  C   C14       1.0  0.58900  0.45852  0.21376  1.0000
  C   C15       1.0  0.58520  0.41920  0.11281  1.0000
  C   C16       1.0  0.62043  0.37984  0.08551  1.0000
  C   C17       1.0  0.78819  0.34624  0.16645  1.0000
  C   C18       1.0  0.83011  0.37715  0.14609  1.0000
  C   C19       1.0  0.83394  0.43040  0.06495  1.0000
  C   C20       1.0  0.79299  0.45096  0.00676  1.0000
  C   C21       1.0  0.75109  0.42030  0.02830  1.0000
  C   C22       1.0  0.61230  0.27085  0.28618  1.0000
  C   C23       1.0  0.57117  0.23980  0.32989  1.0000
  C   C24       1.0  0.56364  0.18696  0.27936  1.0000
  C   C25       1.0  0.59843  0.16791  0.17851  1.0000
  C   C26       1.0  0.63904  0.19947  0.13313  1.0000
  C   C27       1.0  0.96790  0.00797  0.10343  1.0000
  C   C28       1.0  0.05098  0.74106  0.10193  1.0000
  C   C29       1.0  0.02948  0.69161  0.07384  1.0000
  C   C30       1.0  0.04135  0.63844  0.14089  1.0000
  C   C31       1.0  0.07700  0.63758  0.23379  1.0000
  C   C32       1.0  0.09822  0.68725  0.26397  1.0000
  C   C33       1.0  0.34751  0.84873  0.51598  1.0000
  C   C34       1.0  0.37795  0.89305  0.52604  1.0000
  C   C35       1.0  0.37069  0.94772  0.45881  1.0000
  C   C36       1.0  0.33015  0.95605  0.38563  1.0000
  C   C37       1.0  0.87757  0.46488  0.04579  1.0000
  C   C38       1.0  0.91408  0.45441  0.13494  1.0000
  C   C39       1.0  0.95263  0.49065  0.12667  1.0000
  C   C40       1.0  0.95671  0.53899  0.02693  1.0000
  C   C41       1.0  0.92233  0.54719  0.93044  1.0000
  C   C42       1.0  0.88354  0.51132  0.94036  1.0000
  C   C43       1.0  0.40739  0.04115  0.96805  1.0000
  C   C44       1.0  0.23982  0.80984  0.86006  1.0000
  C   C45       1.0  0.20268  0.84258  0.91673  1.0000
  C   C46       1.0  0.15744  0.83696  0.87750  1.0000
  C   C47       1.0  0.14804  0.79873  0.77908  1.0000
  C   C48       1.0  0.18542  0.76681  0.72036  1.0000
  C   C49       1.0  0.23054  0.77237  0.75996  1.0000
  C   C50       1.0  0.08606  0.74012  0.70096  1.0000
  C   C51       1.0  0.07003  0.83843  0.73820  1.0000
  C   C52       1.0  0.31662  0.76815  0.90224  1.0000
  C   C53       1.0  0.44999  0.62846  0.87131  1.0000
  C   C54       1.0  0.99313  0.58479  0.52683  1.0000
  C   C55       1.0  0.70126  0.34057  0.63108  1.0000
  C   C56       1.0  0.69582  0.28259  0.63773  1.0000
  C   C57       1.0  0.64977  0.25355  0.67983  1.0000
  C   C58       1.0  0.66114  0.37977  0.65723  1.0000
  C   C59       1.0  0.66759  0.42339  0.74450  1.0000
  C   C60       1.0  0.63255  0.46203  0.77631  1.0000
  C   C61       1.0  0.58873  0.46043  0.72057  1.0000
  C   C62       1.0  0.58226  0.41706  0.63186  1.0000
  C   C63       1.0  0.61732  0.37755  0.60192  1.0000
  C   C64       1.0  0.61926  0.26691  0.79792  1.0000
  C   C65       1.0  0.57820  0.23597  0.84244  1.0000
  C   C66       1.0  0.56586  0.18924  0.77207  1.0000
  C   C67       1.0  0.59645  0.17603  0.65329  1.0000
  C   C68       1.0  0.63722  0.20739  0.60835  1.0000
  C   C69       1.0  0.96958  0.01101  0.61844  1.0000
  C   C70       1.0  0.05408  0.74087  0.59745  1.0000
  C   C71       1.0  0.03276  0.69145  0.56911  1.0000
  C   C72       1.0  0.04347  0.63859  0.64021  1.0000
  C   C73       1.0  0.07776  0.63784  0.73744  1.0000
  C   C74       1.0  0.09875  0.68759  0.76795  1.0000
  C   C75       1.0  0.08403  0.89335  0.67968  1.0000
  C   C76       1.0  0.05110  0.93651  0.66780  1.0000
  C   C77       1.0  0.00304  0.92647  0.71528  1.0000
  C   C78       1.0  0.99003  0.87218  0.78163  1.0000
  C   C79       1.0  0.02259  0.82888  0.79174  1.0000
  C   C80       1.0  0.30008  0.71250  0.94510  1.0000
  C   C81       1.0  0.32975  0.66634  0.93087  1.0000
  C   C82       1.0  0.37766  0.67368  0.87884  1.0000
  C   C83       1.0  0.39440  0.72968  0.84128  1.0000
  C   C84       1.0  0.36455  0.77577  0.85163  1.0000
  C   C85       1.0  0.52372  0.15400  0.82182  1.0000
  C   C86       1.0  0.50341  0.15095  0.96453  1.0000
  C   C87       1.0  0.46554  0.11486  0.01352  1.0000
  C   C88       1.0  0.44584  0.08124  0.91996  1.0000
  C   C89       1.0  0.46543  0.08499  0.77636  1.0000
  C   C90       1.0  0.50347  0.12036  0.72857  1.0000
  N   N1        1.0  0.40693  0.98707  0.45468  1.0000
  N   N2        1.0  0.28602  0.80698  0.40090  1.0000
  N   N3        1.0  0.10106  0.79240  0.24017  1.0000
  N   N4        1.0  0.39960  0.61393  0.33454  1.0000
  N   N5        1.0  0.01673  0.58798  0.13209  1.0000
  N   N6        1.0  0.96794  0.96854  0.20799  1.0000
  N   N7        1.0  0.38472  0.01937  0.87455  1.0000
  N   N8        1.0  0.28557  0.81500  0.90346  1.0000
  N   N9        1.0  0.10209  0.79253  0.73943  1.0000
  N   N10       1.0  0.40536  0.62590  0.85820  1.0000
  N   N11       1.0  0.01873  0.58824  0.63125  1.0000
  N   N12       1.0  0.96629  0.96519  0.70524  1.0000
  C  Sn1       1.0  0.54236  0.59443  0.80643  1.0000
  C   C91       1.0  0.49365  0.59176  0.80217  1.0000
  C  Sn2       1.0  0.47180  0.54058  0.78509  1.0000
  C  Sn3       1.0  0.49920  0.49103  0.77208  1.0000
  C   C92       1.0  0.54788  0.49371  0.77636  1.0000
  C  Sn4       1.0  0.56977  0.54488  0.79342  1.0000
  O  Te1       1.0  0.56346  0.64604  0.82360  1.0000
  O  Te2       1.0  0.42305  0.53897  0.78110  1.0000
  O  Te3       1.0  0.47806  0.43940  0.75489  1.0000
  O  Te4       1.0  0.61849  0.54650  0.79743  1.0000
  Mg  Mg1       1.0  0.41055  0.45867  0.75593  1.0000
  Mg  Mg2       1.0  0.63102  0.62677  0.82267  1.0000
  C  Sn5       1.0  0.47173  0.51006  0.27940  1.0000
  C   C93       1.0  0.47590  0.56226  0.33418  1.0000
  C  Sn6       1.0  0.52014  0.58721  0.33458  1.0000
  C  Sn7       1.0  0.56106  0.55944  0.27899  1.0000
  C   C94       1.0  0.55688  0.50728  0.22423  1.0000
  C  Sn8       1.0  0.51265  0.48228  0.22381  1.0000
  O  Te5       1.0  0.42715  0.48589  0.28007  1.0000
  O  Te6       1.0  0.52342  0.63941  0.38995  1.0000
  O  Te7       1.0  0.60566  0.58365  0.27836  1.0000
  O  Te8       1.0  0.50936  0.43012  0.16846  1.0000
  Mg  Mg3       1.0  0.59197  0.65528  0.36542  1.0000
  Mg  Mg4       1.0  0.44083  0.41423  0.19287  1.0000
  C  Sn9       1.0  0.99700  0.86629  0.32925  1.0000
  C   C95       1.0  0.00534  0.92234  0.27196  1.0000
  C  Sn10      1.0  0.04662  0.93698  0.18359  1.0000
  C  Sn11      1.0  0.08026  0.89471  0.15174  1.0000
  C   C96       1.0  0.07192  0.83870  0.20899  1.0000
  C  Sn12      1.0  0.03065  0.82402  0.29740  1.0000
  O  Te9       1.0  0.95549  0.85261  0.41733  1.0000
  O  Te10      1.0  0.05418  0.99330  0.12761  1.0000
  O  Te11      1.0  0.12180  0.90844  0.06358  1.0000
  O  Te12      1.0  0.02308  0.76774  0.35333  1.0000
  Mg  Mg5       1.0  0.11611  0.99095  0.01301  1.0000
  Mg  Mg6       1.0  0.96116  0.77004  0.46788  1.0000
  C  Sn13      1.0  0.16928  0.85146  0.36189  1.0000
  C   C97       1.0  0.15284  0.81681  0.26603  1.0000
  C  Sn14      1.0  0.17999  0.77172  0.21986  1.0000
  C  Sn15      1.0  0.22450  0.76101  0.27064  1.0000
  C   C98       1.0  0.24091  0.79564  0.36646  1.0000
  C  Sn16      1.0  0.21379  0.84075  0.41266  1.0000
  O  Te13      1.0  0.14154  0.89630  0.40661  1.0000
  O  Te14      1.0  0.16281  0.73768  0.12395  1.0000
  O  Te15      1.0  0.25223  0.71613  0.22583  1.0000
  O  Te16      1.0  0.23094  0.87477  0.50854  1.0000
  Mg  Mg7       1.0  0.21358  0.68170  0.09439  1.0000
  Mg  Mg8       1.0  0.18019  0.93074  0.53822  1.0000
  C  Sn17      1.0  0.81173  0.23211  0.52539  1.0000
  C   C99       1.0  0.81640  0.18051  0.60730  1.0000
  C  Sn18      1.0  0.77759  0.15541  0.69188  1.0000
  C  Sn19      1.0  0.73317  0.18241  0.69459  1.0000
  C   C100      1.0  0.72852  0.23397  0.61270  1.0000
  C  Sn20      1.0  0.76732  0.25912  0.52810  1.0000
  O  Te17      1.0  0.85101  0.25644  0.44161  1.0000
  O  Te18      1.0  0.78313  0.10382  0.77288  1.0000
  O  Te19      1.0  0.69388  0.15804  0.77847  1.0000
  O  Te20      1.0  0.76179  0.31067  0.44712  1.0000
  Mg  Mg9       1.0  0.71916  0.08743  0.87003  1.0000
  Mg  Mg10      1.0  0.82573  0.32708  0.34988  1.0000
  C  Sn21      1.0  0.84114  0.26692  0.00922  1.0000
  C   C101      1.0  0.85012  0.21946  0.10174  1.0000
  C  Sn22      1.0  0.81502  0.19707  0.20565  1.0000
  C  Sn23      1.0  0.76999  0.22261  0.21729  1.0000
  C   C102      1.0  0.76102  0.27002  0.12480  1.0000
  C  Sn24      1.0  0.79611  0.29246  0.02086  1.0000
  O  Te21      1.0  0.84252  0.25012  0.90614  1.0000
  O  Te22      1.0  0.82484  0.14961  0.29696  1.0000
  O  Te23      1.0  0.73437  0.20089  0.32049  1.0000
  O  Te24      1.0  0.75207  0.30141  0.92958  1.0000
  Mg  Mg11      1.0  0.76481  0.13565  0.42005  1.0000
  Mg  Mg12      1.0  0.81207  0.31539  0.80641  1.0000
  C  Sn25      1.0  0.50045  0.06039  0.41551  1.0000
  C   C103      1.0  0.45362  0.07596  0.44788  1.0000
  C  Sn26      1.0  0.43907  0.13119  0.41039  1.0000
  C  Sn27      1.0  0.47202  0.17168  0.33899  1.0000
  C   C104      1.0  0.51882  0.15610  0.30664  1.0000
  C  Sn28      1.0  0.53339  0.10088  0.34411  1.0000
  O  Te25      1.0  0.51421  0.00494  0.45399  1.0000
  O  Te26      1.0  0.39207  0.14576  0.44392  1.0000
  O  Te27      1.0  0.45822  0.22716  0.30053  1.0000
  O  Te28      1.0  0.58036  0.08630  0.31060  1.0000
  Mg  Mg13      1.0  0.39034  0.22659  0.36931  1.0000
  Mg  Mg14      1.0  0.58213  0.00549  0.38509  1.0000
  C  Sn29      1.0  0.93197  0.11983  0.56695  1.0000
  C   C105      1.0  0.93233  0.06350  0.62591  1.0000
  C  Sn30      1.0  0.89014  0.03348  0.66335  1.0000
  C  Sn31      1.0  0.84668  0.06030  0.64133  1.0000
  C   C106      1.0  0.84634  0.11660  0.58239  1.0000
  C  Sn32      1.0  0.88852  0.14665  0.54493  1.0000
  O  Te29      1.0  0.97457  0.14902  0.53030  1.0000
  O  Te30      1.0  0.89139  0.97720  0.72217  1.0000
  O  Te31      1.0  0.80406  0.03105  0.67805  1.0000
  O  Te32      1.0  0.88728  0.20289  0.48612  1.0000
  Mg  Mg15      1.0  0.82177  0.95517  0.75473  1.0000
  Mg  Mg16      1.0  0.95462  0.22495  0.45346  1.0000
  C  Sn33      1.0  0.86290  0.07440  0.23065  1.0000
  C   C107      1.0  0.85718  0.12250  0.13658  1.0000
  C  Sn34      1.0  0.88653  0.13194  0.00889  1.0000
  C  Sn35      1.0  0.88808  0.05400  0.97445  1.0000
  C   C108      1.0  0.92801  0.04440  0.06847  1.0000
  C  Sn36      1.0  0.89868  0.03492  0.19621  1.0000
  O  Te33      1.0  0.83316  0.06581  0.35771  1.0000
  O  Te34      1.0  0.84591  0.14188  0.91657  1.0000
  O  Te35      1.0  0.91783  0.06263  0.84727  1.0000
  O  Te36      1.0  0.90279  0.98655  0.28848  1.0000
  Mg  Mg17      1.0  0.89525  0.13488  0.75621  1.0000
  Mg  Mg18      1.0  0.85571  0.99349  0.44883  1.0000
  C  Sn37      1.0  0.90671  0.55460  0.45575  1.0000
  C   C109      1.0  0.94559  0.54949  0.53434  1.0000
  C  Sn38      1.0  0.95425  0.49851  0.61393  1.0000
  C  Sn39      1.0  0.92343  0.45164  0.61494  1.0000
  C   C110      1.0  0.88458  0.45676  0.53638  1.0000
  C  Sn40      1.0  0.87589  0.50774  0.45676  1.0000
  O  Te37      1.0  0.89873  0.60597  0.37694  1.0000
  O  Te38      1.0  0.99334  0.49443  0.69169  1.0000
  O  Te39      1.0  0.93144  0.40025  0.69385  1.0000
  O  Te40      1.0  0.83683  0.51183  0.37903  1.0000
  Mg  Mg19      1.0  0.98935  0.41555  0.78241  1.0000
  Mg  Mg20      1.0  0.84080  0.59067  0.28821  1.0000
  C  Sn41      1.0  0.38896  0.73013  0.31987  1.0000
  C   C111      1.0  0.37828  0.67365  0.36851  1.0000
  C  Sn42      1.0  0.33212  0.65735  0.41894  1.0000
  C  Sn43      1.0  0.29587  0.69836  0.42071  1.0000
  C   C112      1.0  0.30656  0.75480  0.37206  1.0000
  C  Sn44      1.0  0.35271  0.77113  0.32164  1.0000
  O  Te41      1.0  0.43536  0.74547  0.26991  1.0000
  O  Te42      1.0  0.32231  0.60064  0.46707  1.0000
  O  Te43      1.0  0.24945  0.68297  0.47073  1.0000
  O  Te44      1.0  0.36253  0.82781  0.27351  1.0000
  Mg  Mg21      1.0  0.25367  0.60054  0.52503  1.0000
  Mg  Mg22      1.0  0.43115  0.82795  0.21546  1.0000
  C  Sn45      1.0  0.82650  0.36423  0.62472  1.0000
  C   C113      1.0  0.83575  0.41753  0.55045  1.0000
  C  Sn46      1.0  0.79876  0.45254  0.51237  1.0000
  C  Sn47      1.0  0.75153  0.43391  0.54937  1.0000
  C   C114      1.0  0.74230  0.38065  0.62361  1.0000
  C  Sn48      1.0  0.77927  0.34560  0.66172  1.0000
  O  Te45      1.0  0.86402  0.32993  0.66171  1.0000
  O  Te46      1.0  0.80888  0.50564  0.43810  1.0000
  O  Te47      1.0  0.71400  0.46826  0.51230  1.0000
  O  Te48      1.0  0.76917  0.29253  0.73597  1.0000
  Mg  Mg23      1.0  0.74573  0.53702  0.41153  1.0000
  Mg  Mg24      1.0  0.83229  0.26113  0.76265  1.0000
  C  Sn49      1.0  0.30299  0.96319  0.83075  1.0000
  C   C115      1.0  0.33952  0.97623  0.91794  1.0000
  C  Sn50      1.0  0.39237  0.97171  0.00106  1.0000
  C  Sn51      1.0  0.34447  0.87603  0.99689  1.0000
  C   C116      1.0  0.31021  0.86301  0.90973  1.0000
  C  Sn52      1.0  0.28932  0.90597  0.82658  1.0000
  O  Te49      1.0  0.28486  0.00684  0.74854  1.0000
  O  Te50      1.0  0.42655  0.98580  0.08743  1.0000
  O  Te51      1.0  0.39911  0.87084  0.07920  1.0000
  O  Te52      1.0  0.25516  0.89191  0.74023  1.0000
  Mg  Mg25      1.0  0.44410  0.91136  0.17984  1.0000
  Mg  Mg26      1.0  0.23761  0.96631  0.64773  1.0000
