data_image0
_chemical_formula_structural       H56C94N12C2Sn2C2HTe2HMgC2Sn2C2HTe2HMgC2Sn2C2HTe2HMgC2Sn2C2HTe2HMgC2Sn2C2HTe2HMgC2Sn2C2HTe2HMgC2Sn2C2HTe2HMgC2Sn2C2HTe2HMgC2Sn2C2HTe2HMg
_chemical_formula_sum              "H74 C130 N12 Sn18 Te18 Mg9"
_cell_length_a       23.2207
_cell_length_b       23.5199
_cell_length_c       8.50032
_cell_angle_alpha    107.824
_cell_angle_beta     98.8417
_cell_angle_gamma    90.5444

_symmetry_space_group_name_H-M    'P1'
_space_group_IT_number       1

loop_
  _space_group_symop_operation_xyz
  'x, y, z'

loop_
  _atom_site_type_symbol
  _atom_site_label
  _atom_site_symmetry_multiplicity
  _atom_site_fract_x
  _atom_site_fract_y
  _atom_site_fract_z
  _atom_site_occupancy
  H   H1        1.0  0.90693  0.24544  0.96109  1.0000
  H   H2        1.0  0.53887  0.30092  0.24066  1.0000
  H   H3        1.0  0.80468  0.08551  0.85068  1.0000
  H   H4        1.0  0.86519  0.99923  0.86079  1.0000
  H   H5        1.0  0.00125  0.12057  0.20211  1.0000
  H   H6        1.0  0.94035  0.20628  0.19517  1.0000
  H   H7        1.0  0.49136  0.21403  0.06508  1.0000
  H   H8        1.0  0.42588  0.13179  0.07019  1.0000
  H   H9        1.0  0.56560  0.06986  0.35801  1.0000
  H   H10       1.0  0.63069  0.15355  0.35906  1.0000
  H   H11       1.0  0.01851  0.01734  0.10785  1.0000
  H   H12       1.0  0.03776  0.49779  0.04443  1.0000
  H   H13       1.0  0.40840  0.04235  0.13653  1.0000
  H   H14       1.0  0.66833  0.13769  0.15972  1.0000
  H   H15       1.0  0.76645  0.12541  0.09642  1.0000
  H   H16       1.0  0.77481  0.40490  0.02044  1.0000
  H   H17       1.0  0.67764  0.41809  0.09172  1.0000
  H   H18       1.0  0.26776  0.86862  0.30323  1.0000
  H   H19       1.0  0.16127  0.85724  0.22884  1.0000
  H   H20       1.0  0.17339  0.67872  0.90493  1.0000
  H   H21       1.0  0.27966  0.68920  0.98563  1.0000
  H   H22       1.0  0.12402  0.85371  0.93030  1.0000
  H   H23       1.0  0.06224  0.93792  0.91818  1.0000
  H   H24       1.0  0.92803  0.85916  0.09570  1.0000
  H   H25       1.0  0.99102  0.77658  0.11580  1.0000
  H   H26       1.0  0.53564  0.60586  0.29461  1.0000
  H   H27       1.0  0.90373  0.24812  0.45166  1.0000
  H   H28       1.0  0.53630  0.30081  0.73823  1.0000
  H   H29       1.0  0.94946  0.33168  0.61398  1.0000
  H   H30       1.0  0.01593  0.41272  0.60564  1.0000
  H   H31       1.0  0.87622  0.47734  0.32583  1.0000
  H   H32       1.0  0.80996  0.39444  0.32609  1.0000
  H   H33       1.0  0.80385  0.08812  0.34508  1.0000
  H   H34       1.0  0.86443  0.00241  0.36207  1.0000
  H   H35       1.0  0.99792  0.12486  0.71073  1.0000
  H   H36       1.0  0.93761  0.21026  0.69394  1.0000
  H   H37       1.0  0.65143  0.45400  0.87415  1.0000
  H   H38       1.0  0.50237  0.35853  0.52356  1.0000
  H   H39       1.0  0.01507  0.02095  0.62235  1.0000
  H   H40       1.0  0.03351  0.50223  0.54445  1.0000
  H   H41       1.0  0.41011  0.03873  0.61566  1.0000
  H   H42       1.0  0.66763  0.13977  0.66094  1.0000
  H   H43       1.0  0.76562  0.12801  0.59524  1.0000
  H   H44       1.0  0.77186  0.40855  0.52488  1.0000
  H   H45       1.0  0.67518  0.42098  0.59985  1.0000
  H   H46       1.0  0.26586  0.86979  0.80826  1.0000
  H   H47       1.0  0.15928  0.86039  0.73136  1.0000
  H   H48       1.0  0.16952  0.68285  0.40012  1.0000
  H   H49       1.0  0.27535  0.69164  0.47912  1.0000
  H   H50       1.0  0.30159  0.69766  0.77896  1.0000
  H   H51       1.0  0.34666  0.60129  0.76489  1.0000
  H   H52       1.0  0.49514  0.66292  0.60393  1.0000
  H   H53       1.0  0.44866  0.75707  0.60734  1.0000
  H   H54       1.0  0.53085  0.60653  0.79487  1.0000
  H   H55       1.0  0.45573  0.45513  0.54321  1.0000
  H   H56       1.0  0.60558  0.54975  0.89083  1.0000
  C   C1        1.0  0.66280  0.22916  0.15231  1.0000
  C   C2        1.0  0.69102  0.17446  0.13858  1.0000
  C   C3        1.0  0.74597  0.16696  0.09933  1.0000
  C   C4        1.0  0.77734  0.21212  0.06152  1.0000
  C   C5        1.0  0.75028  0.26715  0.06793  1.0000
  C   C6        1.0  0.69351  0.27591  0.11642  1.0000
  C   C7        1.0  0.78079  0.31412  0.03229  1.0000
  C   C8        1.0  0.75236  0.36845  0.04370  1.0000
  C   C9        1.0  0.69805  0.37640  0.08682  1.0000
  C   C10       1.0  0.66720  0.33153  0.12728  1.0000
  C   C11       1.0  0.83466  0.20501  0.02273  1.0000
  C   C12       1.0  0.86340  0.25203  0.99277  1.0000
  C   C13       1.0  0.83886  0.30646  0.99708  1.0000
  C   C14       1.0  0.50769  0.18344  0.13279  1.0000
  C   C15       1.0  0.47088  0.13656  0.13416  1.0000
  C   C16       1.0  0.49155  0.09373  0.21069  1.0000
  C   C17       1.0  0.55001  0.10121  0.29213  1.0000
  C   C18       1.0  0.58649  0.14806  0.29073  1.0000
  C   C19       1.0  0.97289  0.00468  0.04614  1.0000
  C   C20       1.0  0.99292  0.49712  0.97893  1.0000
  C   C21       1.0  0.50596  0.56582  0.23192  1.0000
  C   C22       1.0  0.45315  0.04331  0.20313  1.0000
  C   C23       1.0  0.28270  0.77992  0.14891  1.0000
  C   C24       1.0  0.24755  0.82658  0.21658  1.0000
  C   C25       1.0  0.18696  0.82018  0.17425  1.0000
  C   C26       1.0  0.15836  0.76691  0.06232  1.0000
  C   C27       1.0  0.19359  0.72053  0.99297  1.0000
  C   C28       1.0  0.25400  0.72666  0.03707  1.0000
  C   C29       1.0  0.06203  0.80900  0.02290  1.0000
  C   C30       1.0  0.61127  0.34042  0.17563  1.0000
  C   C31       1.0  0.58157  0.29336  0.20300  1.0000
  C   C32       1.0  0.60512  0.23770  0.19132  1.0000
  C   C33       1.0  0.56695  0.18973  0.20797  1.0000
  C   C34       1.0  0.86800  0.15193  0.02454  1.0000
  C   C35       1.0  0.84727  0.09295  0.93012  1.0000
  C   C36       1.0  0.88096  0.04473  0.93452  1.0000
  C   C37       1.0  0.93685  0.05396  0.03322  1.0000
  C   C38       1.0  0.95817  0.11285  0.12492  1.0000
  C   C39       1.0  0.92420  0.16092  0.12102  1.0000
  C   C40       1.0  0.08175  0.85577  0.97066  1.0000
  C   C41       1.0  0.04717  0.90335  0.96556  1.0000
  C   C42       1.0  0.99076  0.90489  0.00803  1.0000
  C   C43       1.0  0.97098  0.85764  0.05907  1.0000
  C   C44       1.0  0.00651  0.81155  0.07104  1.0000
  C   C45       1.0  0.66132  0.23096  0.65261  1.0000
  C   C46       1.0  0.69004  0.17660  0.63919  1.0000
  C   C47       1.0  0.74494  0.16955  0.59936  1.0000
  C   C48       1.0  0.77557  0.21496  0.56032  1.0000
  C   C49       1.0  0.74825  0.26997  0.56831  1.0000
  C   C50       1.0  0.69167  0.27828  0.61832  1.0000
  C   C51       1.0  0.77833  0.31721  0.53250  1.0000
  C   C52       1.0  0.74989  0.37176  0.54797  1.0000
  C   C53       1.0  0.69578  0.37927  0.59280  1.0000
  C   C54       1.0  0.66504  0.33384  0.63116  1.0000
  C   C55       1.0  0.83251  0.20806  0.51855  1.0000
  C   C56       1.0  0.86056  0.25492  0.48613  1.0000
  C   C57       1.0  0.83590  0.30955  0.49282  1.0000
  C   C58       1.0  0.49843  0.45416  0.61567  1.0000
  C   C59       1.0  0.52456  0.40048  0.60584  1.0000
  C   C60       1.0  0.96991  0.00864  0.55626  1.0000
  C   C61       1.0  0.98901  0.50152  0.47668  1.0000
  C   C62       1.0  0.50152  0.56623  0.73139  1.0000
  C   C63       1.0  0.45335  0.04154  0.69266  1.0000
  C   C64       1.0  0.27972  0.78185  0.64735  1.0000
  C   C65       1.0  0.24517  0.82857  0.71827  1.0000
  C   C66       1.0  0.18457  0.82324  0.67509  1.0000
  C   C67       1.0  0.15555  0.77073  0.56026  1.0000
  C   C68       1.0  0.19022  0.72428  0.48854  1.0000
  C   C69       1.0  0.25052  0.72956  0.53214  1.0000
  C   C70       1.0  0.37162  0.73455  0.69533  1.0000
  C   C71       1.0  0.60883  0.34192  0.67806  1.0000
  C   C72       1.0  0.57933  0.29408  0.70239  1.0000
  C   C73       1.0  0.60344  0.23865  0.69025  1.0000
  C   C74       1.0  0.58054  0.39929  0.69623  1.0000
  C   C75       1.0  0.86613  0.15519  0.52149  1.0000
  C   C76       1.0  0.87384  0.35718  0.47409  1.0000
  C   C77       1.0  0.93335  0.36243  0.54674  1.0000
  C   C78       1.0  0.97070  0.40852  0.54385  1.0000
  C   C79       1.0  0.95021  0.45153  0.46824  1.0000
  C   C80       1.0  0.89149  0.44533  0.38967  1.0000
  C   C81       1.0  0.85442  0.39917  0.39242  1.0000
  C   C82       1.0  0.84590  0.09601  0.42736  1.0000
  C   C83       1.0  0.87953  0.04811  0.43576  1.0000
  C   C84       1.0  0.93448  0.05786  0.53952  1.0000
  C   C85       1.0  0.95542  0.11687  0.63038  1.0000
  C   C86       1.0  0.92178  0.16469  0.62106  1.0000
  C   C87       1.0  0.60880  0.45407  0.80042  1.0000
  C   C88       1.0  0.58288  0.50786  0.80979  1.0000
  C   C89       1.0  0.34397  0.68981  0.74049  1.0000
  C   C90       1.0  0.36888  0.63587  0.73188  1.0000
  C   C91       1.0  0.42466  0.62552  0.68691  1.0000
  C   C92       1.0  0.45329  0.67108  0.64681  1.0000
  C   C93       1.0  0.42694  0.72415  0.64780  1.0000
  C   C94       1.0  0.52743  0.50892  0.71758  1.0000
  N   N1        1.0  0.95271  0.94958  0.99562  1.0000
  N   N2        1.0  0.47116  0.00231  0.26892  1.0000
  N   N3        1.0  0.34481  0.78592  0.19111  1.0000
  N   N4        1.0  0.09651  0.75936  0.02296  1.0000
  N   N5        1.0  0.45145  0.57010  0.17973  1.0000
  N   N6        1.0  0.97460  0.53859  0.91568  1.0000
  N   N7        1.0  0.94969  0.95353  0.50135  1.0000
  N   N8        1.0  0.46991  0.00218  0.76613  1.0000
  N   N9        1.0  0.34182  0.78673  0.69031  1.0000
  N   N10       1.0  0.09380  0.76330  0.52049  1.0000
  N   N11       1.0  0.44697  0.56991  0.67781  1.0000
  N   N12       1.0  0.97130  0.54276  0.41171  1.0000
  C   C95       1.0  0.88134  0.43221  0.87469  1.0000
  C   C96       1.0  0.93837  0.44914  0.95949  1.0000
  C  Sn1       1.0  0.90985  0.30346  0.05122  1.0000
  C  Sn2       1.0  0.88092  0.25104  0.05790  1.0000
  C   C97       1.0  0.88121  0.34563  0.97252  1.0000
  C   C98       1.0  0.85278  0.38051  0.88116  1.0000
  H   H57       1.0  0.85934  0.45917  0.80391  1.0000
  O  Te1       1.0  0.96682  0.32102  0.13526  1.0000
  O  Te2       1.0  0.90870  0.21572  0.14859  1.0000
  H   H58       1.0  0.80863  0.36737  0.81542  1.0000
  Mg  Mg1       1.0  0.98636  0.25819  0.24215  1.0000
  C   C99       1.0  0.34888  0.67590  0.25641  1.0000
  C   C100      1.0  0.37060  0.72592  0.22329  1.0000
  C  Sn3       1.0  0.42328  0.72437  0.16217  1.0000
  C  Sn4       1.0  0.45469  0.67170  0.13376  1.0000
  C   C101      1.0  0.43257  0.62188  0.16718  1.0000
  C   C102      1.0  0.37982  0.62392  0.22836  1.0000
  H   H59       1.0  0.30806  0.67746  0.30366  1.0000
  O  Te3       1.0  0.44437  0.77475  0.12981  1.0000
  O  Te4       1.0  0.50743  0.66892  0.07268  1.0000
  H   H60       1.0  0.36300  0.58517  0.25389  1.0000
  Mg  Mg2       1.0  0.51825  0.74914  0.04770  1.0000
  C   C103      1.0  0.98355  0.64885  0.34213  1.0000
  C   C104      1.0  0.00118  0.60248  0.40591  1.0000
  C  Sn5       1.0  0.05289  0.60957  0.52022  1.0000
  C  Sn6       1.0  0.08748  0.66415  0.57144  1.0000
  C   C105      1.0  0.06944  0.71028  0.50700  1.0000
  C   C106      1.0  0.01763  0.70270  0.39264  1.0000
  H   H61       1.0  0.94345  0.64300  0.25372  1.0000
  O  Te5       1.0  0.06988  0.56278  0.58266  1.0000
  O  Te6       1.0  0.13934  0.67243  0.68558  1.0000
  H   H62       1.0  0.00396  0.73862  0.34337  1.0000
  Mg  Mg3       1.0  0.14410  0.59553  0.73534  1.0000
  C   C107      1.0  0.59878  0.49836  0.32540  1.0000
  C   C108      1.0  0.54700  0.50950  0.23474  1.0000
  C  Sn7       1.0  0.51048  0.46202  0.12318  1.0000
  C  Sn8       1.0  0.52620  0.40232  0.10231  1.0000
  C   C109      1.0  0.57807  0.39164  0.19368  1.0000
  C   C110      1.0  0.61430  0.43949  0.30493  1.0000
  H   H63       1.0  0.62680  0.53537  0.41155  1.0000
  O  Te7       1.0  0.45892  0.47394  0.03355  1.0000
  O  Te8       1.0  0.54783  0.46519  0.99170  1.0000
  H   H64       1.0  0.65437  0.43085  0.37519  1.0000
  Mg  Mg4       1.0  0.48201  0.50429  0.89777  1.0000
  C   C111      1.0  0.98630  0.64472  0.84648  1.0000
  C   C112      1.0  0.00416  0.59854  0.91081  1.0000
  C  Sn9       1.0  0.99850  0.49481  0.02544  1.0000
  C  Sn10      1.0  0.03283  0.54954  0.07641  1.0000
  C   C113      1.0  0.01456  0.59548  0.01141  1.0000
  C   C114      1.0  0.02013  0.69872  0.89673  1.0000
  H   H65       1.0  0.94623  0.63861  0.75782  1.0000
  O  Te9       1.0  0.01571  0.44821  0.08843  1.0000
  O  Te10      1.0  0.08465  0.55817  0.19085  1.0000
  H   H66       1.0  0.00629  0.73449  0.84702  1.0000
  Mg  Mg5       1.0  0.08978  0.48141  0.24136  1.0000
  C   C115      1.0  0.99010  0.82254  0.58046  1.0000
  C   C116      1.0  0.04467  0.81115  0.53129  1.0000
  C  Sn11      1.0  0.07271  0.85177  0.47350  1.0000
  C  Sn12      1.0  0.04550  0.90475  0.46495  1.0000
  C   C117      1.0  0.99092  0.91576  0.51455  1.0000
  C   C118      1.0  0.96325  0.87479  0.57213  1.0000
  H   H67       1.0  0.96869  0.79087  0.62510  1.0000
  O  Te11      1.0  0.12721  0.83969  0.42481  1.0000
  O  Te12      1.0  0.07256  0.94613  0.40774  1.0000
  H   H68       1.0  0.92101  0.88364  0.61030  1.0000
  Mg  Mg6       1.0  0.14665  0.90970  0.35551  1.0000
  C   C119      1.0  0.58285  0.13634  0.80719  1.0000
  C   C120      1.0  0.57245  0.17869  0.72285  1.0000
  C  Sn13      1.0  0.51766  0.17933  0.62889  1.0000
  C  Sn14      1.0  0.47253  0.13674  0.61947  1.0000
  C   C121      1.0  0.48336  0.09459  0.70441  1.0000
  C   C122      1.0  0.53835  0.09433  0.79803  1.0000
  H   H69       1.0  0.62538  0.13616  0.87971  1.0000
  O  Te13      1.0  0.50802  0.22193  0.54534  1.0000
  O  Te14      1.0  0.41736  0.13639  0.52651  1.0000
  H   H70       1.0  0.55601  0.06157  0.86341  1.0000
  Mg  Mg7       1.0  0.42553  0.20338  0.43468  1.0000
  C   C123      1.0  0.45600  0.89841  0.84784  1.0000
  C   C124      1.0  0.44256  0.93976  0.76159  1.0000
  C  Sn15      1.0  0.39008  0.93269  0.65038  1.0000
  C  Sn16      1.0  0.35041  0.88327  0.62535  1.0000
  C   C125      1.0  0.36425  0.84217  0.71232  1.0000
  C   C126      1.0  0.41689  0.84966  0.82327  1.0000
  H   H71       1.0  0.49672  0.90422  0.93375  1.0000
  O  Te15      1.0  0.37734  0.97441  0.56518  1.0000
  O  Te16      1.0  0.29764  0.87514  0.51498  1.0000
  H   H72       1.0  0.42727  0.81766  0.89011  1.0000
  Mg  Mg8       1.0  0.29993  0.94403  0.42791  1.0000
  C   C127      1.0  0.35101  0.89569  0.12202  1.0000
  C   C128      1.0  0.36933  0.84958  0.18609  1.0000
  C  Sn17      1.0  0.42225  0.85641  0.29531  1.0000
  C  Sn18      1.0  0.45738  0.91047  0.34105  1.0000
  C   C129      1.0  0.43864  0.95635  0.27637  1.0000
  C   C130      1.0  0.38562  0.94903  0.16713  1.0000
  H   H73       1.0  0.30997  0.89005  0.03757  1.0000
  O  Te17      1.0  0.43991  0.80988  0.35811  1.0000
  O  Te18      1.0  0.51045  0.91849  0.45004  1.0000
  H   H74       1.0  0.37142  0.98476  0.11763  1.0000
  Mg  Mg9       1.0  0.51575  0.84211  0.50255  1.0000
