data_image0
_chemical_formula_structural       H20C40N12SnCSn2CSnTe4Mg2SnCSn2CSnTe4Mg2SnCSn2CSnTe4Mg2SnCSn2CSnTe4Mg2SnCSn2CSnTe4Mg2SnCSn2CSnTe4Mg2SnCSn2CSnTe4Mg2SnCSn2CSnTe4Mg2SnCSn2CSnTe4Mg2SnCSn2CSnTe4Mg2SnCSn2CSnTe4Mg2SnCSn2CSnTe4Mg2SnCSn2CSnTe4Mg2SnCSn2CSnTe4Mg2SnCSn2CSnTe4Mg2SnCSn2CSnTe4Mg2SnCSn2CSnTe4Mg2SnCSn2CSnTe4Mg2
_chemical_formula_sum              "H20 C76 N12 Sn72 Te72 Mg36"
_cell_length_a       23.2207
_cell_length_b       23.5199
_cell_length_c       8.50032
_cell_angle_alpha    107.824
_cell_angle_beta     98.8417
_cell_angle_gamma    90.5444

_symmetry_space_group_name_H-M    'P1'
_space_group_IT_number       1

loop_
  _space_group_symop_operation_xyz
  'x, y, z'

loop_
  _atom_site_type_symbol
  _atom_site_label
  _atom_site_symmetry_multiplicity
  _atom_site_fract_x
  _atom_site_fract_y
  _atom_site_fract_z
  _atom_site_occupancy
  H   H1        1.0  0.90693  0.24544  0.96109  1.0000
  H   H2        1.0  0.53887  0.30092  0.24066  1.0000
  H   H3        1.0  0.01851  0.01734  0.10785  1.0000
  H   H4        1.0  0.03776  0.49779  0.04443  1.0000
  H   H5        1.0  0.40840  0.04235  0.13653  1.0000
  H   H6        1.0  0.66833  0.13769  0.15972  1.0000
  H   H7        1.0  0.76645  0.12541  0.09642  1.0000
  H   H8        1.0  0.77481  0.40490  0.02044  1.0000
  H   H9        1.0  0.67764  0.41809  0.09172  1.0000
  H   H10       1.0  0.53564  0.60586  0.29461  1.0000
  H   H11       1.0  0.90373  0.24812  0.45166  1.0000
  H   H12       1.0  0.53630  0.30081  0.73823  1.0000
  H   H13       1.0  0.01507  0.02095  0.62235  1.0000
  H   H14       1.0  0.03351  0.50223  0.54445  1.0000
  H   H15       1.0  0.41011  0.03873  0.61566  1.0000
  H   H16       1.0  0.66763  0.13977  0.66094  1.0000
  H   H17       1.0  0.76562  0.12801  0.59524  1.0000
  H   H18       1.0  0.77186  0.40855  0.52488  1.0000
  H   H19       1.0  0.67518  0.42098  0.59985  1.0000
  H   H20       1.0  0.53085  0.60653  0.79487  1.0000
  C   C1        1.0  0.66280  0.22916  0.15231  1.0000
  C   C2        1.0  0.69102  0.17446  0.13858  1.0000
  C   C3        1.0  0.74597  0.16696  0.09933  1.0000
  C   C4        1.0  0.77734  0.21212  0.06152  1.0000
  C   C5        1.0  0.75028  0.26715  0.06793  1.0000
  C   C6        1.0  0.69351  0.27591  0.11642  1.0000
  C   C7        1.0  0.78079  0.31412  0.03229  1.0000
  C   C8        1.0  0.75236  0.36845  0.04370  1.0000
  C   C9        1.0  0.69805  0.37640  0.08682  1.0000
  C   C10       1.0  0.66720  0.33153  0.12728  1.0000
  C   C11       1.0  0.83466  0.20501  0.02273  1.0000
  C   C12       1.0  0.86340  0.25203  0.99277  1.0000
  C   C13       1.0  0.83886  0.30646  0.99708  1.0000
  C   C14       1.0  0.97289  0.00468  0.04614  1.0000
  C   C15       1.0  0.99292  0.49712  0.97893  1.0000
  C   C16       1.0  0.50596  0.56582  0.23192  1.0000
  C   C17       1.0  0.45315  0.04331  0.20313  1.0000
  C   C18       1.0  0.61127  0.34042  0.17563  1.0000
  C   C19       1.0  0.58157  0.29336  0.20300  1.0000
  C   C20       1.0  0.60512  0.23770  0.19132  1.0000
  C   C21       1.0  0.66132  0.23096  0.65261  1.0000
  C   C22       1.0  0.69004  0.17660  0.63919  1.0000
  C   C23       1.0  0.74494  0.16955  0.59936  1.0000
  C   C24       1.0  0.77557  0.21496  0.56032  1.0000
  C   C25       1.0  0.74825  0.26997  0.56831  1.0000
  C   C26       1.0  0.69167  0.27828  0.61832  1.0000
  C   C27       1.0  0.77833  0.31721  0.53250  1.0000
  C   C28       1.0  0.74989  0.37176  0.54797  1.0000
  C   C29       1.0  0.69578  0.37927  0.59280  1.0000
  C   C30       1.0  0.66504  0.33384  0.63116  1.0000
  C   C31       1.0  0.83251  0.20806  0.51855  1.0000
  C   C32       1.0  0.86056  0.25492  0.48613  1.0000
  C   C33       1.0  0.83590  0.30955  0.49282  1.0000
  C   C34       1.0  0.96991  0.00864  0.55626  1.0000
  C   C35       1.0  0.98901  0.50152  0.47668  1.0000
  C   C36       1.0  0.50152  0.56623  0.73139  1.0000
  C   C37       1.0  0.45335  0.04154  0.69266  1.0000
  C   C38       1.0  0.60883  0.34192  0.67806  1.0000
  C   C39       1.0  0.57933  0.29408  0.70239  1.0000
  C   C40       1.0  0.60344  0.23865  0.69025  1.0000
  N   N1        1.0  0.95271  0.94958  0.99562  1.0000
  N   N2        1.0  0.47116  0.00231  0.26892  1.0000
  N   N3        1.0  0.34481  0.78592  0.19111  1.0000
  N   N4        1.0  0.09651  0.75936  0.02296  1.0000
  N   N5        1.0  0.45145  0.57010  0.17973  1.0000
  N   N6        1.0  0.97460  0.53859  0.91568  1.0000
  N   N7        1.0  0.94969  0.95353  0.50135  1.0000
  N   N8        1.0  0.46991  0.00218  0.76613  1.0000
  N   N9        1.0  0.34182  0.78673  0.69031  1.0000
  N   N10       1.0  0.09380  0.76330  0.52049  1.0000
  N   N11       1.0  0.44697  0.56991  0.67781  1.0000
  N   N12       1.0  0.97130  0.54276  0.41171  1.0000
  C  Sn1       1.0  0.60273  0.46464  0.34665  1.0000
  C   C41       1.0  0.58061  0.40731  0.24708  1.0000
  C  Sn2       1.0  0.53426  0.39983  0.11517  1.0000
  C  Sn3       1.0  0.50952  0.45071  0.08201  1.0000
  C   C42       1.0  0.53164  0.50800  0.18153  1.0000
  C  Sn4       1.0  0.57799  0.51552  0.31350  1.0000
  O  Te1       1.0  0.64909  0.47106  0.47786  1.0000
  O  Te2       1.0  0.51288  0.34206  0.01738  1.0000
  O  Te3       1.0  0.52046  0.55541  0.95067  1.0000
  O  Te4       1.0  0.59937  0.57325  0.41122  1.0000
  Mg  Mg1       1.0  0.50654  0.46756  0.85279  1.0000
  Mg  Mg2       1.0  0.66306  0.55896  0.57578  1.0000
  C  Sn5       1.0  0.58677  0.12637  0.25410  1.0000
  C   C43       1.0  0.57351  0.17240  0.18491  1.0000
  C  Sn6       1.0  0.51546  0.18333  0.13700  1.0000
  C  Sn7       1.0  0.46969  0.14754  0.15879  1.0000
  C   C44       1.0  0.48295  0.10155  0.22797  1.0000
  C  Sn8       1.0  0.54100  0.09058  0.27590  1.0000
  O  Te5       1.0  0.64512  0.11625  0.30112  1.0000
  O  Te6       1.0  0.50329  0.22959  0.06805  1.0000
  O  Te7       1.0  0.41130  0.15770  0.11170  1.0000
  O  Te8       1.0  0.55317  0.04436  0.34483  1.0000
  Mg  Mg3       1.0  0.41688  0.22595  0.02352  1.0000
  Mg  Mg4       1.0  0.63956  0.04798  0.38948  1.0000
  C  Sn9       1.0  0.23355  0.82269  0.25345  1.0000
  C   C45       1.0  0.27454  0.78184  0.19394  1.0000
  C  Sn10      1.0  0.25831  0.73264  0.05072  1.0000
  C  Sn11      1.0  0.25723  0.83527  0.96513  1.0000
  C   C46       1.0  0.15894  0.76495  0.02461  1.0000
  C  Sn12      1.0  0.17513  0.81416  0.16785  1.0000
  O  Te9       1.0  0.25074  0.87156  0.39686  1.0000
  O  Te10      1.0  0.35740  0.80356  0.99365  1.0000
  O  Te11      1.0  0.24007  0.78636  0.82162  1.0000
  O  Te12      1.0  0.13342  0.85439  0.22490  1.0000
  Mg  Mg5       1.0  0.31279  0.74392  0.79272  1.0000
  Mg  Mg6       1.0  0.17799  0.91406  0.42576  1.0000
  C  Sn13      1.0  0.99750  0.68157  0.90247  1.0000
  C   C47       1.0  0.99374  0.59409  0.00257  1.0000
  C  Sn14      1.0  0.03161  0.55736  0.06485  1.0000
  C  Sn15      1.0  0.01563  0.49567  0.02620  1.0000
  C   C48       1.0  0.01943  0.58318  0.92614  1.0000
  C  Sn16      1.0  0.98152  0.61988  0.86382  1.0000
  O  Te13      1.0  0.96032  0.71912  0.84156  1.0000
  O  Te14      1.0  0.08493  0.58206  0.16471  1.0000
  O  Te15      1.0  0.05287  0.45812  0.08721  1.0000
  O  Te16      1.0  0.92824  0.59520  0.76400  1.0000
  Mg  Mg7       1.0  0.12075  0.51271  0.21799  1.0000
  Mg  Mg8       1.0  0.89240  0.66450  0.71059  1.0000
  C  Sn17      1.0  0.86791  0.39598  0.84513  1.0000
  C   C49       1.0  0.87965  0.35169  0.92196  1.0000
  C  Sn18      1.0  0.87197  0.24667  0.04307  1.0000
  C  Sn19      1.0  0.91070  0.29818  0.08842  1.0000
  C   C50       1.0  0.89895  0.34243  0.01164  1.0000
  C  Sn20      1.0  0.90664  0.44749  0.89049  1.0000
  O  Te17      1.0  0.81800  0.38890  0.72438  1.0000
  O  Te18      1.0  0.88279  0.20178  0.11809  1.0000
  O  Te19      1.0  0.96064  0.30522  0.20927  1.0000
  O  Te20      1.0  0.89580  0.49234  0.81552  1.0000
  Mg  Mg9       1.0  0.95650  0.23187  0.27590  1.0000
  Mg  Mg10      1.0  0.82210  0.46231  0.65776  1.0000
  C  Sn21      1.0  0.94155  0.15514  0.09030  1.0000
  C   C51       1.0  0.88496  0.15372  0.00405  1.0000
  C  Sn22      1.0  0.90801  0.21122  0.93903  1.0000
  C  Sn23      1.0  0.93073  0.15786  0.96074  1.0000
  C   C52       1.0  0.92994  0.04814  0.04696  1.0000
  C  Sn24      1.0  0.96427  0.10179  0.11201  1.0000
  O  Te21      1.0  0.97505  0.20930  0.15425  1.0000
  O  Te22      1.0  0.85157  0.21091  0.85322  1.0000
  O  Te23      1.0  0.89717  0.10369  0.89669  1.0000
  O  Te24      1.0  0.02067  0.10212  0.19779  1.0000
  Mg  Mg11      1.0  0.82284  0.12609  0.78924  1.0000
  Mg  Mg12      1.0  0.04942  0.18691  0.26190  1.0000
  C  Sn25      1.0  0.98252  0.85570  0.11319  1.0000
  C   C53       1.0  0.99389  0.90338  0.05454  1.0000
  C  Sn26      1.0  0.09652  0.01293  0.96272  1.0000
  C  Sn27      1.0  0.13114  0.96259  0.92872  1.0000
  C   C54       1.0  0.11975  0.91494  0.98733  1.0000
  C  Sn28      1.0  0.01713  0.80536  0.07918  1.0000
  O  Te25      1.0  0.93702  0.85827  0.20471  1.0000
  O  Te26      1.0  0.10707  0.06114  0.90545  1.0000
  O  Te27      1.0  0.17666  0.96005  0.83711  1.0000
  O  Te28      1.0  0.00657  0.75718  0.13641  1.0000
  Mg  Mg13      1.0  0.17397  0.03671  0.78597  1.0000
  Mg  Mg14      1.0  0.93966  0.78155  0.25582  1.0000
  C  Sn29      1.0  0.46246  0.69062  0.18182  1.0000
  C   C55       1.0  0.44244  0.64337  0.23051  1.0000
  C  Sn30      1.0  0.38430  0.63852  0.25157  1.0000
  C  Sn31      1.0  0.34535  0.68178  0.22328  1.0000
  C   C56       1.0  0.36536  0.72898  0.17461  1.0000
  C  Sn32      1.0  0.42350  0.73387  0.15354  1.0000
  O  Te29      1.0  0.52075  0.69458  0.16151  1.0000
  O  Te30      1.0  0.36531  0.59090  0.30036  1.0000
  O  Te31      1.0  0.28701  0.67778  0.24365  1.0000
  O  Te32      1.0  0.44249  0.78145  0.10475  1.0000
  Mg  Mg15      1.0  0.28187  0.60479  0.31151  1.0000
  Mg  Mg16      1.0  0.52591  0.76759  0.09348  1.0000
  C  Sn33      1.0  0.43092  0.87686  0.36902  1.0000
  C   C57       1.0  0.37765  0.85243  0.26829  1.0000
  C  Sn34      1.0  0.35376  0.87482  0.13970  1.0000
  C  Sn35      1.0  0.38376  0.92260  0.11110  1.0000
  C   C58       1.0  0.43700  0.94700  0.21177  1.0000
  C  Sn36      1.0  0.46091  0.92464  0.34042  1.0000
  O  Te33      1.0  0.45398  0.85378  0.49686  1.0000
  O  Te34      1.0  0.30044  0.84967  0.04068  1.0000
  O  Te35      1.0  0.41798  0.05684  0.98314  1.0000
  O  Te36      1.0  0.51421  0.94975  0.43938  1.0000
  Mg  Mg17      1.0  0.34414  0.00766  0.88190  1.0000
  Mg  Mg18      1.0  0.52790  0.90295  0.59814  1.0000
  C  Sn37      1.0  0.49295  0.43904  0.64385  1.0000
  C   C59       1.0  0.51570  0.49686  0.73689  1.0000
  C  Sn38      1.0  0.57513  0.50753  0.80289  1.0000
  C  Sn39      1.0  0.61261  0.45942  0.77524  1.0000
  C   C60       1.0  0.58985  0.40165  0.68223  1.0000
  C  Sn40      1.0  0.53042  0.39094  0.61620  1.0000
  O  Te37      1.0  0.43340  0.42941  0.57904  1.0000
  O  Te38      1.0  0.59687  0.56570  0.89554  1.0000
  O  Te39      1.0  0.67220  0.46910  0.84014  1.0000
  O  Te40      1.0  0.50869  0.33280  0.52358  1.0000
  Mg  Mg19      1.0  0.68111  0.55623  0.95797  1.0000
  Mg  Mg20      1.0  0.42446  0.34223  0.46102  1.0000
  C  Sn41      1.0  0.55438  0.12068  0.83934  1.0000
  C   C61       1.0  0.49712  0.10437  0.75572  1.0000
  C  Sn42      1.0  0.47376  0.12854  0.63038  1.0000
  C  Sn43      1.0  0.50835  0.16983  0.58764  1.0000
  C   C62       1.0  0.56558  0.18611  0.67122  1.0000
  C  Sn44      1.0  0.58898  0.16198  0.79661  1.0000
  O  Te41      1.0  0.58647  0.09597  0.96423  1.0000
  O  Te42      1.0  0.41640  0.11157  0.54857  1.0000
  O  Te43      1.0  0.48584  0.19455  0.46265  1.0000
  O  Te44      1.0  0.64630  0.17892  0.87837  1.0000
  Mg  Mg21      1.0  0.40541  0.15749  0.38714  1.0000
  Mg  Mg22      1.0  0.60001  0.02184  0.03975  1.0000
  C  Sn45      1.0  0.19842  0.83494  0.65344  1.0000
  C   C63       1.0  0.16301  0.78575  0.54598  1.0000
  C  Sn46      1.0  0.18541  0.72925  0.49673  1.0000
  C  Sn47      1.0  0.24444  0.72175  0.55621  1.0000
  C   C64       1.0  0.27981  0.77091  0.66362  1.0000
  C  Sn48      1.0  0.25745  0.82743  0.71291  1.0000
  O  Te45      1.0  0.17511  0.89101  0.70104  1.0000
  O  Te46      1.0  0.14916  0.68076  0.38916  1.0000
  O  Te47      1.0  0.26774  0.66562  0.50850  1.0000
  O  Te48      1.0  0.29366  0.87590  0.82044  1.0000
  Mg  Mg23      1.0  0.20106  0.61328  0.36001  1.0000
  Mg  Mg24      1.0  0.24181  0.94340  0.84973  1.0000
  C  Sn49      1.0  0.99577  0.63848  0.30867  1.0000
  C   C65       1.0  0.01139  0.59539  0.38734  1.0000
  C  Sn50      1.0  0.05363  0.60964  0.53164  1.0000
  C  Sn51      1.0  0.08080  0.66818  0.59880  1.0000
  C   C66       1.0  0.06517  0.71123  0.52016  1.0000
  C  Sn52      1.0  0.02294  0.69703  0.37582  1.0000
  O  Te49      1.0  0.95343  0.62325  0.16453  1.0000
  O  Te50      1.0  0.06853  0.56580  0.60805  1.0000
  O  Te51      1.0  0.12317  0.68339  0.74305  1.0000
  O  Te52      1.0  0.00803  0.74083  0.29945  1.0000
  Mg  Mg25      1.0  0.12863  0.60823  0.80195  1.0000
  Mg  Mg26      1.0  0.94791  0.69845  0.10560  1.0000
  C  Sn53      1.0  0.97035  0.38662  0.50831  1.0000
  C   C67       1.0  0.95781  0.43198  0.43600  1.0000
  C  Sn54      1.0  0.89999  0.44411  0.38998  1.0000
  C  Sn55      1.0  0.85374  0.41024  0.41689  1.0000
  C   C68       1.0  0.86629  0.36492  0.48919  1.0000
  C  Sn56      1.0  0.92410  0.35274  0.53522  1.0000
  O  Te53      1.0  0.02848  0.37526  0.55334  1.0000
  O  Te54      1.0  0.88854  0.48967  0.31785  1.0000
  O  Te55      1.0  0.79558  0.42163  0.37178  1.0000
  O  Te56      1.0  0.93556  0.30722  0.60734  1.0000
  Mg  Mg27      1.0  0.80218  0.48826  0.27777  1.0000
  Mg  Mg28      1.0  0.02190  0.30861  0.64754  1.0000
  C  Sn57      1.0  0.93956  0.15876  0.59236  1.0000
  C   C69       1.0  0.88380  0.15687  0.50069  1.0000
  C  Sn58      1.0  0.84966  0.10312  0.43480  1.0000
  C  Sn59      1.0  0.88132  0.05015  0.46117  1.0000
  C   C70       1.0  0.93704  0.05206  0.55282  1.0000
  C  Sn60      1.0  0.96159  0.10579  0.61873  1.0000
  O  Te57      1.0  0.97292  0.21299  0.65708  1.0000
  O  Te58      1.0  0.79406  0.10233  0.34353  1.0000
  O  Te59      1.0  0.84790  0.99590  0.39636  1.0000
  O  Te60      1.0  0.01716  0.10659  0.70998  1.0000
  Mg  Mg29      1.0  0.77482  0.01759  0.28065  1.0000
  Mg  Mg30      1.0  0.04604  0.19131  0.77298  1.0000
  C  Sn61      1.0  0.04704  0.89047  0.41829  1.0000
  C   C71       1.0  0.99223  0.90050  0.46676  1.0000
  C  Sn62      1.0  0.97170  0.86877  0.56357  1.0000
  C  Sn63      1.0  0.00671  0.82614  0.61305  1.0000
  C   C72       1.0  0.06149  0.81613  0.56461  1.0000
  C  Sn64      1.0  0.08205  0.84784  0.46777  1.0000
  O  Te61      1.0  0.06668  0.92271  0.32152  1.0000
  O  Te62      1.0  0.91675  0.87956  0.61046  1.0000
  O  Te63      1.0  0.98702  0.79389  0.70989  1.0000
  O  Te64      1.0  0.13697  0.83707  0.42091  1.0000
  Mg  Mg31      1.0  0.90917  0.82444  0.74255  1.0000
  Mg  Mg32      1.0  0.14460  0.89219  0.28890  1.0000
  C  Sn65      1.0  0.35383  0.68397  0.79080  1.0000
  C   C73       1.0  0.37542  0.73246  0.75029  1.0000
  C  Sn66      1.0  0.42122  0.72585  0.65826  1.0000
  C  Sn67      1.0  0.44593  0.66958  0.60552  1.0000
  C   C74       1.0  0.42434  0.62114  0.64600  1.0000
  C  Sn68      1.0  0.37855  0.62771  0.73806  1.0000
  O  Te65      1.0  0.30802  0.69161  0.88290  1.0000
  O  Te66      1.0  0.44208  0.77498  0.61933  1.0000
  O  Te67      1.0  0.49177  0.66199  0.51335  1.0000
  O  Te68      1.0  0.35768  0.57862  0.77697  1.0000
  Mg  Mg33      1.0  0.50511  0.74223  0.49119  1.0000
  Mg  Mg34      1.0  0.29464  0.61131  0.90501  1.0000
  C  Sn69      1.0  0.46213  0.89078  0.79797  1.0000
  C   C75       1.0  0.44487  0.93455  0.72328  1.0000
  C  Sn70      1.0  0.38678  0.93508  0.65047  1.0000
  C  Sn71      1.0  0.34505  0.89097  0.65244  1.0000
  C   C76       1.0  0.36232  0.84725  0.72711  1.0000
  C  Sn72      1.0  0.42041  0.84667  0.79993  1.0000
  O  Te69      1.0  0.52044  0.89111  0.87001  1.0000
  O  Te70      1.0  0.37057  0.97928  0.57651  1.0000
  O  Te71      1.0  0.28671  0.89068  0.58030  1.0000
  O  Te72      1.0  0.43662  0.80252  0.87388  1.0000
  Mg  Mg35      1.0  0.28593  0.96011  0.49483  1.0000
  Mg  Mg36      1.0  0.52123  0.82166  0.95567  1.0000
