data_image0
_chemical_formula_structural       H20C40N12C2Sn2C2HTe2HMgC2Sn2C2HTe2HMgC2Sn2C2HTe2HMgC2Sn2C2HTe2HMgC2Sn2C2HTe2HMgC2Sn2C2HTe2HMgC2Sn2C2HTe2HMgC2Sn2C2HTe2HMgC2Sn2C2HTe2HMgC2Sn2C2HTe2HMgC2Sn2C2HTe2HMgC2Sn2C2HTe2HMgC2Sn2C2HTe2HMgC2Sn2C2HTe2HMgC2Sn2C2HTe2HMgC2Sn2C2HTe2HMgC2Sn2C2HTe2HMgC2Sn2C2HTe2HMg
_chemical_formula_sum              "H56 C112 N12 Sn36 Te36 Mg18"
_cell_length_a       23.2207
_cell_length_b       23.5199
_cell_length_c       8.50032
_cell_angle_alpha    107.824
_cell_angle_beta     98.8417
_cell_angle_gamma    90.5444

_symmetry_space_group_name_H-M    'P1'
_space_group_IT_number       1

loop_
  _space_group_symop_operation_xyz
  'x, y, z'

loop_
  _atom_site_type_symbol
  _atom_site_label
  _atom_site_symmetry_multiplicity
  _atom_site_fract_x
  _atom_site_fract_y
  _atom_site_fract_z
  _atom_site_occupancy
  H   H1        1.0  0.90693  0.24544  0.96109  1.0000
  H   H2        1.0  0.53887  0.30092  0.24066  1.0000
  H   H3        1.0  0.01851  0.01734  0.10785  1.0000
  H   H4        1.0  0.03776  0.49779  0.04443  1.0000
  H   H5        1.0  0.40840  0.04235  0.13653  1.0000
  H   H6        1.0  0.66833  0.13769  0.15972  1.0000
  H   H7        1.0  0.76645  0.12541  0.09642  1.0000
  H   H8        1.0  0.77481  0.40490  0.02044  1.0000
  H   H9        1.0  0.67764  0.41809  0.09172  1.0000
  H   H10       1.0  0.53564  0.60586  0.29461  1.0000
  H   H11       1.0  0.90373  0.24812  0.45166  1.0000
  H   H12       1.0  0.53630  0.30081  0.73823  1.0000
  H   H13       1.0  0.01507  0.02095  0.62235  1.0000
  H   H14       1.0  0.03351  0.50223  0.54445  1.0000
  H   H15       1.0  0.41011  0.03873  0.61566  1.0000
  H   H16       1.0  0.66763  0.13977  0.66094  1.0000
  H   H17       1.0  0.76562  0.12801  0.59524  1.0000
  H   H18       1.0  0.77186  0.40855  0.52488  1.0000
  H   H19       1.0  0.67518  0.42098  0.59985  1.0000
  H   H20       1.0  0.53085  0.60653  0.79487  1.0000
  C   C1        1.0  0.66280  0.22916  0.15231  1.0000
  C   C2        1.0  0.69102  0.17446  0.13858  1.0000
  C   C3        1.0  0.74597  0.16696  0.09933  1.0000
  C   C4        1.0  0.77734  0.21212  0.06152  1.0000
  C   C5        1.0  0.75028  0.26715  0.06793  1.0000
  C   C6        1.0  0.69351  0.27591  0.11642  1.0000
  C   C7        1.0  0.78079  0.31412  0.03229  1.0000
  C   C8        1.0  0.75236  0.36845  0.04370  1.0000
  C   C9        1.0  0.69805  0.37640  0.08682  1.0000
  C   C10       1.0  0.66720  0.33153  0.12728  1.0000
  C   C11       1.0  0.83466  0.20501  0.02273  1.0000
  C   C12       1.0  0.86340  0.25203  0.99277  1.0000
  C   C13       1.0  0.83886  0.30646  0.99708  1.0000
  C   C14       1.0  0.97289  0.00468  0.04614  1.0000
  C   C15       1.0  0.99292  0.49712  0.97893  1.0000
  C   C16       1.0  0.50596  0.56582  0.23192  1.0000
  C   C17       1.0  0.45315  0.04331  0.20313  1.0000
  C   C18       1.0  0.61127  0.34042  0.17563  1.0000
  C   C19       1.0  0.58157  0.29336  0.20300  1.0000
  C   C20       1.0  0.60512  0.23770  0.19132  1.0000
  C   C21       1.0  0.66132  0.23096  0.65261  1.0000
  C   C22       1.0  0.69004  0.17660  0.63919  1.0000
  C   C23       1.0  0.74494  0.16955  0.59936  1.0000
  C   C24       1.0  0.77557  0.21496  0.56032  1.0000
  C   C25       1.0  0.74825  0.26997  0.56831  1.0000
  C   C26       1.0  0.69167  0.27828  0.61832  1.0000
  C   C27       1.0  0.77833  0.31721  0.53250  1.0000
  C   C28       1.0  0.74989  0.37176  0.54797  1.0000
  C   C29       1.0  0.69578  0.37927  0.59280  1.0000
  C   C30       1.0  0.66504  0.33384  0.63116  1.0000
  C   C31       1.0  0.83251  0.20806  0.51855  1.0000
  C   C32       1.0  0.86056  0.25492  0.48613  1.0000
  C   C33       1.0  0.83590  0.30955  0.49282  1.0000
  C   C34       1.0  0.96991  0.00864  0.55626  1.0000
  C   C35       1.0  0.98901  0.50152  0.47668  1.0000
  C   C36       1.0  0.50152  0.56623  0.73139  1.0000
  C   C37       1.0  0.45335  0.04154  0.69266  1.0000
  C   C38       1.0  0.60883  0.34192  0.67806  1.0000
  C   C39       1.0  0.57933  0.29408  0.70239  1.0000
  C   C40       1.0  0.60344  0.23865  0.69025  1.0000
  N   N1        1.0  0.95271  0.94958  0.99562  1.0000
  N   N2        1.0  0.47116  0.00231  0.26892  1.0000
  N   N3        1.0  0.34481  0.78592  0.19111  1.0000
  N   N4        1.0  0.09651  0.75936  0.02296  1.0000
  N   N5        1.0  0.45145  0.57010  0.17973  1.0000
  N   N6        1.0  0.97460  0.53859  0.91568  1.0000
  N   N7        1.0  0.94969  0.95353  0.50135  1.0000
  N   N8        1.0  0.46991  0.00218  0.76613  1.0000
  N   N9        1.0  0.34182  0.78673  0.69031  1.0000
  N   N10       1.0  0.09380  0.76330  0.52049  1.0000
  N   N11       1.0  0.44697  0.56991  0.67781  1.0000
  N   N12       1.0  0.97130  0.54276  0.41171  1.0000
  C   C41       1.0  0.59878  0.49836  0.32540  1.0000
  C   C42       1.0  0.54700  0.50950  0.23474  1.0000
  C  Sn1       1.0  0.51048  0.46202  0.12318  1.0000
  C  Sn2       1.0  0.52620  0.40232  0.10231  1.0000
  C   C43       1.0  0.57807  0.39164  0.19368  1.0000
  C   C44       1.0  0.61430  0.43949  0.30493  1.0000
  H   H21       1.0  0.62680  0.53537  0.41155  1.0000
  O  Te1       1.0  0.45892  0.47394  0.03355  1.0000
  O  Te2       1.0  0.54783  0.46519  0.99170  1.0000
  H   H22       1.0  0.65437  0.43085  0.37519  1.0000
  Mg  Mg1       1.0  0.48201  0.50429  0.89777  1.0000
  C   C45       1.0  0.58398  0.13539  0.30736  1.0000
  C   C46       1.0  0.57356  0.17824  0.22476  1.0000
  C  Sn3       1.0  0.51826  0.18035  0.13547  1.0000
  C  Sn4       1.0  0.47263  0.13874  0.12903  1.0000
  C   C47       1.0  0.48349  0.09607  0.21219  1.0000
  C   C48       1.0  0.53899  0.09435  0.30113  1.0000
  H   H23       1.0  0.62691  0.13407  0.37625  1.0000
  O  Te3       1.0  0.50861  0.22344  0.05361  1.0000
  O  Te4       1.0  0.41694  0.13986  0.04076  1.0000
  H   H24       1.0  0.54704  0.06119  0.36516  1.0000
  Mg  Mg2       1.0  0.48264  0.31815  0.94959  1.0000
  C   C49       1.0  0.23321  0.83371  0.21810  1.0000
  C   C50       1.0  0.27467  0.79154  0.17391  1.0000
  C  Sn5       1.0  0.25746  0.73465  0.06162  1.0000
  C  Sn6       1.0  0.25493  0.83100  0.99247  1.0000
  C   C51       1.0  0.15647  0.76236  0.03739  1.0000
  C   C52       1.0  0.17417  0.81915  0.14990  1.0000
  H   H25       1.0  0.24691  0.87767  0.30508  1.0000
  O  Te5       1.0  0.29944  0.69304  0.01887  1.0000
  O  Te6       1.0  0.23653  0.77448  0.87992  1.0000
  H   H26       1.0  0.14206  0.85181  0.18401  1.0000
  Mg  Mg3       1.0  0.31018  0.73307  0.86037  1.0000
  C   C53       1.0  0.98630  0.64472  0.84648  1.0000
  C   C54       1.0  0.00416  0.59854  0.91081  1.0000
  C  Sn7       1.0  0.99850  0.49481  0.02544  1.0000
  C  Sn8       1.0  0.03283  0.54954  0.07641  1.0000
  C   C55       1.0  0.01456  0.59548  0.01141  1.0000
  C   C56       1.0  0.02013  0.69872  0.89673  1.0000
  H   H27       1.0  0.94623  0.63861  0.75782  1.0000
  O  Te7       1.0  0.01571  0.44821  0.08843  1.0000
  O  Te8       1.0  0.08465  0.55817  0.19085  1.0000
  H   H28       1.0  0.00629  0.73449  0.84702  1.0000
  Mg  Mg4       1.0  0.08978  0.48141  0.24136  1.0000
  C   C57       1.0  0.86020  0.40957  0.88544  1.0000
  C   C58       1.0  0.87242  0.36135  0.94619  1.0000
  C  Sn9       1.0  0.87064  0.24658  0.03179  1.0000
  C  Sn10      1.0  0.91468  0.29217  0.05689  1.0000
  C   C59       1.0  0.95934  0.45142  0.99573  1.0000
  C   C60       1.0  0.90360  0.45457  0.91019  1.0000
  H   H29       1.0  0.81707  0.41203  0.81934  1.0000
  O  Te9       1.0  0.88211  0.19809  0.09161  1.0000
  O  Te10      1.0  0.97056  0.28969  0.14207  1.0000
  H   H30       1.0  0.89414  0.49193  0.86327  1.0000
  Mg  Mg5       1.0  0.96497  0.21466  0.19994  1.0000
  C   C61       1.0  0.93756  0.15534  0.14089  1.0000
  C   C62       1.0  0.88354  0.15569  0.04266  1.0000
  C  Sn11      1.0  0.91165  0.21313  0.93900  1.0000
  C  Sn12      1.0  0.93707  0.15811  0.93388  1.0000
  C   C63       1.0  0.93378  0.04707  0.03271  1.0000
  C   C64       1.0  0.96265  0.10109  0.13596  1.0000
  H   H31       1.0  0.95989  0.19713  0.22085  1.0000
  O  Te11      1.0  0.85772  0.21429  0.84163  1.0000
  O  Te12      1.0  0.90880  0.10376  0.83143  1.0000
  H   H32       1.0  0.00446  0.10080  0.21208  1.0000
  Mg  Mg6       1.0  0.83613  0.12852  0.72192  1.0000
  C   C65       1.0  0.06178  0.89686  0.96287  1.0000
  C   C66       1.0  0.00449  0.90516  0.99303  1.0000
  C  Sn13      1.0  0.91856  0.75365  0.05054  1.0000
  C  Sn14      1.0  0.94799  0.70413  0.07830  1.0000
  C   C67       1.0  0.00532  0.69624  0.04787  1.0000
  C   C68       1.0  0.09085  0.84804  0.99028  1.0000
  H   H33       1.0  0.08361  0.92831  0.91840  1.0000
  O  Te13      1.0  0.86131  0.76260  0.07997  1.0000
  O  Te14      1.0  0.92045  0.66314  0.13581  1.0000
  H   H34       1.0  0.13522  0.84162  0.96705  1.0000
  Mg  Mg7       1.0  0.84225  0.69449  0.15770  1.0000
  C   C69       1.0  0.36391  0.64805  0.26058  1.0000
  C   C70       1.0  0.41315  0.62571  0.19193  1.0000
  C  Sn15      1.0  0.44662  0.66088  0.12954  1.0000
  C  Sn16      1.0  0.43038  0.71947  0.13622  1.0000
  C   C71       1.0  0.38107  0.74142  0.20525  1.0000
  C   C72       1.0  0.34788  0.70584  0.26728  1.0000
  H   H35       1.0  0.33825  0.62054  0.30865  1.0000
  O  Te15      1.0  0.49568  0.63786  0.06131  1.0000
  O  Te16      1.0  0.46306  0.75558  0.07482  1.0000
  H   H36       1.0  0.30978  0.72316  0.32052  1.0000
  Mg  Mg8       1.0  0.58357  0.81539  0.99369  1.0000
  C   C73       1.0  0.36819  0.92356  0.12612  1.0000
  C   C74       1.0  0.41947  0.95061  0.23363  1.0000
  C  Sn17      1.0  0.45135  0.92056  0.33347  1.0000
  C  Sn18      1.0  0.43144  0.86234  0.32521  1.0000
  C   C75       1.0  0.38011  0.83564  0.21716  1.0000
  C   C76       1.0  0.34853  0.86612  0.11785  1.0000
  H   H37       1.0  0.34377  0.94712  0.04920  1.0000
  O  Te17      1.0  0.50248  0.94826  0.44024  1.0000
  O  Te18      1.0  0.46247  0.83129  0.42357  1.0000
  H   H38       1.0  0.30885  0.84514  0.03454  1.0000
  Mg  Mg9       1.0  0.52958  0.88786  0.54956  1.0000
  C   C77       1.0  0.49824  0.43769  0.59385  1.0000
  C   C78       1.0  0.51735  0.49527  0.69863  1.0000
  C  Sn19      1.0  0.57168  0.50524  0.80258  1.0000
  C  Sn20      1.0  0.60744  0.45657  0.80128  1.0000
  C   C79       1.0  0.58794  0.39914  0.69591  1.0000
  C   C80       1.0  0.53349  0.38967  0.59244  1.0000
  H   H39       1.0  0.45612  0.43036  0.51372  1.0000
  O  Te19      1.0  0.59009  0.56304  0.90655  1.0000
  O  Te20      1.0  0.66194  0.46527  0.90386  1.0000
  H   H40       1.0  0.51872  0.34509  0.51125  1.0000
  Mg  Mg10      1.0  0.61049  0.44113  0.02367  1.0000
  C   C81       1.0  0.49282  0.17321  0.60815  1.0000
  C   C82       1.0  0.54954  0.19135  0.69407  1.0000
  C  Sn21      1.0  0.57898  0.15761  0.78716  1.0000
  C  Sn22      1.0  0.55101  0.10473  0.79410  1.0000
  C   C83       1.0  0.49428  0.08694  0.70761  1.0000
  C   C84       1.0  0.46521  0.12105  0.61487  1.0000
  H   H41       1.0  0.47034  0.19958  0.53632  1.0000
  O  Te21      1.0  0.63562  0.17639  0.87230  1.0000
  O  Te22      1.0  0.58907  0.07016  0.88615  1.0000
  H   H42       1.0  0.42131  0.10697  0.54828  1.0000
  Mg  Mg11      1.0  0.65631  0.11422  0.98087  1.0000
  C   C85       1.0  0.20464  0.71799  0.48073  1.0000
  C   C86       1.0  0.16319  0.75764  0.54381  1.0000
  C  Sn23      1.0  0.18097  0.81354  0.66087  1.0000
  C  Sn24      1.0  0.24140  0.82995  0.71552  1.0000
  C   C87       1.0  0.28253  0.78998  0.65156  1.0000
  C   C88       1.0  0.26425  0.73414  0.53451  1.0000
  H   H43       1.0  0.19051  0.67480  0.39009  1.0000
  O  Te23      1.0  0.13898  0.85260  0.72267  1.0000
  O  Te24      1.0  0.26038  0.88555  0.83236  1.0000
  H   H44       1.0  0.29635  0.70348  0.48561  1.0000
  Mg  Mg12      1.0  0.18649  0.92335  0.87998  1.0000
  C   C89       1.0  0.07449  0.62071  0.55869  1.0000
  C   C90       1.0  0.02010  0.59713  0.46381  1.0000
  C  Sn25      1.0  0.98844  0.62818  0.36644  1.0000
  C  Sn26      1.0  0.01178  0.68385  0.36423  1.0000
  C   C91       1.0  0.06625  0.70704  0.45950  1.0000
  C   C92       1.0  0.09756  0.67561  0.55653  1.0000
  H   H45       1.0  0.09873  0.59638  0.63370  1.0000
  O  Te25      1.0  0.93415  0.60399  0.27245  1.0000
  O  Te26      1.0  0.98107  0.71581  0.26797  1.0000
  H   H46       1.0  0.13969  0.69386  0.62989  1.0000
  Mg  Mg13      1.0  0.90886  0.66436  0.16115  1.0000
  C   C93       1.0  0.87711  0.43659  0.37295  1.0000
  C   C94       1.0  0.93442  0.45316  0.45576  1.0000
  C  Sn27      1.0  0.96374  0.41805  0.54475  1.0000
  C  Sn28      1.0  0.93503  0.36540  0.55068  1.0000
  C   C95       1.0  0.87770  0.34919  0.46731  1.0000
  C   C96       1.0  0.84877  0.38466  0.37868  1.0000
  H   H47       1.0  0.85473  0.46401  0.30429  1.0000
  O  Te27      1.0  0.02099  0.43527  0.62683  1.0000
  O  Te28      1.0  0.96331  0.32949  0.63865  1.0000
  H   H48       1.0  0.80440  0.37180  0.31448  1.0000
  Mg  Mg14      1.0  0.04119  0.37166  0.73029  1.0000
  C   C97       1.0  0.93489  0.15925  0.64248  1.0000
  C   C98       1.0  0.88189  0.15905  0.53902  1.0000
  C  Sn29      1.0  0.85334  0.10501  0.43504  1.0000
  C  Sn30      1.0  0.87842  0.05023  0.43496  1.0000
  C   C99       1.0  0.94107  0.05091  0.53902  1.0000
  C   C100      1.0  0.95965  0.10524  0.64253  1.0000
  H   H49       1.0  0.95670  0.20128  0.72264  1.0000
  O  Te29      1.0  0.80043  0.10562  0.33241  1.0000
  O  Te30      1.0  0.86043  0.99558  0.33233  1.0000
  H   H50       1.0  0.00067  0.10537  0.72270  1.0000
  Mg  Mg15      1.0  0.78907  0.01961  0.21463  1.0000
  C   C101      1.0  0.05864  0.90139  0.46605  1.0000
  C   C102      1.0  0.00143  0.90931  0.49726  1.0000
  C  Sn31      1.0  0.97314  0.86836  0.55337  1.0000
  C  Sn32      1.0  0.00280  0.81861  0.57862  1.0000
  C   C103      1.0  0.06005  0.81111  0.54716  1.0000
  C   C104      1.0  0.08794  0.85235  0.49099  1.0000
  H   H51       1.0  0.08023  0.93331  0.42268  1.0000
  O  Te31      1.0  0.91596  0.87693  0.58388  1.0000
  O  Te32      1.0  0.97557  0.77702  0.63468  1.0000
  H   H52       1.0  0.13225  0.84623  0.46695  1.0000
  Mg  Mg16      1.0  0.89736  0.80803  0.65889  1.0000
  C   C105      1.0  0.34232  0.67411  0.74172  1.0000
  C   C106      1.0  0.36558  0.72544  0.71866  1.0000
  C  Sn33      1.0  0.42007  0.72540  0.66815  1.0000
  C  Sn34      1.0  0.45175  0.67291  0.64027  1.0000
  C   C107      1.0  0.42809  0.62177  0.66357  1.0000
  C   C108      1.0  0.37354  0.62231  0.71418  1.0000
  H   H53       1.0  0.30010  0.67451  0.78079  1.0000
  O  Te33      1.0  0.44267  0.77708  0.64576  1.0000
  O  Te34      1.0  0.50630  0.67163  0.58967  1.0000
  H   H54       1.0  0.35553  0.58255  0.73192  1.0000
  Mg  Mg17      1.0  0.51873  0.75326  0.57590  1.0000
  C   C109      1.0  0.36653  0.92373  0.62286  1.0000
  C   C110      1.0  0.41801  0.95051  0.72974  1.0000
  C  Sn35      1.0  0.44973  0.92040  0.82970  1.0000
  C  Sn36      1.0  0.42942  0.86239  0.82221  1.0000
  C   C111      1.0  0.37788  0.83597  0.71479  1.0000
  C   C112      1.0  0.34648  0.86651  0.61535  1.0000
  H   H55       1.0  0.34225  0.94734  0.54585  1.0000
  O  Te35      1.0  0.50107  0.94782  0.93584  1.0000
  O  Te36      1.0  0.46027  0.83128  0.92071  1.0000
  H   H56       1.0  0.30664  0.84575  0.53253  1.0000
  Mg  Mg18      1.0  0.47045  0.77627  0.04564  1.0000
