data_image0
_chemical_formula_structural       H60C108N24O24SnCSn2CSnTe4Mg2SnCSn2CSnTe4Mg2SnCSn2CSnTe4Mg2SnCSn2CSnTe4Mg2SnCSn2CSnTe4Mg2SnCSn2CSnTe4Mg2SnCSn2CSnTe4Mg2SnCSn2CSnTe4Mg2SnCSn2CSnTe4Mg2SnCSn2CSnTe4Mg2SnCSn2CSnTe4Mg2SnCSn2CSnTe4Mg2
_chemical_formula_sum              "H60 C132 N24 O24 Sn48 Te48 Mg24"
_cell_length_a       44.3979
_cell_length_b       44.4018
_cell_length_c       8.41127
_cell_angle_alpha    114.611
_cell_angle_beta     65.0334
_cell_angle_gamma    120.491

_symmetry_space_group_name_H-M    'P1'
_space_group_IT_number       1

loop_
  _space_group_symop_operation_xyz
  'x, y, z'

loop_
  _atom_site_type_symbol
  _atom_site_label
  _atom_site_symmetry_multiplicity
  _atom_site_fract_x
  _atom_site_fract_y
  _atom_site_fract_z
  _atom_site_occupancy
  H   H1        1.0  0.39621  0.53212  0.22785  1.0000
  H   H2        1.0  0.46829  0.86444  0.31466  1.0000
  H   H3        1.0  0.15099  0.59999  0.14335  1.0000
  H   H4        1.0  0.60332  0.46460  0.26853  1.0000
  H   H5        1.0  0.54252  0.13688  0.16817  1.0000
  H   H6        1.0  0.85804  0.40035  0.33796  1.0000
  H   H7        1.0  0.40609  0.49754  0.27320  1.0000
  H   H8        1.0  0.50915  0.90712  0.20706  1.0000
  H   H9        1.0  0.09479  0.59418  0.28404  1.0000
  H   H10       1.0  0.58639  0.47783  0.09651  1.0000
  H   H11       1.0  0.50481  0.09739  0.36756  1.0000
  H   H12       1.0  0.91615  0.41206  0.13702  1.0000
  H   H13       1.0  0.49576  0.59363  0.43654  1.0000
  H   H14       1.0  0.41876  0.91515  0.18550  1.0000
  H   H15       1.0  0.08759  0.49547  0.30010  1.0000
  H   H16       1.0  0.48677  0.41171  0.40571  1.0000
  H   H17       1.0  0.60703  0.08845  0.16738  1.0000
  H   H18       1.0  0.91067  0.51552  0.42091  1.0000
  H   H19       1.0  0.52437  0.55500  0.40512  1.0000
  H   H20       1.0  0.45546  0.98009  0.20139  1.0000
  H   H21       1.0  0.02354  0.46653  0.30205  1.0000
  H   H22       1.0  0.45791  0.44907  0.42944  1.0000
  H   H23       1.0  0.57501  0.02424  0.15603  1.0000
  H   H24       1.0  0.97348  0.54149  0.42816  1.0000
  H   H25       1.0  0.42149  0.40248  0.10656  1.0000
  H   H26       1.0  0.60175  0.97432  0.02931  1.0000
  H   H27       1.0  0.02215  0.59372  0.15247  1.0000
  H   H28       1.0  0.57426  0.55442  0.97217  1.0000
  H   H29       1.0  0.43278  0.02375  0.65871  1.0000
  H   H30       1.0  0.97185  0.38026  0.07390  1.0000
  H   H31       1.0  0.40385  0.54493  0.71916  1.0000
  H   H32       1.0  0.44797  0.86432  0.83285  1.0000
  H   H33       1.0  0.14176  0.58343  0.61593  1.0000
  H   H34       1.0  0.60685  0.47333  0.76630  1.0000
  H   H35       1.0  0.53107  0.13594  0.68895  1.0000
  H   H36       1.0  0.84730  0.39525  0.84586  1.0000
  H   H37       1.0  0.40890  0.51369  0.79619  1.0000
  H   H38       1.0  0.49248  0.90145  0.69342  1.0000
  H   H39       1.0  0.08922  0.58340  0.76066  1.0000
  H   H40       1.0  0.59341  0.49844  0.61547  1.0000
  H   H41       1.0  0.49908  0.09715  0.89302  1.0000
  H   H42       1.0  0.90489  0.40792  0.66209  1.0000
  H   H43       1.0  0.50227  0.60685  0.93374  1.0000
  H   H44       1.0  0.40564  0.91522  0.66939  1.0000
  H   H45       1.0  0.07395  0.48470  0.82063  1.0000
  H   H46       1.0  0.49294  0.41516  0.80996  1.0000
  H   H47       1.0  0.59625  0.07901  0.56493  1.0000
  H   H48       1.0  0.90116  0.51171  0.97116  1.0000
  H   H49       1.0  0.52810  0.56665  0.90418  1.0000
  H   H50       1.0  0.44596  0.97935  0.67741  1.0000
  H   H51       1.0  0.01052  0.45932  0.82458  1.0000
  H   H52       1.0  0.46039  0.45132  0.86907  1.0000
  H   H53       1.0  0.56185  0.01405  0.55585  1.0000
  H   H54       1.0  0.96563  0.53662  0.96124  1.0000
  H   H55       1.0  0.38663  0.43179  0.63731  1.0000
  H   H56       1.0  0.57595  0.99851  0.84470  1.0000
  H   H57       1.0  0.00945  0.57868  0.62932  1.0000
  H   H58       1.0  0.58564  0.57577  0.52358  1.0000
  H   H59       1.0  0.42771  0.01741  0.15875  1.0000
  H   H60       1.0  0.00935  0.41117  0.44098  1.0000
  C   C1        1.0  0.30508  0.65230  0.24113  1.0000
  C   C2        1.0  0.35133  0.64890  0.27682  1.0000
  C   C3        1.0  0.35822  0.70205  0.25965  1.0000
  C   C4        1.0  0.70361  0.35152  0.26011  1.0000
  C   C5        1.0  0.65712  0.35404  0.22276  1.0000
  C   C6        1.0  0.65151  0.30091  0.23305  1.0000
  C   C7        1.0  0.41027  0.56100  0.28952  1.0000
  C   C8        1.0  0.44455  0.85212  0.26237  1.0000
  C   C9        1.0  0.15745  0.58755  0.20703  1.0000
  C   C10       1.0  0.58776  0.43509  0.24273  1.0000
  C   C11       1.0  0.56762  0.15027  0.21084  1.0000
  C   C12       1.0  0.85013  0.41666  0.30663  1.0000
  C   C13       1.0  0.45047  0.54896  0.34111  1.0000
  C   C14       1.0  0.45990  0.90666  0.21083  1.0000
  C   C15       1.0  0.09702  0.54592  0.27490  1.0000
  C   C16       1.0  0.53896  0.44219  0.25051  1.0000
  C   C17       1.0  0.55852  0.09714  0.25374  1.0000
  C   C18       1.0  0.90862  0.46179  0.27972  1.0000
  C   C19       1.0  0.43296  0.51108  0.29474  1.0000
  C   C20       1.0  0.49642  0.92321  0.21376  1.0000
  C   C21       1.0  0.07987  0.56546  0.27730  1.0000
  C   C22       1.0  0.55810  0.47139  0.17245  1.0000
  C   C23       1.0  0.52054  0.08122  0.31519  1.0000
  C   C24       1.0  0.92881  0.44058  0.20247  1.0000
  C   C25       1.0  0.44902  0.48887  0.27303  1.0000
  C   C26       1.0  0.51766  0.95990  0.21985  1.0000
  C   C27       1.0  0.04344  0.54905  0.27735  1.0000
  C   C28       1.0  0.54203  0.49245  0.18026  1.0000
  C   C29       1.0  0.50184  0.04520  0.32621  1.0000
  C   C30       1.0  0.96557  0.45548  0.19772  1.0000
  C   C31       1.0  0.48420  0.50476  0.29994  1.0000
  C   C32       1.0  0.50237  0.98264  0.23242  1.0000
  C   C33       1.0  0.02232  0.51184  0.27380  1.0000
  C   C34       1.0  0.50462  0.48427  0.27466  1.0000
  C   C35       1.0  0.52082  0.02235  0.25777  1.0000
  C   C36       1.0  0.98367  0.49326  0.27296  1.0000
  C   C37       1.0  0.49925  0.54265  0.36753  1.0000
  C   C38       1.0  0.46674  0.96462  0.21295  1.0000
  C   C39       1.0  0.03938  0.49375  0.28564  1.0000
  C   C40       1.0  0.48612  0.45512  0.35469  1.0000
  C   C41       1.0  0.55894  0.03970  0.20474  1.0000
  C   C42       1.0  0.96206  0.51338  0.35622  1.0000
  C   C43       1.0  0.48328  0.56436  0.38665  1.0000
  C   C44       1.0  0.44605  0.92796  0.20132  1.0000
  C   C45       1.0  0.07545  0.51004  0.28724  1.0000
  C   C46       1.0  0.50207  0.43397  0.34173  1.0000
  C   C47       1.0  0.57753  0.07595  0.20665  1.0000
  C   C48       1.0  0.92610  0.49879  0.35674  1.0000
  C   C49       1.0  0.42467  0.44955  0.22892  1.0000
  C   C50       1.0  0.55626  0.96911  0.20171  1.0000
  C   C51       1.0  0.02965  0.57535  0.29670  1.0000
  C   C52       1.0  0.56828  0.52059  0.07627  1.0000
  C   C53       1.0  0.46350  0.03765  0.43972  1.0000
  C   C54       1.0  0.98281  0.42894  0.10362  1.0000
  C   C55       1.0  0.29542  0.64838  0.73936  1.0000
  C   C56       1.0  0.34405  0.64971  0.77617  1.0000
  C   C57       1.0  0.34677  0.70034  0.75249  1.0000
  C   C58       1.0  0.69499  0.34910  0.75269  1.0000
  C   C59       1.0  0.64853  0.35355  0.72532  1.0000
  C   C60       1.0  0.64190  0.29946  0.72979  1.0000
  C   C61       1.0  0.41509  0.57371  0.79038  1.0000
  C   C62       1.0  0.42647  0.85065  0.76332  1.0000
  C   C63       1.0  0.14799  0.57412  0.69634  1.0000
  C   C64       1.0  0.59152  0.44405  0.71915  1.0000
  C   C65       1.0  0.55835  0.14800  0.70778  1.0000
  C   C66       1.0  0.83990  0.41302  0.82286  1.0000
  C   C67       1.0  0.45480  0.56345  0.85133  1.0000
  C   C68       1.0  0.44480  0.90384  0.69528  1.0000
  C   C69       1.0  0.08749  0.53493  0.77366  1.0000
  C   C70       1.0  0.54537  0.45350  0.70530  1.0000
  C   C71       1.0  0.55023  0.09281  0.72415  1.0000
  C   C72       1.0  0.89835  0.45820  0.81373  1.0000
  C   C73       1.0  0.43604  0.52571  0.81152  1.0000
  C   C74       1.0  0.48085  0.91848  0.69986  1.0000
  C   C75       1.0  0.07271  0.55523  0.76333  1.0000
  C   C76       1.0  0.56396  0.48744  0.66665  1.0000
  C   C77       1.0  0.51329  0.07923  0.81760  1.0000
  C   C78       1.0  0.91805  0.43638  0.72707  1.0000
  C   C79       1.0  0.45029  0.50216  0.79217  1.0000
  C   C80       1.0  0.50350  0.95518  0.71302  1.0000
  C   C81       1.0  0.03632  0.54109  0.76626  1.0000
  C   C82       1.0  0.54523  0.50778  0.69570  1.0000
  C   C83       1.0  0.49448  0.04299  0.82500  1.0000
  C   C84       1.0  0.95515  0.45069  0.71303  1.0000
  C   C85       1.0  0.48607  0.51655  0.81079  1.0000
  C   C86       1.0  0.49057  0.97891  0.71592  1.0000
  C   C87       1.0  0.01304  0.50498  0.77900  1.0000
  C   C88       1.0  0.50682  0.49515  0.76800  1.0000
  C   C89       1.0  0.51142  0.01824  0.72916  1.0000
  C   C90       1.0  0.97389  0.48802  0.79014  1.0000
  C   C91       1.0  0.50270  0.55464  0.86968  1.0000
  C   C92       1.0  0.45533  0.96280  0.69370  1.0000
  C   C93       1.0  0.02799  0.48575  0.79836  1.0000
  C   C94       1.0  0.48928  0.46141  0.80747  1.0000
  C   C95       1.0  0.54831  0.03238  0.63477  1.0000
  C   C96       1.0  0.95280  0.50870  0.88878  1.0000
  C   C97       1.0  0.48808  0.57766  0.88937  1.0000
  C   C98       1.0  0.43275  0.92655  0.68487  1.0000
  C   C99       1.0  0.06398  0.50004  0.79792  1.0000
  C   C100      1.0  0.50753  0.44089  0.77476  1.0000
  C   C101      1.0  0.56759  0.06872  0.63657  1.0000
  C   C102      1.0  0.91643  0.49479  0.89726  1.0000
  C   C103      1.0  0.42352  0.46356  0.76003  1.0000
  C   C104      1.0  0.53966  0.96427  0.72809  1.0000
  C   C105      1.0  0.02621  0.56865  0.76766  1.0000
  C   C106      1.0  0.56955  0.54457  0.66594  1.0000
  C   C107      1.0  0.45691  0.03398  0.94739  1.0000
  C   C108      1.0  0.97083  0.42288  0.61981  1.0000
  N   N1        1.0  0.31734  0.63189  0.25822  1.0000
  N   N2        1.0  0.37267  0.68412  0.28153  1.0000
  N   N3        1.0  0.32462  0.68739  0.23923  1.0000
  N   N4        1.0  0.69094  0.37174  0.24442  1.0000
  N   N5        1.0  0.63665  0.31858  0.21314  1.0000
  N   N6        1.0  0.68486  0.31617  0.25742  1.0000
  N   N7        1.0  0.43767  0.57304  0.35102  1.0000
  N   N8        1.0  0.43703  0.87022  0.20758  1.0000
  N   N9        1.0  0.13336  0.56026  0.27399  1.0000
  N   N10       1.0  0.55452  0.42029  0.23633  1.0000
  N   N11       1.0  0.57887  0.13326  0.25080  1.0000
  N   N12       1.0  0.87252  0.44834  0.28076  1.0000
  N   N13       1.0  0.30984  0.63037  0.76021  1.0000
  N   N14       1.0  0.36344  0.68483  0.77597  1.0000
  N   N15       1.0  0.31288  0.68327  0.73265  1.0000
  N   N16       1.0  0.68267  0.37011  0.74171  1.0000
  N   N17       1.0  0.62701  0.31823  0.71822  1.0000
  N   N18       1.0  0.67572  0.31367  0.74671  1.0000
  N   N19       1.0  0.44158  0.58721  0.86140  1.0000
  N   N20       1.0  0.42093  0.86760  0.69196  1.0000
  N   N21       1.0  0.12358  0.54884  0.77687  1.0000
  N   N22       1.0  0.56087  0.43096  0.68409  1.0000
  N   N23       1.0  0.57131  0.12911  0.72109  1.0000
  N   N24       1.0  0.86239  0.44573  0.81361  1.0000
  O   O1        1.0  0.39149  0.43821  0.27946  1.0000
  O   O2        1.0  0.56741  0.96979  0.31352  1.0000
  O   O3        1.0  0.02386  0.59826  0.43902  1.0000
  O   O4        1.0  0.60015  0.52449  0.00115  1.0000
  O   O5        1.0  0.44413  0.05001  0.44134  1.0000
  O   O6        1.0  0.01240  0.43256  0.99336  1.0000
  O   O7        1.0  0.44149  0.42634  0.12333  1.0000
  O   O8        1.0  0.57871  0.97247  0.03043  1.0000
  O   O9        1.0  0.02677  0.57335  0.14022  1.0000
  O   O10       1.0  0.55533  0.54118  0.06561  1.0000
  O   O11       1.0  0.45320  0.01902  0.56037  1.0000
  O   O12       1.0  0.95977  0.39677  0.15161  1.0000
  O   O13       1.0  0.41514  0.44048  0.83221  1.0000
  O   O14       1.0  0.55368  0.94260  0.66387  1.0000
  O   O15       1.0  0.03723  0.60024  0.85830  1.0000
  O   O16       1.0  0.59115  0.56755  0.75706  1.0000
  O   O17       1.0  0.43461  0.04310  0.95161  1.0000
  O   O18       1.0  0.95627  0.39374  0.65600  1.0000
  O   O19       1.0  0.40543  0.45637  0.64160  1.0000
  O   O20       1.0  0.55505  0.99826  0.83039  1.0000
  O   O21       1.0  0.00585  0.55703  0.65584  1.0000
  O   O22       1.0  0.56777  0.55101  0.52713  1.0000
  O   O23       1.0  0.45016  0.01654  0.06612  1.0000
  O   O24       1.0  0.00223  0.43140  0.48397  1.0000
  C  Sn1       1.0  0.36333  0.57005  0.18945  1.0000
  C   C109      1.0  0.39508  0.58169  0.23508  1.0000
  C  Sn2       1.0  0.41165  0.61761  0.32783  1.0000
  C  Sn3       1.0  0.39616  0.64242  0.37610  1.0000
  C   C110      1.0  0.36444  0.63078  0.33050  1.0000
  C  Sn4       1.0  0.34785  0.59486  0.23771  1.0000
  O  Te1       1.0  0.34723  0.53401  0.09672  1.0000
  O  Te2       1.0  0.44338  0.62861  0.37192  1.0000
  O  Te3       1.0  0.41230  0.67848  0.46890  1.0000
  O  Te4       1.0  0.31613  0.58386  0.19366  1.0000
  Mg  Mg1       1.0  0.45523  0.68049  0.49888  1.0000
  Mg  Mg2       1.0  0.30425  0.53198  0.06680  1.0000
  C  Sn5       1.0  0.37674  0.79166  0.28476  1.0000
  C   C111      1.0  0.41213  0.81278  0.30201  1.0000
  C  Sn6       1.0  0.43394  0.79646  0.28066  1.0000
  C  Sn7       1.0  0.42010  0.75825  0.24112  1.0000
  C   C112      1.0  0.38474  0.73716  0.22385  1.0000
  C  Sn8       1.0  0.36290  0.75345  0.24522  1.0000
  O  Te5       1.0  0.35541  0.80855  0.30665  1.0000
  O  Te6       1.0  0.46923  0.81814  0.29860  1.0000
  O  Te7       1.0  0.44146  0.74138  0.21924  1.0000
  O  Te8       1.0  0.32763  0.73180  0.22726  1.0000
  Mg  Mg3       1.0  0.48778  0.78249  0.25657  1.0000
  Mg  Mg4       1.0  0.30907  0.76741  0.26917  1.0000
  C  Sn9       1.0  0.21346  0.58898  0.29349  1.0000
  C   C113      1.0  0.19554  0.60403  0.26622  1.0000
  C  Sn10      1.0  0.21525  0.63461  0.19855  1.0000
  C  Sn11      1.0  0.25368  0.65048  0.15715  1.0000
  C   C114      1.0  0.27158  0.63543  0.18440  1.0000
  C  Sn12      1.0  0.25189  0.60485  0.25210  1.0000
  O  Te9       1.0  0.19321  0.55840  0.36127  1.0000
  O  Te10      1.0  0.19673  0.64917  0.17248  1.0000
  O  Te11      1.0  0.27393  0.68108  0.08933  1.0000
  O  Te12      1.0  0.27039  0.59029  0.27814  1.0000
  Mg  Mg5       1.0  0.23634  0.69099  0.07706  1.0000
  Mg  Mg6       1.0  0.23082  0.54847  0.37346  1.0000
  C  Sn13      1.0  0.65126  0.42925  0.20005  1.0000
  C   C115      1.0  0.61678  0.41600  0.17867  1.0000
  C  Sn14      1.0  0.59181  0.38083  0.18916  1.0000
  C  Sn15      1.0  0.60151  0.35843  0.22183  1.0000
  C   C116      1.0  0.63597  0.37168  0.24323  1.0000
  C  Sn16      1.0  0.66096  0.40685  0.23272  1.0000
  O  Te13      1.0  0.67579  0.46450  0.18905  1.0000
  O  Te14      1.0  0.55750  0.36818  0.16727  1.0000
  O  Te15      1.0  0.57695  0.32315  0.23282  1.0000
  O  Te16      1.0  0.69525  0.41950  0.25462  1.0000
  Mg  Mg7       1.0  0.53352  0.31822  0.19390  1.0000
  Mg  Mg8       1.0  0.71924  0.46946  0.22811  1.0000
  C  Sn17      1.0  0.62369  0.21728  0.31644  1.0000
  C   C117      1.0  0.59041  0.19500  0.27434  1.0000
  C  Sn18      1.0  0.57779  0.20591  0.18991  1.0000
  C  Sn19      1.0  0.59886  0.23978  0.14655  1.0000
  C   C118      1.0  0.63211  0.26204  0.18861  1.0000
  C  Sn20      1.0  0.64476  0.25116  0.27307  1.0000
  O  Te17      1.0  0.63578  0.20583  0.40084  1.0000
  O  Te18      1.0  0.54443  0.18317  0.14922  1.0000
  O  Te19      1.0  0.58674  0.25122  0.06208  1.0000
  O  Te20      1.0  0.67810  0.27387  0.31373  1.0000
  Mg  Mg9       1.0  0.53956  0.21074  0.03390  1.0000
  Mg  Mg10      1.0  0.68300  0.24632  0.42896  1.0000
  C  Sn21      1.0  0.78832  0.42321  0.32566  1.0000
  C   C119      1.0  0.80659  0.40743  0.34465  1.0000
  C  Sn22      1.0  0.79239  0.36997  0.31543  1.0000
  C  Sn23      1.0  0.75925  0.34780  0.26607  1.0000
  C   C120      1.0  0.74100  0.36357  0.24706  1.0000
  C  Sn24      1.0  0.75518  0.40104  0.27630  1.0000
  O  Te21      1.0  0.80302  0.46072  0.35553  1.0000
  O  Te22      1.0  0.81114  0.35482  0.33530  1.0000
  O  Te23      1.0  0.74456  0.31026  0.23620  1.0000
  O  Te24      1.0  0.73646  0.41619  0.25642  1.0000
  Mg  Mg11      1.0  0.78016  0.30236  0.27992  1.0000
  Mg  Mg12      1.0  0.76741  0.46864  0.31167  1.0000
  C  Sn25      1.0  0.40625  0.64874  0.79114  1.0000
  C   C121      1.0  0.37368  0.63385  0.74628  1.0000
  C  Sn26      1.0  0.35004  0.59774  0.74248  1.0000
  C  Sn27      1.0  0.35913  0.57606  0.78450  1.0000
  C   C122      1.0  0.39167  0.59096  0.82936  1.0000
  C  Sn28      1.0  0.41534  0.62706  0.83316  1.0000
  O  Te25      1.0  0.42948  0.68490  0.79410  1.0000
  O  Te26      1.0  0.31764  0.58345  0.69717  1.0000
  O  Te27      1.0  0.33587  0.53987  0.78150  1.0000
  O  Te28      1.0  0.44772  0.64135  0.87846  1.0000
  Mg  Mg13      1.0  0.29488  0.53276  0.71178  1.0000
  Mg  Mg14      1.0  0.47048  0.69204  0.86399  1.0000
  C  Sn29      1.0  0.36070  0.78762  0.76461  1.0000
  C   C123      1.0  0.39492  0.81077  0.79479  1.0000
  C  Sn30      1.0  0.41748  0.79676  0.78839  1.0000
  C  Sn31      1.0  0.40559  0.75882  0.75093  1.0000
  C   C124      1.0  0.37139  0.73570  0.72075  1.0000
  C  Sn32      1.0  0.34881  0.74969  0.72715  1.0000
  O  Te29      1.0  0.33861  0.80223  0.77165  1.0000
  O  Te30      1.0  0.45157  0.82044  0.81908  1.0000
  O  Te31      1.0  0.42771  0.74423  0.74391  1.0000
  O  Te32      1.0  0.31474  0.72603  0.69646  1.0000
  Mg  Mg15      1.0  0.47183  0.78752  0.79494  1.0000
  Mg  Mg16      1.0  0.29446  0.75891  0.72046  1.0000
  C  Sn33      1.0  0.21847  0.62787  0.61764  1.0000
  C   C125      1.0  0.19339  0.59390  0.64754  1.0000
  C  Sn34      1.0  0.19946  0.57789  0.73681  1.0000
  C  Sn35      1.0  0.23124  0.59622  0.79758  1.0000
  C   C126      1.0  0.25629  0.63017  0.76770  1.0000
  C  Sn36      1.0  0.25025  0.64620  0.67841  1.0000
  O  Te33      1.0  0.21185  0.64337  0.52811  1.0000
  O  Te34      1.0  0.17400  0.54391  0.76508  1.0000
  O  Te35      1.0  0.23784  0.58069  0.88716  1.0000
  O  Te36      1.0  0.27569  0.68016  0.65016  1.0000
  Mg  Mg17      1.0  0.19513  0.53397  0.89370  1.0000
  Mg  Mg18      1.0  0.25457  0.69014  0.52165  1.0000
  C  Sn37      1.0  0.58289  0.37608  0.71614  1.0000
  C   C127      1.0  0.59846  0.41376  0.75042  1.0000
  C  Sn38      1.0  0.63482  0.43339  0.75276  1.0000
  C  Sn39      1.0  0.65608  0.41498  0.72005  1.0000
  C   C128      1.0  0.64052  0.37732  0.68577  1.0000
  C  Sn40      1.0  0.60415  0.35767  0.68343  1.0000
  O  Te37      1.0  0.54648  0.35701  0.71444  1.0000
  O  Te38      1.0  0.64978  0.47105  0.78741  1.0000
  O  Te39      1.0  0.69251  0.43409  0.72178  1.0000
  O  Te40      1.0  0.58919  0.32003  0.64878  1.0000
  Mg  Mg19      1.0  0.70059  0.48506  0.77532  1.0000
  Mg  Mg20      1.0  0.53840  0.30599  0.66074  1.0000
  C  Sn41      1.0  0.57009  0.21206  0.65203  1.0000
  C   C129      1.0  0.58070  0.18837  0.66273  1.0000
  C  Sn42      1.0  0.61117  0.20178  0.72290  1.0000
  C  Sn43      1.0  0.63147  0.23966  0.77355  1.0000
  C   C130      1.0  0.62086  0.26333  0.76286  1.0000
  C  Sn44      1.0  0.59039  0.24994  0.70267  1.0000
  O  Te41      1.0  0.53953  0.19805  0.59150  1.0000
  O  Te42      1.0  0.62125  0.17757  0.73239  1.0000
  O  Te43      1.0  0.66205  0.25366  0.83410  1.0000
  O  Te44      1.0  0.58031  0.27413  0.69320  1.0000
  Mg  Mg21      1.0  0.66493  0.20978  0.82345  1.0000
  Mg  Mg22      1.0  0.53663  0.24195  0.60226  1.0000
  C  Sn45      1.0  0.77933  0.42004  0.82795  1.0000
  C   C131      1.0  0.79690  0.40385  0.84935  1.0000
  C  Sn46      1.0  0.78265  0.36629  0.81642  1.0000
  C  Sn47      1.0  0.75016  0.34444  0.76082  1.0000
  C   C132      1.0  0.73261  0.36063  0.73942  1.0000
  C  Sn48      1.0  0.74684  0.39820  0.77236  1.0000
  O  Te45      1.0  0.79407  0.45765  0.86162  1.0000
  O  Te46      1.0  0.80069  0.35073  0.83879  1.0000
  O  Te47      1.0  0.73543  0.30681  0.72716  1.0000
  O  Te48      1.0  0.72882  0.41376  0.74998  1.0000
  Mg  Mg23      1.0  0.76995  0.29830  0.77641  1.0000
  Mg  Mg24      1.0  0.75955  0.46617  0.81223  1.0000
