data_image0
_chemical_formula_structural       H60C108N24O24C2Sn2C2HTe2HMgC2Sn2C2HTe2HMgC2Sn2C2HTe2HMgC2Sn2C2HTe2HMgC2Sn2C2HTe2HMgC2Sn2C2HTe2HMgC2Sn2C2HTe2HMgC2Sn2C2HTe2HMgC2Sn2C2HTe2HMgC2Sn2C2HTe2HMgC2Sn2C2HTe2HMgC2Sn2C2HTe2HMg
_chemical_formula_sum              "H84 C156 N24 O24 Sn24 Te24 Mg12"
_cell_length_a       44.3979
_cell_length_b       44.4018
_cell_length_c       8.41127
_cell_angle_alpha    114.611
_cell_angle_beta     65.0334
_cell_angle_gamma    120.491

_symmetry_space_group_name_H-M    'P1'
_space_group_IT_number       1

loop_
  _space_group_symop_operation_xyz
  'x, y, z'

loop_
  _atom_site_type_symbol
  _atom_site_label
  _atom_site_symmetry_multiplicity
  _atom_site_fract_x
  _atom_site_fract_y
  _atom_site_fract_z
  _atom_site_occupancy
  H   H1        1.0  0.39621  0.53212  0.22785  1.0000
  H   H2        1.0  0.46829  0.86444  0.31466  1.0000
  H   H3        1.0  0.15099  0.59999  0.14335  1.0000
  H   H4        1.0  0.60332  0.46460  0.26853  1.0000
  H   H5        1.0  0.54252  0.13688  0.16817  1.0000
  H   H6        1.0  0.85804  0.40035  0.33796  1.0000
  H   H7        1.0  0.40609  0.49754  0.27320  1.0000
  H   H8        1.0  0.50915  0.90712  0.20706  1.0000
  H   H9        1.0  0.09479  0.59418  0.28404  1.0000
  H   H10       1.0  0.58639  0.47783  0.09651  1.0000
  H   H11       1.0  0.50481  0.09739  0.36756  1.0000
  H   H12       1.0  0.91615  0.41206  0.13702  1.0000
  H   H13       1.0  0.49576  0.59363  0.43654  1.0000
  H   H14       1.0  0.41876  0.91515  0.18550  1.0000
  H   H15       1.0  0.08759  0.49547  0.30010  1.0000
  H   H16       1.0  0.48677  0.41171  0.40571  1.0000
  H   H17       1.0  0.60703  0.08845  0.16738  1.0000
  H   H18       1.0  0.91067  0.51552  0.42091  1.0000
  H   H19       1.0  0.52437  0.55500  0.40512  1.0000
  H   H20       1.0  0.45546  0.98009  0.20139  1.0000
  H   H21       1.0  0.02354  0.46653  0.30205  1.0000
  H   H22       1.0  0.45791  0.44907  0.42944  1.0000
  H   H23       1.0  0.57501  0.02424  0.15603  1.0000
  H   H24       1.0  0.97348  0.54149  0.42816  1.0000
  H   H25       1.0  0.42149  0.40248  0.10656  1.0000
  H   H26       1.0  0.60175  0.97432  0.02931  1.0000
  H   H27       1.0  0.02215  0.59372  0.15247  1.0000
  H   H28       1.0  0.57426  0.55442  0.97217  1.0000
  H   H29       1.0  0.43278  0.02375  0.65871  1.0000
  H   H30       1.0  0.97185  0.38026  0.07390  1.0000
  H   H31       1.0  0.40385  0.54493  0.71916  1.0000
  H   H32       1.0  0.44797  0.86432  0.83285  1.0000
  H   H33       1.0  0.14176  0.58343  0.61593  1.0000
  H   H34       1.0  0.60685  0.47333  0.76630  1.0000
  H   H35       1.0  0.53107  0.13594  0.68895  1.0000
  H   H36       1.0  0.84730  0.39525  0.84586  1.0000
  H   H37       1.0  0.40890  0.51369  0.79619  1.0000
  H   H38       1.0  0.49248  0.90145  0.69342  1.0000
  H   H39       1.0  0.08922  0.58340  0.76066  1.0000
  H   H40       1.0  0.59341  0.49844  0.61547  1.0000
  H   H41       1.0  0.49908  0.09715  0.89302  1.0000
  H   H42       1.0  0.90489  0.40792  0.66209  1.0000
  H   H43       1.0  0.50227  0.60685  0.93374  1.0000
  H   H44       1.0  0.40564  0.91522  0.66939  1.0000
  H   H45       1.0  0.07395  0.48470  0.82063  1.0000
  H   H46       1.0  0.49294  0.41516  0.80996  1.0000
  H   H47       1.0  0.59625  0.07901  0.56493  1.0000
  H   H48       1.0  0.90116  0.51171  0.97116  1.0000
  H   H49       1.0  0.52810  0.56665  0.90418  1.0000
  H   H50       1.0  0.44596  0.97935  0.67741  1.0000
  H   H51       1.0  0.01052  0.45932  0.82458  1.0000
  H   H52       1.0  0.46039  0.45132  0.86907  1.0000
  H   H53       1.0  0.56185  0.01405  0.55585  1.0000
  H   H54       1.0  0.96563  0.53662  0.96124  1.0000
  H   H55       1.0  0.38663  0.43179  0.63731  1.0000
  H   H56       1.0  0.57595  0.99851  0.84470  1.0000
  H   H57       1.0  0.00945  0.57868  0.62932  1.0000
  H   H58       1.0  0.58564  0.57577  0.52358  1.0000
  H   H59       1.0  0.42771  0.01741  0.15875  1.0000
  H   H60       1.0  0.00935  0.41117  0.44098  1.0000
  C   C1        1.0  0.30508  0.65230  0.24113  1.0000
  C   C2        1.0  0.35133  0.64890  0.27682  1.0000
  C   C3        1.0  0.35822  0.70205  0.25965  1.0000
  C   C4        1.0  0.70361  0.35152  0.26011  1.0000
  C   C5        1.0  0.65712  0.35404  0.22276  1.0000
  C   C6        1.0  0.65151  0.30091  0.23305  1.0000
  C   C7        1.0  0.41027  0.56100  0.28952  1.0000
  C   C8        1.0  0.44455  0.85212  0.26237  1.0000
  C   C9        1.0  0.15745  0.58755  0.20703  1.0000
  C   C10       1.0  0.58776  0.43509  0.24273  1.0000
  C   C11       1.0  0.56762  0.15027  0.21084  1.0000
  C   C12       1.0  0.85013  0.41666  0.30663  1.0000
  C   C13       1.0  0.45047  0.54896  0.34111  1.0000
  C   C14       1.0  0.45990  0.90666  0.21083  1.0000
  C   C15       1.0  0.09702  0.54592  0.27490  1.0000
  C   C16       1.0  0.53896  0.44219  0.25051  1.0000
  C   C17       1.0  0.55852  0.09714  0.25374  1.0000
  C   C18       1.0  0.90862  0.46179  0.27972  1.0000
  C   C19       1.0  0.43296  0.51108  0.29474  1.0000
  C   C20       1.0  0.49642  0.92321  0.21376  1.0000
  C   C21       1.0  0.07987  0.56546  0.27730  1.0000
  C   C22       1.0  0.55810  0.47139  0.17245  1.0000
  C   C23       1.0  0.52054  0.08122  0.31519  1.0000
  C   C24       1.0  0.92881  0.44058  0.20247  1.0000
  C   C25       1.0  0.44902  0.48887  0.27303  1.0000
  C   C26       1.0  0.51766  0.95990  0.21985  1.0000
  C   C27       1.0  0.04344  0.54905  0.27735  1.0000
  C   C28       1.0  0.54203  0.49245  0.18026  1.0000
  C   C29       1.0  0.50184  0.04520  0.32621  1.0000
  C   C30       1.0  0.96557  0.45548  0.19772  1.0000
  C   C31       1.0  0.48420  0.50476  0.29994  1.0000
  C   C32       1.0  0.50237  0.98264  0.23242  1.0000
  C   C33       1.0  0.02232  0.51184  0.27380  1.0000
  C   C34       1.0  0.50462  0.48427  0.27466  1.0000
  C   C35       1.0  0.52082  0.02235  0.25777  1.0000
  C   C36       1.0  0.98367  0.49326  0.27296  1.0000
  C   C37       1.0  0.49925  0.54265  0.36753  1.0000
  C   C38       1.0  0.46674  0.96462  0.21295  1.0000
  C   C39       1.0  0.03938  0.49375  0.28564  1.0000
  C   C40       1.0  0.48612  0.45512  0.35469  1.0000
  C   C41       1.0  0.55894  0.03970  0.20474  1.0000
  C   C42       1.0  0.96206  0.51338  0.35622  1.0000
  C   C43       1.0  0.48328  0.56436  0.38665  1.0000
  C   C44       1.0  0.44605  0.92796  0.20132  1.0000
  C   C45       1.0  0.07545  0.51004  0.28724  1.0000
  C   C46       1.0  0.50207  0.43397  0.34173  1.0000
  C   C47       1.0  0.57753  0.07595  0.20665  1.0000
  C   C48       1.0  0.92610  0.49879  0.35674  1.0000
  C   C49       1.0  0.42467  0.44955  0.22892  1.0000
  C   C50       1.0  0.55626  0.96911  0.20171  1.0000
  C   C51       1.0  0.02965  0.57535  0.29670  1.0000
  C   C52       1.0  0.56828  0.52059  0.07627  1.0000
  C   C53       1.0  0.46350  0.03765  0.43972  1.0000
  C   C54       1.0  0.98281  0.42894  0.10362  1.0000
  C   C55       1.0  0.29542  0.64838  0.73936  1.0000
  C   C56       1.0  0.34405  0.64971  0.77617  1.0000
  C   C57       1.0  0.34677  0.70034  0.75249  1.0000
  C   C58       1.0  0.69499  0.34910  0.75269  1.0000
  C   C59       1.0  0.64853  0.35355  0.72532  1.0000
  C   C60       1.0  0.64190  0.29946  0.72979  1.0000
  C   C61       1.0  0.41509  0.57371  0.79038  1.0000
  C   C62       1.0  0.42647  0.85065  0.76332  1.0000
  C   C63       1.0  0.14799  0.57412  0.69634  1.0000
  C   C64       1.0  0.59152  0.44405  0.71915  1.0000
  C   C65       1.0  0.55835  0.14800  0.70778  1.0000
  C   C66       1.0  0.83990  0.41302  0.82286  1.0000
  C   C67       1.0  0.45480  0.56345  0.85133  1.0000
  C   C68       1.0  0.44480  0.90384  0.69528  1.0000
  C   C69       1.0  0.08749  0.53493  0.77366  1.0000
  C   C70       1.0  0.54537  0.45350  0.70530  1.0000
  C   C71       1.0  0.55023  0.09281  0.72415  1.0000
  C   C72       1.0  0.89835  0.45820  0.81373  1.0000
  C   C73       1.0  0.43604  0.52571  0.81152  1.0000
  C   C74       1.0  0.48085  0.91848  0.69986  1.0000
  C   C75       1.0  0.07271  0.55523  0.76333  1.0000
  C   C76       1.0  0.56396  0.48744  0.66665  1.0000
  C   C77       1.0  0.51329  0.07923  0.81760  1.0000
  C   C78       1.0  0.91805  0.43638  0.72707  1.0000
  C   C79       1.0  0.45029  0.50216  0.79217  1.0000
  C   C80       1.0  0.50350  0.95518  0.71302  1.0000
  C   C81       1.0  0.03632  0.54109  0.76626  1.0000
  C   C82       1.0  0.54523  0.50778  0.69570  1.0000
  C   C83       1.0  0.49448  0.04299  0.82500  1.0000
  C   C84       1.0  0.95515  0.45069  0.71303  1.0000
  C   C85       1.0  0.48607  0.51655  0.81079  1.0000
  C   C86       1.0  0.49057  0.97891  0.71592  1.0000
  C   C87       1.0  0.01304  0.50498  0.77900  1.0000
  C   C88       1.0  0.50682  0.49515  0.76800  1.0000
  C   C89       1.0  0.51142  0.01824  0.72916  1.0000
  C   C90       1.0  0.97389  0.48802  0.79014  1.0000
  C   C91       1.0  0.50270  0.55464  0.86968  1.0000
  C   C92       1.0  0.45533  0.96280  0.69370  1.0000
  C   C93       1.0  0.02799  0.48575  0.79836  1.0000
  C   C94       1.0  0.48928  0.46141  0.80747  1.0000
  C   C95       1.0  0.54831  0.03238  0.63477  1.0000
  C   C96       1.0  0.95280  0.50870  0.88878  1.0000
  C   C97       1.0  0.48808  0.57766  0.88937  1.0000
  C   C98       1.0  0.43275  0.92655  0.68487  1.0000
  C   C99       1.0  0.06398  0.50004  0.79792  1.0000
  C   C100      1.0  0.50753  0.44089  0.77476  1.0000
  C   C101      1.0  0.56759  0.06872  0.63657  1.0000
  C   C102      1.0  0.91643  0.49479  0.89726  1.0000
  C   C103      1.0  0.42352  0.46356  0.76003  1.0000
  C   C104      1.0  0.53966  0.96427  0.72809  1.0000
  C   C105      1.0  0.02621  0.56865  0.76766  1.0000
  C   C106      1.0  0.56955  0.54457  0.66594  1.0000
  C   C107      1.0  0.45691  0.03398  0.94739  1.0000
  C   C108      1.0  0.97083  0.42288  0.61981  1.0000
  N   N1        1.0  0.31734  0.63189  0.25822  1.0000
  N   N2        1.0  0.37267  0.68412  0.28153  1.0000
  N   N3        1.0  0.32462  0.68739  0.23923  1.0000
  N   N4        1.0  0.69094  0.37174  0.24442  1.0000
  N   N5        1.0  0.63665  0.31858  0.21314  1.0000
  N   N6        1.0  0.68486  0.31617  0.25742  1.0000
  N   N7        1.0  0.43767  0.57304  0.35102  1.0000
  N   N8        1.0  0.43703  0.87022  0.20758  1.0000
  N   N9        1.0  0.13336  0.56026  0.27399  1.0000
  N   N10       1.0  0.55452  0.42029  0.23633  1.0000
  N   N11       1.0  0.57887  0.13326  0.25080  1.0000
  N   N12       1.0  0.87252  0.44834  0.28076  1.0000
  N   N13       1.0  0.30984  0.63037  0.76021  1.0000
  N   N14       1.0  0.36344  0.68483  0.77597  1.0000
  N   N15       1.0  0.31288  0.68327  0.73265  1.0000
  N   N16       1.0  0.68267  0.37011  0.74171  1.0000
  N   N17       1.0  0.62701  0.31823  0.71822  1.0000
  N   N18       1.0  0.67572  0.31367  0.74671  1.0000
  N   N19       1.0  0.44158  0.58721  0.86140  1.0000
  N   N20       1.0  0.42093  0.86760  0.69196  1.0000
  N   N21       1.0  0.12358  0.54884  0.77687  1.0000
  N   N22       1.0  0.56087  0.43096  0.68409  1.0000
  N   N23       1.0  0.57131  0.12911  0.72109  1.0000
  N   N24       1.0  0.86239  0.44573  0.81361  1.0000
  O   O1        1.0  0.39149  0.43821  0.27946  1.0000
  O   O2        1.0  0.56741  0.96979  0.31352  1.0000
  O   O3        1.0  0.02386  0.59826  0.43902  1.0000
  O   O4        1.0  0.60015  0.52449  0.00115  1.0000
  O   O5        1.0  0.44413  0.05001  0.44134  1.0000
  O   O6        1.0  0.01240  0.43256  0.99336  1.0000
  O   O7        1.0  0.44149  0.42634  0.12333  1.0000
  O   O8        1.0  0.57871  0.97247  0.03043  1.0000
  O   O9        1.0  0.02677  0.57335  0.14022  1.0000
  O   O10       1.0  0.55533  0.54118  0.06561  1.0000
  O   O11       1.0  0.45320  0.01902  0.56037  1.0000
  O   O12       1.0  0.95977  0.39677  0.15161  1.0000
  O   O13       1.0  0.41514  0.44048  0.83221  1.0000
  O   O14       1.0  0.55368  0.94260  0.66387  1.0000
  O   O15       1.0  0.03723  0.60024  0.85830  1.0000
  O   O16       1.0  0.59115  0.56755  0.75706  1.0000
  O   O17       1.0  0.43461  0.04310  0.95161  1.0000
  O   O18       1.0  0.95627  0.39374  0.65600  1.0000
  O   O19       1.0  0.40543  0.45637  0.64160  1.0000
  O   O20       1.0  0.55505  0.99826  0.83039  1.0000
  O   O21       1.0  0.00585  0.55703  0.65584  1.0000
  O   O22       1.0  0.56777  0.55101  0.52713  1.0000
  O   O23       1.0  0.45016  0.01654  0.06612  1.0000
  O   O24       1.0  0.00223  0.43140  0.48397  1.0000
  C   C109      1.0  0.40593  0.64304  0.34932  1.0000
  C   C110      1.0  0.37598  0.63202  0.29004  1.0000
  C  Sn1       1.0  0.35408  0.59526  0.23880  1.0000
  C  Sn2       1.0  0.36238  0.56912  0.24724  1.0000
  C   C111      1.0  0.39239  0.58043  0.30686  1.0000
  C   C112      1.0  0.41414  0.61727  0.35776  1.0000
  H   H61       1.0  0.42275  0.67154  0.38880  1.0000
  O  Te1       1.0  0.32426  0.58472  0.17984  1.0000
  O  Te2       1.0  0.34094  0.53222  0.19690  1.0000
  H   H62       1.0  0.43731  0.62580  0.40376  1.0000
  Mg  Mg1       1.0  0.30321  0.53126  0.12564  1.0000
  C   C113      1.0  0.43493  0.78605  0.29185  1.0000
  C   C114      1.0  0.42713  0.80930  0.25833  1.0000
  C  Sn3       1.0  0.39367  0.79746  0.22900  1.0000
  C  Sn4       1.0  0.36760  0.76166  0.23345  1.0000
  C   C115      1.0  0.37566  0.73862  0.26721  1.0000
  C   C116      1.0  0.40922  0.75075  0.29632  1.0000
  H   H63       1.0  0.46089  0.79543  0.31447  1.0000
  O  Te3       1.0  0.38633  0.82103  0.19564  1.0000
  O  Te4       1.0  0.33395  0.74914  0.20466  1.0000
  H   H64       1.0  0.41525  0.73275  0.32238  1.0000
  Mg  Mg2       1.0  0.33663  0.79141  0.16446  1.0000
  C   C117      1.0  0.21702  0.58270  0.23597  1.0000
  C   C118      1.0  0.19748  0.59845  0.22770  1.0000
  C  Sn5       1.0  0.21482  0.63367  0.20801  1.0000
  C  Sn6       1.0  0.25242  0.65342  0.19639  1.0000
  C   C119      1.0  0.27173  0.63741  0.20467  1.0000
  C   C120      1.0  0.25411  0.60216  0.22444  1.0000
  H   H65       1.0  0.20339  0.55542  0.25117  1.0000
  O  Te5       1.0  0.19490  0.64900  0.20004  1.0000
  O  Te6       1.0  0.27043  0.68866  0.17661  1.0000
  H   H66       1.0  0.26924  0.58996  0.23073  1.0000
  Mg  Mg3       1.0  0.23157  0.69783  0.17246  1.0000
  C   C121      1.0  0.65889  0.42146  0.24853  1.0000
  C   C122      1.0  0.64531  0.38436  0.22886  1.0000
  C  Sn7       1.0  0.61124  0.36131  0.19679  1.0000
  C  Sn8       1.0  0.59045  0.37574  0.18419  1.0000
  C   C123      1.0  0.60429  0.41289  0.20394  1.0000
  C   C124      1.0  0.63841  0.43571  0.23605  1.0000
  H   H67       1.0  0.68530  0.43911  0.27327  1.0000
  O  Te7       1.0  0.59807  0.32432  0.17754  1.0000
  O  Te8       1.0  0.55632  0.35332  0.15216  1.0000
  H   H68       1.0  0.64893  0.46442  0.25116  1.0000
  Mg  Mg4       1.0  0.55007  0.30475  0.13549  1.0000
  C   C125      1.0  0.63137  0.21487  0.26139  1.0000
  C   C126      1.0  0.59646  0.19301  0.23821  1.0000
  C  Sn9       1.0  0.57860  0.20657  0.20023  1.0000
  C  Sn10      1.0  0.59608  0.24269  0.18521  1.0000
  C   C127      1.0  0.63101  0.26433  0.20850  1.0000
  C   C128      1.0  0.64863  0.25050  0.24653  1.0000
  H   H69       1.0  0.64501  0.20416  0.29071  1.0000
  O  Te9       1.0  0.54372  0.18437  0.17753  1.0000
  O  Te10      1.0  0.57885  0.25693  0.14728  1.0000
  H   H70       1.0  0.67567  0.26742  0.26435  1.0000
  Mg  Mg5       1.0  0.53141  0.21608  0.12769  1.0000
  C   C129      1.0  0.77179  0.41316  0.26933  1.0000
  C   C130      1.0  0.74617  0.37772  0.26913  1.0000
  C  Sn11      1.0  0.75414  0.35357  0.29386  1.0000
  C  Sn12      1.0  0.78841  0.36519  0.31929  1.0000
  C   C131      1.0  0.81385  0.40071  0.31940  1.0000
  C   C132      1.0  0.80559  0.42465  0.29447  1.0000
  H   H71       1.0  0.76540  0.43170  0.25014  1.0000
  O  Te11      1.0  0.72824  0.31825  0.29322  1.0000
  O  Te12      1.0  0.79708  0.34161  0.34438  1.0000
  H   H72       1.0  0.82542  0.45210  0.29475  1.0000
  Mg  Mg6       1.0  0.75279  0.29616  0.33277  1.0000
  C   C133      1.0  0.40213  0.65095  0.85232  1.0000
  C   C134      1.0  0.37170  0.63672  0.79016  1.0000
  C  Sn13      1.0  0.35247  0.59930  0.73770  1.0000
  C  Sn14      1.0  0.36398  0.57576  0.74785  1.0000
  C   C135      1.0  0.39444  0.59028  0.81035  1.0000
  C   C136      1.0  0.41349  0.62776  0.86245  1.0000
  H   H73       1.0  0.41686  0.67996  0.89273  1.0000
  O  Te13      1.0  0.32213  0.58552  0.67585  1.0000
  O  Te14      1.0  0.34525  0.53826  0.69635  1.0000
  H   H74       1.0  0.43704  0.63878  0.91068  1.0000
  Mg  Mg7       1.0  0.30556  0.53249  0.62105  1.0000
  C   C137      1.0  0.41864  0.78698  0.80507  1.0000
  C   C138      1.0  0.41023  0.80853  0.76195  1.0000
  C  Sn15      1.0  0.37786  0.79425  0.71640  1.0000
  C  Sn16      1.0  0.35351  0.75771  0.71414  1.0000
  C   C139      1.0  0.36216  0.73638  0.75762  1.0000
  C   C140      1.0  0.39464  0.75094  0.80295  1.0000
  H   H75       1.0  0.44376  0.79825  0.84024  1.0000
  O  Te15      1.0  0.36988  0.81616  0.67360  1.0000
  O  Te16      1.0  0.32097  0.74276  0.66917  1.0000
  H   H76       1.0  0.40113  0.73426  0.83644  1.0000
  Mg  Mg8       1.0  0.32219  0.78343  0.62102  1.0000
  C   C141      1.0  0.23549  0.64428  0.66909  1.0000
  C   C142      1.0  0.25399  0.63478  0.72712  1.0000
  C  Sn17      1.0  0.23766  0.60144  0.76732  1.0000
  C  Sn18      1.0  0.20214  0.57722  0.74889  1.0000
  C   C143      1.0  0.18387  0.58697  0.69062  1.0000
  C   C144      1.0  0.20047  0.62041  0.65082  1.0000
  H   H77       1.0  0.24833  0.67014  0.63820  1.0000
  O  Te17      1.0  0.25652  0.59238  0.82520  1.0000
  O  Te18      1.0  0.18519  0.54372  0.78809  1.0000
  H   H78       1.0  0.18614  0.62775  0.60577  1.0000
  Mg  Mg9       1.0  0.22194  0.54365  0.86235  1.0000
  C   C145      1.0  0.59355  0.36125  0.66614  1.0000
  C   C146      1.0  0.62644  0.37119  0.69600  1.0000
  C  Sn19      1.0  0.64941  0.40769  0.74293  1.0000
  C  Sn20      1.0  0.63918  0.43467  0.76024  1.0000
  C   C147      1.0  0.60621  0.42444  0.73021  1.0000
  C   C148      1.0  0.58344  0.38784  0.68325  1.0000
  H   H79       1.0  0.57591  0.33293  0.62990  1.0000
  O  Te19      1.0  0.68217  0.41715  0.77221  1.0000
  O  Te20      1.0  0.66162  0.47135  0.80706  1.0000
  H   H80       1.0  0.55797  0.38015  0.66026  1.0000
  Mg  Mg10      1.0  0.70356  0.47071  0.83323  1.0000
  C   C149      1.0  0.56433  0.21554  0.71100  1.0000
  C   C150      1.0  0.57551  0.19050  0.70262  1.0000
  C  Sn21      1.0  0.61034  0.20179  0.71414  1.0000
  C  Sn22      1.0  0.63436  0.23885  0.73447  1.0000
  C   C151      1.0  0.62291  0.26369  0.74284  1.0000
  C   C152      1.0  0.58800  0.25210  0.73112  1.0000
  H   H81       1.0  0.53731  0.20658  0.70203  1.0000
  O  Te21      1.0  0.62108  0.17641  0.70546  1.0000
  O  Te22      1.0  0.66932  0.25086  0.74639  1.0000
  H   H82       1.0  0.57934  0.27150  0.73773  1.0000
  Mg  Mg11      1.0  0.67141  0.20597  0.72774  1.0000
  C   C153      1.0  0.76337  0.41030  0.76820  1.0000
  C   C154      1.0  0.73765  0.37475  0.76296  1.0000
  C  Sn23      1.0  0.74488  0.35015  0.78851  1.0000
  C  Sn24      1.0  0.77851  0.36143  0.81990  1.0000
  C   C155      1.0  0.80405  0.39706  0.82502  1.0000
  C   C156      1.0  0.79654  0.42145  0.79923  1.0000
  H   H83       1.0  0.75756  0.42918  0.74834  1.0000
  O  Te23      1.0  0.71889  0.31473  0.78279  1.0000
  O  Te24      1.0  0.78644  0.33741  0.84594  1.0000
  H   H84       1.0  0.81645  0.44898  0.80340  1.0000
  Mg  Mg12      1.0  0.74231  0.29198  0.82597  1.0000
