data_image0
_chemical_formula_structural       H48C72N12O6SnCSn2CSnTe4Mg2SnCSn2CSnTe4Mg2SnCSn2CSnTe4Mg2SnCSn2CSnTe4Mg2SnCSn2CSnTe4Mg2SnCSn2CSnTe4Mg2
_chemical_formula_sum              "H48 C84 N12 O6 Sn24 Te24 Mg12"
_cell_length_a       29.9248
_cell_length_b       29.9159
_cell_length_c       8.09094
_cell_angle_alpha    85.4745
_cell_angle_beta     118.088
_cell_angle_gamma    119.871

_symmetry_space_group_name_H-M    'P1'
_space_group_IT_number       1

loop_
  _space_group_symop_operation_xyz
  'x, y, z'

loop_
  _atom_site_type_symbol
  _atom_site_label
  _atom_site_symmetry_multiplicity
  _atom_site_fract_x
  _atom_site_fract_y
  _atom_site_fract_z
  _atom_site_occupancy
  H   H1        1.0  0.28066  0.57437  0.31565  1.0000
  H   H2        1.0  0.43376  0.69424  0.28393  1.0000
  H   H3        1.0  0.31466  0.73166  0.30006  1.0000
  H   H4        1.0  0.44065  0.63612  0.26972  1.0000
  H   H5        1.0  0.36013  0.79258  0.22971  1.0000
  H   H6        1.0  0.20604  0.56417  0.25843  1.0000
  H   H7        1.0  0.50546  0.63108  0.21955  1.0000
  H   H8        1.0  0.54885  0.58177  0.20040  1.0000
  H   H9        1.0  0.42078  0.44541  0.29193  1.0000
  H   H10       1.0  0.37571  0.49536  0.30786  1.0000
  H   H11       1.0  0.72394  0.42345  0.22816  1.0000
  H   H12       1.0  0.57454  0.29154  0.24100  1.0000
  H   H13       1.0  0.70035  0.27070  0.19418  1.0000
  H   H14       1.0  0.52167  0.21663  0.18132  1.0000
  H   H15       1.0  0.79682  0.31610  0.36781  1.0000
  H   H16       1.0  0.46592  0.12316  0.18398  1.0000
  H   H17       1.0  0.89627  0.35804  0.39899  1.0000
  H   H18       1.0  0.60638  0.10596  0.24177  1.0000
  H   H19       1.0  0.87546  0.48213  0.13910  1.0000
  H   H20       1.0  0.66520  0.20091  0.25327  1.0000
  H   H21       1.0  0.77439  0.43896  0.09884  1.0000
  H   H22       1.0  0.57755  0.53302  0.19304  1.0000
  H   H23       1.0  0.46056  0.04005  0.23393  1.0000
  H   H24       1.0  0.97509  0.42682  0.35452  1.0000
  H   H25       1.0  0.27649  0.58034  0.82799  1.0000
  H   H26       1.0  0.42656  0.69781  0.77623  1.0000
  H   H27       1.0  0.30851  0.73668  0.79210  1.0000
  H   H28       1.0  0.43264  0.63961  0.76279  1.0000
  H   H29       1.0  0.36165  0.80139  0.76190  1.0000
  H   H30       1.0  0.19928  0.56972  0.75240  1.0000
  H   H31       1.0  0.50379  0.63632  0.74577  1.0000
  H   H32       1.0  0.11833  0.49514  0.71712  1.0000
  H   H33       1.0  0.54802  0.58656  0.73665  1.0000
  H   H34       1.0  0.02065  0.44954  0.70027  1.0000
  H   H35       1.0  0.41024  0.44776  0.78108  1.0000
  H   H36       1.0  0.04591  0.59877  0.84075  1.0000
  H   H37       1.0  0.36364  0.49775  0.78231  1.0000
  H   H38       1.0  0.14630  0.64517  0.86914  1.0000
  H   H39       1.0  0.71761  0.42824  0.73735  1.0000
  H   H40       1.0  0.55912  0.29183  0.68474  1.0000
  H   H41       1.0  0.69708  0.27641  0.70883  1.0000
  H   H42       1.0  0.53740  0.22531  0.79673  1.0000
  H   H43       1.0  0.48668  0.13196  0.81228  1.0000
  H   H44       1.0  0.58742  0.10657  0.63079  1.0000
  H   H45       1.0  0.63748  0.19975  0.60885  1.0000
  H   H46       1.0  0.56281  0.53164  0.66637  1.0000
  H   H47       1.0  0.48069  0.04802  0.81953  1.0000
  H   H48       1.0  0.96754  0.43079  0.84541  1.0000
  C   C1        1.0  0.35733  0.62848  0.29767  1.0000
  C   C2        1.0  0.37894  0.71835  0.28804  1.0000
  C   C3        1.0  0.29218  0.65276  0.30928  1.0000
  C   C4        1.0  0.30659  0.61508  0.30687  1.0000
  C   C5        1.0  0.39356  0.68036  0.29101  1.0000
  C   C6        1.0  0.32848  0.70430  0.29846  1.0000
  C   C7        1.0  0.36703  0.58422  0.28879  1.0000
  C   C8        1.0  0.41935  0.77171  0.26845  1.0000
  C   C9        1.0  0.23981  0.64263  0.32370  1.0000
  C   C10       1.0  0.48697  0.59025  0.23625  1.0000
  C   C11       1.0  0.51158  0.56234  0.22647  1.0000
  C   C12       1.0  0.48758  0.50919  0.24538  1.0000
  C   C13       1.0  0.43845  0.48607  0.27442  1.0000
  C   C14       1.0  0.41326  0.51363  0.28396  1.0000
  C   C15       1.0  0.43766  0.56640  0.26459  1.0000
  C   C16       1.0  0.64481  0.36146  0.22711  1.0000
  C   C17       1.0  0.63279  0.27389  0.21701  1.0000
  C   C18       1.0  0.71910  0.34988  0.21638  1.0000
  C   C19       1.0  0.69758  0.38169  0.22181  1.0000
  C   C20       1.0  0.61382  0.30757  0.22752  1.0000
  C   C21       1.0  0.68541  0.29581  0.20907  1.0000
  C   C22       1.0  0.54145  0.19335  0.19622  1.0000
  C   C23       1.0  0.81298  0.35161  0.31221  1.0000
  C   C24       1.0  0.50926  0.14005  0.19560  1.0000
  C   C25       1.0  0.86936  0.37568  0.33246  1.0000
  C   C26       1.0  0.53190  0.10764  0.20969  1.0000
  C   C27       1.0  0.89258  0.42315  0.27132  1.0000
  C   C28       1.0  0.58861  0.13093  0.22907  1.0000
  C   C29       1.0  0.85748  0.44573  0.18829  1.0000
  C   C30       1.0  0.62111  0.18433  0.23447  1.0000
  C   C31       1.0  0.80134  0.42153  0.16778  1.0000
  C   C32       1.0  0.59838  0.21715  0.21638  1.0000
  C   C33       1.0  0.77765  0.37395  0.22910  1.0000
  C   C34       1.0  0.55314  0.49309  0.21477  1.0000
  C   C35       1.0  0.49816  0.05203  0.21139  1.0000
  C   C36       1.0  0.95173  0.44822  0.29430  1.0000
  C   C37       1.0  0.35153  0.63318  0.79989  1.0000
  C   C38       1.0  0.37299  0.72288  0.78456  1.0000
  C   C39       1.0  0.28707  0.65826  0.81247  1.0000
  C   C40       1.0  0.30169  0.62054  0.81356  1.0000
  C   C41       1.0  0.38725  0.68459  0.78820  1.0000
  C   C42       1.0  0.32284  0.70934  0.79643  1.0000
  C   C43       1.0  0.36073  0.58862  0.79120  1.0000
  C   C44       1.0  0.41244  0.77533  0.75661  1.0000
  C   C45       1.0  0.23478  0.64819  0.82726  1.0000
  C   C46       1.0  0.48275  0.59466  0.75137  1.0000
  C   C47       1.0  0.10320  0.51786  0.75010  1.0000
  C   C48       1.0  0.50785  0.56655  0.74724  1.0000
  C   C49       1.0  0.04818  0.49225  0.73985  1.0000
  C   C50       1.0  0.48170  0.51274  0.75743  1.0000
  C   C51       1.0  0.02650  0.52120  0.77156  1.0000
  C   C52       1.0  0.42966  0.48897  0.77032  1.0000
  C   C53       1.0  0.06275  0.57649  0.81688  1.0000
  C   C54       1.0  0.40351  0.51647  0.77102  1.0000
  C   C55       1.0  0.11865  0.60255  0.83302  1.0000
  C   C56       1.0  0.43050  0.57007  0.76339  1.0000
  C   C57       1.0  0.13895  0.57318  0.79613  1.0000
  C   C58       1.0  0.63572  0.36430  0.71347  1.0000
  C   C59       1.0  0.62462  0.27732  0.70120  1.0000
  C   C60       1.0  0.71291  0.35478  0.71615  1.0000
  C   C61       1.0  0.69063  0.38597  0.72121  1.0000
  C   C62       1.0  0.60276  0.30962  0.69883  1.0000
  C   C63       1.0  0.67966  0.30071  0.70889  1.0000
  C   C64       1.0  0.54783  0.19963  0.75502  1.0000
  C   C65       1.0  0.51931  0.14679  0.76548  1.0000
  C   C66       1.0  0.53341  0.11261  0.72186  1.0000
  C   C67       1.0  0.57686  0.13304  0.66665  1.0000
  C   C68       1.0  0.60528  0.18572  0.65686  1.0000
  C   C69       1.0  0.59186  0.22057  0.70205  1.0000
  C   C70       1.0  0.54392  0.49453  0.71378  1.0000
  C   C71       1.0  0.50420  0.05773  0.73846  1.0000
  C   C72       1.0  0.94474  0.45273  0.78761  1.0000
  N   N1        1.0  0.41678  0.59812  0.27765  1.0000
  N   N2        1.0  0.39951  0.80615  0.23522  1.0000
  N   N3        1.0  0.19875  0.59036  0.29691  1.0000
  N   N4        1.0  0.50832  0.47670  0.24053  1.0000
  N   N5        1.0  0.51297  0.01979  0.19075  1.0000
  N   N6        1.0  0.97592  0.49346  0.25082  1.0000
  N   N7        1.0  0.40917  0.60177  0.77326  1.0000
  N   N8        1.0  0.39681  0.81212  0.74397  1.0000
  N   N9        1.0  0.19320  0.59589  0.79793  1.0000
  N   N10       1.0  0.50337  0.48049  0.75959  1.0000
  N   N11       1.0  0.50726  0.02289  0.66658  1.0000
  N   N12       1.0  0.97016  0.49884  0.75140  1.0000
  O   O1        1.0  0.33199  0.53905  0.29069  1.0000
  O   O2        1.0  0.46598  0.78235  0.27652  1.0000
  O   O3        1.0  0.23542  0.67948  0.35764  1.0000
  O   O4        1.0  0.32619  0.54382  0.79821  1.0000
  O   O5        1.0  0.45493  0.78325  0.74104  1.0000
  O   O6        1.0  0.23079  0.68507  0.86375  1.0000
  C  Sn1       1.0  0.55229  0.37502  0.18205  1.0000
  C   C73       1.0  0.60427  0.38920  0.18110  1.0000
  C  Sn2       1.0  0.64774  0.44221  0.21765  1.0000
  C  Sn3       1.0  0.63909  0.48188  0.25608  1.0000
  C   C74       1.0  0.58714  0.46769  0.25706  1.0000
  C  Sn4       1.0  0.54364  0.41469  0.22048  1.0000
  O  Te1       1.0  0.50943  0.32179  0.14513  1.0000
  O  Te2       1.0  0.69933  0.45542  0.21586  1.0000
  O  Te3       1.0  0.68201  0.53515  0.29301  1.0000
  O  Te4       1.0  0.49209  0.40148  0.22230  1.0000
  Mg  Mg1       1.0  0.74478  0.53336  0.27465  1.0000
  Mg  Mg2       1.0  0.44662  0.32355  0.16363  1.0000
  C  Sn5       1.0  0.49527  0.92156  0.14605  1.0000
  C   C75       1.0  0.47593  0.95585  0.14130  1.0000
  C  Sn6       1.0  0.43328  0.94273  0.19400  1.0000
  C  Sn7       1.0  0.40950  0.89435  0.25280  1.0000
  C   C76       1.0  0.42885  0.86010  0.25756  1.0000
  C  Sn8       1.0  0.47149  0.87318  0.20485  1.0000
  O  Te5       1.0  0.53794  0.93547  0.09277  1.0000
  O  Te6       1.0  0.41463  0.97764  0.18803  1.0000
  O  Te7       1.0  0.36680  0.88046  0.30610  1.0000
  O  Te8       1.0  0.49015  0.83830  0.21083  1.0000
  Mg  Mg3       1.0  0.35559  0.94107  0.27427  1.0000
  Mg  Mg4       1.0  0.54920  0.87485  0.12472  1.0000
  C  Sn9       1.0  0.49496  0.90332  0.75547  1.0000
  C   C77       1.0  0.44353  0.87314  0.76886  1.0000
  C  Sn10      1.0  0.40364  0.88994  0.71859  1.0000
  C  Sn11      1.0  0.41537  0.93789  0.65347  1.0000
  C   C78       1.0  0.46677  0.96803  0.64008  1.0000
  C  Sn12      1.0  0.50670  0.95127  0.69035  1.0000
  O  Te9       1.0  0.53422  0.88576  0.80647  1.0000
  O  Te10      1.0  0.35253  0.85911  0.73324  1.0000
  O  Te11      1.0  0.37606  0.95543  0.60246  1.0000
  O  Te12      1.0  0.55777  0.98207  0.67570  1.0000
  Mg  Mg5       1.0  0.31251  0.89967  0.64692  1.0000
  Mg  Mg6       1.0  0.59780  0.94153  0.76188  1.0000
  C  Sn13      1.0  0.60926  0.46985  0.62264  1.0000
  C   C79       1.0  0.56591  0.45901  0.66926  1.0000
  C  Sn14      1.0  0.54853  0.41801  0.76379  1.0000
  C  Sn15      1.0  0.57507  0.38720  0.81286  1.0000
  C   C80       1.0  0.61840  0.39805  0.76628  1.0000
  C  Sn16      1.0  0.63579  0.43904  0.67171  1.0000
  O  Te13      1.0  0.62595  0.51103  0.52813  1.0000
  O  Te14      1.0  0.50509  0.40791  0.80885  1.0000
  O  Te15      1.0  0.55834  0.34599  0.90744  1.0000
  O  Te16      1.0  0.67922  0.44915  0.62669  1.0000
  Mg  Mg7       1.0  0.49729  0.34758  0.93819  1.0000
  Mg  Mg8       1.0  0.68707  0.50948  0.49745  1.0000
  C  Sn17      1.0  0.11988  0.59470  0.38347  1.0000
  C   C81       1.0  0.14735  0.57217  0.35362  1.0000
  C  Sn18      1.0  0.11433  0.51960  0.26110  1.0000
  C  Sn19      1.0  0.05254  0.48891  0.19697  1.0000
  C   C82       1.0  0.02510  0.51144  0.22680  1.0000
  C  Sn20      1.0  0.05810  0.56401  0.31934  1.0000
  O  Te17      1.0  0.15377  0.64733  0.47628  1.0000
  O  Te18      1.0  0.14278  0.49794  0.23295  1.0000
  O  Te19      1.0  0.01866  0.43624  0.10411  1.0000
  O  Te20      1.0  0.02967  0.58567  0.34747  1.0000
  Mg  Mg9       1.0  0.07759  0.42453  0.09914  1.0000
  Mg  Mg10      1.0  0.09481  0.65907  0.48116  1.0000
  C  Sn21      1.0  0.82571  0.36576  0.86372  1.0000
  C   C83       1.0  0.78561  0.38296  0.78858  1.0000
  C  Sn22      1.0  0.79226  0.42122  0.67650  1.0000
  C  Sn23      1.0  0.83996  0.44272  0.63862  1.0000
  C   C84       1.0  0.88002  0.42552  0.71371  1.0000
  C  Sn24      1.0  0.87342  0.38726  0.82584  1.0000
  O  Te21      1.0  0.81821  0.32747  0.97539  1.0000
  O  Te22      1.0  0.75161  0.43780  0.60300  1.0000
  O  Te23      1.0  0.84743  0.48104  0.52685  1.0000
  O  Te24      1.0  0.91402  0.37068  0.89929  1.0000
  Mg  Mg11      1.0  0.78054  0.49084  0.45877  1.0000
  Mg  Mg12      1.0  0.72996  0.26166  0.04344  1.0000
