data_image0
_chemical_formula_structural       H24C36N12O6C2Sn2C2HTe2HMgC2Sn2C2HTe2HMgC2Sn2C2HTe2HMgC2Sn2C2HTe2HMgC2Sn2C2HTe2HMgC2Sn2C2HTe2HMgC2Sn2C2HTe2HMgC2Sn2C2HTe2HMgC2Sn2C2HTe2HMgC2Sn2C2HTe2HMgC2Sn2C2HTe2HMgC2Sn2C2HTe2HMg
_chemical_formula_sum              "H48 C84 N12 O6 Sn24 Te24 Mg12"
_cell_length_a       29.9248
_cell_length_b       29.9159
_cell_length_c       8.09094
_cell_angle_alpha    85.4745
_cell_angle_beta     118.088
_cell_angle_gamma    119.871

_symmetry_space_group_name_H-M    'P1'
_space_group_IT_number       1

loop_
  _space_group_symop_operation_xyz
  'x, y, z'

loop_
  _atom_site_type_symbol
  _atom_site_label
  _atom_site_symmetry_multiplicity
  _atom_site_fract_x
  _atom_site_fract_y
  _atom_site_fract_z
  _atom_site_occupancy
  H   H1        1.0  0.28066  0.57437  0.31565  1.0000
  H   H2        1.0  0.43376  0.69424  0.28393  1.0000
  H   H3        1.0  0.31466  0.73166  0.30006  1.0000
  H   H4        1.0  0.44065  0.63612  0.26972  1.0000
  H   H5        1.0  0.36013  0.79258  0.22971  1.0000
  H   H6        1.0  0.20604  0.56417  0.25843  1.0000
  H   H7        1.0  0.72394  0.42345  0.22816  1.0000
  H   H8        1.0  0.57454  0.29154  0.24100  1.0000
  H   H9        1.0  0.70035  0.27070  0.19418  1.0000
  H   H10       1.0  0.57755  0.53302  0.19304  1.0000
  H   H11       1.0  0.46056  0.04005  0.23393  1.0000
  H   H12       1.0  0.97509  0.42682  0.35452  1.0000
  H   H13       1.0  0.27649  0.58034  0.82799  1.0000
  H   H14       1.0  0.42656  0.69781  0.77623  1.0000
  H   H15       1.0  0.30851  0.73668  0.79210  1.0000
  H   H16       1.0  0.43264  0.63961  0.76279  1.0000
  H   H17       1.0  0.36165  0.80139  0.76190  1.0000
  H   H18       1.0  0.19928  0.56972  0.75240  1.0000
  H   H19       1.0  0.71761  0.42824  0.73735  1.0000
  H   H20       1.0  0.55912  0.29183  0.68474  1.0000
  H   H21       1.0  0.69708  0.27641  0.70883  1.0000
  H   H22       1.0  0.56281  0.53164  0.66637  1.0000
  H   H23       1.0  0.48069  0.04802  0.81953  1.0000
  H   H24       1.0  0.96754  0.43079  0.84541  1.0000
  C   C1        1.0  0.35733  0.62848  0.29767  1.0000
  C   C2        1.0  0.37894  0.71835  0.28804  1.0000
  C   C3        1.0  0.29218  0.65276  0.30928  1.0000
  C   C4        1.0  0.30659  0.61508  0.30687  1.0000
  C   C5        1.0  0.39356  0.68036  0.29101  1.0000
  C   C6        1.0  0.32848  0.70430  0.29846  1.0000
  C   C7        1.0  0.36703  0.58422  0.28879  1.0000
  C   C8        1.0  0.41935  0.77171  0.26845  1.0000
  C   C9        1.0  0.23981  0.64263  0.32370  1.0000
  C   C10       1.0  0.64481  0.36146  0.22711  1.0000
  C   C11       1.0  0.63279  0.27389  0.21701  1.0000
  C   C12       1.0  0.71910  0.34988  0.21638  1.0000
  C   C13       1.0  0.69758  0.38169  0.22181  1.0000
  C   C14       1.0  0.61382  0.30757  0.22752  1.0000
  C   C15       1.0  0.68541  0.29581  0.20907  1.0000
  C   C16       1.0  0.55314  0.49309  0.21477  1.0000
  C   C17       1.0  0.49816  0.05203  0.21139  1.0000
  C   C18       1.0  0.95173  0.44822  0.29430  1.0000
  C   C19       1.0  0.35153  0.63318  0.79989  1.0000
  C   C20       1.0  0.37299  0.72288  0.78456  1.0000
  C   C21       1.0  0.28707  0.65826  0.81247  1.0000
  C   C22       1.0  0.30169  0.62054  0.81356  1.0000
  C   C23       1.0  0.38725  0.68459  0.78820  1.0000
  C   C24       1.0  0.32284  0.70934  0.79643  1.0000
  C   C25       1.0  0.36073  0.58862  0.79120  1.0000
  C   C26       1.0  0.41244  0.77533  0.75661  1.0000
  C   C27       1.0  0.23478  0.64819  0.82726  1.0000
  C   C28       1.0  0.63572  0.36430  0.71347  1.0000
  C   C29       1.0  0.62462  0.27732  0.70120  1.0000
  C   C30       1.0  0.71291  0.35478  0.71615  1.0000
  C   C31       1.0  0.69063  0.38597  0.72121  1.0000
  C   C32       1.0  0.60276  0.30962  0.69883  1.0000
  C   C33       1.0  0.67966  0.30071  0.70889  1.0000
  C   C34       1.0  0.54392  0.49453  0.71378  1.0000
  C   C35       1.0  0.50420  0.05773  0.73846  1.0000
  C   C36       1.0  0.94474  0.45273  0.78761  1.0000
  N   N1        1.0  0.41678  0.59812  0.27765  1.0000
  N   N2        1.0  0.39951  0.80615  0.23522  1.0000
  N   N3        1.0  0.19875  0.59036  0.29691  1.0000
  N   N4        1.0  0.50832  0.47670  0.24053  1.0000
  N   N5        1.0  0.51297  0.01979  0.19075  1.0000
  N   N6        1.0  0.97592  0.49346  0.25082  1.0000
  N   N7        1.0  0.40917  0.60177  0.77326  1.0000
  N   N8        1.0  0.39681  0.81212  0.74397  1.0000
  N   N9        1.0  0.19320  0.59589  0.79793  1.0000
  N   N10       1.0  0.50337  0.48049  0.75959  1.0000
  N   N11       1.0  0.50726  0.02289  0.66658  1.0000
  N   N12       1.0  0.97016  0.49884  0.75140  1.0000
  O   O1        1.0  0.33199  0.53905  0.29069  1.0000
  O   O2        1.0  0.46598  0.78235  0.27652  1.0000
  O   O3        1.0  0.23542  0.67948  0.35764  1.0000
  O   O4        1.0  0.32619  0.54382  0.79821  1.0000
  O   O5        1.0  0.45493  0.78325  0.74104  1.0000
  O   O6        1.0  0.23079  0.68507  0.86375  1.0000
  C   C37       1.0  0.42792  0.48671  0.28543  1.0000
  C   C38       1.0  0.47316  0.50190  0.24327  1.0000
  C  Sn1       1.0  0.50345  0.55308  0.21780  1.0000
  C  Sn2       1.0  0.48809  0.58965  0.23501  1.0000
  C   C39       1.0  0.44279  0.57408  0.27736  1.0000
  C   C40       1.0  0.41276  0.52276  0.30249  1.0000
  H   H25       1.0  0.40470  0.44702  0.30498  1.0000
  O  Te1       1.0  0.54852  0.56759  0.17568  1.0000
  O  Te2       1.0  0.51766  0.64105  0.21034  1.0000
  H   H26       1.0  0.37776  0.51102  0.33526  1.0000
  Mg  Mg1       1.0  0.57587  0.64212  0.15465  1.0000
  C   C41       1.0  0.40152  0.90005  0.20985  1.0000
  C   C42       1.0  0.41811  0.86429  0.20397  1.0000
  C  Sn3       1.0  0.47019  0.88122  0.19935  1.0000
  C  Sn4       1.0  0.50623  0.93497  0.20071  1.0000
  C   C43       1.0  0.48926  0.97044  0.20675  1.0000
  C   C44       1.0  0.43705  0.95308  0.21128  1.0000
  H   H27       1.0  0.36114  0.88663  0.21346  1.0000
  O  Te3       1.0  0.48610  0.84497  0.19342  1.0000
  O  Te4       1.0  0.55851  0.95295  0.19625  1.0000
  H   H28       1.0  0.42424  0.98078  0.21596  1.0000
  Mg  Mg2       1.0  0.56141  0.88848  0.18883  1.0000
  C   C45       1.0  0.08229  0.58365  0.32584  1.0000
  C   C46       1.0  0.03875  0.53002  0.26775  1.0000
  C  Sn5       1.0  0.05034  0.49341  0.22911  1.0000
  C  Sn6       1.0  0.10660  0.51093  0.24917  1.0000
  C   C47       1.0  0.14988  0.56467  0.30750  1.0000
  C   C48       1.0  0.13781  0.60097  0.34574  1.0000
  H   H29       1.0  0.07297  0.61174  0.35553  1.0000
  O  Te5       1.0  0.00632  0.43997  0.17114  1.0000
  O  Te6       1.0  0.11937  0.47518  0.21155  1.0000
  H   H30       1.0  0.17154  0.64249  0.39083  1.0000
  Mg  Mg3       1.0  0.04493  0.40644  0.13649  1.0000
  C   C49       1.0  0.65259  0.46194  0.21537  1.0000
  C   C50       1.0  0.63340  0.41039  0.24479  1.0000
  C  Sn7       1.0  0.58142  0.38129  0.25558  1.0000
  C  Sn8       1.0  0.54812  0.40432  0.23647  1.0000
  C   C51       1.0  0.56768  0.45590  0.20694  1.0000
  C   C52       1.0  0.61977  0.48467  0.19643  1.0000
  H   H31       1.0  0.69287  0.48419  0.20713  1.0000
  O  Te7       1.0  0.56289  0.32985  0.28510  1.0000
  O  Te8       1.0  0.49600  0.37612  0.24661  1.0000
  H   H32       1.0  0.63460  0.52457  0.17353  1.0000
  Mg  Mg4       1.0  0.48894  0.30732  0.28864  1.0000
  C   C53       1.0  0.51081  0.15325  0.19711  1.0000
  C   C54       1.0  0.52421  0.11446  0.20127  1.0000
  C  Sn9       1.0  0.57861  0.12787  0.22096  1.0000
  C  Sn10      1.0  0.62029  0.18114  0.23680  1.0000
  C   C55       1.0  0.60648  0.21965  0.23262  1.0000
  C   C56       1.0  0.55190  0.20580  0.21280  1.0000
  H   H33       1.0  0.46860  0.14254  0.18188  1.0000
  O  Te9       1.0  0.59128  0.08863  0.22478  1.0000
  O  Te10      1.0  0.67500  0.19563  0.25669  1.0000
  H   H34       1.0  0.54155  0.23584  0.20971  1.0000
  Mg  Mg5       1.0  0.67177  0.12794  0.25428  1.0000
  C   C57       1.0  0.82606  0.35059  0.32350  1.0000
  C   C58       1.0  0.78718  0.36902  0.26017  1.0000
  C  Sn11      1.0  0.80059  0.41531  0.18866  1.0000
  C  Sn12      1.0  0.85393  0.44358  0.18053  1.0000
  C   C59       1.0  0.89251  0.42479  0.24410  1.0000
  C   C60       1.0  0.87867  0.37844  0.31545  1.0000
  H   H35       1.0  0.81534  0.31471  0.37861  1.0000
  O  Te11      1.0  0.76126  0.43317  0.12605  1.0000
  O  Te12      1.0  0.86841  0.48994  0.10965  1.0000
  H   H36       1.0  0.90876  0.36416  0.36436  1.0000
  Mg  Mg6       1.0  0.80060  0.49840  0.04135  1.0000
  C   C61       1.0  0.40221  0.50342  0.76782  1.0000
  C   C62       1.0  0.42318  0.55702  0.77175  1.0000
  C  Sn13      1.0  0.47451  0.58948  0.75972  1.0000
  C  Sn14      1.0  0.50531  0.56777  0.74340  1.0000
  C   C63       1.0  0.48394  0.51409  0.73945  1.0000
  C   C64       1.0  0.43254  0.48196  0.75166  1.0000
  H   H37       1.0  0.36242  0.47855  0.77716  1.0000
  O  Te13      1.0  0.49487  0.64295  0.76393  1.0000
  O  Te14      1.0  0.55671  0.59931  0.73106  1.0000
  H   H38       1.0  0.41629  0.44046  0.74848  1.0000
  Mg  Mg7       1.0  0.56694  0.66989  0.74288  1.0000
  C   C65       1.0  0.50265  0.92798  0.69165  1.0000
  C   C66       1.0  0.48212  0.96225  0.66877  1.0000
  C  Sn15      1.0  0.43139  0.94680  0.68008  1.0000
  C  Sn16      1.0  0.40075  0.89609  0.71501  1.0000
  C   C67       1.0  0.42167  0.86211  0.73784  1.0000
  C   C68       1.0  0.47247  0.87796  0.72619  1.0000
  H   H39       1.0  0.54197  0.94025  0.68274  1.0000
  O  Te15      1.0  0.41147  0.98152  0.65680  1.0000
  O  Te16      1.0  0.34994  0.87965  0.72707  1.0000
  H   H40       1.0  0.48837  0.85143  0.74404  1.0000
  Mg  Mg8       1.0  0.34014  0.94106  0.68546  1.0000
  C   C69       1.0  0.07736  0.58904  0.83223  1.0000
  C   C70       1.0  0.03335  0.53553  0.77008  1.0000
  C  Sn17      1.0  0.04450  0.49902  0.72771  1.0000
  C  Sn18      1.0  0.10081  0.51651  0.74814  1.0000
  C   C71       1.0  0.14455  0.57012  0.81055  1.0000
  C   C72       1.0  0.13291  0.60632  0.85249  1.0000
  H   H41       1.0  0.06837  0.61705  0.86479  1.0000
  O  Te17      1.0  0.00003  0.44571  0.66571  1.0000
  O  Te18      1.0  0.11315  0.48086  0.70685  1.0000
  H   H42       1.0  0.16701  0.64774  0.90073  1.0000
  Mg  Mg9       1.0  0.03816  0.41228  0.62700  1.0000
  C   C73       1.0  0.55752  0.38227  0.77431  1.0000
  C   C74       1.0  0.60024  0.39188  0.72623  1.0000
  C  Sn19      1.0  0.62942  0.43975  0.67809  1.0000
  C  Sn20      1.0  0.61548  0.47867  0.67826  1.0000
  C   C75       1.0  0.57271  0.46869  0.72671  1.0000
  C   C76       1.0  0.54377  0.42064  0.77459  1.0000
  H   H43       1.0  0.53514  0.34511  0.81146  1.0000
  O  Te19      1.0  0.67196  0.44870  0.63034  1.0000
  O  Te20      1.0  0.64399  0.52687  0.63079  1.0000
  H   H44       1.0  0.51072  0.41323  0.81193  1.0000
  Mg  Mg10      1.0  0.69871  0.52054  0.57592  1.0000
  C   C77       1.0  0.53554  0.18836  0.76044  1.0000
  C   C78       1.0  0.58247  0.21663  0.72325  1.0000
  C  Sn21      1.0  0.60362  0.19072  0.67262  1.0000
  C  Sn22      1.0  0.57719  0.13549  0.65903  1.0000
  C   C79       1.0  0.53023  0.10756  0.69638  1.0000
  C   C80       1.0  0.50943  0.13388  0.74699  1.0000
  H   H45       1.0  0.51942  0.20872  0.79950  1.0000
  O  Te21      1.0  0.65056  0.21957  0.63602  1.0000
  O  Te22      1.0  0.59745  0.10860  0.60864  1.0000
  H   H46       1.0  0.47306  0.11198  0.77565  1.0000
  Mg  Mg11      1.0  0.66255  0.16521  0.57249  1.0000
  C   C81       1.0  0.81861  0.35440  0.81162  1.0000
  C   C82       1.0  0.78051  0.37350  0.75564  1.0000
  C  Sn23      1.0  0.79421  0.42047  0.68865  1.0000
  C  Sn24      1.0  0.84706  0.44876  0.67761  1.0000
  C   C83       1.0  0.88486  0.42931  0.73384  1.0000
  C   C84       1.0  0.87073  0.38227  0.80071  1.0000
  H   H47       1.0  0.80766  0.31799  0.86327  1.0000
  O  Te23      1.0  0.75566  0.43900  0.63336  1.0000
  O  Te24      1.0  0.86182  0.49581  0.61113  1.0000
  H   H48       1.0  0.90022  0.36748  0.84393  1.0000
  Mg  Mg12      1.0  0.79511  0.50501  0.55247  1.0000
