data_image0
_chemical_formula_structural       H48C72N12O6C2Sn2C2HTe2HMgC2Sn2C2HTe2HMgC2Sn2C2HTe2HMgC2Sn2C2HTe2HMgC2Sn2C2HTe2HMgC2Sn2C2HTe2HMg
_chemical_formula_sum              "H60 C96 N12 O6 Sn12 Te12 Mg6"
_cell_length_a       29.9248
_cell_length_b       29.9159
_cell_length_c       8.09094
_cell_angle_alpha    85.4745
_cell_angle_beta     118.088
_cell_angle_gamma    119.871

_symmetry_space_group_name_H-M    'P1'
_space_group_IT_number       1

loop_
  _space_group_symop_operation_xyz
  'x, y, z'

loop_
  _atom_site_type_symbol
  _atom_site_label
  _atom_site_symmetry_multiplicity
  _atom_site_fract_x
  _atom_site_fract_y
  _atom_site_fract_z
  _atom_site_occupancy
  H   H1        1.0  0.28066  0.57437  0.31565  1.0000
  H   H2        1.0  0.43376  0.69424  0.28393  1.0000
  H   H3        1.0  0.31466  0.73166  0.30006  1.0000
  H   H4        1.0  0.44065  0.63612  0.26972  1.0000
  H   H5        1.0  0.36013  0.79258  0.22971  1.0000
  H   H6        1.0  0.20604  0.56417  0.25843  1.0000
  H   H7        1.0  0.50546  0.63108  0.21955  1.0000
  H   H8        1.0  0.35992  0.86799  0.21231  1.0000
  H   H9        1.0  0.12464  0.48939  0.22215  1.0000
  H   H10       1.0  0.54885  0.58177  0.20040  1.0000
  H   H11       1.0  0.40575  0.96106  0.19085  1.0000
  H   H12       1.0  0.02654  0.44392  0.20282  1.0000
  H   H13       1.0  0.42078  0.44541  0.29193  1.0000
  H   H14       1.0  0.54794  0.95712  0.19510  1.0000
  H   H15       1.0  0.05085  0.59339  0.33433  1.0000
  H   H16       1.0  0.37571  0.49536  0.30786  1.0000
  H   H17       1.0  0.50172  0.86227  0.21903  1.0000
  H   H18       1.0  0.15098  0.63965  0.36052  1.0000
  H   H19       1.0  0.72394  0.42345  0.22816  1.0000
  H   H20       1.0  0.57454  0.29154  0.24100  1.0000
  H   H21       1.0  0.70035  0.27070  0.19418  1.0000
  H   H22       1.0  0.79682  0.31610  0.36781  1.0000
  H   H23       1.0  0.89627  0.35804  0.39899  1.0000
  H   H24       1.0  0.87546  0.48213  0.13910  1.0000
  H   H25       1.0  0.77439  0.43896  0.09884  1.0000
  H   H26       1.0  0.57755  0.53302  0.19304  1.0000
  H   H27       1.0  0.46056  0.04005  0.23393  1.0000
  H   H28       1.0  0.97509  0.42682  0.35452  1.0000
  H   H29       1.0  0.27649  0.58034  0.82799  1.0000
  H   H30       1.0  0.42656  0.69781  0.77623  1.0000
  H   H31       1.0  0.30851  0.73668  0.79210  1.0000
  H   H32       1.0  0.43264  0.63961  0.76279  1.0000
  H   H33       1.0  0.36165  0.80139  0.76190  1.0000
  H   H34       1.0  0.19928  0.56972  0.75240  1.0000
  H   H35       1.0  0.35917  0.87529  0.72266  1.0000
  H   H36       1.0  0.40504  0.96797  0.68982  1.0000
  H   H37       1.0  0.54065  0.95832  0.66707  1.0000
  H   H38       1.0  0.49505  0.86467  0.70388  1.0000
  H   H39       1.0  0.71761  0.42824  0.73735  1.0000
  H   H40       1.0  0.55912  0.29183  0.68474  1.0000
  H   H41       1.0  0.69708  0.27641  0.70883  1.0000
  H   H42       1.0  0.78967  0.31947  0.85486  1.0000
  H   H43       1.0  0.88788  0.36096  0.87938  1.0000
  H   H44       1.0  0.86893  0.48767  0.63859  1.0000
  H   H45       1.0  0.76863  0.44505  0.60513  1.0000
  H   H46       1.0  0.56281  0.53164  0.66637  1.0000
  H   H47       1.0  0.48069  0.04802  0.81953  1.0000
  H   H48       1.0  0.96754  0.43079  0.84541  1.0000
  C   C1        1.0  0.35733  0.62848  0.29767  1.0000
  C   C2        1.0  0.37894  0.71835  0.28804  1.0000
  C   C3        1.0  0.29218  0.65276  0.30928  1.0000
  C   C4        1.0  0.30659  0.61508  0.30687  1.0000
  C   C5        1.0  0.39356  0.68036  0.29101  1.0000
  C   C6        1.0  0.32848  0.70430  0.29846  1.0000
  C   C7        1.0  0.36703  0.58422  0.28879  1.0000
  C   C8        1.0  0.41935  0.77171  0.26845  1.0000
  C   C9        1.0  0.23981  0.64263  0.32370  1.0000
  C   C10       1.0  0.48697  0.59025  0.23625  1.0000
  C   C11       1.0  0.40115  0.88741  0.20775  1.0000
  C   C12       1.0  0.10900  0.51222  0.25091  1.0000
  C   C13       1.0  0.51158  0.56234  0.22647  1.0000
  C   C14       1.0  0.42736  0.94014  0.19688  1.0000
  C   C15       1.0  0.05384  0.48670  0.23974  1.0000
  C   C16       1.0  0.48758  0.50919  0.24538  1.0000
  C   C17       1.0  0.48163  0.96649  0.19648  1.0000
  C   C18       1.0  0.03193  0.51577  0.26886  1.0000
  C   C19       1.0  0.43845  0.48607  0.27442  1.0000
  C   C20       1.0  0.50697  0.93713  0.20095  1.0000
  C   C21       1.0  0.06778  0.57107  0.31134  1.0000
  C   C22       1.0  0.41326  0.51363  0.28396  1.0000
  C   C23       1.0  0.48137  0.88427  0.21341  1.0000
  C   C24       1.0  0.12359  0.59703  0.32704  1.0000
  C   C25       1.0  0.43766  0.56640  0.26459  1.0000
  C   C26       1.0  0.42815  0.85901  0.21882  1.0000
  C   C27       1.0  0.14433  0.56756  0.29376  1.0000
  C   C28       1.0  0.64481  0.36146  0.22711  1.0000
  C   C29       1.0  0.63279  0.27389  0.21701  1.0000
  C   C30       1.0  0.71910  0.34988  0.21638  1.0000
  C   C31       1.0  0.69758  0.38169  0.22181  1.0000
  C   C32       1.0  0.61382  0.30757  0.22752  1.0000
  C   C33       1.0  0.68541  0.29581  0.20907  1.0000
  C   C34       1.0  0.81298  0.35161  0.31221  1.0000
  C   C35       1.0  0.86936  0.37568  0.33246  1.0000
  C   C36       1.0  0.89258  0.42315  0.27132  1.0000
  C   C37       1.0  0.85748  0.44573  0.18829  1.0000
  C   C38       1.0  0.80134  0.42153  0.16778  1.0000
  C   C39       1.0  0.77765  0.37395  0.22910  1.0000
  C   C40       1.0  0.55314  0.49309  0.21477  1.0000
  C   C41       1.0  0.49816  0.05203  0.21139  1.0000
  C   C42       1.0  0.95173  0.44822  0.29430  1.0000
  C   C43       1.0  0.35153  0.63318  0.79989  1.0000
  C   C44       1.0  0.37299  0.72288  0.78456  1.0000
  C   C45       1.0  0.28707  0.65826  0.81247  1.0000
  C   C46       1.0  0.30169  0.62054  0.81356  1.0000
  C   C47       1.0  0.38725  0.68459  0.78820  1.0000
  C   C48       1.0  0.32284  0.70934  0.79643  1.0000
  C   C49       1.0  0.36073  0.58862  0.79120  1.0000
  C   C50       1.0  0.41244  0.77533  0.75661  1.0000
  C   C51       1.0  0.23478  0.64819  0.82726  1.0000
  C   C52       1.0  0.39950  0.89370  0.71299  1.0000
  C   C53       1.0  0.42558  0.94599  0.69581  1.0000
  C   C54       1.0  0.47794  0.97046  0.68412  1.0000
  C   C55       1.0  0.50142  0.93990  0.68277  1.0000
  C   C56       1.0  0.47618  0.88769  0.70269  1.0000
  C   C57       1.0  0.42497  0.86425  0.71993  1.0000
  C   C58       1.0  0.63572  0.36430  0.71347  1.0000
  C   C59       1.0  0.62462  0.27732  0.70120  1.0000
  C   C60       1.0  0.71291  0.35478  0.71615  1.0000
  C   C61       1.0  0.69063  0.38597  0.72121  1.0000
  C   C62       1.0  0.60276  0.30962  0.69883  1.0000
  C   C63       1.0  0.67966  0.30071  0.70889  1.0000
  C   C64       1.0  0.80574  0.35555  0.80212  1.0000
  C   C65       1.0  0.86158  0.37935  0.81866  1.0000
  C   C66       1.0  0.88528  0.42754  0.76218  1.0000
  C   C67       1.0  0.85068  0.45074  0.68464  1.0000
  C   C68       1.0  0.79492  0.42678  0.66757  1.0000
  C   C69       1.0  0.77121  0.37883  0.72704  1.0000
  C   C70       1.0  0.54392  0.49453  0.71378  1.0000
  C   C71       1.0  0.50420  0.05773  0.73846  1.0000
  C   C72       1.0  0.94474  0.45273  0.78761  1.0000
  N   N1        1.0  0.41678  0.59812  0.27765  1.0000
  N   N2        1.0  0.39951  0.80615  0.23522  1.0000
  N   N3        1.0  0.19875  0.59036  0.29691  1.0000
  N   N4        1.0  0.50832  0.47670  0.24053  1.0000
  N   N5        1.0  0.51297  0.01979  0.19075  1.0000
  N   N6        1.0  0.97592  0.49346  0.25082  1.0000
  N   N7        1.0  0.40917  0.60177  0.77326  1.0000
  N   N8        1.0  0.39681  0.81212  0.74397  1.0000
  N   N9        1.0  0.19320  0.59589  0.79793  1.0000
  N   N10       1.0  0.50337  0.48049  0.75959  1.0000
  N   N11       1.0  0.50726  0.02289  0.66658  1.0000
  N   N12       1.0  0.97016  0.49884  0.75140  1.0000
  O   O1        1.0  0.33199  0.53905  0.29069  1.0000
  O   O2        1.0  0.46598  0.78235  0.27652  1.0000
  O   O3        1.0  0.23542  0.67948  0.35764  1.0000
  O   O4        1.0  0.32619  0.54382  0.79821  1.0000
  O   O5        1.0  0.45493  0.78325  0.74104  1.0000
  O   O6        1.0  0.23079  0.68507  0.86375  1.0000
  C   C73       1.0  0.05879  0.49134  0.73016  1.0000
  C   C74       1.0  0.03281  0.51255  0.77661  1.0000
  C  Sn1       1.0  0.06064  0.56705  0.82776  1.0000
  C  Sn2       1.0  0.11549  0.60083  0.83231  1.0000
  C   C75       1.0  0.14110  0.57921  0.78546  1.0000
  C   C76       1.0  0.11288  0.52463  0.73454  1.0000
  H   H49       1.0  0.03695  0.44911  0.69066  1.0000
  O  Te1       1.0  0.03408  0.58759  0.87383  1.0000
  O  Te2       1.0  0.14425  0.65543  0.88287  1.0000
  H   H50       1.0  0.13298  0.50821  0.69846  1.0000
  Mg  Mg1       1.0  0.09044  0.66460  0.93379  1.0000
  C   C77       1.0  0.60196  0.14221  0.22870  1.0000
  C   C78       1.0  0.54706  0.11282  0.22136  1.0000
  C  Sn3       1.0  0.51515  0.13635  0.20342  1.0000
  C  Sn4       1.0  0.53873  0.19031  0.19261  1.0000
  C   C79       1.0  0.59367  0.21937  0.19994  1.0000
  C   C80       1.0  0.62524  0.19544  0.21797  1.0000
  H   H51       1.0  0.62638  0.12369  0.24255  1.0000
  O  Te3       1.0  0.46037  0.10641  0.19637  1.0000
  O  Te4       1.0  0.50775  0.21481  0.17456  1.0000
  H   H52       1.0  0.66773  0.21820  0.22353  1.0000
  Mg  Mg2       1.0  0.43490  0.15750  0.17112  1.0000
  C   C81       1.0  0.41834  0.48941  0.77720  1.0000
  C   C82       1.0  0.46709  0.50553  0.75293  1.0000
  C  Sn5       1.0  0.50028  0.55759  0.74032  1.0000
  C  Sn6       1.0  0.48428  0.59410  0.75234  1.0000
  C   C83       1.0  0.43547  0.57759  0.77676  1.0000
  C   C84       1.0  0.40255  0.52539  0.78914  1.0000
  H   H53       1.0  0.39289  0.44903  0.78689  1.0000
  O  Te5       1.0  0.54884  0.57303  0.71601  1.0000
  O  Te6       1.0  0.51670  0.64637  0.74025  1.0000
  H   H54       1.0  0.36483  0.51293  0.80806  1.0000
  Mg  Mg3       1.0  0.57919  0.64853  0.70720  1.0000
  C   C85       1.0  0.52257  0.16034  0.77667  1.0000
  C   C86       1.0  0.52579  0.11939  0.72164  1.0000
  C  Sn7       1.0  0.56583  0.12981  0.65975  1.0000
  C  Sn8       1.0  0.60330  0.18225  0.65304  1.0000
  C   C87       1.0  0.59977  0.22296  0.70853  1.0000
  C   C88       1.0  0.55952  0.21208  0.77016  1.0000
  H   H55       1.0  0.49146  0.15194  0.82447  1.0000
  O  Te7       1.0  0.56846  0.08843  0.60522  1.0000
  O  Te8       1.0  0.64374  0.19378  0.59183  1.0000
  H   H56       1.0  0.55707  0.24380  0.81288  1.0000
  Mg  Mg4       1.0  0.63078  0.12398  0.53211  1.0000
  C   C89       1.0  0.65259  0.46194  0.21537  1.0000
  C   C90       1.0  0.63340  0.41039  0.24479  1.0000
  C  Sn9       1.0  0.58142  0.38129  0.25558  1.0000
  C  Sn10      1.0  0.54812  0.40432  0.23647  1.0000
  C   C91       1.0  0.56768  0.45590  0.20694  1.0000
  C   C92       1.0  0.61977  0.48467  0.19643  1.0000
  H   H57       1.0  0.69287  0.48419  0.20713  1.0000
  O  Te9       1.0  0.56289  0.32985  0.28510  1.0000
  O  Te10      1.0  0.49600  0.37612  0.24661  1.0000
  H   H58       1.0  0.63460  0.52457  0.17353  1.0000
  Mg  Mg5       1.0  0.48894  0.30732  0.28864  1.0000
  C   C93       1.0  0.62590  0.47899  0.67992  1.0000
  C   C94       1.0  0.57854  0.46696  0.70662  1.0000
  C  Sn11      1.0  0.54892  0.41886  0.75272  1.0000
  C  Sn12      1.0  0.56716  0.38220  0.77242  1.0000
  C   C95       1.0  0.61462  0.39462  0.74556  1.0000
  C   C96       1.0  0.64394  0.44286  0.69939  1.0000
  H   H59       1.0  0.64861  0.51633  0.64431  1.0000
  O  Te11      1.0  0.50167  0.40746  0.77884  1.0000
  O  Te12      1.0  0.53835  0.33384  0.81849  1.0000
  H   H60       1.0  0.68063  0.45218  0.67885  1.0000
  Mg  Mg6       1.0  0.47639  0.33638  0.84000  1.0000
