data_image0
_chemical_formula_structural       H36C48N24O12SnCSn2CSnTe4Mg2SnCSn2CSnTe4Mg2SnCSn2CSnTe4Mg2SnCSn2CSnTe4Mg2SnCSn2CSnTe4Mg2SnCSn2CSnTe4Mg2SnCSn2CSnTe4Mg2SnCSn2CSnTe4Mg2SnCSn2CSnTe4Mg2SnCSn2CSnTe4Mg2SnCSn2CSnTe4Mg2SnCSn2CSnTe4Mg2SnCSn2CSnTe4Mg2SnCSn2CSnTe4Mg2SnCSn2CSnTe4Mg2SnCSn2CSnTe4Mg2SnCSn2CSnTe4Mg2SnCSn2CSnTe4Mg2
_chemical_formula_sum              "H36 C84 N24 O12 Sn72 Te72 Mg36"
_cell_length_a       45.1537
_cell_length_b       45.226
_cell_length_c       8.10332
_cell_angle_alpha    101.444
_cell_angle_beta     109.639
_cell_angle_gamma    120.465

_symmetry_space_group_name_H-M    'P1'
_space_group_IT_number       1

loop_
  _space_group_symop_operation_xyz
  'x, y, z'

loop_
  _atom_site_type_symbol
  _atom_site_label
  _atom_site_symmetry_multiplicity
  _atom_site_fract_x
  _atom_site_fract_y
  _atom_site_fract_z
  _atom_site_occupancy
  H   H1        1.0  0.39772  0.68415  0.24628  1.0000
  H   H2        1.0  0.31920  0.71102  0.24999  1.0000
  H   H3        1.0  0.29382  0.60702  0.26941  1.0000
  H   H4        1.0  0.60576  0.31669  0.24524  1.0000
  H   H5        1.0  0.68371  0.28948  0.23586  1.0000
  H   H6        1.0  0.71177  0.39606  0.24283  1.0000
  H   H7        1.0  0.40147  0.64392  0.24130  1.0000
  H   H8        1.0  0.35643  0.75337  0.24264  1.0000
  H   H9        1.0  0.24732  0.60027  0.24609  1.0000
  H   H10       1.0  0.60229  0.35667  0.25728  1.0000
  H   H11       1.0  0.64698  0.24739  0.26359  1.0000
  H   H12       1.0  0.75654  0.40132  0.24595  1.0000
  H   H13       1.0  0.48337  0.56305  0.18188  1.0000
  H   H14       1.0  0.42203  0.91636  0.22153  1.0000
  H   H15       1.0  0.07343  0.50402  0.15989  1.0000
  H   H16       1.0  0.51365  0.43087  0.31542  1.0000
  H   H17       1.0  0.56953  0.07847  0.22655  1.0000
  H   H18       1.0  0.93362  0.50046  0.35923  1.0000
  H   H19       1.0  0.39301  0.68188  0.73695  1.0000
  H   H20       1.0  0.31661  0.71059  0.75452  1.0000
  H   H21       1.0  0.28996  0.60570  0.76867  1.0000
  H   H22       1.0  0.60220  0.31582  0.74555  1.0000
  H   H23       1.0  0.67882  0.28692  0.73110  1.0000
  H   H24       1.0  0.70927  0.39463  0.74979  1.0000
  H   H25       1.0  0.39774  0.64318  0.74013  1.0000
  H   H26       1.0  0.35183  0.75072  0.71579  1.0000
  H   H27       1.0  0.24372  0.59926  0.74732  1.0000
  H   H28       1.0  0.59892  0.35634  0.74978  1.0000
  H   H29       1.0  0.64272  0.24605  0.75766  1.0000
  H   H30       1.0  0.75292  0.39933  0.75191  1.0000
  H   H31       1.0  0.48638  0.56887  0.69459  1.0000
  H   H32       1.0  0.42380  0.91562  0.72292  1.0000
  H   H33       1.0  0.06935  0.50142  0.65702  1.0000
  H   H34       1.0  0.51866  0.43796  0.82838  1.0000
  H   H35       1.0  0.56856  0.07740  0.71594  1.0000
  H   H36       1.0  0.92883  0.49704  0.85698  1.0000
  C   C1        1.0  0.36183  0.70117  0.24402  1.0000
  C   C2        1.0  0.30275  0.65892  0.25921  1.0000
  C   C3        1.0  0.34550  0.64159  0.25470  1.0000
  C   C4        1.0  0.64145  0.29961  0.24486  1.0000
  C   C5        1.0  0.70160  0.34291  0.23912  1.0000
  C   C6        1.0  0.65883  0.36027  0.24581  1.0000
  C   C7        1.0  0.37064  0.67563  0.24880  1.0000
  C   C8        1.0  0.32801  0.69263  0.25064  1.0000
  C   C9        1.0  0.31140  0.63335  0.25850  1.0000
  C   C10       1.0  0.63314  0.32560  0.24505  1.0000
  C   C11       1.0  0.67547  0.30834  0.23970  1.0000
  C   C12       1.0  0.69328  0.36882  0.24462  1.0000
  C   C13       1.0  0.35244  0.61269  0.26522  1.0000
  C   C14       1.0  0.39021  0.73648  0.23290  1.0000
  C   C15       1.0  0.26894  0.65435  0.27823  1.0000
  C   C16       1.0  0.65202  0.38950  0.24122  1.0000
  C   C17       1.0  0.61200  0.26393  0.25041  1.0000
  C   C18       1.0  0.73651  0.34833  0.22800  1.0000
  C   C19       1.0  0.47004  0.54121  0.23093  1.0000
  C   C20       1.0  0.45105  0.92623  0.23615  1.0000
  C   C21       1.0  0.07207  0.52702  0.22097  1.0000
  C   C22       1.0  0.52759  0.45375  0.27319  1.0000
  C   C23       1.0  0.54361  0.07198  0.23920  1.0000
  C   C24       1.0  0.93472  0.47743  0.29513  1.0000
  C   C25       1.0  0.35792  0.69946  0.74061  1.0000
  C   C26       1.0  0.29920  0.65780  0.75989  1.0000
  C   C27       1.0  0.34133  0.63975  0.75059  1.0000
  C   C28       1.0  0.63714  0.29784  0.74281  1.0000
  C   C29       1.0  0.69777  0.34081  0.74055  1.0000
  C   C30       1.0  0.65593  0.35920  0.74965  1.0000
  C   C31       1.0  0.36626  0.67356  0.74278  1.0000
  C   C32       1.0  0.32461  0.69155  0.75125  1.0000
  C   C33       1.0  0.30756  0.63196  0.75725  1.0000
  C   C34       1.0  0.62951  0.32435  0.74561  1.0000
  C   C35       1.0  0.67111  0.30620  0.73837  1.0000
  C   C36       1.0  0.69021  0.36725  0.74895  1.0000
  C   C37       1.0  0.34852  0.61095  0.76036  1.0000
  C   C38       1.0  0.38709  0.73462  0.73075  1.0000
  C   C39       1.0  0.26554  0.65342  0.78104  1.0000
  C   C40       1.0  0.65042  0.38929  0.74759  1.0000
  C   C41       1.0  0.60728  0.26187  0.74460  1.0000
  C   C42       1.0  0.73221  0.34582  0.72684  1.0000
  C   C43       1.0  0.47209  0.54570  0.73452  1.0000
  C   C44       1.0  0.45294  0.92549  0.73932  1.0000
  C   C45       1.0  0.06789  0.52421  0.72045  1.0000
  C   C46       1.0  0.53170  0.45988  0.77933  1.0000
  C   C47       1.0  0.54289  0.07058  0.73219  1.0000
  C   C48       1.0  0.93002  0.47406  0.79317  1.0000
  N   N1        1.0  0.38558  0.62033  0.25938  1.0000
  N   N2        1.0  0.38054  0.76083  0.22932  1.0000
  N   N3        1.0  0.24168  0.61937  0.26384  1.0000
  N   N4        1.0  0.61816  0.38075  0.24271  1.0000
  N   N5        1.0  0.62117  0.23932  0.25964  1.0000
  N   N6        1.0  0.76335  0.38307  0.23796  1.0000
  N   N7        1.0  0.44296  0.53518  0.27373  1.0000
  N   N8        1.0  0.46413  0.90662  0.25116  1.0000
  N   N9        1.0  0.09924  0.56269  0.27093  1.0000
  N   N10       1.0  0.55509  0.46091  0.23160  1.0000
  N   N11       1.0  0.53444  0.09487  0.25100  1.0000
  N   N12       1.0  0.90729  0.44167  0.24226  1.0000
  N   N13       1.0  0.38223  0.61949  0.75820  1.0000
  N   N14       1.0  0.37751  0.75885  0.71793  1.0000
  N   N15       1.0  0.23816  0.61840  0.76688  1.0000
  N   N16       1.0  0.61617  0.38096  0.74210  1.0000
  N   N17       1.0  0.61697  0.23766  0.75517  1.0000
  N   N18       1.0  0.75941  0.38084  0.74114  1.0000
  N   N19       1.0  0.44383  0.53802  0.77056  1.0000
  N   N20       1.0  0.46590  0.90584  0.75687  1.0000
  N   N21       1.0  0.09522  0.56006  0.77402  1.0000
  N   N22       1.0  0.55852  0.46603  0.73409  1.0000
  N   N23       1.0  0.53313  0.09298  0.74575  1.0000
  N   N24       1.0  0.90257  0.43832  0.74049  1.0000
  O   O1        1.0  0.32982  0.58468  0.28352  1.0000
  O   O2        1.0  0.41953  0.74230  0.22584  1.0000
  O   O3        1.0  0.26687  0.68101  0.30675  1.0000
  O   O4        1.0  0.67520  0.41858  0.23143  1.0000
  O   O5        1.0  0.58204  0.25815  0.24916  1.0000
  O   O6        1.0  0.73985  0.32254  0.21015  1.0000
  O   O7        1.0  0.32581  0.58246  0.77557  1.0000
  O   O8        1.0  0.41717  0.74045  0.73346  1.0000
  O   O9        1.0  0.26372  0.68019  0.81081  1.0000
  O   O10       1.0  0.67499  0.41869  0.74470  1.0000
  O   O11       1.0  0.57694  0.25562  0.74024  1.0000
  O   O12       1.0  0.73482  0.31951  0.70267  1.0000
  C  Sn1       1.0  0.43562  0.60682  0.21163  1.0000
  C   C49       1.0  0.40031  0.59594  0.20808  1.0000
  C  Sn2       1.0  0.38050  0.56623  0.25422  1.0000
  C  Sn3       1.0  0.39632  0.54699  0.30509  1.0000
  C   C50       1.0  0.43161  0.55787  0.30866  1.0000
  C  Sn4       1.0  0.45144  0.58758  0.26250  1.0000
  O  Te1       1.0  0.45492  0.63661  0.16499  1.0000
  O  Te2       1.0  0.34523  0.55586  0.24959  1.0000
  O  Te3       1.0  0.37698  0.51718  0.35174  1.0000
  O  Te4       1.0  0.48668  0.59796  0.26714  1.0000
  Mg  Mg1       1.0  0.32986  0.51352  0.32484  1.0000
  Mg  Mg2       1.0  0.50209  0.64030  0.19203  1.0000
  C  Sn5       1.0  0.44896  0.82470  0.27113  1.0000
  C   C51       1.0  0.41456  0.80426  0.28275  1.0000
  C  Sn6       1.0  0.39044  0.81559  0.25978  1.0000
  C  Sn7       1.0  0.40090  0.84801  0.22432  1.0000
  C   C52       1.0  0.43528  0.86842  0.21268  1.0000
  C  Sn8       1.0  0.45942  0.85712  0.23568  1.0000
  O  Te5       1.0  0.47264  0.81286  0.29454  1.0000
  O  Te6       1.0  0.35620  0.79471  0.27207  1.0000
  O  Te7       1.0  0.37719  0.85984  0.20091  1.0000
  O  Te8       1.0  0.49364  0.87797  0.22337  1.0000
  Mg  Mg3       1.0  0.33351  0.82210  0.23002  1.0000
  Mg  Mg4       1.0  0.51634  0.85060  0.26529  1.0000
  C  Sn9       1.0  0.17180  0.55938  0.21439  1.0000
  C   C53       1.0  0.19590  0.59396  0.21012  1.0000
  C  Sn10      1.0  0.19102  0.62213  0.25240  1.0000
  C  Sn11      1.0  0.16145  0.61561  0.30008  1.0000
  C   C54       1.0  0.13737  0.58105  0.30437  1.0000
  C  Sn12      1.0  0.14223  0.55285  0.26207  1.0000
  O  Te9       1.0  0.17720  0.53162  0.17162  1.0000
  O  Te10      1.0  0.21547  0.65648  0.24713  1.0000
  O  Te11      1.0  0.15607  0.64341  0.34286  1.0000
  O  Te12      1.0  0.11781  0.51853  0.26736  1.0000
  Mg  Mg5       1.0  0.19668  0.68552  0.31657  1.0000
  Mg  Mg6       1.0  0.13659  0.48948  0.19804  1.0000
  C  Sn13      1.0  0.60372  0.44749  0.16939  1.0000
  C   C55       1.0  0.56939  0.43608  0.17822  1.0000
  C  Sn14      1.0  0.55287  0.40775  0.23792  1.0000
  C  Sn15      1.0  0.57107  0.39048  0.29000  1.0000
  C   C56       1.0  0.60539  0.40190  0.28120  1.0000
  C  Sn16      1.0  0.62192  0.43022  0.22148  1.0000
  O  Te13      1.0  0.61972  0.47587  0.10931  1.0000
  O  Te14      1.0  0.51852  0.39681  0.24552  1.0000
  O  Te15      1.0  0.55504  0.36208  0.35012  1.0000
  O  Te16      1.0  0.65625  0.44117  0.21390  1.0000
  Mg  Mg7       1.0  0.50796  0.35693  0.33669  1.0000
  Mg  Mg8       1.0  0.66685  0.48106  0.12285  1.0000
  C  Sn17      1.0  0.56165  0.18450  0.30996  1.0000
  C   C57       1.0  0.59769  0.20510  0.31211  1.0000
  C  Sn18      1.0  0.61340  0.18696  0.26769  1.0000
  C  Sn19      1.0  0.59265  0.14739  0.21999  1.0000
  C   C58       1.0  0.55664  0.12681  0.21783  1.0000
  C  Sn20      1.0  0.54091  0.14493  0.26227  1.0000
  O  Te17      1.0  0.54650  0.20322  0.35485  1.0000
  O  Te18      1.0  0.64948  0.20816  0.27086  1.0000
  O  Te19      1.0  0.60784  0.12867  0.17510  1.0000
  O  Te20      1.0  0.50485  0.12375  0.25908  1.0000
  Mg  Mg9       1.0  0.65800  0.16982  0.19898  1.0000
  Mg  Mg10      1.0  0.49629  0.16205  0.33083  1.0000
  C  Sn21      1.0  0.83804  0.38282  0.19544  1.0000
  C   C59       1.0  0.86234  0.41777  0.19459  1.0000
  C  Sn22      1.0  0.85694  0.44558  0.23562  1.0000
  C  Sn23      1.0  0.82663  0.43831  0.27854  1.0000
  C   C60       1.0  0.80235  0.40339  0.27941  1.0000
  C  Sn24      1.0  0.80772  0.37556  0.23836  1.0000
  O  Te21      1.0  0.84397  0.35544  0.15401  1.0000
  O  Te22      1.0  0.88160  0.48029  0.23382  1.0000
  O  Te23      1.0  0.82071  0.46573  0.31998  1.0000
  O  Te24      1.0  0.78309  0.34087  0.24018  1.0000
  Mg  Mg11      1.0  0.86188  0.50859  0.29971  1.0000
  Mg  Mg12      1.0  0.80279  0.31256  0.17442  1.0000
  C  Sn25      1.0  0.47112  0.48430  0.32228  1.0000
  C   C61       1.0  0.48716  0.51798  0.30018  1.0000
  C  Sn26      1.0  0.51543  0.52966  0.24189  1.0000
  C  Sn27      1.0  0.52790  0.50721  0.20478  1.0000
  C   C62       1.0  0.51186  0.47355  0.22684  1.0000
  C  Sn28      1.0  0.48359  0.46185  0.28517  1.0000
  O  Te25      1.0  0.44290  0.47317  0.38068  1.0000
  O  Te26      1.0  0.53105  0.56345  0.22086  1.0000
  O  Te27      1.0  0.55614  0.51837  0.14634  1.0000
  O  Te28      1.0  0.46797  0.42808  0.30616  1.0000
  Mg  Mg13      1.0  0.56870  0.56662  0.13800  1.0000
  Mg  Mg14      1.0  0.43031  0.42487  0.38891  1.0000
  C  Sn29      1.0  0.02999  0.99866  0.17026  1.0000
  C   C63       1.0  0.51512  0.02552  0.18233  1.0000
  C  Sn30      1.0  0.48860  0.02303  0.24180  1.0000
  C  Sn31      1.0  0.97655  0.99307  0.29034  1.0000
  C   C64       1.0  0.98361  0.96623  0.27829  1.0000
  C  Sn32      1.0  0.01012  0.96870  0.21880  1.0000
  O  Te29      1.0  0.05663  0.00171  0.11048  1.0000
  O  Te30      1.0  0.48202  0.05021  0.25268  1.0000
  O  Te31      1.0  0.94989  0.99003  0.35015  1.0000
  O  Te32      1.0  0.01670  0.94154  0.20795  1.0000
  Mg  Mg15      1.0  0.44303  0.03395  0.34200  1.0000
  Mg  Mg16      1.0  0.05570  0.95779  0.11875  1.0000
  C  Sn33      1.0  0.03192  0.54315  0.37963  1.0000
  C   C65       1.0  0.04116  0.52057  0.30334  1.0000
  C  Sn34      1.0  0.01185  0.48065  0.19322  1.0000
  C  Sn35      1.0  0.97247  0.46292  0.15851  1.0000
  C   C66       1.0  0.96325  0.48550  0.23475  1.0000
  C  Sn36      1.0  0.99255  0.52542  0.34492  1.0000
  O  Te33      1.0  0.06170  0.58300  0.48930  1.0000
  O  Te34      1.0  0.02180  0.45868  0.11852  1.0000
  O  Te35      1.0  0.94269  0.42303  0.04875  1.0000
  O  Te36      1.0  0.98262  0.54738  0.41957  1.0000
  Mg  Mg17      1.0  0.07635  0.49438  0.97793  1.0000
  Mg  Mg18      1.0  0.03351  0.60063  0.56008  1.0000
  C  Sn37      1.0  0.38172  0.54017  0.69938  1.0000
  C   C67       1.0  0.41817  0.55302  0.71173  1.0000
  C  Sn38      1.0  0.44719  0.59180  0.76808  1.0000
  C  Sn39      1.0  0.43963  0.61830  0.81316  1.0000
  C   C68       1.0  0.40320  0.60546  0.80084  1.0000
  C  Sn40      1.0  0.37416  0.56668  0.74446  1.0000
  O  Te37      1.0  0.35314  0.50127  0.64274  1.0000
  O  Te38      1.0  0.48339  0.60395  0.77930  1.0000
  O  Te39      1.0  0.46825  0.65723  0.86983  1.0000
  O  Te40      1.0  0.33798  0.55452  0.73327  1.0000
  Mg  Mg19      1.0  0.51294  0.65985  0.86353  1.0000
  Mg  Mg20      1.0  0.30842  0.49864  0.64915  1.0000
  C  Sn41      1.0  0.40845  0.85099  0.82243  1.0000
  C   C69       1.0  0.44271  0.87068  0.80897  1.0000
  C  Sn42      1.0  0.45463  0.85094  0.73365  1.0000
  C  Sn43      1.0  0.43183  0.81069  0.67034  1.0000
  C   C70       1.0  0.39759  0.79102  0.68378  1.0000
  C  Sn44      1.0  0.38564  0.81073  0.75912  1.0000
  O  Te41      1.0  0.39708  0.87130  0.89819  1.0000
  O  Te42      1.0  0.48900  0.87125  0.72170  1.0000
  O  Te43      1.0  0.44323  0.79038  0.59454  1.0000
  O  Te44      1.0  0.35129  0.79045  0.77105  1.0000
  Mg  Mg21      1.0  0.49230  0.83080  0.60777  1.0000
  Mg  Mg22      1.0  0.34796  0.83087  0.88485  1.0000
  C  Sn45      1.0  0.16069  0.56035  0.83576  1.0000
  C   C71       1.0  0.13960  0.57494  0.82457  1.0000
  C  Sn46      1.0  0.14796  0.60370  0.76427  1.0000
  C  Sn47      1.0  0.17800  0.61816  0.71399  1.0000
  C   C72       1.0  0.19906  0.60357  0.72515  1.0000
  C  Sn48      1.0  0.19073  0.57481  0.78547  1.0000
  O  Te45      1.0  0.15183  0.53160  0.89640  1.0000
  O  Te46      1.0  0.12649  0.61785  0.75431  1.0000
  O  Te47      1.0  0.18685  0.64694  0.65331  1.0000
  O  Te48      1.0  0.21217  0.56066  0.79541  1.0000
  Mg  Mg23      1.0  0.14944  0.65696  0.66326  1.0000
  Mg  Mg24      1.0  0.18924  0.52154  0.88634  1.0000
  C  Sn49      1.0  0.55758  0.40594  0.79151  1.0000
  C   C73       1.0  0.57330  0.44141  0.78823  1.0000
  C  Sn50      1.0  0.60334  0.45732  0.74237  1.0000
  C  Sn51      1.0  0.61797  0.43736  0.69876  1.0000
  C   C74       1.0  0.60225  0.40191  0.70202  1.0000
  C  Sn52      1.0  0.57221  0.38597  0.74790  1.0000
  O  Te49      1.0  0.52756  0.39057  0.83774  1.0000
  O  Te50      1.0  0.61859  0.49283  0.74008  1.0000
  O  Te51      1.0  0.64801  0.45276  0.65252  1.0000
  O  Te52      1.0  0.55696  0.35049  0.75017  1.0000
  Mg  Mg25      1.0  0.65923  0.50192  0.66841  1.0000
  Mg  Mg26      1.0  0.51630  0.34136  0.82172  1.0000
  C  Sn53      1.0  0.60511  0.15981  0.82002  1.0000
  C   C75       1.0  0.56797  0.13746  0.80582  1.0000
  C  Sn54      1.0  0.54136  0.14571  0.74613  1.0000
  C  Sn55      1.0  0.55209  0.17693  0.69954  1.0000
  C   C76       1.0  0.58921  0.19925  0.71371  1.0000
  C  Sn56      1.0  0.61584  0.19103  0.77343  1.0000
  O  Te53      1.0  0.63124  0.15105  0.87999  1.0000
  O  Te54      1.0  0.50440  0.12296  0.73310  1.0000
  O  Te55      1.0  0.52593  0.18568  0.63953  1.0000
  O  Te56      1.0  0.65278  0.21375  0.78642  1.0000
  Mg  Mg27      1.0  0.47902  0.14631  0.64440  1.0000
  Mg  Mg28      1.0  0.67817  0.19042  0.87501  1.0000
  C  Sn57      1.0  0.82535  0.38237  0.81473  1.0000
  C   C77       1.0  0.80384  0.39659  0.79577  1.0000
  C  Sn58      1.0  0.81239  0.42487  0.73173  1.0000
  C  Sn59      1.0  0.84305  0.43921  0.68555  1.0000
  C   C78       1.0  0.86453  0.42498  0.70448  1.0000
  C  Sn60      1.0  0.85601  0.39671  0.76854  1.0000
  O  Te57      1.0  0.81630  0.35410  0.87900  1.0000
  O  Te58      1.0  0.79049  0.43866  0.71399  1.0000
  O  Te59      1.0  0.85209  0.46750  0.62124  1.0000
  O  Te60      1.0  0.87788  0.38292  0.78625  1.0000
  Mg  Mg29      1.0  0.81393  0.47717  0.62053  1.0000
  Mg  Mg30      1.0  0.85446  0.34440  0.87959  1.0000
  C  Sn61      1.0  0.52105  0.52821  0.68344  1.0000
  C   C79       1.0  0.48746  0.52010  0.69170  1.0000
  C  Sn62      1.0  0.46946  0.49370  0.75871  1.0000
  C  Sn63      1.0  0.48538  0.47501  0.81883  1.0000
  C   C80       1.0  0.51895  0.48312  0.81058  1.0000
  C  Sn64      1.0  0.53696  0.50952  0.74355  1.0000
  O  Te61      1.0  0.53855  0.55471  0.61596  1.0000
  O  Te62      1.0  0.43590  0.48606  0.76559  1.0000
  O  Te63      1.0  0.46784  0.44849  0.88634  1.0000
  O  Te64      1.0  0.57051  0.51717  0.73670  1.0000
  Mg  Mg31      1.0  0.42264  0.44772  0.86866  1.0000
  Mg  Mg32      1.0  0.58381  0.55551  0.63375  1.0000
  C  Sn65      1.0  0.03069  0.99771  0.66659  1.0000
  C   C81       1.0  0.02310  0.02418  0.67836  1.0000
  C  Sn66      1.0  0.99686  0.02153  0.74042  1.0000
  C  Sn67      1.0  0.97782  0.99181  0.79191  1.0000
  C   C82       1.0  0.98542  0.96536  0.78017  1.0000
  C  Sn68      1.0  0.01165  0.96799  0.71808  1.0000
  O  Te65      1.0  0.05703  0.00091  0.60418  1.0000
  O  Te66      1.0  0.98973  0.04833  0.75094  1.0000
  O  Te67      1.0  0.95147  0.98863  0.85436  1.0000
  O  Te68      1.0  0.01879  0.94122  0.70759  1.0000
  Mg  Mg33      1.0  0.95143  0.03200  0.84453  1.0000
  Mg  Mg34      1.0  0.05709  0.95753  0.61412  1.0000
  C  Sn69      1.0  0.98305  0.46174  0.74749  1.0000
  C   C83       1.0  0.97245  0.48389  0.81215  1.0000
  C  Sn70      1.0  0.99064  0.52067  0.82374  1.0000
  C  Sn71      1.0  0.02002  0.53562  0.76946  1.0000
  C   C84       1.0  0.03061  0.51348  0.70482  1.0000
  C  Sn72      1.0  0.01244  0.47670  0.69321  1.0000
  O  Te69      1.0  0.96448  0.42504  0.73705  1.0000
  O  Te70      1.0  0.97956  0.54227  0.88888  1.0000
  O  Te71      1.0  0.03860  0.57235  0.77995  1.0000
  O  Te72      1.0  0.02350  0.45510  0.62808  1.0000
  Mg  Mg35      1.0  0.01336  0.59071  0.87761  1.0000
  Mg  Mg36      1.0  0.98970  0.40666  0.63920  1.0000
