data_image0
_chemical_formula_structural       H72C102N24O12C2Sn2C2HTe2HMgC2Sn2C2HTe2HMgC2Sn2C2HTe2HMgC2Sn2C2HTe2HMgC2Sn2C2HTe2HMgC2Sn2C2HTe2HMgC2Sn2C2HTe2HMgC2Sn2C2HTe2HMgC2Sn2C2HTe2HMg
_chemical_formula_sum              "H90 C138 N24 O12 Sn18 Te18 Mg9"
_cell_length_a       45.1537
_cell_length_b       45.226
_cell_length_c       8.10332
_cell_angle_alpha    101.444
_cell_angle_beta     109.639
_cell_angle_gamma    120.465

_symmetry_space_group_name_H-M    'P1'
_space_group_IT_number       1

loop_
  _space_group_symop_operation_xyz
  'x, y, z'

loop_
  _atom_site_type_symbol
  _atom_site_label
  _atom_site_symmetry_multiplicity
  _atom_site_fract_x
  _atom_site_fract_y
  _atom_site_fract_z
  _atom_site_occupancy
  H   H1        1.0  0.39772  0.68415  0.24628  1.0000
  H   H2        1.0  0.31920  0.71102  0.24999  1.0000
  H   H3        1.0  0.29382  0.60702  0.26941  1.0000
  H   H4        1.0  0.60576  0.31669  0.24524  1.0000
  H   H5        1.0  0.68371  0.28948  0.23586  1.0000
  H   H6        1.0  0.71177  0.39606  0.24283  1.0000
  H   H7        1.0  0.40147  0.64392  0.24130  1.0000
  H   H8        1.0  0.35643  0.75337  0.24264  1.0000
  H   H9        1.0  0.24732  0.60027  0.24609  1.0000
  H   H10       1.0  0.60229  0.35667  0.25728  1.0000
  H   H11       1.0  0.64698  0.24739  0.26359  1.0000
  H   H12       1.0  0.75654  0.40132  0.24595  1.0000
  H   H13       1.0  0.45249  0.64229  0.27397  1.0000
  H   H14       1.0  0.36233  0.80664  0.27701  1.0000
  H   H15       1.0  0.19861  0.55555  0.28090  1.0000
  H   H16       1.0  0.55324  0.35806  0.24941  1.0000
  H   H17       1.0  0.64385  0.19686  0.27470  1.0000
  H   H18       1.0  0.48002  0.60729  0.28209  1.0000
  H   H19       1.0  0.39725  0.87099  0.29244  1.0000
  H   H20       1.0  0.13558  0.52851  0.28401  1.0000
  H   H21       1.0  0.52306  0.39038  0.24344  1.0000
  H   H22       1.0  0.60843  0.13364  0.27020  1.0000
  H   H23       1.0  0.37755  0.51432  0.25863  1.0000
  H   H24       1.0  0.48150  0.86136  0.20675  1.0000
  H   H25       1.0  0.14167  0.62486  0.25085  1.0000
  H   H26       1.0  0.61800  0.48208  0.21918  1.0000
  H   H27       1.0  0.51395  0.13760  0.24453  1.0000
  H   H28       1.0  0.34944  0.54984  0.25071  1.0000
  H   H29       1.0  0.44622  0.79592  0.19179  1.0000
  H   H30       1.0  0.20605  0.65296  0.25388  1.0000
  H   H31       1.0  0.64906  0.44932  0.22611  1.0000
  H   H32       1.0  0.54972  0.20192  0.24700  1.0000
  H   H33       1.0  0.48337  0.56305  0.18188  1.0000
  H   H34       1.0  0.42203  0.91636  0.22153  1.0000
  H   H35       1.0  0.07343  0.50402  0.15989  1.0000
  H   H36       1.0  0.51365  0.43087  0.31542  1.0000
  H   H37       1.0  0.56953  0.07847  0.22655  1.0000
  H   H38       1.0  0.93362  0.50046  0.35923  1.0000
  H   H39       1.0  0.39301  0.68188  0.73695  1.0000
  H   H40       1.0  0.31661  0.71059  0.75452  1.0000
  H   H41       1.0  0.28996  0.60570  0.76867  1.0000
  H   H42       1.0  0.60220  0.31582  0.74555  1.0000
  H   H43       1.0  0.67882  0.28692  0.73110  1.0000
  H   H44       1.0  0.70927  0.39463  0.74979  1.0000
  H   H45       1.0  0.39774  0.64318  0.74013  1.0000
  H   H46       1.0  0.35183  0.75072  0.71579  1.0000
  H   H47       1.0  0.24372  0.59926  0.74732  1.0000
  H   H48       1.0  0.59892  0.35634  0.74978  1.0000
  H   H49       1.0  0.64272  0.24605  0.75766  1.0000
  H   H50       1.0  0.75292  0.39933  0.75191  1.0000
  H   H51       1.0  0.44941  0.64350  0.77299  1.0000
  H   H52       1.0  0.19576  0.55466  0.78709  1.0000
  H   H53       1.0  0.54972  0.35915  0.73115  1.0000
  H   H54       1.0  0.47879  0.61023  0.77918  1.0000
  H   H55       1.0  0.13293  0.52707  0.79057  1.0000
  H   H56       1.0  0.52208  0.39392  0.72559  1.0000
  H   H57       1.0  0.37833  0.51536  0.75837  1.0000
  H   H58       1.0  0.13779  0.62297  0.75909  1.0000
  H   H59       1.0  0.62334  0.48659  0.74077  1.0000
  H   H60       1.0  0.34833  0.54917  0.75277  1.0000
  H   H61       1.0  0.20198  0.65150  0.75931  1.0000
  H   H62       1.0  0.65169  0.45134  0.74675  1.0000
  H   H63       1.0  0.48638  0.56887  0.69459  1.0000
  H   H64       1.0  0.42380  0.91562  0.72292  1.0000
  H   H65       1.0  0.06935  0.50142  0.65702  1.0000
  H   H66       1.0  0.51866  0.43796  0.82838  1.0000
  H   H67       1.0  0.56856  0.07740  0.71594  1.0000
  H   H68       1.0  0.92883  0.49704  0.85698  1.0000
  H   H69       1.0  0.43638  0.97462  0.75186  1.0000
  H   H70       1.0  0.55871  0.02090  0.71395  1.0000
  H   H71       1.0  0.52006  0.95763  0.71934  1.0000
  H   H72       1.0  0.47568  0.03838  0.75246  1.0000
  C   C1        1.0  0.36183  0.70117  0.24402  1.0000
  C   C2        1.0  0.30275  0.65892  0.25921  1.0000
  C   C3        1.0  0.34550  0.64159  0.25470  1.0000
  C   C4        1.0  0.64145  0.29961  0.24486  1.0000
  C   C5        1.0  0.70160  0.34291  0.23912  1.0000
  C   C6        1.0  0.65883  0.36027  0.24581  1.0000
  C   C7        1.0  0.37064  0.67563  0.24880  1.0000
  C   C8        1.0  0.32801  0.69263  0.25064  1.0000
  C   C9        1.0  0.31140  0.63335  0.25850  1.0000
  C   C10       1.0  0.63314  0.32560  0.24505  1.0000
  C   C11       1.0  0.67547  0.30834  0.23970  1.0000
  C   C12       1.0  0.69328  0.36882  0.24462  1.0000
  C   C13       1.0  0.35244  0.61269  0.26522  1.0000
  C   C14       1.0  0.39021  0.73648  0.23290  1.0000
  C   C15       1.0  0.26894  0.65435  0.27823  1.0000
  C   C16       1.0  0.65202  0.38950  0.24122  1.0000
  C   C17       1.0  0.61200  0.26393  0.25041  1.0000
  C   C18       1.0  0.73651  0.34833  0.22800  1.0000
  C   C19       1.0  0.43586  0.61407  0.26969  1.0000
  C   C20       1.0  0.38810  0.81838  0.25788  1.0000
  C   C21       1.0  0.18586  0.57059  0.27280  1.0000
  C   C22       1.0  0.56762  0.38540  0.24325  1.0000
  C   C23       1.0  0.61519  0.18378  0.26737  1.0000
  C   C24       1.0  0.45124  0.59415  0.27307  1.0000
  C   C25       1.0  0.40784  0.85466  0.26633  1.0000
  C   C26       1.0  0.15014  0.55511  0.27128  1.0000
  C   C27       1.0  0.55069  0.40383  0.24075  1.0000
  C   C28       1.0  0.59498  0.14797  0.26398  1.0000
  C   C29       1.0  0.43006  0.55752  0.26714  1.0000
  C   C30       1.0  0.44199  0.87074  0.24783  1.0000
  C   C31       1.0  0.13368  0.57463  0.26288  1.0000
  C   C32       1.0  0.56914  0.43951  0.23523  1.0000
  C   C33       1.0  0.55771  0.13050  0.25349  1.0000
  C   C34       1.0  0.39344  0.54227  0.26009  1.0000
  C   C35       1.0  0.45530  0.84893  0.22209  1.0000
  C   C36       1.0  0.15453  0.60999  0.25722  1.0000
  C   C37       1.0  0.60450  0.45508  0.22865  1.0000
  C   C38       1.0  0.54233  0.15089  0.24907  1.0000
  C   C39       1.0  0.37762  0.56185  0.25551  1.0000
  C   C40       1.0  0.43567  0.81241  0.21232  1.0000
  C   C41       1.0  0.19025  0.62574  0.25880  1.0000
  C   C42       1.0  0.62193  0.43697  0.23233  1.0000
  C   C43       1.0  0.56214  0.18673  0.25128  1.0000
  C   C44       1.0  0.39896  0.59821  0.26073  1.0000
  C   C45       1.0  0.40177  0.79687  0.23129  1.0000
  C   C46       1.0  0.20621  0.60594  0.26625  1.0000
  C   C47       1.0  0.60345  0.40173  0.24041  1.0000
  C   C48       1.0  0.59897  0.20351  0.25935  1.0000
  C   C49       1.0  0.47004  0.54121  0.23093  1.0000
  C   C50       1.0  0.45105  0.92623  0.23615  1.0000
  C   C51       1.0  0.07207  0.52702  0.22097  1.0000
  C   C52       1.0  0.52759  0.45375  0.27319  1.0000
  C   C53       1.0  0.54361  0.07198  0.23920  1.0000
  C   C54       1.0  0.93472  0.47743  0.29513  1.0000
  C   C55       1.0  0.35792  0.69946  0.74061  1.0000
  C   C56       1.0  0.29920  0.65780  0.75989  1.0000
  C   C57       1.0  0.34133  0.63975  0.75059  1.0000
  C   C58       1.0  0.63714  0.29784  0.74281  1.0000
  C   C59       1.0  0.69777  0.34081  0.74055  1.0000
  C   C60       1.0  0.65593  0.35920  0.74965  1.0000
  C   C61       1.0  0.36626  0.67356  0.74278  1.0000
  C   C62       1.0  0.32461  0.69155  0.75125  1.0000
  C   C63       1.0  0.30756  0.63196  0.75725  1.0000
  C   C64       1.0  0.62951  0.32435  0.74561  1.0000
  C   C65       1.0  0.67111  0.30620  0.73837  1.0000
  C   C66       1.0  0.69021  0.36725  0.74895  1.0000
  C   C67       1.0  0.34852  0.61095  0.76036  1.0000
  C   C68       1.0  0.38709  0.73462  0.73075  1.0000
  C   C69       1.0  0.26554  0.65342  0.78104  1.0000
  C   C70       1.0  0.65042  0.38929  0.74759  1.0000
  C   C71       1.0  0.60728  0.26187  0.74460  1.0000
  C   C72       1.0  0.73221  0.34582  0.72684  1.0000
  C   C73       1.0  0.43362  0.61522  0.76887  1.0000
  C   C74       1.0  0.18265  0.56937  0.77734  1.0000
  C   C75       1.0  0.56606  0.38723  0.73369  1.0000
  C   C76       1.0  0.45008  0.59631  0.77151  1.0000
  C   C77       1.0  0.14689  0.55350  0.77599  1.0000
  C   C78       1.0  0.55057  0.40704  0.73161  1.0000
  C   C79       1.0  0.43001  0.55963  0.76581  1.0000
  C   C80       1.0  0.12991  0.57254  0.76713  1.0000
  C   C81       1.0  0.57147  0.44366  0.73746  1.0000
  C   C82       1.0  0.39339  0.54338  0.76006  1.0000
  C   C83       1.0  0.15065  0.60810  0.76289  1.0000
  C   C84       1.0  0.60778  0.45880  0.74123  1.0000
  C   C85       1.0  0.37648  0.56196  0.75641  1.0000
  C   C86       1.0  0.18636  0.62419  0.76362  1.0000
  C   C87       1.0  0.62375  0.43933  0.74453  1.0000
  C   C88       1.0  0.39666  0.59828  0.76043  1.0000
  C   C89       1.0  0.20265  0.60467  0.76982  1.0000
  C   C90       1.0  0.60283  0.40312  0.74126  1.0000
  C   C91       1.0  0.47209  0.54570  0.73452  1.0000
  C   C92       1.0  0.45294  0.92549  0.73932  1.0000
  C   C93       1.0  0.06789  0.52421  0.72045  1.0000
  C   C94       1.0  0.53170  0.45988  0.77933  1.0000
  C   C95       1.0  0.54289  0.07058  0.73219  1.0000
  C   C96       1.0  0.93002  0.47406  0.79317  1.0000
  C   C97       1.0  0.46326  0.98497  0.74369  1.0000
  C   C98       1.0  0.53231  0.01091  0.72622  1.0000
  C   C99       1.0  0.51101  0.97578  0.72850  1.0000
  C   C100      1.0  0.48492  0.02037  0.74458  1.0000
  C   C101      1.0  0.47609  0.96227  0.73756  1.0000
  C   C102      1.0  0.51984  0.03390  0.73544  1.0000
  N   N1        1.0  0.38558  0.62033  0.25938  1.0000
  N   N2        1.0  0.38054  0.76083  0.22932  1.0000
  N   N3        1.0  0.24168  0.61937  0.26384  1.0000
  N   N4        1.0  0.61816  0.38075  0.24271  1.0000
  N   N5        1.0  0.62117  0.23932  0.25964  1.0000
  N   N6        1.0  0.76335  0.38307  0.23796  1.0000
  N   N7        1.0  0.44296  0.53518  0.27373  1.0000
  N   N8        1.0  0.46413  0.90662  0.25116  1.0000
  N   N9        1.0  0.09924  0.56269  0.27093  1.0000
  N   N10       1.0  0.55509  0.46091  0.23160  1.0000
  N   N11       1.0  0.53444  0.09487  0.25100  1.0000
  N   N12       1.0  0.90729  0.44167  0.24226  1.0000
  N   N13       1.0  0.38223  0.61949  0.75820  1.0000
  N   N14       1.0  0.37751  0.75885  0.71793  1.0000
  N   N15       1.0  0.23816  0.61840  0.76688  1.0000
  N   N16       1.0  0.61617  0.38096  0.74210  1.0000
  N   N17       1.0  0.61697  0.23766  0.75517  1.0000
  N   N18       1.0  0.75941  0.38084  0.74114  1.0000
  N   N19       1.0  0.44383  0.53802  0.77056  1.0000
  N   N20       1.0  0.46590  0.90584  0.75687  1.0000
  N   N21       1.0  0.09522  0.56006  0.77402  1.0000
  N   N22       1.0  0.55852  0.46603  0.73409  1.0000
  N   N23       1.0  0.53313  0.09298  0.74575  1.0000
  N   N24       1.0  0.90257  0.43832  0.74049  1.0000
  O   O1        1.0  0.32982  0.58468  0.28352  1.0000
  O   O2        1.0  0.41953  0.74230  0.22584  1.0000
  O   O3        1.0  0.26687  0.68101  0.30675  1.0000
  O   O4        1.0  0.67520  0.41858  0.23143  1.0000
  O   O5        1.0  0.58204  0.25815  0.24916  1.0000
  O   O6        1.0  0.73985  0.32254  0.21015  1.0000
  O   O7        1.0  0.32581  0.58246  0.77557  1.0000
  O   O8        1.0  0.41717  0.74045  0.73346  1.0000
  O   O9        1.0  0.26372  0.68019  0.81081  1.0000
  O   O10       1.0  0.67499  0.41869  0.74470  1.0000
  O   O11       1.0  0.57694  0.25562  0.74024  1.0000
  O   O12       1.0  0.73482  0.31951  0.70267  1.0000
  C   C103      1.0  0.54908  0.17557  0.73744  1.0000
  C   C104      1.0  0.58706  0.19932  0.76192  1.0000
  C  Sn1       1.0  0.60972  0.18651  0.77230  1.0000
  C  Sn2       1.0  0.59398  0.14922  0.75781  1.0000
  C   C105      1.0  0.55594  0.12567  0.73320  1.0000
  C   C106      1.0  0.53352  0.13878  0.72306  1.0000
  H   H73       1.0  0.53172  0.18570  0.72948  1.0000
  O  Te1       1.0  0.64761  0.21061  0.79686  1.0000
  O  Te2       1.0  0.61598  0.13569  0.76765  1.0000
  H   H74       1.0  0.50411  0.12038  0.70397  1.0000
  Mg  Mg1       1.0  0.66615  0.17922  0.80202  1.0000
  C   C107      1.0  0.00348  0.53374  0.83823  1.0000
  C   C108      1.0  0.97054  0.49630  0.77882  1.0000
  C  Sn3       1.0  0.96974  0.46519  0.70225  1.0000
  C  Sn4       1.0  0.00258  0.47179  0.68507  1.0000
  C   C109      1.0  0.03540  0.50936  0.74505  1.0000
  C   C110      1.0  0.03589  0.54028  0.82141  1.0000
  H   H75       1.0  0.00387  0.55766  0.89741  1.0000
  O  Te3       1.0  0.93659  0.42797  0.64352  1.0000
  O  Te4       1.0  0.00256  0.44123  0.60911  1.0000
  H   H76       1.0  0.06141  0.56927  0.86751  1.0000
  Mg  Mg2       1.0  0.95055  0.39573  0.54904  1.0000
  C   C111      1.0  0.84403  0.38655  0.26088  1.0000
  C   C112      1.0  0.86668  0.41932  0.23977  1.0000
  C  Sn5       1.0  0.85563  0.44296  0.22725  1.0000
  C  Sn6       1.0  0.82125  0.43354  0.23612  1.0000
  C   C113      1.0  0.79880  0.40071  0.25739  1.0000
  C   C114      1.0  0.81012  0.37726  0.26972  1.0000
  H   H77       1.0  0.85280  0.36842  0.27053  1.0000
  O  Te5       1.0  0.87859  0.47558  0.20612  1.0000
  O  Te6       1.0  0.80953  0.45667  0.22403  1.0000
  H   H78       1.0  0.79259  0.35190  0.28618  1.0000
  Mg  Mg3       1.0  0.85050  0.49809  0.19598  1.0000
  C   C115      1.0  0.81908  0.37400  0.75117  1.0000
  C   C116      1.0  0.79919  0.38961  0.75279  1.0000
  C  Sn7       1.0  0.81352  0.42426  0.74141  1.0000
  C  Sn8       1.0  0.84842  0.44357  0.72813  1.0000
  C   C117      1.0  0.86809  0.42769  0.72648  1.0000
  C   C118      1.0  0.85349  0.39301  0.73799  1.0000
  H   H79       1.0  0.80777  0.34716  0.75997  1.0000
  O  Te7       1.0  0.79329  0.43947  0.74328  1.0000
  O  Te8       1.0  0.86339  0.47823  0.71650  1.0000
  H   H80       1.0  0.86888  0.38092  0.73661  1.0000
  Mg  Mg4       1.0  0.82533  0.48745  0.72435  1.0000
  C   C119      1.0  0.52803  0.53102  0.24561  1.0000
  C   C120      1.0  0.49245  0.52186  0.23196  1.0000
  C  Sn9       1.0  0.46717  0.48909  0.24607  1.0000
  C  Sn10      1.0  0.47781  0.46510  0.27442  1.0000
  C   C121      1.0  0.51349  0.47453  0.28803  1.0000
  C   C122      1.0  0.53855  0.50739  0.27366  1.0000
  H   H81       1.0  0.54744  0.55645  0.23460  1.0000
  O  Te9       1.0  0.43173  0.48035  0.23204  1.0000
  O  Te10      1.0  0.45311  0.43218  0.28909  1.0000
  H   H82       1.0  0.56611  0.51449  0.28436  1.0000
  Mg  Mg5       1.0  0.40792  0.43238  0.26089  1.0000
  C   C123      1.0  0.98007  0.46037  0.18072  1.0000
  C   C124      1.0  0.97118  0.48253  0.26512  1.0000
  C  Sn11      1.0  0.99599  0.52235  0.33155  1.0000
  C  Sn12      1.0  0.03030  0.54023  0.31289  1.0000
  C   C125      1.0  0.03892  0.51781  0.22811  1.0000
  C   C126      1.0  0.01390  0.47799  0.16219  1.0000
  H   H83       1.0  0.96070  0.42956  0.12961  1.0000
  O  Te11      1.0  0.98668  0.54405  0.41559  1.0000
  O  Te12      1.0  0.05560  0.57997  0.37799  1.0000
  H   H84       1.0  0.02077  0.46084  0.09673  1.0000
  Mg  Mg6       1.0  0.03032  0.59725  0.48235  1.0000
  C   C127      1.0  0.45564  0.83931  0.72957  1.0000
  C   C128      1.0  0.44574  0.86404  0.73855  1.0000
  C  Sn13      1.0  0.41228  0.85432  0.75276  1.0000
  C  Sn14      1.0  0.38836  0.81917  0.75810  1.0000
  C   C129      1.0  0.39853  0.79464  0.74917  1.0000
  C   C130      1.0  0.43207  0.80464  0.73490  1.0000
  H   H85       1.0  0.48160  0.84706  0.71864  1.0000
  O  Te13      1.0  0.40281  0.87935  0.76152  1.0000
  O  Te14      1.0  0.35477  0.80875  0.77233  1.0000
  H   H86       1.0  0.43974  0.78550  0.72808  1.0000
  Mg  Mg7       1.0  0.35409  0.85242  0.78005  1.0000
  C   C131      1.0  0.98272  0.01416  0.24098  1.0000
  C   C132      1.0  0.51187  0.03337  0.25159  1.0000
  C  Sn15      1.0  0.03718  0.01539  0.24389  1.0000
  C  Sn16      1.0  0.01720  0.97747  0.22517  1.0000
  C   C133      1.0  0.98020  0.95850  0.21453  1.0000
  C   C134      1.0  0.96298  0.97676  0.22244  1.0000
  H   H87       1.0  0.46156  0.02828  0.24699  1.0000
  O  Te15      1.0  0.56632  0.03499  0.25475  1.0000
  O  Te16      1.0  0.03399  0.95883  0.21705  1.0000
  H   H88       1.0  0.93434  0.96187  0.21409  1.0000
  Mg  Mg8       1.0  0.08490  0.99746  0.23753  1.0000
  C   C135      1.0  0.53785  0.52451  0.74370  1.0000
  C   C136      1.0  0.52398  0.49189  0.77512  1.0000
  C  Sn17      1.0  0.48902  0.47380  0.78366  1.0000
  C  Sn18      1.0  0.46761  0.48871  0.76019  1.0000
  C   C137      1.0  0.48173  0.52134  0.72868  1.0000
  C   C138      1.0  0.51675  0.53922  0.72047  1.0000
  H   H89       1.0  0.56494  0.53833  0.73724  1.0000
  O  Te17      1.0  0.47559  0.44124  0.81523  1.0000
  O  Te18      1.0  0.43258  0.47119  0.76800  1.0000
  H   H90       1.0  0.52747  0.56446  0.69601  1.0000
  Mg  Mg9       1.0  0.42630  0.42751  0.81424  1.0000
