data_image0
_chemical_formula_structural       H36C48N24O12C2Sn2C2HTe2HMgC2Sn2C2HTe2HMgC2Sn2C2HTe2HMgC2Sn2C2HTe2HMgC2Sn2C2HTe2HMgC2Sn2C2HTe2HMgC2Sn2C2HTe2HMgC2Sn2C2HTe2HMgC2Sn2C2HTe2HMgC2Sn2C2HTe2HMgC2Sn2C2HTe2HMgC2Sn2C2HTe2HMgC2Sn2C2HTe2HMgC2Sn2C2HTe2HMgC2Sn2C2HTe2HMgC2Sn2C2HTe2HMgC2Sn2C2HTe2HMgC2Sn2C2HTe2HMg
_chemical_formula_sum              "H72 C120 N24 O12 Sn36 Te36 Mg18"
_cell_length_a       45.1537
_cell_length_b       45.226
_cell_length_c       8.10332
_cell_angle_alpha    101.444
_cell_angle_beta     109.639
_cell_angle_gamma    120.465

_symmetry_space_group_name_H-M    'P1'
_space_group_IT_number       1

loop_
  _space_group_symop_operation_xyz
  'x, y, z'

loop_
  _atom_site_type_symbol
  _atom_site_label
  _atom_site_symmetry_multiplicity
  _atom_site_fract_x
  _atom_site_fract_y
  _atom_site_fract_z
  _atom_site_occupancy
  H   H1        1.0  0.39772  0.68415  0.24628  1.0000
  H   H2        1.0  0.31920  0.71102  0.24999  1.0000
  H   H3        1.0  0.29382  0.60702  0.26941  1.0000
  H   H4        1.0  0.60576  0.31669  0.24524  1.0000
  H   H5        1.0  0.68371  0.28948  0.23586  1.0000
  H   H6        1.0  0.71177  0.39606  0.24283  1.0000
  H   H7        1.0  0.40147  0.64392  0.24130  1.0000
  H   H8        1.0  0.35643  0.75337  0.24264  1.0000
  H   H9        1.0  0.24732  0.60027  0.24609  1.0000
  H   H10       1.0  0.60229  0.35667  0.25728  1.0000
  H   H11       1.0  0.64698  0.24739  0.26359  1.0000
  H   H12       1.0  0.75654  0.40132  0.24595  1.0000
  H   H13       1.0  0.48337  0.56305  0.18188  1.0000
  H   H14       1.0  0.42203  0.91636  0.22153  1.0000
  H   H15       1.0  0.07343  0.50402  0.15989  1.0000
  H   H16       1.0  0.51365  0.43087  0.31542  1.0000
  H   H17       1.0  0.56953  0.07847  0.22655  1.0000
  H   H18       1.0  0.93362  0.50046  0.35923  1.0000
  H   H19       1.0  0.39301  0.68188  0.73695  1.0000
  H   H20       1.0  0.31661  0.71059  0.75452  1.0000
  H   H21       1.0  0.28996  0.60570  0.76867  1.0000
  H   H22       1.0  0.60220  0.31582  0.74555  1.0000
  H   H23       1.0  0.67882  0.28692  0.73110  1.0000
  H   H24       1.0  0.70927  0.39463  0.74979  1.0000
  H   H25       1.0  0.39774  0.64318  0.74013  1.0000
  H   H26       1.0  0.35183  0.75072  0.71579  1.0000
  H   H27       1.0  0.24372  0.59926  0.74732  1.0000
  H   H28       1.0  0.59892  0.35634  0.74978  1.0000
  H   H29       1.0  0.64272  0.24605  0.75766  1.0000
  H   H30       1.0  0.75292  0.39933  0.75191  1.0000
  H   H31       1.0  0.48638  0.56887  0.69459  1.0000
  H   H32       1.0  0.42380  0.91562  0.72292  1.0000
  H   H33       1.0  0.06935  0.50142  0.65702  1.0000
  H   H34       1.0  0.51866  0.43796  0.82838  1.0000
  H   H35       1.0  0.56856  0.07740  0.71594  1.0000
  H   H36       1.0  0.92883  0.49704  0.85698  1.0000
  C   C1        1.0  0.36183  0.70117  0.24402  1.0000
  C   C2        1.0  0.30275  0.65892  0.25921  1.0000
  C   C3        1.0  0.34550  0.64159  0.25470  1.0000
  C   C4        1.0  0.64145  0.29961  0.24486  1.0000
  C   C5        1.0  0.70160  0.34291  0.23912  1.0000
  C   C6        1.0  0.65883  0.36027  0.24581  1.0000
  C   C7        1.0  0.37064  0.67563  0.24880  1.0000
  C   C8        1.0  0.32801  0.69263  0.25064  1.0000
  C   C9        1.0  0.31140  0.63335  0.25850  1.0000
  C   C10       1.0  0.63314  0.32560  0.24505  1.0000
  C   C11       1.0  0.67547  0.30834  0.23970  1.0000
  C   C12       1.0  0.69328  0.36882  0.24462  1.0000
  C   C13       1.0  0.35244  0.61269  0.26522  1.0000
  C   C14       1.0  0.39021  0.73648  0.23290  1.0000
  C   C15       1.0  0.26894  0.65435  0.27823  1.0000
  C   C16       1.0  0.65202  0.38950  0.24122  1.0000
  C   C17       1.0  0.61200  0.26393  0.25041  1.0000
  C   C18       1.0  0.73651  0.34833  0.22800  1.0000
  C   C19       1.0  0.47004  0.54121  0.23093  1.0000
  C   C20       1.0  0.45105  0.92623  0.23615  1.0000
  C   C21       1.0  0.07207  0.52702  0.22097  1.0000
  C   C22       1.0  0.52759  0.45375  0.27319  1.0000
  C   C23       1.0  0.54361  0.07198  0.23920  1.0000
  C   C24       1.0  0.93472  0.47743  0.29513  1.0000
  C   C25       1.0  0.35792  0.69946  0.74061  1.0000
  C   C26       1.0  0.29920  0.65780  0.75989  1.0000
  C   C27       1.0  0.34133  0.63975  0.75059  1.0000
  C   C28       1.0  0.63714  0.29784  0.74281  1.0000
  C   C29       1.0  0.69777  0.34081  0.74055  1.0000
  C   C30       1.0  0.65593  0.35920  0.74965  1.0000
  C   C31       1.0  0.36626  0.67356  0.74278  1.0000
  C   C32       1.0  0.32461  0.69155  0.75125  1.0000
  C   C33       1.0  0.30756  0.63196  0.75725  1.0000
  C   C34       1.0  0.62951  0.32435  0.74561  1.0000
  C   C35       1.0  0.67111  0.30620  0.73837  1.0000
  C   C36       1.0  0.69021  0.36725  0.74895  1.0000
  C   C37       1.0  0.34852  0.61095  0.76036  1.0000
  C   C38       1.0  0.38709  0.73462  0.73075  1.0000
  C   C39       1.0  0.26554  0.65342  0.78104  1.0000
  C   C40       1.0  0.65042  0.38929  0.74759  1.0000
  C   C41       1.0  0.60728  0.26187  0.74460  1.0000
  C   C42       1.0  0.73221  0.34582  0.72684  1.0000
  C   C43       1.0  0.47209  0.54570  0.73452  1.0000
  C   C44       1.0  0.45294  0.92549  0.73932  1.0000
  C   C45       1.0  0.06789  0.52421  0.72045  1.0000
  C   C46       1.0  0.53170  0.45988  0.77933  1.0000
  C   C47       1.0  0.54289  0.07058  0.73219  1.0000
  C   C48       1.0  0.93002  0.47406  0.79317  1.0000
  N   N1        1.0  0.38558  0.62033  0.25938  1.0000
  N   N2        1.0  0.38054  0.76083  0.22932  1.0000
  N   N3        1.0  0.24168  0.61937  0.26384  1.0000
  N   N4        1.0  0.61816  0.38075  0.24271  1.0000
  N   N5        1.0  0.62117  0.23932  0.25964  1.0000
  N   N6        1.0  0.76335  0.38307  0.23796  1.0000
  N   N7        1.0  0.44296  0.53518  0.27373  1.0000
  N   N8        1.0  0.46413  0.90662  0.25116  1.0000
  N   N9        1.0  0.09924  0.56269  0.27093  1.0000
  N   N10       1.0  0.55509  0.46091  0.23160  1.0000
  N   N11       1.0  0.53444  0.09487  0.25100  1.0000
  N   N12       1.0  0.90729  0.44167  0.24226  1.0000
  N   N13       1.0  0.38223  0.61949  0.75820  1.0000
  N   N14       1.0  0.37751  0.75885  0.71793  1.0000
  N   N15       1.0  0.23816  0.61840  0.76688  1.0000
  N   N16       1.0  0.61617  0.38096  0.74210  1.0000
  N   N17       1.0  0.61697  0.23766  0.75517  1.0000
  N   N18       1.0  0.75941  0.38084  0.74114  1.0000
  N   N19       1.0  0.44383  0.53802  0.77056  1.0000
  N   N20       1.0  0.46590  0.90584  0.75687  1.0000
  N   N21       1.0  0.09522  0.56006  0.77402  1.0000
  N   N22       1.0  0.55852  0.46603  0.73409  1.0000
  N   N23       1.0  0.53313  0.09298  0.74575  1.0000
  N   N24       1.0  0.90257  0.43832  0.74049  1.0000
  O   O1        1.0  0.32982  0.58468  0.28352  1.0000
  O   O2        1.0  0.41953  0.74230  0.22584  1.0000
  O   O3        1.0  0.26687  0.68101  0.30675  1.0000
  O   O4        1.0  0.67520  0.41858  0.23143  1.0000
  O   O5        1.0  0.58204  0.25815  0.24916  1.0000
  O   O6        1.0  0.73985  0.32254  0.21015  1.0000
  O   O7        1.0  0.32581  0.58246  0.77557  1.0000
  O   O8        1.0  0.41717  0.74045  0.73346  1.0000
  O   O9        1.0  0.26372  0.68019  0.81081  1.0000
  O   O10       1.0  0.67499  0.41869  0.74470  1.0000
  O   O11       1.0  0.57694  0.25562  0.74024  1.0000
  O   O12       1.0  0.73482  0.31951  0.70267  1.0000
  C   C49       1.0  0.45185  0.60245  0.26784  1.0000
  C   C50       1.0  0.43741  0.56786  0.28009  1.0000
  C  Sn1       1.0  0.40092  0.54675  0.27320  1.0000
  C  Sn2       1.0  0.37852  0.56058  0.25362  1.0000
  C   C51       1.0  0.39320  0.59520  0.24135  1.0000
  C   C52       1.0  0.42976  0.61611  0.24846  1.0000
  H   H37       1.0  0.48012  0.61862  0.27324  1.0000
  O  Te1       1.0  0.38694  0.51225  0.28570  1.0000
  O  Te2       1.0  0.34194  0.54005  0.24629  1.0000
  H   H38       1.0  0.44092  0.64288  0.23885  1.0000
  Mg  Mg1       1.0  0.33546  0.49460  0.26900  1.0000
  C   C53       1.0  0.44337  0.81984  0.20510  1.0000
  C   C54       1.0  0.41156  0.80051  0.23648  1.0000
  C  Sn3       1.0  0.39310  0.81644  0.26720  1.0000
  C  Sn4       1.0  0.40682  0.85238  0.26635  1.0000
  C   C55       1.0  0.43865  0.87148  0.23469  1.0000
  C   C56       1.0  0.45691  0.85529  0.20417  1.0000
  H   H39       1.0  0.45748  0.80730  0.18138  1.0000
  O  Te3       1.0  0.36137  0.79675  0.29839  1.0000
  O  Te4       1.0  0.38891  0.86895  0.29659  1.0000
  H   H40       1.0  0.48152  0.87025  0.17975  1.0000
  Mg  Mg2       1.0  0.34667  0.83107  0.33277  1.0000
  C   C57       1.0  0.15734  0.55363  0.26688  1.0000
  C   C58       1.0  0.13831  0.56995  0.27634  1.0000
  C  Sn5       1.0  0.15309  0.60501  0.26928  1.0000
  C  Sn6       1.0  0.18756  0.62402  0.25237  1.0000
  C   C59       1.0  0.20636  0.60745  0.24288  1.0000
  C   C60       1.0  0.19132  0.57235  0.25013  1.0000
  H   H41       1.0  0.14569  0.52647  0.27239  1.0000
  O  Te5       1.0  0.13373  0.62092  0.27898  1.0000
  O  Te6       1.0  0.20296  0.65909  0.24493  1.0000
  H   H42       1.0  0.20604  0.55972  0.24268  1.0000
  Mg  Mg3       1.0  0.16607  0.66924  0.26329  1.0000
  C   C61       1.0  0.62177  0.44482  0.22511  1.0000
  C   C62       1.0  0.61040  0.41163  0.24881  1.0000
  C  Sn7       1.0  0.57564  0.39038  0.25658  1.0000
  C  Sn8       1.0  0.55188  0.40264  0.24021  1.0000
  C   C63       1.0  0.56350  0.43587  0.21640  1.0000
  C   C64       1.0  0.59835  0.45693  0.20888  1.0000
  H   H43       1.0  0.64872  0.46111  0.21918  1.0000
  O  Te7       1.0  0.56472  0.35729  0.28040  1.0000
  O  Te8       1.0  0.51699  0.38193  0.24743  1.0000
  H   H44       1.0  0.60713  0.48262  0.19040  1.0000
  Mg  Mg4       1.0  0.51459  0.33877  0.28176  1.0000
  C   C65       1.0  0.60337  0.15551  0.26060  1.0000
  C   C66       1.0  0.56832  0.13514  0.26715  1.0000
  C  Sn9       1.0  0.54680  0.14913  0.26136  1.0000
  C  Sn10      1.0  0.56068  0.18416  0.24874  1.0000
  C   C67       1.0  0.59575  0.20430  0.24213  1.0000
  C   C68       1.0  0.61707  0.19005  0.24807  1.0000
  H   H45       1.0  0.61985  0.14447  0.26508  1.0000
  O  Te9       1.0  0.51185  0.12843  0.26812  1.0000
  O  Te10      1.0  0.53973  0.19878  0.24266  1.0000
  H   H46       1.0  0.64419  0.20581  0.24287  1.0000
  Mg  Mg5       1.0  0.49375  0.16013  0.25582  1.0000
  C   C69       1.0  0.82874  0.44106  0.23923  1.0000
  C   C70       1.0  0.80313  0.40556  0.23200  1.0000
  C  Sn11      1.0  0.81385  0.38162  0.24136  1.0000
  C  Sn12      1.0  0.85093  0.39352  0.25832  1.0000
  C   C71       1.0  0.87635  0.42911  0.26558  1.0000
  C   C72       1.0  0.86532  0.45283  0.25604  1.0000
  H   H47       1.0  0.82021  0.45943  0.23196  1.0000
  O  Te11      1.0  0.78790  0.34624  0.23386  1.0000
  O  Te12      1.0  0.86239  0.37017  0.26803  1.0000
  H   H48       1.0  0.88516  0.48033  0.26177  1.0000
  Mg  Mg6       1.0  0.81684  0.32452  0.25217  1.0000
  C   C73       1.0  0.46187  0.47539  0.25869  1.0000
  C   C74       1.0  0.47955  0.51109  0.25700  1.0000
  C  Sn13      1.0  0.51485  0.52900  0.25148  1.0000
  C  Sn14      1.0  0.53271  0.51076  0.24755  1.0000
  C   C75       1.0  0.51478  0.47504  0.24914  1.0000
  C   C76       1.0  0.47946  0.45738  0.25473  1.0000
  H   H49       1.0  0.43453  0.46172  0.26291  1.0000
  O  Te13      1.0  0.53212  0.56467  0.24994  1.0000
  O  Te14      1.0  0.56798  0.52802  0.24193  1.0000
  H   H50       1.0  0.46576  0.42973  0.25591  1.0000
  Mg  Mg7       1.0  0.58019  0.57670  0.24188  1.0000
  C   C77       1.0  0.98272  0.01416  0.24098  1.0000
  C   C78       1.0  0.51187  0.03337  0.25159  1.0000
  C  Sn15      1.0  0.03718  0.01539  0.24389  1.0000
  C  Sn16      1.0  0.01720  0.97747  0.22517  1.0000
  C   C79       1.0  0.98020  0.95850  0.21453  1.0000
  C   C80       1.0  0.96298  0.97676  0.22244  1.0000
  H   H51       1.0  0.46156  0.02828  0.24699  1.0000
  O  Te15      1.0  0.56632  0.03499  0.25475  1.0000
  O  Te16      1.0  0.03399  0.95883  0.21705  1.0000
  H   H52       1.0  0.93434  0.96187  0.21409  1.0000
  Mg  Mg8       1.0  0.08490  0.99746  0.23753  1.0000
  C   C81       1.0  0.02567  0.54382  0.32536  1.0000
  C   C82       1.0  0.03766  0.52250  0.26879  1.0000
  C  Sn17      1.0  0.01321  0.48278  0.20557  1.0000
  C  Sn18      1.0  0.97608  0.46413  0.19898  1.0000
  C   C83       1.0  0.96434  0.48571  0.25574  1.0000
  C   C84       1.0  0.98905  0.52544  0.31882  1.0000
  H   H53       1.0  0.04477  0.57456  0.37406  1.0000
  O  Te17      1.0  0.02565  0.46193  0.14965  1.0000
  O  Te18      1.0  0.95105  0.42447  0.13632  1.0000
  H   H54       1.0  0.97974  0.54193  0.36249  1.0000
  Mg  Mg9       1.0  0.98114  0.40849  0.07504  1.0000
  C   C85       1.0  0.37515  0.55288  0.75093  1.0000
  C   C86       1.0  0.39147  0.58998  0.76937  1.0000
  C  Sn19      1.0  0.42807  0.61231  0.77855  1.0000
  C  Sn20      1.0  0.44865  0.59714  0.76901  1.0000
  C   C87       1.0  0.43206  0.55998  0.75043  1.0000
  C   C88       1.0  0.39542  0.53789  0.74143  1.0000
  H   H55       1.0  0.34680  0.53578  0.74387  1.0000
  O  Te19      1.0  0.44396  0.64932  0.79705  1.0000
  O  Te20      1.0  0.48527  0.61883  0.77778  1.0000
  H   H56       1.0  0.38278  0.50916  0.72703  1.0000
  Mg  Mg10      1.0  0.49473  0.66774  0.80310  1.0000
  C   C89       1.0  0.39880  0.84574  0.75937  1.0000
  C   C90       1.0  0.43528  0.86752  0.76670  1.0000
  C  Sn21      1.0  0.45402  0.85149  0.74348  1.0000
  C  Sn22      1.0  0.43582  0.81293  0.71231  1.0000
  C   C91       1.0  0.39931  0.79137  0.70508  1.0000
  C   C92       1.0  0.38082  0.80770  0.72856  1.0000
  H   H57       1.0  0.38448  0.85837  0.77742  1.0000
  O  Te21      1.0  0.49047  0.87366  0.75128  1.0000
  O  Te22      1.0  0.45389  0.79619  0.68858  1.0000
  H   H58       1.0  0.35257  0.79082  0.72275  1.0000
  Mg  Mg11      1.0  0.50345  0.83804  0.71084  1.0000
  C   C93       1.0  0.15415  0.55213  0.77158  1.0000
  C   C94       1.0  0.13476  0.56805  0.78098  1.0000
  C  Sn23      1.0  0.14912  0.60305  0.77362  1.0000
  C  Sn24      1.0  0.18352  0.62239  0.75646  1.0000
  C   C95       1.0  0.20269  0.60622  0.74702  1.0000
  C   C96       1.0  0.18808  0.57119  0.75458  1.0000
  H   H59       1.0  0.14284  0.52502  0.77732  1.0000
  O  Te23      1.0  0.12939  0.61856  0.78327  1.0000
  O  Te24      1.0  0.19849  0.65740  0.74871  1.0000
  H   H60       1.0  0.20308  0.55886  0.74716  1.0000
  Mg  Mg12      1.0  0.16122  0.66695  0.76713  1.0000
  C   C97       1.0  0.55843  0.38802  0.73752  1.0000
  C   C98       1.0  0.59224  0.39731  0.72817  1.0000
  C  Sn25      1.0  0.61753  0.43226  0.72995  1.0000
  C  Sn26      1.0  0.60874  0.45834  0.74137  1.0000
  C   C99       1.0  0.57486  0.44878  0.75080  1.0000
  C   C100      1.0  0.54974  0.41373  0.74886  1.0000
  H   H61       1.0  0.53901  0.36091  0.73612  1.0000
  O  Te25      1.0  0.65118  0.44108  0.72044  1.0000
  O  Te26      1.0  0.63352  0.49346  0.74347  1.0000
  H   H62       1.0  0.52358  0.40656  0.75622  1.0000
  Mg  Mg13      1.0  0.67585  0.49247  0.72766  1.0000
  C   C101      1.0  0.60131  0.15469  0.75597  1.0000
  C   C102      1.0  0.56633  0.13364  0.76232  1.0000
  C  Sn27      1.0  0.54402  0.14676  0.75554  1.0000
  C  Sn28      1.0  0.55704  0.18161  0.74211  1.0000
  C   C103      1.0  0.59206  0.20245  0.73571  1.0000
  C   C104      1.0  0.61417  0.18906  0.74265  1.0000
  H   H63       1.0  0.61840  0.14432  0.76123  1.0000
  O  Te27      1.0  0.50915  0.12538  0.76211  1.0000
  O  Te28      1.0  0.53531  0.19538  0.73503  1.0000
  H   H64       1.0  0.64123  0.20535  0.73760  1.0000
  Mg  Mg14      1.0  0.48978  0.15602  0.74832  1.0000
  C   C105      1.0  0.82410  0.43805  0.73503  1.0000
  C   C106      1.0  0.79878  0.40297  0.73217  1.0000
  C  Sn29      1.0  0.80961  0.37915  0.74425  1.0000
  C  Sn30      1.0  0.84649  0.39076  0.75951  1.0000
  C   C107      1.0  0.87162  0.42592  0.76238  1.0000
  C   C108      1.0  0.86048  0.44952  0.75015  1.0000
  H   H65       1.0  0.81550  0.45632  0.72567  1.0000
  O  Te29      1.0  0.78396  0.34419  0.74112  1.0000
  O  Te30      1.0  0.85805  0.36752  0.77186  1.0000
  H   H66       1.0  0.88010  0.47669  0.75249  1.0000
  Mg  Mg15      1.0  0.81292  0.32248  0.76174  1.0000
  C   C109      1.0  0.47437  0.47034  0.77709  1.0000
  C   C110      1.0  0.50690  0.47701  0.76169  1.0000
  C  Sn31      1.0  0.53144  0.50959  0.74421  1.0000
  C  Sn32      1.0  0.52319  0.53595  0.74221  1.0000
  C   C111      1.0  0.49059  0.52903  0.75784  1.0000
  C   C112      1.0  0.46622  0.49633  0.77521  1.0000
  H   H67       1.0  0.45553  0.44505  0.79063  1.0000
  O  Te31      1.0  0.56380  0.51581  0.72889  1.0000
  O  Te32      1.0  0.54724  0.56875  0.72497  1.0000
  H   H68       1.0  0.44106  0.49119  0.78726  1.0000
  Mg  Mg16      1.0  0.58787  0.56465  0.70821  1.0000
  C   C113      1.0  0.98334  0.01262  0.74077  1.0000
  C   C114      1.0  0.01997  0.03203  0.74791  1.0000
  C  Sn33      1.0  0.03786  0.01449  0.73967  1.0000
  C  Sn34      1.0  0.01865  0.97681  0.72393  1.0000
  C   C115      1.0  0.98200  0.95762  0.71676  1.0000
  C   C116      1.0  0.96436  0.97545  0.72517  1.0000
  H   H69       1.0  0.96967  0.02640  0.74717  1.0000
  O  Te33      1.0  0.07447  0.03430  0.74705  1.0000
  O  Te34      1.0  0.03587  0.95860  0.71535  1.0000
  H   H70       1.0  0.93599  0.96040  0.71952  1.0000
  Mg  Mg17      1.0  0.08604  0.99737  0.73056  1.0000
  C   C117      1.0  0.02060  0.54035  0.81990  1.0000
  C   C118      1.0  0.03300  0.51925  0.76632  1.0000
  C  Sn35      1.0  0.00898  0.47964  0.70643  1.0000
  C  Sn36      1.0  0.97188  0.46088  0.70015  1.0000
  C   C119      1.0  0.95974  0.48225  0.75390  1.0000
  C   C120      1.0  0.98401  0.52187  0.81367  1.0000
  H   H71       1.0  0.03937  0.57101  0.86604  1.0000
  O  Te35      1.0  0.02182  0.45899  0.65347  1.0000
  O  Te36      1.0  0.94729  0.42132  0.64078  1.0000
  H   H72       1.0  0.97439  0.53820  0.85502  1.0000
  Mg  Mg18      1.0  0.97782  0.40564  0.58276  1.0000
