data_image0
_chemical_formula_structural       H24C36N12O6SnCSn2CSnTe4Mg2SnCSn2CSnTe4Mg2SnCSn2CSnTe4Mg2SnCSn2CSnTe4Mg2SnCSn2CSnTe4Mg2SnCSn2CSnTe4Mg2SnCSn2CSnTe4Mg2SnCSn2CSnTe4Mg2SnCSn2CSnTe4Mg2SnCSn2CSnTe4Mg2SnCSn2CSnTe4Mg2SnCSn2CSnTe4Mg2
_chemical_formula_sum              "H24 C60 N12 O6 Sn48 Te48 Mg24"
_cell_length_a       29.9248
_cell_length_b       29.9159
_cell_length_c       8.09094
_cell_angle_alpha    85.4745
_cell_angle_beta     118.088
_cell_angle_gamma    119.871

_symmetry_space_group_name_H-M    'P1'
_space_group_IT_number       1

loop_
  _space_group_symop_operation_xyz
  'x, y, z'

loop_
  _atom_site_type_symbol
  _atom_site_label
  _atom_site_symmetry_multiplicity
  _atom_site_fract_x
  _atom_site_fract_y
  _atom_site_fract_z
  _atom_site_occupancy
  H   H1        1.0  0.28066  0.57437  0.31565  1.0000
  H   H2        1.0  0.43376  0.69424  0.28393  1.0000
  H   H3        1.0  0.31466  0.73166  0.30006  1.0000
  H   H4        1.0  0.44065  0.63612  0.26972  1.0000
  H   H5        1.0  0.36013  0.79258  0.22971  1.0000
  H   H6        1.0  0.20604  0.56417  0.25843  1.0000
  H   H7        1.0  0.72394  0.42345  0.22816  1.0000
  H   H8        1.0  0.57454  0.29154  0.24100  1.0000
  H   H9        1.0  0.70035  0.27070  0.19418  1.0000
  H   H10       1.0  0.57755  0.53302  0.19304  1.0000
  H   H11       1.0  0.46056  0.04005  0.23393  1.0000
  H   H12       1.0  0.97509  0.42682  0.35452  1.0000
  H   H13       1.0  0.27649  0.58034  0.82799  1.0000
  H   H14       1.0  0.42656  0.69781  0.77623  1.0000
  H   H15       1.0  0.30851  0.73668  0.79210  1.0000
  H   H16       1.0  0.43264  0.63961  0.76279  1.0000
  H   H17       1.0  0.36165  0.80139  0.76190  1.0000
  H   H18       1.0  0.19928  0.56972  0.75240  1.0000
  H   H19       1.0  0.71761  0.42824  0.73735  1.0000
  H   H20       1.0  0.55912  0.29183  0.68474  1.0000
  H   H21       1.0  0.69708  0.27641  0.70883  1.0000
  H   H22       1.0  0.56281  0.53164  0.66637  1.0000
  H   H23       1.0  0.48069  0.04802  0.81953  1.0000
  H   H24       1.0  0.96754  0.43079  0.84541  1.0000
  C   C1        1.0  0.35733  0.62848  0.29767  1.0000
  C   C2        1.0  0.37894  0.71835  0.28804  1.0000
  C   C3        1.0  0.29218  0.65276  0.30928  1.0000
  C   C4        1.0  0.30659  0.61508  0.30687  1.0000
  C   C5        1.0  0.39356  0.68036  0.29101  1.0000
  C   C6        1.0  0.32848  0.70430  0.29846  1.0000
  C   C7        1.0  0.36703  0.58422  0.28879  1.0000
  C   C8        1.0  0.41935  0.77171  0.26845  1.0000
  C   C9        1.0  0.23981  0.64263  0.32370  1.0000
  C   C10       1.0  0.64481  0.36146  0.22711  1.0000
  C   C11       1.0  0.63279  0.27389  0.21701  1.0000
  C   C12       1.0  0.71910  0.34988  0.21638  1.0000
  C   C13       1.0  0.69758  0.38169  0.22181  1.0000
  C   C14       1.0  0.61382  0.30757  0.22752  1.0000
  C   C15       1.0  0.68541  0.29581  0.20907  1.0000
  C   C16       1.0  0.55314  0.49309  0.21477  1.0000
  C   C17       1.0  0.49816  0.05203  0.21139  1.0000
  C   C18       1.0  0.95173  0.44822  0.29430  1.0000
  C   C19       1.0  0.35153  0.63318  0.79989  1.0000
  C   C20       1.0  0.37299  0.72288  0.78456  1.0000
  C   C21       1.0  0.28707  0.65826  0.81247  1.0000
  C   C22       1.0  0.30169  0.62054  0.81356  1.0000
  C   C23       1.0  0.38725  0.68459  0.78820  1.0000
  C   C24       1.0  0.32284  0.70934  0.79643  1.0000
  C   C25       1.0  0.36073  0.58862  0.79120  1.0000
  C   C26       1.0  0.41244  0.77533  0.75661  1.0000
  C   C27       1.0  0.23478  0.64819  0.82726  1.0000
  C   C28       1.0  0.63572  0.36430  0.71347  1.0000
  C   C29       1.0  0.62462  0.27732  0.70120  1.0000
  C   C30       1.0  0.71291  0.35478  0.71615  1.0000
  C   C31       1.0  0.69063  0.38597  0.72121  1.0000
  C   C32       1.0  0.60276  0.30962  0.69883  1.0000
  C   C33       1.0  0.67966  0.30071  0.70889  1.0000
  C   C34       1.0  0.54392  0.49453  0.71378  1.0000
  C   C35       1.0  0.50420  0.05773  0.73846  1.0000
  C   C36       1.0  0.94474  0.45273  0.78761  1.0000
  N   N1        1.0  0.41678  0.59812  0.27765  1.0000
  N   N2        1.0  0.39951  0.80615  0.23522  1.0000
  N   N3        1.0  0.19875  0.59036  0.29691  1.0000
  N   N4        1.0  0.50832  0.47670  0.24053  1.0000
  N   N5        1.0  0.51297  0.01979  0.19075  1.0000
  N   N6        1.0  0.97592  0.49346  0.25082  1.0000
  N   N7        1.0  0.40917  0.60177  0.77326  1.0000
  N   N8        1.0  0.39681  0.81212  0.74397  1.0000
  N   N9        1.0  0.19320  0.59589  0.79793  1.0000
  N   N10       1.0  0.50337  0.48049  0.75959  1.0000
  N   N11       1.0  0.50726  0.02289  0.66658  1.0000
  N   N12       1.0  0.97016  0.49884  0.75140  1.0000
  O   O1        1.0  0.33199  0.53905  0.29069  1.0000
  O   O2        1.0  0.46598  0.78235  0.27652  1.0000
  O   O3        1.0  0.23542  0.67948  0.35764  1.0000
  O   O4        1.0  0.32619  0.54382  0.79821  1.0000
  O   O5        1.0  0.45493  0.78325  0.74104  1.0000
  O   O6        1.0  0.23079  0.68507  0.86375  1.0000
  C  Sn1       1.0  0.52056  0.57608  0.28407  1.0000
  C   C37       1.0  0.50173  0.52334  0.29481  1.0000
  C  Sn2       1.0  0.44566  0.48892  0.27483  1.0000
  C  Sn3       1.0  0.40761  0.50759  0.24334  1.0000
  C   C38       1.0  0.42644  0.56030  0.23259  1.0000
  C  Sn4       1.0  0.48251  0.59475  0.25259  1.0000
  O  Te1       1.0  0.57679  0.60979  0.30445  1.0000
  O  Te2       1.0  0.42783  0.43637  0.28616  1.0000
  O  Te3       1.0  0.35134  0.47383  0.22297  1.0000
  O  Te4       1.0  0.50034  0.64727  0.24124  1.0000
  Mg  Mg1       1.0  0.34713  0.40569  0.24929  1.0000
  Mg  Mg2       1.0  0.58101  0.67798  0.27798  1.0000
  C  Sn5       1.0  0.42797  0.93324  0.25720  1.0000
  C   C39       1.0  0.47968  0.96451  0.24613  1.0000
  C  Sn6       1.0  0.50443  0.94138  0.20219  1.0000
  C  Sn7       1.0  0.47690  0.88582  0.16848  1.0000
  C   C40       1.0  0.42522  0.85458  0.17951  1.0000
  C  Sn8       1.0  0.40044  0.87768  0.22348  1.0000
  O  Te5       1.0  0.40400  0.95721  0.30134  1.0000
  O  Te6       1.0  0.55616  0.97347  0.19200  1.0000
  O  Te7       1.0  0.50092  0.86186  0.12431  1.0000
  O  Te8       1.0  0.34873  0.84562  0.23364  1.0000
  Mg  Mg3       1.0  0.57188  0.92229  0.12694  1.0000
  Mg  Mg4       1.0  0.33296  0.89675  0.29859  1.0000
  C  Sn9       1.0  0.08893  0.50362  0.18909  1.0000
  C   C41       1.0  0.13010  0.55771  0.23450  1.0000
  C  Sn10      1.0  0.12502  0.59276  0.31837  1.0000
  C  Sn11      1.0  0.07782  0.57334  0.35779  1.0000
  C   C42       1.0  0.03669  0.51928  0.31242  1.0000
  C  Sn12      1.0  0.04173  0.48420  0.22851  1.0000
  O  Te9       1.0  0.09487  0.46930  0.10532  1.0000
  O  Te10      1.0  0.16671  0.64667  0.36242  1.0000
  O  Te11      1.0  0.07190  0.60771  0.44162  1.0000
  O  Te12      1.0  0.00008  0.43032  0.18450  1.0000
  Mg  Mg5       1.0  0.13978  0.67772  0.47534  1.0000
  Mg  Mg6       1.0  0.02698  0.39923  0.07168  1.0000
  C  Sn13      1.0  0.55822  0.40115  0.29391  1.0000
  C   C43       1.0  0.58031  0.45376  0.27600  1.0000
  C  Sn14      1.0  0.62268  0.47815  0.21759  1.0000
  C  Sn15      1.0  0.64337  0.44934  0.17610  1.0000
  C   C44       1.0  0.62127  0.39676  0.19398  1.0000
  C  Sn16      1.0  0.57891  0.37235  0.25242  1.0000
  O  Te13      1.0  0.51588  0.37757  0.35252  1.0000
  O  Te14      1.0  0.64412  0.53079  0.20079  1.0000
  O  Te15      1.0  0.68574  0.47298  0.11746  1.0000
  O  Te16      1.0  0.55746  0.31973  0.26919  1.0000
  Mg  Mg7       1.0  0.70145  0.54554  0.11583  1.0000
  Mg  Mg8       1.0  0.50011  0.30494  0.35404  1.0000
  C  Sn17      1.0  0.60595  0.14489  0.28958  1.0000
  C   C45       1.0  0.54839  0.11528  0.26224  1.0000
  C  Sn18      1.0  0.51137  0.13572  0.19356  1.0000
  C  Sn19      1.0  0.53231  0.18681  0.15120  1.0000
  C   C46       1.0  0.58983  0.21639  0.17851  1.0000
  C  Sn20      1.0  0.62689  0.19598  0.24722  1.0000
  O  Te17      1.0  0.64219  0.12367  0.35838  1.0000
  O  Te18      1.0  0.45400  0.10538  0.16745  1.0000
  O  Te19      1.0  0.49601  0.20802  0.08236  1.0000
  O  Te20      1.0  0.68422  0.22629  0.27330  1.0000
  Mg  Mg9       1.0  0.42138  0.15149  0.07044  1.0000
  Mg  Mg10      1.0  0.71687  0.18022  0.37020  1.0000
  C  Sn21      1.0  0.83275  0.36221  0.37412  1.0000
  C   C47       1.0  0.79199  0.37863  0.29191  1.0000
  C  Sn22      1.0  0.79866  0.41596  0.17629  1.0000
  C  Sn23      1.0  0.84706  0.43731  0.14201  1.0000
  C   C48       1.0  0.88778  0.42088  0.22417  1.0000
  C  Sn24      1.0  0.88115  0.38356  0.33985  1.0000
  O  Te21      1.0  0.82521  0.32484  0.48923  1.0000
  O  Te22      1.0  0.75734  0.43178  0.09572  1.0000
  O  Te23      1.0  0.85457  0.47471  0.02681  1.0000
  O  Te24      1.0  0.92242  0.36773  0.42036  1.0000
  Mg  Mg11      1.0  0.94177  0.53966  0.94909  1.0000
  Mg  Mg12      1.0  0.89318  0.31580  0.56692  1.0000
  C  Sn25      1.0  0.51571  0.57951  0.80538  1.0000
  C   C49       1.0  0.49457  0.52605  0.80636  1.0000
  C  Sn26      1.0  0.43636  0.49164  0.76881  1.0000
  C  Sn27      1.0  0.39846  0.51106  0.72932  1.0000
  C   C50       1.0  0.41960  0.56449  0.72831  1.0000
  C  Sn28      1.0  0.47781  0.59893  0.76589  1.0000
  O  Te25      1.0  0.57406  0.61319  0.84330  1.0000
  O  Te26      1.0  0.41624  0.43836  0.77066  1.0000
  O  Te27      1.0  0.34007  0.47732  0.69139  1.0000
  O  Te28      1.0  0.49793  0.65218  0.76401  1.0000
  Mg  Mg13      1.0  0.33318  0.40803  0.71027  1.0000
  Mg  Mg14      1.0  0.58096  0.68254  0.82429  1.0000
  C  Sn29      1.0  0.39173  0.90036  0.65187  1.0000
  C   C51       1.0  0.41116  0.86577  0.66272  1.0000
  C  Sn30      1.0  0.46879  0.88488  0.69954  1.0000
  C  Sn31      1.0  0.50785  0.93970  0.72620  1.0000
  C   C52       1.0  0.48842  0.97426  0.71537  1.0000
  C  Sn32      1.0  0.43079  0.95519  0.67852  1.0000
  O  Te29      1.0  0.33393  0.88039  0.61492  1.0000
  O  Te30      1.0  0.48720  0.84953  0.70966  1.0000
  O  Te31      1.0  0.56569  0.95965  0.76317  1.0000
  O  Te32      1.0  0.41238  0.99050  0.66843  1.0000
  Mg  Mg15      1.0  0.57012  0.89580  0.76347  1.0000
  Mg  Mg16      1.0  0.32948  0.94428  0.61473  1.0000
  C  Sn33      1.0  0.11480  0.59994  0.88918  1.0000
  C   C53       1.0  0.14214  0.57753  0.85778  1.0000
  C  Sn34      1.0  0.10890  0.52521  0.76238  1.0000
  C  Sn35      1.0  0.04702  0.49467  0.69690  1.0000
  C   C54       1.0  0.01971  0.51709  0.72828  1.0000
  C  Sn36      1.0  0.05292  0.56940  0.82370  1.0000
  O  Te33      1.0  0.14890  0.65231  0.98486  1.0000
  O  Te34      1.0  0.13723  0.50367  0.73272  1.0000
  O  Te35      1.0  0.01293  0.44226  0.60116  1.0000
  O  Te36      1.0  0.02462  0.59094  0.85333  1.0000
  Mg  Mg17      1.0  0.07175  0.43062  0.59504  1.0000
  Mg  Mg18      1.0  0.09005  0.66400  0.99090  1.0000
  C  Sn37      1.0  0.64713  0.46463  0.73603  1.0000
  C   C55       1.0  0.62826  0.41326  0.76726  1.0000
  C  Sn38      1.0  0.57388  0.38254  0.76253  1.0000
  C  Sn39      1.0  0.53758  0.40358  0.72570  1.0000
  C   C56       1.0  0.55645  0.45491  0.69447  1.0000
  C  Sn40      1.0  0.61083  0.48568  0.69921  1.0000
  O  Te37      1.0  0.70165  0.49464  0.74142  1.0000
  O  Te38      1.0  0.55597  0.33129  0.79424  1.0000
  O  Te39      1.0  0.48302  0.37352  0.72035  1.0000
  O  Te40      1.0  0.62873  0.53689  0.66749  1.0000
  Mg  Mg19      1.0  0.47798  0.30586  0.77228  1.0000
  Mg  Mg20      1.0  0.70670  0.56234  0.68932  1.0000
  C  Sn41      1.0  0.58862  0.17032  0.60013  1.0000
  C   C57       1.0  0.58165  0.20993  0.64369  1.0000
  C  Sn42      1.0  0.55346  0.20255  0.74918  1.0000
  C  Sn43      1.0  0.53182  0.15460  0.81256  1.0000
  C   C58       1.0  0.53880  0.11503  0.76903  1.0000
  C  Sn44      1.0  0.56697  0.12236  0.66352  1.0000
  O  Te41      1.0  0.61694  0.17855  0.49451  1.0000
  O  Te42      1.0  0.54700  0.24272  0.79091  1.0000
  O  Te43      1.0  0.50348  0.14639  0.91826  1.0000
  O  Te44      1.0  0.57345  0.08224  0.62182  1.0000
  Mg  Mg21      1.0  0.50533  0.21284  0.93909  1.0000
  Mg  Mg22      1.0  0.61514  0.11207  0.47374  1.0000
  C  Sn45      1.0  0.84253  0.36331  0.76839  1.0000
  C   C59       1.0  0.87240  0.41054  0.71825  1.0000
  C  Sn46      1.0  0.85394  0.44662  0.68577  1.0000
  C  Sn47      1.0  0.80462  0.43527  0.70391  1.0000
  C   C60       1.0  0.77479  0.38806  0.75405  1.0000
  C  Sn48      1.0  0.79322  0.35196  0.78652  1.0000
  O  Te45      1.0  0.86176  0.32782  0.80020  1.0000
  O  Te46      1.0  0.88449  0.49357  0.63574  1.0000
  O  Te47      1.0  0.78541  0.47081  0.67204  1.0000
  O  Te48      1.0  0.76270  0.30504  0.83656  1.0000
  Mg  Mg23      1.0  0.84144  0.52942  0.60709  1.0000
  Mg  Mg24      1.0  0.80573  0.26917  0.86533  1.0000
