data_image0
_chemical_formula_structural       H72C102N24O12SnCSn2CSnTe4Mg2SnCSn2CSnTe4Mg2SnCSn2CSnTe4Mg2SnCSn2CSnTe4Mg2SnCSn2CSnTe4Mg2SnCSn2CSnTe4Mg2SnCSn2CSnTe4Mg2SnCSn2CSnTe4Mg2SnCSn2CSnTe4Mg2
_chemical_formula_sum              "H72 C120 N24 O12 Sn36 Te36 Mg18"
_cell_length_a       45.1537
_cell_length_b       45.226
_cell_length_c       8.10332
_cell_angle_alpha    101.444
_cell_angle_beta     109.639
_cell_angle_gamma    120.465

_symmetry_space_group_name_H-M    'P1'
_space_group_IT_number       1

loop_
  _space_group_symop_operation_xyz
  'x, y, z'

loop_
  _atom_site_type_symbol
  _atom_site_label
  _atom_site_symmetry_multiplicity
  _atom_site_fract_x
  _atom_site_fract_y
  _atom_site_fract_z
  _atom_site_occupancy
  H   H1        1.0  0.39772  0.68415  0.24628  1.0000
  H   H2        1.0  0.31920  0.71102  0.24999  1.0000
  H   H3        1.0  0.29382  0.60702  0.26941  1.0000
  H   H4        1.0  0.60576  0.31669  0.24524  1.0000
  H   H5        1.0  0.68371  0.28948  0.23586  1.0000
  H   H6        1.0  0.71177  0.39606  0.24283  1.0000
  H   H7        1.0  0.40147  0.64392  0.24130  1.0000
  H   H8        1.0  0.35643  0.75337  0.24264  1.0000
  H   H9        1.0  0.24732  0.60027  0.24609  1.0000
  H   H10       1.0  0.60229  0.35667  0.25728  1.0000
  H   H11       1.0  0.64698  0.24739  0.26359  1.0000
  H   H12       1.0  0.75654  0.40132  0.24595  1.0000
  H   H13       1.0  0.45249  0.64229  0.27397  1.0000
  H   H14       1.0  0.36233  0.80664  0.27701  1.0000
  H   H15       1.0  0.64385  0.19686  0.27470  1.0000
  H   H16       1.0  0.48002  0.60729  0.28209  1.0000
  H   H17       1.0  0.39725  0.87099  0.29244  1.0000
  H   H18       1.0  0.60843  0.13364  0.27020  1.0000
  H   H19       1.0  0.37755  0.51432  0.25863  1.0000
  H   H20       1.0  0.48150  0.86136  0.20675  1.0000
  H   H21       1.0  0.51395  0.13760  0.24453  1.0000
  H   H22       1.0  0.34944  0.54984  0.25071  1.0000
  H   H23       1.0  0.44622  0.79592  0.19179  1.0000
  H   H24       1.0  0.54972  0.20192  0.24700  1.0000
  H   H25       1.0  0.48337  0.56305  0.18188  1.0000
  H   H26       1.0  0.42203  0.91636  0.22153  1.0000
  H   H27       1.0  0.07343  0.50402  0.15989  1.0000
  H   H28       1.0  0.51365  0.43087  0.31542  1.0000
  H   H29       1.0  0.56953  0.07847  0.22655  1.0000
  H   H30       1.0  0.93362  0.50046  0.35923  1.0000
  H   H31       1.0  0.53550  0.55769  0.22433  1.0000
  H   H32       1.0  0.43498  0.97615  0.24803  1.0000
  H   H33       1.0  0.46211  0.43734  0.28443  1.0000
  H   H34       1.0  0.55827  0.02163  0.22074  1.0000
  H   H35       1.0  0.43666  0.47512  0.26348  1.0000
  H   H36       1.0  0.51823  0.95802  0.22110  1.0000
  H   H37       1.0  0.56112  0.52011  0.24697  1.0000
  H   H38       1.0  0.47571  0.04031  0.25449  1.0000
  H   H39       1.0  0.39301  0.68188  0.73695  1.0000
  H   H40       1.0  0.31661  0.71059  0.75452  1.0000
  H   H41       1.0  0.28996  0.60570  0.76867  1.0000
  H   H42       1.0  0.60220  0.31582  0.74555  1.0000
  H   H43       1.0  0.67882  0.28692  0.73110  1.0000
  H   H44       1.0  0.70927  0.39463  0.74979  1.0000
  H   H45       1.0  0.39774  0.64318  0.74013  1.0000
  H   H46       1.0  0.35183  0.75072  0.71579  1.0000
  H   H47       1.0  0.24372  0.59926  0.74732  1.0000
  H   H48       1.0  0.59892  0.35634  0.74978  1.0000
  H   H49       1.0  0.64272  0.24605  0.75766  1.0000
  H   H50       1.0  0.75292  0.39933  0.75191  1.0000
  H   H51       1.0  0.44941  0.64350  0.77299  1.0000
  H   H52       1.0  0.36067  0.80571  0.76476  1.0000
  H   H53       1.0  0.54972  0.35915  0.73115  1.0000
  H   H54       1.0  0.47879  0.61023  0.77918  1.0000
  H   H55       1.0  0.39782  0.87076  0.78951  1.0000
  H   H56       1.0  0.52208  0.39392  0.72559  1.0000
  H   H57       1.0  0.37833  0.51536  0.75837  1.0000
  H   H58       1.0  0.48273  0.86018  0.71993  1.0000
  H   H59       1.0  0.62334  0.48659  0.74077  1.0000
  H   H60       1.0  0.34833  0.54917  0.75277  1.0000
  H   H61       1.0  0.44555  0.79418  0.69841  1.0000
  H   H62       1.0  0.65169  0.45134  0.74675  1.0000
  H   H63       1.0  0.48638  0.56887  0.69459  1.0000
  H   H64       1.0  0.42380  0.91562  0.72292  1.0000
  H   H65       1.0  0.06935  0.50142  0.65702  1.0000
  H   H66       1.0  0.51866  0.43796  0.82838  1.0000
  H   H67       1.0  0.56856  0.07740  0.71594  1.0000
  H   H68       1.0  0.92883  0.49704  0.85698  1.0000
  H   H69       1.0  0.53806  0.56331  0.72836  1.0000
  H   H70       1.0  0.46622  0.44276  0.78873  1.0000
  H   H71       1.0  0.43946  0.47929  0.76410  1.0000
  H   H72       1.0  0.56442  0.52633  0.74912  1.0000
  C   C1        1.0  0.36183  0.70117  0.24402  1.0000
  C   C2        1.0  0.30275  0.65892  0.25921  1.0000
  C   C3        1.0  0.34550  0.64159  0.25470  1.0000
  C   C4        1.0  0.64145  0.29961  0.24486  1.0000
  C   C5        1.0  0.70160  0.34291  0.23912  1.0000
  C   C6        1.0  0.65883  0.36027  0.24581  1.0000
  C   C7        1.0  0.37064  0.67563  0.24880  1.0000
  C   C8        1.0  0.32801  0.69263  0.25064  1.0000
  C   C9        1.0  0.31140  0.63335  0.25850  1.0000
  C   C10       1.0  0.63314  0.32560  0.24505  1.0000
  C   C11       1.0  0.67547  0.30834  0.23970  1.0000
  C   C12       1.0  0.69328  0.36882  0.24462  1.0000
  C   C13       1.0  0.35244  0.61269  0.26522  1.0000
  C   C14       1.0  0.39021  0.73648  0.23290  1.0000
  C   C15       1.0  0.26894  0.65435  0.27823  1.0000
  C   C16       1.0  0.65202  0.38950  0.24122  1.0000
  C   C17       1.0  0.61200  0.26393  0.25041  1.0000
  C   C18       1.0  0.73651  0.34833  0.22800  1.0000
  C   C19       1.0  0.43586  0.61407  0.26969  1.0000
  C   C20       1.0  0.38810  0.81838  0.25788  1.0000
  C   C21       1.0  0.61519  0.18378  0.26737  1.0000
  C   C22       1.0  0.45124  0.59415  0.27307  1.0000
  C   C23       1.0  0.40784  0.85466  0.26633  1.0000
  C   C24       1.0  0.59498  0.14797  0.26398  1.0000
  C   C25       1.0  0.43006  0.55752  0.26714  1.0000
  C   C26       1.0  0.44199  0.87074  0.24783  1.0000
  C   C27       1.0  0.55771  0.13050  0.25349  1.0000
  C   C28       1.0  0.39344  0.54227  0.26009  1.0000
  C   C29       1.0  0.45530  0.84893  0.22209  1.0000
  C   C30       1.0  0.54233  0.15089  0.24907  1.0000
  C   C31       1.0  0.37762  0.56185  0.25551  1.0000
  C   C32       1.0  0.43567  0.81241  0.21232  1.0000
  C   C33       1.0  0.56214  0.18673  0.25128  1.0000
  C   C34       1.0  0.39896  0.59821  0.26073  1.0000
  C   C35       1.0  0.40177  0.79687  0.23129  1.0000
  C   C36       1.0  0.59897  0.20351  0.25935  1.0000
  C   C37       1.0  0.47004  0.54121  0.23093  1.0000
  C   C38       1.0  0.45105  0.92623  0.23615  1.0000
  C   C39       1.0  0.07207  0.52702  0.22097  1.0000
  C   C40       1.0  0.52759  0.45375  0.27319  1.0000
  C   C41       1.0  0.54361  0.07198  0.23920  1.0000
  C   C42       1.0  0.93472  0.47743  0.29513  1.0000
  C   C43       1.0  0.51969  0.53148  0.23923  1.0000
  C   C44       1.0  0.46204  0.98628  0.24203  1.0000
  C   C45       1.0  0.47812  0.46371  0.27122  1.0000
  C   C46       1.0  0.53162  0.01179  0.23039  1.0000
  C   C47       1.0  0.46375  0.48451  0.25954  1.0000
  C   C48       1.0  0.50959  0.97650  0.22981  1.0000
  C   C49       1.0  0.53412  0.51078  0.25170  1.0000
  C   C50       1.0  0.48445  0.02189  0.24579  1.0000
  C   C51       1.0  0.48437  0.51877  0.24334  1.0000
  C   C52       1.0  0.47441  0.96319  0.23595  1.0000
  C   C53       1.0  0.51337  0.47636  0.26628  1.0000
  C   C54       1.0  0.51964  0.03518  0.23957  1.0000
  C   C55       1.0  0.35792  0.69946  0.74061  1.0000
  C   C56       1.0  0.29920  0.65780  0.75989  1.0000
  C   C57       1.0  0.34133  0.63975  0.75059  1.0000
  C   C58       1.0  0.63714  0.29784  0.74281  1.0000
  C   C59       1.0  0.69777  0.34081  0.74055  1.0000
  C   C60       1.0  0.65593  0.35920  0.74965  1.0000
  C   C61       1.0  0.36626  0.67356  0.74278  1.0000
  C   C62       1.0  0.32461  0.69155  0.75125  1.0000
  C   C63       1.0  0.30756  0.63196  0.75725  1.0000
  C   C64       1.0  0.62951  0.32435  0.74561  1.0000
  C   C65       1.0  0.67111  0.30620  0.73837  1.0000
  C   C66       1.0  0.69021  0.36725  0.74895  1.0000
  C   C67       1.0  0.34852  0.61095  0.76036  1.0000
  C   C68       1.0  0.38709  0.73462  0.73075  1.0000
  C   C69       1.0  0.26554  0.65342  0.78104  1.0000
  C   C70       1.0  0.65042  0.38929  0.74759  1.0000
  C   C71       1.0  0.60728  0.26187  0.74460  1.0000
  C   C72       1.0  0.73221  0.34582  0.72684  1.0000
  C   C73       1.0  0.43362  0.61522  0.76887  1.0000
  C   C74       1.0  0.38707  0.81738  0.75091  1.0000
  C   C75       1.0  0.56606  0.38723  0.73369  1.0000
  C   C76       1.0  0.45008  0.59631  0.77151  1.0000
  C   C77       1.0  0.40808  0.85405  0.76475  1.0000
  C   C78       1.0  0.55057  0.40704  0.73161  1.0000
  C   C79       1.0  0.43001  0.55963  0.76581  1.0000
  C   C80       1.0  0.44294  0.86993  0.75237  1.0000
  C   C81       1.0  0.57147  0.44366  0.73746  1.0000
  C   C82       1.0  0.39339  0.54338  0.76006  1.0000
  C   C83       1.0  0.45593  0.84775  0.73006  1.0000
  C   C84       1.0  0.60778  0.45880  0.74123  1.0000
  C   C85       1.0  0.37648  0.56196  0.75641  1.0000
  C   C86       1.0  0.43518  0.81092  0.71633  1.0000
  C   C87       1.0  0.62375  0.43933  0.74453  1.0000
  C   C88       1.0  0.39666  0.59828  0.76043  1.0000
  C   C89       1.0  0.40028  0.79537  0.72647  1.0000
  C   C90       1.0  0.60283  0.40312  0.74126  1.0000
  C   C91       1.0  0.47209  0.54570  0.73452  1.0000
  C   C92       1.0  0.45294  0.92549  0.73932  1.0000
  C   C93       1.0  0.06789  0.52421  0.72045  1.0000
  C   C94       1.0  0.53170  0.45988  0.77933  1.0000
  C   C95       1.0  0.54289  0.07058  0.73219  1.0000
  C   C96       1.0  0.93002  0.47406  0.79317  1.0000
  C   C97       1.0  0.52237  0.53684  0.74128  1.0000
  C   C98       1.0  0.48168  0.46898  0.77338  1.0000
  C   C99       1.0  0.46662  0.48916  0.75997  1.0000
  C   C100      1.0  0.53727  0.51651  0.75319  1.0000
  C   C101      1.0  0.48686  0.52358  0.74465  1.0000
  C   C102      1.0  0.51706  0.48213  0.76900  1.0000
  N   N1        1.0  0.38558  0.62033  0.25938  1.0000
  N   N2        1.0  0.38054  0.76083  0.22932  1.0000
  N   N3        1.0  0.24168  0.61937  0.26384  1.0000
  N   N4        1.0  0.61816  0.38075  0.24271  1.0000
  N   N5        1.0  0.62117  0.23932  0.25964  1.0000
  N   N6        1.0  0.76335  0.38307  0.23796  1.0000
  N   N7        1.0  0.44296  0.53518  0.27373  1.0000
  N   N8        1.0  0.46413  0.90662  0.25116  1.0000
  N   N9        1.0  0.09924  0.56269  0.27093  1.0000
  N   N10       1.0  0.55509  0.46091  0.23160  1.0000
  N   N11       1.0  0.53444  0.09487  0.25100  1.0000
  N   N12       1.0  0.90729  0.44167  0.24226  1.0000
  N   N13       1.0  0.38223  0.61949  0.75820  1.0000
  N   N14       1.0  0.37751  0.75885  0.71793  1.0000
  N   N15       1.0  0.23816  0.61840  0.76688  1.0000
  N   N16       1.0  0.61617  0.38096  0.74210  1.0000
  N   N17       1.0  0.61697  0.23766  0.75517  1.0000
  N   N18       1.0  0.75941  0.38084  0.74114  1.0000
  N   N19       1.0  0.44383  0.53802  0.77056  1.0000
  N   N20       1.0  0.46590  0.90584  0.75687  1.0000
  N   N21       1.0  0.09522  0.56006  0.77402  1.0000
  N   N22       1.0  0.55852  0.46603  0.73409  1.0000
  N   N23       1.0  0.53313  0.09298  0.74575  1.0000
  N   N24       1.0  0.90257  0.43832  0.74049  1.0000
  O   O1        1.0  0.32982  0.58468  0.28352  1.0000
  O   O2        1.0  0.41953  0.74230  0.22584  1.0000
  O   O3        1.0  0.26687  0.68101  0.30675  1.0000
  O   O4        1.0  0.67520  0.41858  0.23143  1.0000
  O   O5        1.0  0.58204  0.25815  0.24916  1.0000
  O   O6        1.0  0.73985  0.32254  0.21015  1.0000
  O   O7        1.0  0.32581  0.58246  0.77557  1.0000
  O   O8        1.0  0.41717  0.74045  0.73346  1.0000
  O   O9        1.0  0.26372  0.68019  0.81081  1.0000
  O   O10       1.0  0.67499  0.41869  0.74470  1.0000
  O   O11       1.0  0.57694  0.25562  0.74024  1.0000
  O   O12       1.0  0.73482  0.31951  0.70267  1.0000
  C  Sn1       1.0  0.99289  0.01847  0.80479  1.0000
  C   C103      1.0  0.02730  0.03553  0.79134  1.0000
  C  Sn2       1.0  0.03846  0.01372  0.73023  1.0000
  C  Sn3       1.0  0.01473  0.97401  0.68142  1.0000
  C   C104      1.0  0.98034  0.95696  0.69484  1.0000
  C  Sn4       1.0  0.96915  0.97876  0.75597  1.0000
  O  Te1       1.0  0.98229  0.04083  0.86621  1.0000
  O  Te2       1.0  0.07300  0.03142  0.71800  1.0000
  O  Te3       1.0  0.02535  0.95165  0.61996  1.0000
  O  Te4       1.0  0.93463  0.96107  0.76818  1.0000
  Mg  Mg1       1.0  0.07501  0.98885  0.62669  1.0000
  Mg  Mg2       1.0  0.93258  0.00361  0.85937  1.0000
  C  Sn5       1.0  0.53543  0.15069  0.68227  1.0000
  C   C105      1.0  0.54844  0.12854  0.69379  1.0000
  C  Sn6       1.0  0.58844  0.14500  0.75497  1.0000
  C  Sn7       1.0  0.61604  0.18442  0.80583  1.0000
  C   C106      1.0  0.60303  0.20654  0.79433  1.0000
  C  Sn8       1.0  0.56303  0.19011  0.73312  1.0000
  O  Te5       1.0  0.49530  0.13363  0.62074  1.0000
  O  Te6       1.0  0.60074  0.12228  0.76526  1.0000
  O  Te7       1.0  0.65620  0.20147  0.86739  1.0000
  O  Te8       1.0  0.55073  0.21281  0.72286  1.0000
  Mg  Mg3       1.0  0.65851  0.15864  0.85756  1.0000
  Mg  Mg4       1.0  0.49297  0.17648  0.63068  1.0000
  C  Sn9       1.0  0.02697  0.53992  0.87488  1.0000
  C   C107      1.0  0.03659  0.51748  0.80149  1.0000
  C  Sn10      1.0  0.00763  0.47748  0.69420  1.0000
  C  Sn11      1.0  0.96823  0.45953  0.65943  1.0000
  C   C108      1.0  0.95862  0.48196  0.73276  1.0000
  C  Sn12      1.0  0.98757  0.52197  0.84010  1.0000
  O  Te9       1.0  0.05639  0.57986  0.98174  1.0000
  O  Te10      1.0  0.01797  0.45566  0.62238  1.0000
  O  Te11      1.0  0.93880  0.41956  0.55247  1.0000
  O  Te12      1.0  0.97725  0.54379  0.91187  1.0000
  Mg  Mg5       1.0  0.96743  0.40222  0.48497  1.0000
  Mg  Mg6       1.0  0.92227  0.50828  0.04920  1.0000
  C  Sn13      1.0  0.62699  0.44867  0.29051  1.0000
  C   C109      1.0  0.61271  0.41335  0.29383  1.0000
  C  Sn14      1.0  0.57319  0.38781  0.24814  1.0000
  C  Sn15      1.0  0.54740  0.39778  0.19795  1.0000
  C   C110      1.0  0.56168  0.43309  0.19461  1.0000
  C  Sn16      1.0  0.60120  0.45864  0.24033  1.0000
  O  Te13      1.0  0.66660  0.47376  0.33671  1.0000
  O  Te14      1.0  0.55960  0.35267  0.25252  1.0000
  O  Te15      1.0  0.50776  0.37267  0.15174  1.0000
  O  Te16      1.0  0.61479  0.49377  0.23593  1.0000
  Mg  Mg7       1.0  0.50318  0.32816  0.17808  1.0000
  Mg  Mg8       1.0  0.67119  0.51828  0.31024  1.0000
  C  Sn17      1.0  0.00030  0.53248  0.27831  1.0000
  C   C111      1.0  0.96952  0.49521  0.23427  1.0000
  C  Sn18      1.0  0.97420  0.46669  0.20681  1.0000
  C  Sn19      1.0  0.01040  0.47562  0.22384  1.0000
  C   C112      1.0  0.04116  0.51288  0.26788  1.0000
  C  Sn20      1.0  0.03651  0.54141  0.29533  1.0000
  O  Te17      1.0  0.99498  0.56054  0.30518  1.0000
  O  Te18      1.0  0.94300  0.42963  0.16283  1.0000
  O  Te19      1.0  0.01571  0.44752  0.19692  1.0000
  O  Te20      1.0  0.06769  0.57845  0.33932  1.0000
  Mg  Mg9       1.0  0.96455  0.40128  0.13938  1.0000
  Mg  Mg10      1.0  0.04618  0.60683  0.36290  1.0000
  C  Sn21      1.0  0.16069  0.56035  0.83576  1.0000
  C   C113      1.0  0.13960  0.57494  0.82457  1.0000
  C  Sn22      1.0  0.14796  0.60370  0.76427  1.0000
  C  Sn23      1.0  0.17800  0.61816  0.71399  1.0000
  C   C114      1.0  0.19906  0.60357  0.72515  1.0000
  C  Sn24      1.0  0.19073  0.57481  0.78547  1.0000
  O  Te21      1.0  0.15183  0.53160  0.89640  1.0000
  O  Te22      1.0  0.12649  0.61785  0.75431  1.0000
  O  Te23      1.0  0.18685  0.64694  0.65331  1.0000
  O  Te24      1.0  0.21217  0.56066  0.79541  1.0000
  Mg  Mg11      1.0  0.14944  0.65696  0.66326  1.0000
  Mg  Mg12      1.0  0.18924  0.52154  0.88634  1.0000
  C  Sn25      1.0  0.82967  0.38481  0.31256  1.0000
  C   C115      1.0  0.80824  0.39909  0.29638  1.0000
  C  Sn26      1.0  0.81694  0.42784  0.23577  1.0000
  C  Sn27      1.0  0.84769  0.44261  0.19027  1.0000
  C   C116      1.0  0.86910  0.42833  0.20642  1.0000
  C  Sn28      1.0  0.86042  0.39958  0.26705  1.0000
  O  Te25      1.0  0.82046  0.35606  0.37342  1.0000
  O  Te26      1.0  0.79511  0.44167  0.22077  1.0000
  O  Te27      1.0  0.85689  0.47138  0.12937  1.0000
  O  Te28      1.0  0.88223  0.38575  0.28203  1.0000
  Mg  Mg13      1.0  0.81876  0.48090  0.13151  1.0000
  Mg  Mg14      1.0  0.85858  0.34650  0.37117  1.0000
  C  Sn29      1.0  0.85005  0.45017  0.79350  1.0000
  C   C117      1.0  0.87000  0.43448  0.79780  1.0000
  C  Sn30      1.0  0.85052  0.39592  0.75836  1.0000
  C  Sn31      1.0  0.81024  0.37254  0.71356  1.0000
  C   C118      1.0  0.79030  0.38822  0.70924  1.0000
  C  Sn32      1.0  0.80977  0.42678  0.74870  1.0000
  O  Te29      1.0  0.87011  0.48878  0.83339  1.0000
  O  Te30      1.0  0.87110  0.38090  0.76361  1.0000
  O  Te31      1.0  0.79018  0.33390  0.67366  1.0000
  O  Te32      1.0  0.78921  0.44181  0.74344  1.0000
  Mg  Mg15      1.0  0.83091  0.32665  0.69868  1.0000
  Mg  Mg16      1.0  0.82935  0.49604  0.80823  1.0000
  C  Sn33      1.0  0.17180  0.55938  0.21439  1.0000
  C   C119      1.0  0.19590  0.59396  0.21012  1.0000
  C  Sn34      1.0  0.19102  0.62213  0.25240  1.0000
  C  Sn35      1.0  0.16145  0.61561  0.30008  1.0000
  C   C120      1.0  0.13737  0.58105  0.30437  1.0000
  C  Sn36      1.0  0.14223  0.55285  0.26207  1.0000
  O  Te33      1.0  0.17720  0.53162  0.17162  1.0000
  O  Te34      1.0  0.21547  0.65648  0.24713  1.0000
  O  Te35      1.0  0.15607  0.64341  0.34286  1.0000
  O  Te36      1.0  0.11781  0.51853  0.26736  1.0000
  Mg  Mg17      1.0  0.19668  0.68552  0.31657  1.0000
  Mg  Mg18      1.0  0.13659  0.48948  0.19804  1.0000
