data_image0
_chemical_formula_structural       H156C132N12O36C2Sn2C2HTe2HMgC2Sn2C2HTe2HMgC2Sn2C2HTe2HMgC2Sn2C2HTe2HMgC2Sn2C2HTe2HMgC2Sn2C2HTe2HMgC2Sn2C2HTe2HMgC2Sn2C2HTe2HMgC2Sn2C2HTe2HMgC2Sn2C2HTe2HMgC2Sn2C2HTe2HMgC2Sn2C2HTe2HMg
_chemical_formula_sum              "H180 C180 N12 O36 Sn24 Te24 Mg12"
_cell_length_a       36.603
_cell_length_b       36.5115
_cell_length_c       8.41014
_cell_angle_alpha    89.0237
_cell_angle_beta     90.6192
_cell_angle_gamma    120.053

_symmetry_space_group_name_H-M    'P1'
_space_group_IT_number       1

loop_
  _space_group_symop_operation_xyz
  'x, y, z'

loop_
  _atom_site_type_symbol
  _atom_site_label
  _atom_site_symmetry_multiplicity
  _atom_site_fract_x
  _atom_site_fract_y
  _atom_site_fract_z
  _atom_site_occupancy
  H   H1        1.0  0.22931  0.19073  0.06856  1.0000
  H   H2        1.0  0.80358  0.03908  0.14258  1.0000
  H   H3        1.0  0.96696  0.77459  0.06033  1.0000
  H   H4        1.0  0.21432  0.20344  0.38922  1.0000
  H   H5        1.0  0.79443  0.00631  0.45865  1.0000
  H   H6        1.0  0.99051  0.78824  0.39834  1.0000
  H   H7        1.0  0.19996  0.23044  0.15733  1.0000
  H   H8        1.0  0.75866  0.96826  0.20931  1.0000
  H   H9        1.0  0.03770  0.80494  0.14009  1.0000
  H   H10       1.0  0.25343  0.27091  0.13835  1.0000
  H   H11       1.0  0.72088  0.98269  0.15289  1.0000
  H   H12       1.0  0.02194  0.75058  0.13571  1.0000
  H   H13       1.0  0.20435  0.29783  0.15240  1.0000
  H   H14       1.0  0.70069  0.90318  0.16180  1.0000
  H   H15       1.0  0.09818  0.79858  0.14095  1.0000
  H   H16       1.0  0.18269  0.30295  0.47315  1.0000
  H   H17       1.0  0.69166  0.87668  0.44801  1.0000
  H   H18       1.0  0.11925  0.80813  0.39838  1.0000
  H   H19       1.0  0.25213  0.35346  0.36001  1.0000
  H   H20       1.0  0.64538  0.90354  0.34878  1.0000
  H   H21       1.0  0.07978  0.72893  0.35240  1.0000
  H   H22       1.0  0.24218  0.37027  0.03945  1.0000
  H   H23       1.0  0.63157  0.86830  0.02541  1.0000
  H   H24       1.0  0.13301  0.76036  0.03760  1.0000
  H   H25       1.0  0.37013  0.25124  0.04973  1.0000
  H   H26       1.0  0.74572  0.12141  0.05593  1.0000
  H   H27       1.0  0.88731  0.63314  0.04476  1.0000
  H   H28       1.0  0.34995  0.24684  0.35642  1.0000
  H   H29       1.0  0.75655  0.10303  0.37612  1.0000
  H   H30       1.0  0.89971  0.65295  0.34753  1.0000
  H   H31       1.0  0.29760  0.20889  0.09559  1.0000
  H   H32       1.0  0.78841  0.09306  0.13392  1.0000
  H   H33       1.0  0.91959  0.70560  0.09910  1.0000
  H   H34       1.0  0.30729  0.26032  0.13913  1.0000
  H   H35       1.0  0.73643  0.04992  0.16177  1.0000
  H   H36       1.0  0.96148  0.69501  0.12438  1.0000
  H   H37       1.0  0.40817  0.31299  0.25514  1.0000
  H   H38       1.0  0.69291  0.09825  0.25790  1.0000
  H   H39       1.0  0.90700  0.59307  0.23603  1.0000
  H   H40       1.0  0.43163  0.31785  0.44765  1.0000
  H   H41       1.0  0.68468  0.11497  0.44629  1.0000
  H   H42       1.0  0.88993  0.57072  0.43087  1.0000
  H   H43       1.0  0.45867  0.38629  0.29510  1.0000
  H   H44       1.0  0.61964  0.07739  0.28155  1.0000
  H   H45       1.0  0.92938  0.54256  0.27881  1.0000
  H   H46       1.0  0.40737  0.38002  0.29781  1.0000
  H   H47       1.0  0.62403  0.03120  0.28248  1.0000
  H   H48       1.0  0.97536  0.59340  0.28515  1.0000
  H   H49       1.0  0.31862  0.39276  0.22657  1.0000
  H   H50       1.0  0.58600  0.90455  0.14227  1.0000
  H   H51       1.0  0.08869  0.67933  0.18815  1.0000
  H   H52       1.0  0.31654  0.41465  0.49667  1.0000
  H   H53       1.0  0.58474  0.90316  0.43981  1.0000
  H   H54       1.0  0.10379  0.68550  0.59100  1.0000
  H   H55       1.0  0.35976  0.36339  0.07364  1.0000
  H   H56       1.0  0.63667  0.99084  0.08503  1.0000
  H   H57       1.0  0.00739  0.64422  0.11298  1.0000
  H   H58       1.0  0.36891  0.39703  0.42028  1.0000
  H   H59       1.0  0.60396  0.97463  0.40609  1.0000
  H   H60       1.0  0.04658  0.63922  0.40602  1.0000
  H   H61       1.0  0.55188  0.52321  0.45392  1.0000
  H   H62       1.0  0.47898  0.03150  0.42831  1.0000
  H   H63       1.0  0.97177  0.44711  0.45107  1.0000
  H   H64       1.0  0.50862  0.55447  0.02975  1.0000
  H   H65       1.0  0.44580  0.95373  0.01521  1.0000
  H   H66       1.0  0.04317  0.48987  0.02381  1.0000
  H   H67       1.0  0.69244  0.41277  0.33453  1.0000
  H   H68       1.0  0.59118  0.28315  0.32196  1.0000
  H   H69       1.0  0.72046  0.31148  0.31867  1.0000
  H   H70       1.0  0.57388  0.33797  0.33360  1.0000
  H   H71       1.0  0.66556  0.23914  0.32172  1.0000
  H   H72       1.0  0.76504  0.42963  0.34224  1.0000
  H   H73       1.0  0.40981  0.70446  0.23090  1.0000
  H   H74       1.0  0.29145  0.70307  0.23024  1.0000
  H   H75       1.0  0.29269  0.58574  0.23589  1.0000
  H   H76       1.0  0.41181  0.63995  0.21751  1.0000
  H   H77       1.0  0.35584  0.76961  0.20557  1.0000
  H   H78       1.0  0.22616  0.58372  0.21941  1.0000
  H   H79       1.0  0.23141  0.19241  0.57373  1.0000
  H   H80       1.0  0.79604  0.02913  0.64612  1.0000
  H   H81       1.0  0.96656  0.76903  0.58794  1.0000
  H   H82       1.0  0.21314  0.20327  0.88517  1.0000
  H   H83       1.0  0.80093  0.01480  0.95755  1.0000
  H   H84       1.0  0.99414  0.79100  0.87560  1.0000
  H   H85       1.0  0.19901  0.23019  0.65374  1.0000
  H   H86       1.0  0.75021  0.95773  0.70045  1.0000
  H   H87       1.0  0.03980  0.80129  0.64232  1.0000
  H   H88       1.0  0.25270  0.27067  0.64626  1.0000
  H   H89       1.0  0.71370  0.97443  0.65029  1.0000
  H   H90       1.0  0.02382  0.74688  0.63300  1.0000
  H   H91       1.0  0.20609  0.29899  0.65430  1.0000
  H   H92       1.0  0.69064  0.89375  0.64346  1.0000
  H   H93       1.0  0.10357  0.79773  0.60141  1.0000
  H   H94       1.0  0.18132  0.30185  0.97007  1.0000
  H   H95       1.0  0.70326  0.88384  0.97197  1.0000
  H   H96       1.0  0.12384  0.81909  0.95519  1.0000
  H   H97       1.0  0.25211  0.35147  0.85906  1.0000
  H   H98       1.0  0.65278  0.90347  0.85795  1.0000
  H   H99       1.0  0.10084  0.74640  0.86241  1.0000
  H   H100      1.0  0.24302  0.37154  0.54366  1.0000
  H   H101      1.0  0.62133  0.86393  0.50231  1.0000
  H   H102      1.0  0.12578  0.74856  0.47597  1.0000
  H   H103      1.0  0.37231  0.25587  0.55073  1.0000
  H   H104      1.0  0.74410  0.11630  0.56260  1.0000
  H   H105      1.0  0.88831  0.62717  0.53707  1.0000
  H   H106      1.0  0.34872  0.24518  0.85427  1.0000
  H   H107      1.0  0.75853  0.10809  0.87025  1.0000
  H   H108      1.0  0.89902  0.65617  0.85043  1.0000
  H   H109      1.0  0.30014  0.21311  0.60229  1.0000
  H   H110      1.0  0.78439  0.08520  0.63779  1.0000
  H   H111      1.0  0.91750  0.69814  0.60693  1.0000
  H   H112      1.0  0.30934  0.26480  0.63765  1.0000
  H   H113      1.0  0.73172  0.04355  0.66493  1.0000
  H   H114      1.0  0.96110  0.68977  0.62648  1.0000
  H   H115      1.0  0.40586  0.30984  0.76047  1.0000
  H   H116      1.0  0.69254  0.09991  0.75609  1.0000
  H   H117      1.0  0.90354  0.59663  0.74685  1.0000
  H   H118      1.0  0.43117  0.31637  0.94997  1.0000
  H   H119      1.0  0.68319  0.11552  0.94491  1.0000
  H   H120      1.0  0.88725  0.57325  0.94063  1.0000
  H   H121      1.0  0.45583  0.38358  0.79348  1.0000
  H   H122      1.0  0.61821  0.07381  0.78152  1.0000
  H   H123      1.0  0.92508  0.54461  0.78334  1.0000
  H   H124      1.0  0.40413  0.37648  0.79900  1.0000
  H   H125      1.0  0.62671  0.03010  0.78458  1.0000
  H   H126      1.0  0.97107  0.59553  0.78100  1.0000
  H   H127      1.0  0.31918  0.40216  0.70015  1.0000
  H   H128      1.0  0.57963  0.90509  0.64877  1.0000
  H   H129      1.0  0.06671  0.67115  0.74647  1.0000
  H   H130      1.0  0.31306  0.41340  0.04095  1.0000
  H   H131      1.0  0.59242  0.90535  0.93263  1.0000
  H   H132      1.0  0.09700  0.68444  0.97998  1.0000
  H   H133      1.0  0.35987  0.36436  0.59191  1.0000
  H   H134      1.0  0.63469  0.98980  0.58358  1.0000
  H   H135      1.0  0.00762  0.63908  0.53338  1.0000
  H   H136      1.0  0.36361  0.39814  0.91459  1.0000
  H   H137      1.0  0.60578  0.97485  0.90831  1.0000
  H   H138      1.0  0.02335  0.63578  0.92543  1.0000
  H   H139      1.0  0.55023  0.52089  0.95807  1.0000
  H   H140      1.0  0.47992  0.02874  0.93289  1.0000
  H   H141      1.0  0.96771  0.44917  0.95072  1.0000
  H   H142      1.0  0.51065  0.55635  0.53304  1.0000
  H   H143      1.0  0.44464  0.95619  0.50768  1.0000
  H   H144      1.0  0.04650  0.48853  0.53095  1.0000
  H   H145      1.0  0.68633  0.40877  0.86130  1.0000
  H   H146      1.0  0.58820  0.27803  0.84124  1.0000
  H   H147      1.0  0.71879  0.31064  0.84127  1.0000
  H   H148      1.0  0.56912  0.33278  0.86241  1.0000
  H   H149      1.0  0.66535  0.23764  0.84977  1.0000
  H   H150      1.0  0.75952  0.42828  0.87018  1.0000
  H   H151      1.0  0.41299  0.70768  0.74362  1.0000
  H   H152      1.0  0.29427  0.70559  0.73988  1.0000
  H   H153      1.0  0.29626  0.58864  0.74171  1.0000
  H   H154      1.0  0.41527  0.64340  0.72023  1.0000
  H   H155      1.0  0.35846  0.77251  0.72824  1.0000
  H   H156      1.0  0.22976  0.58602  0.72343  1.0000
  C   C1        1.0  0.23494  0.21685  0.98602  1.0000
  C   C2        1.0  0.78246  0.02105  0.04381  1.0000
  C   C3        1.0  0.98666  0.76901  0.97678  1.0000
  C   C4        1.0  0.22573  0.24777  0.07114  1.0000
  C   C5        1.0  0.74707  0.97920  0.10834  1.0000
  C   C6        1.0  0.02712  0.77769  0.06065  1.0000
  C   C7        1.0  0.20935  0.30262  0.02311  1.0000
  C   C8        1.0  0.69891  0.90786  0.03294  1.0000
  C   C9        1.0  0.09699  0.79172  0.01355  1.0000
  C   C10       1.0  0.24771  0.34579  0.98860  1.0000
  C   C11       1.0  0.65543  0.90078  0.98799  1.0000
  C   C12       1.0  0.10193  0.75324  0.99008  1.0000
  C   C13       1.0  0.35193  0.26224  0.47046  1.0000
  C   C14       1.0  0.73877  0.08950  0.48731  1.0000
  C   C15       1.0  0.91421  0.64932  0.45793  1.0000
  C   C16       1.0  0.30672  0.24015  0.04222  1.0000
  C   C17       1.0  0.75922  0.07057  0.07072  1.0000
  C   C18       1.0  0.94004  0.69658  0.03522  1.0000
  C   C19       1.0  0.41060  0.32532  0.37641  1.0000
  C   C20       1.0  0.67812  0.08700  0.37605  1.0000
  C   C21       1.0  0.91790  0.59121  0.35744  1.0000
  C   C22       1.0  0.42905  0.37251  0.36193  1.0000
  C   C23       1.0  0.63121  0.05940  0.35030  1.0000
  C   C24       1.0  0.94582  0.57193  0.34637  1.0000
  C   C25       1.0  0.43187  0.45131  0.06597  1.0000
  C   C26       1.0  0.54828  0.97903  0.05562  1.0000
  C   C27       1.0  0.01866  0.56773  0.05613  1.0000
  C   C28       1.0  0.45504  0.43222  0.01676  1.0000
  C   C29       1.0  0.56784  0.02148  0.00142  1.0000
  C   C30       1.0  0.97621  0.54516  0.00573  1.0000
  C   C31       1.0  0.31765  0.38854  0.09679  1.0000
  C   C32       1.0  0.60612  0.92347  0.04198  1.0000
  C   C33       1.0  0.07486  0.68152  0.07360  1.0000
  C   C34       1.0  0.35912  0.39240  0.04343  1.0000
  C   C35       1.0  0.60731  0.96596  0.03212  1.0000
  C   C36       1.0  0.03215  0.64146  0.05121  1.0000
  C   C37       1.0  0.50038  0.45906  0.47564  1.0000
  C   C38       1.0  0.54258  0.04309  0.45187  1.0000
  C   C39       1.0  0.95963  0.49894  0.46673  1.0000
  C   C40       1.0  0.51869  0.50334  0.48339  1.0000
  C   C41       1.0  0.49829  0.01744  0.45817  1.0000
  C   C42       1.0  0.98540  0.48049  0.47753  1.0000
  C   C43       1.0  0.49367  0.52014  0.02791  1.0000
  C   C44       1.0  0.48006  0.97284  0.01327  1.0000
  C   C45       1.0  0.02426  0.50525  0.02052  1.0000
  C   C46       1.0  0.45081  0.49583  0.06795  1.0000
  C   C47       1.0  0.50376  0.95386  0.05947  1.0000
  C   C48       1.0  0.04356  0.54811  0.06020  1.0000
  C   C49       1.0  0.68218  0.37920  0.32840  1.0000
  C   C50       1.0  0.62470  0.30659  0.32105  1.0000
  C   C51       1.0  0.69713  0.32168  0.31959  1.0000
  C   C52       1.0  0.63848  0.34988  0.32633  1.0000
  C   C53       1.0  0.65396  0.29220  0.31812  1.0000
  C   C54       1.0  0.71160  0.36540  0.32530  1.0000
  C   C55       1.0  0.60712  0.36351  0.33532  1.0000
  C   C56       1.0  0.64021  0.24704  0.32166  1.0000
  C   C57       1.0  0.75674  0.39625  0.33486  1.0000
  C   C58       1.0  0.35370  0.64228  0.23796  1.0000
  C   C59       1.0  0.35347  0.70901  0.23484  1.0000
  C   C60       1.0  0.28694  0.64201  0.23784  1.0000
  C   C61       1.0  0.37549  0.68651  0.23704  1.0000
  C   C62       1.0  0.30936  0.68662  0.23647  1.0000
  C   C63       1.0  0.30921  0.62016  0.23982  1.0000
  C   C64       1.0  0.37722  0.61994  0.22066  1.0000
  C   C65       1.0  0.37583  0.75506  0.21545  1.0000
  C   C66       1.0  0.24099  0.61844  0.22104  1.0000
  C   C67       1.0  0.23617  0.21792  0.48938  1.0000
  C   C68       1.0  0.77562  0.01231  0.54416  1.0000
  C   C69       1.0  0.98513  0.76521  0.49389  1.0000
  C   C70       1.0  0.22597  0.24829  0.57301  1.0000
  C   C71       1.0  0.73925  0.97033  0.60267  1.0000
  C   C72       1.0  0.02727  0.77398  0.56222  1.0000
  C   C73       1.0  0.21099  0.30401  0.52508  1.0000
  C   C74       1.0  0.68903  0.90071  0.51644  1.0000
  C   C75       1.0  0.09470  0.78543  0.47993  1.0000
  C   C76       1.0  0.24880  0.34752  0.48966  1.0000
  C   C77       1.0  0.64657  0.89675  0.47655  1.0000
  C   C78       1.0  0.09329  0.74319  0.46829  1.0000
  C   C79       1.0  0.35042  0.25907  0.97149  1.0000
  C   C80       1.0  0.74132  0.09463  0.98256  1.0000
  C   C81       1.0  0.91337  0.65341  0.96269  1.0000
  C   C82       1.0  0.30858  0.24369  0.54408  1.0000
  C   C83       1.0  0.75489  0.06374  0.57417  1.0000
  C   C84       1.0  0.93924  0.69151  0.53963  1.0000
  C   C85       1.0  0.40905  0.32281  0.88098  1.0000
  C   C86       1.0  0.67837  0.08813  0.87480  1.0000
  C   C87       1.0  0.91496  0.59395  0.86629  1.0000
  C   C88       1.0  0.42652  0.36980  0.86229  1.0000
  C   C89       1.0  0.63183  0.05786  0.85102  1.0000
  C   C90       1.0  0.94243  0.57439  0.84825  1.0000
  C   C91       1.0  0.43413  0.45322  0.57040  1.0000
  C   C92       1.0  0.54706  0.98160  0.54983  1.0000
  C   C93       1.0  0.02058  0.56551  0.55739  1.0000
  C   C94       1.0  0.45734  0.43426  0.51891  1.0000
  C   C95       1.0  0.56677  0.02416  0.49704  1.0000
  C   C96       1.0  0.97830  0.54219  0.50611  1.0000
  C   C97       1.0  0.31989  0.39240  0.57724  1.0000
  C   C98       1.0  0.60004  0.92192  0.54633  1.0000
  C   C99       1.0  0.07182  0.67918  0.61934  1.0000
  C   C100      1.0  0.36161  0.39363  0.54760  1.0000
  C   C101      1.0  0.60470  0.96595  0.53090  1.0000
  C   C102      1.0  0.03820  0.64032  0.53042  1.0000
  C   C103      1.0  0.49823  0.45698  0.97709  1.0000
  C   C104      1.0  0.54354  0.04031  0.95657  1.0000
  C   C105      1.0  0.95688  0.50175  0.96769  1.0000
  C   C106      1.0  0.51682  0.50127  0.98446  1.0000
  C   C107      1.0  0.49928  0.01480  0.96362  1.0000
  C   C108      1.0  0.98209  0.48266  0.97613  1.0000
  C   C109      1.0  0.49570  0.52205  0.53087  1.0000
  C   C110      1.0  0.47891  0.97525  0.50607  1.0000
  C   C111      1.0  0.02732  0.50361  0.52517  1.0000
  C   C112      1.0  0.45304  0.49776  0.57400  1.0000
  C   C113      1.0  0.50260  0.95624  0.55172  1.0000
  C   C114      1.0  0.04603  0.54651  0.56500  1.0000
  C   C115      1.0  0.67736  0.37557  0.85306  1.0000
  C   C116      1.0  0.62145  0.30230  0.84213  1.0000
  C   C117      1.0  0.69472  0.31983  0.84261  1.0000
  C   C118      1.0  0.63399  0.34525  0.84810  1.0000
  C   C119      1.0  0.65182  0.28934  0.83958  1.0000
  C   C120      1.0  0.70782  0.36322  0.85042  1.0000
  C   C121      1.0  0.60228  0.35834  0.85553  1.0000
  C   C122      1.0  0.63936  0.24456  0.84158  1.0000
  C   C123      1.0  0.75252  0.39535  0.86049  1.0000
  C   C124      1.0  0.35703  0.64534  0.74554  1.0000
  C   C125      1.0  0.35641  0.71185  0.74653  1.0000
  C   C126      1.0  0.29001  0.64463  0.74523  1.0000
  C   C127      1.0  0.37864  0.68955  0.74757  1.0000
  C   C128      1.0  0.31228  0.68924  0.74617  1.0000
  C   C129      1.0  0.31253  0.62303  0.74638  1.0000
  C   C130      1.0  0.38073  0.62320  0.72679  1.0000
  C   C131      1.0  0.37855  0.75799  0.72899  1.0000
  C   C132      1.0  0.24407  0.62067  0.72746  1.0000
  N   N1        1.0  0.61749  0.40277  0.34594  1.0000
  N   N2        1.0  0.60089  0.21817  0.32724  1.0000
  N   N3        1.0  0.78507  0.38503  0.33665  1.0000
  N   N4        1.0  0.35843  0.57962  0.19910  1.0000
  N   N5        1.0  0.41632  0.77676  0.20028  1.0000
  N   N6        1.0  0.21979  0.63758  0.19819  1.0000
  N   N7        1.0  0.61280  0.39777  0.85501  1.0000
  N   N8        1.0  0.60031  0.21497  0.83723  1.0000
  N   N9        1.0  0.78187  0.38561  0.85852  1.0000
  N   N10       1.0  0.36199  0.58280  0.70773  1.0000
  N   N11       1.0  0.41865  0.77967  0.70363  1.0000
  N   N12       1.0  0.22222  0.63922  0.70707  1.0000
  O   O1        1.0  0.36989  0.30685  0.44801  1.0000
  O   O2        1.0  0.69464  0.06346  0.45517  1.0000
  O   O3        1.0  0.94104  0.63239  0.42453  1.0000
  O   O4        1.0  0.43478  0.38850  0.01813  1.0000
  O   O5        1.0  0.61152  0.04457  0.00492  1.0000
  O   O6        1.0  0.95377  0.56643  0.00516  1.0000
  O   O7        1.0  0.39186  0.42843  0.12815  1.0000
  O   O8        1.0  0.57102  0.96149  0.11889  1.0000
  O   O9        1.0  0.03699  0.60745  0.12011  1.0000
  O   O10       1.0  0.28424  0.34716  0.05748  1.0000
  O   O11       1.0  0.64834  0.93148  0.06416  1.0000
  O   O12       1.0  0.06864  0.71719  0.07122  1.0000
  O   O13       1.0  0.21491  0.27052  0.45631  1.0000
  O   O14       1.0  0.72411  0.94083  0.47272  1.0000
  O   O15       1.0  0.05619  0.78349  0.43225  1.0000
  O   O16       1.0  0.27785  0.23708  0.42395  1.0000
  O   O17       1.0  0.76289  0.03915  0.46343  1.0000
  O   O18       1.0  0.96109  0.72432  0.42317  1.0000
  O   O19       1.0  0.36888  0.30395  0.95730  1.0000
  O   O20       1.0  0.69738  0.06679  0.95259  1.0000
  O   O21       1.0  0.93893  0.63471  0.93562  1.0000
  O   O22       1.0  0.43688  0.39050  0.51933  1.0000
  O   O23       1.0  0.61043  0.04698  0.50333  1.0000
  O   O24       1.0  0.95534  0.56289  0.50471  1.0000
  O   O25       1.0  0.39402  0.43008  0.63187  1.0000
  O   O26       1.0  0.56965  0.96441  0.61638  1.0000
  O   O27       1.0  0.03695  0.60528  0.62058  1.0000
  O   O28       1.0  0.28643  0.34993  0.55269  1.0000
  O   O29       1.0  0.64088  0.92617  0.56848  1.0000
  O   O30       1.0  0.06871  0.71633  0.59829  1.0000
  O   O31       1.0  0.21295  0.26884  0.95539  1.0000
  O   O32       1.0  0.73287  0.94820  0.98382  1.0000
  O   O33       1.0  0.05916  0.78707  0.94359  1.0000
  O   O34       1.0  0.27668  0.23524  0.92125  1.0000
  O   O35       1.0  0.76845  0.04664  0.96121  1.0000
  O   O36       1.0  0.96268  0.72736  0.91268  1.0000
  C   C133      1.0  0.58742  0.45855  0.29197  1.0000
  C   C134      1.0  0.59045  0.42536  0.36369  1.0000
  C  Sn1       1.0  0.55926  0.39745  0.46901  1.0000
  C  Sn2       1.0  0.52443  0.40295  0.50288  1.0000
  C   C135      1.0  0.52167  0.43624  0.43043  1.0000
  C   C136      1.0  0.55307  0.46399  0.32527  1.0000
  H   H157      1.0  0.61170  0.48001  0.21053  1.0000
  O  Te1       1.0  0.56279  0.36447  0.53968  1.0000
  O  Te2       1.0  0.49280  0.37551  0.60764  1.0000
  H   H158      1.0  0.55070  0.48967  0.26967  1.0000
  Mg  Mg1       1.0  0.51169  0.33535  0.67428  1.0000
  C   C137      1.0  0.60683  0.13166  0.48536  1.0000
  C   C138      1.0  0.56973  0.09617  0.43409  1.0000
  C  Sn3       1.0  0.54244  0.10085  0.32920  1.0000
  C  Sn4       1.0  0.55257  0.14186  0.27482  1.0000
  C   C139      1.0  0.58977  0.17717  0.32673  1.0000
  C   C140      1.0  0.61685  0.17212  0.43174  1.0000
  H   H159      1.0  0.62780  0.12776  0.56654  1.0000
  O  Te3       1.0  0.50550  0.06506  0.27921  1.0000
  O  Te4       1.0  0.52586  0.14745  0.16992  1.0000
  H   H160      1.0  0.64558  0.19960  0.47133  1.0000
  Mg  Mg2       1.0  0.47918  0.08893  0.13577  1.0000
  C   C141      1.0  0.89313  0.42707  0.30664  1.0000
  C   C142      1.0  0.91190  0.46479  0.39148  1.0000
  C  Sn5       1.0  0.88695  0.47683  0.47538  1.0000
  C  Sn6       1.0  0.84239  0.45056  0.47413  1.0000
  C   C143      1.0  0.82393  0.41287  0.38899  1.0000
  C   C144      1.0  0.84919  0.40113  0.30541  1.0000
  H   H161      1.0  0.91268  0.41797  0.24204  1.0000
  O  Te5       1.0  0.90622  0.51463  0.55946  1.0000
  O  Te6       1.0  0.81671  0.46183  0.55701  1.0000
  H   H162      1.0  0.83465  0.37191  0.23982  1.0000
  Mg  Mg3       1.0  0.85778  0.51637  0.65394  1.0000
  C   C145      1.0  0.37642  0.50382  0.03782  1.0000
  C   C146      1.0  0.41721  0.51383  0.08289  1.0000
  C  Sn7       1.0  0.44052  0.54697  0.18751  1.0000
  C  Sn8       1.0  0.42255  0.57045  0.24798  1.0000
  C   C147      1.0  0.38170  0.56017  0.20226  1.0000
  C   C148      1.0  0.35867  0.52696  0.09745  1.0000
  H   H163      1.0  0.35928  0.47453  0.95680  1.0000
  O  Te7       1.0  0.48124  0.55656  0.23126  1.0000
  O  Te8       1.0  0.44513  0.60372  0.35277  1.0000
  H   H164      1.0  0.32707  0.51920  0.06266  1.0000
  Mg  Mg4       1.0  0.49949  0.60472  0.37716  1.0000
  C   C149      1.0  0.49520  0.87108  0.04548  1.0000
  C   C150      1.0  0.48475  0.90201  0.08008  1.0000
  C  Sn9       1.0  0.44990  0.89205  0.17559  1.0000
  C  Sn10      1.0  0.42512  0.85033  0.23746  1.0000
  C   C151      1.0  0.43586  0.81962  0.20224  1.0000
  C   C152      1.0  0.47079  0.82993  0.10651  1.0000
  H   H165      1.0  0.52294  0.87548  0.97148  1.0000
  O  Te9       1.0  0.43989  0.92333  0.20894  1.0000
  O  Te10      1.0  0.39014  0.83952  0.33327  1.0000
  H   H166      1.0  0.47890  0.80598  0.07983  1.0000
  Mg  Mg5       1.0  0.38920  0.89316  0.34514  1.0000
  C   C153      1.0  0.11496  0.55311  0.22536  1.0000
  C   C154      1.0  0.09211  0.56716  0.13428  1.0000
  C  Sn11      1.0  0.11298  0.60598  0.05314  1.0000
  C  Sn12      1.0  0.15757  0.63112  0.06355  1.0000
  C   C155      1.0  0.18016  0.61676  0.15489  1.0000
  C   C156      1.0  0.15894  0.57787  0.23565  1.0000
  H   H167      1.0  0.09856  0.52301  0.28778  1.0000
  O  Te11      1.0  0.09036  0.61598  0.96272  1.0000
  O  Te12      1.0  0.17994  0.66646  0.98361  1.0000
  H   H168      1.0  0.17665  0.56698  0.30608  1.0000
  Mg  Mg6       1.0  0.13420  0.67133  0.87551  1.0000
  C   C157      1.0  0.53809  0.38969  0.00701  1.0000
  C   C158      1.0  0.57193  0.40112  0.89806  1.0000
  C  Sn13      1.0  0.58272  0.43739  0.80638  1.0000
  C  Sn14      1.0  0.55984  0.45897  0.82442  1.0000
  C   C159      1.0  0.52675  0.44373  0.93383  1.0000
  C   C160      1.0  0.51552  0.41097  0.02493  1.0000
  H   H169      1.0  0.52996  0.36160  0.07756  1.0000
  O  Te13      1.0  0.61591  0.45194  0.69803  1.0000
  O  Te14      1.0  0.56996  0.49531  0.73435  1.0000
  H   H170      1.0  0.48988  0.39938  0.10935  1.0000
  Mg  Mg7       1.0  0.61776  0.50279  0.60239  1.0000
  C   C161      1.0  0.54603  0.12992  0.77245  1.0000
  C   C162      1.0  0.57842  0.16528  0.84786  1.0000
  C  Sn15      1.0  0.60510  0.16061  0.95597  1.0000
  C  Sn16      1.0  0.59919  0.11975  0.98892  1.0000
  C   C163      1.0  0.56672  0.08458  0.91277  1.0000
  C   C164      1.0  0.54019  0.08960  0.80484  1.0000
  H   H171      1.0  0.52552  0.13380  0.68887  1.0000
  O  Te15      1.0  0.63660  0.19985  0.03030  1.0000
  O  Te16      1.0  0.62472  0.11776  0.09641  1.0000
  H   H172      1.0  0.51513  0.06222  0.74640  1.0000
  Mg  Mg8       1.0  0.66415  0.17606  0.16765  1.0000
  C   C165      1.0  0.86886  0.47768  0.00956  1.0000
  C   C166      1.0  0.90459  0.47240  0.95484  1.0000
  C  Sn17      1.0  0.89925  0.44058  0.85114  1.0000
  C  Sn18      1.0  0.85804  0.40995  0.80147  1.0000
  C   C167      1.0  0.82320  0.41194  0.85679  1.0000
  C   C168      1.0  0.82890  0.44391  0.96057  1.0000
  H   H173      1.0  0.87327  0.50242  0.08978  1.0000
  O  Te17      1.0  0.93459  0.43934  0.79767  1.0000
  O  Te18      1.0  0.85180  0.37781  0.69785  1.0000
  H   H174      1.0  0.80108  0.44881  0.00283  1.0000
  Mg  Mg9       1.0  0.90988  0.38943  0.65771  1.0000
  C   C169      1.0  0.44728  0.56383  0.73288  1.0000
  C   C170      1.0  0.43361  0.52693  0.64578  1.0000
  C  Sn19      1.0  0.39465  0.50839  0.56759  1.0000
  C  Sn20      1.0  0.36898  0.52724  0.57696  1.0000
  C   C171      1.0  0.38296  0.56417  0.66430  1.0000
  C   C172      1.0  0.42199  0.58245  0.74212  1.0000
  H   H175      1.0  0.47749  0.57799  0.79303  1.0000
  O  Te19      1.0  0.38146  0.47151  0.48114  1.0000
  O  Te20      1.0  0.32991  0.50938  0.49991  1.0000
  H   H176      1.0  0.43258  0.61104  0.80946  1.0000
  Mg  Mg10      1.0  0.32572  0.45906  0.39681  1.0000
  C   C173      1.0  0.48047  0.84958  0.54320  1.0000
  C   C174      1.0  0.44950  0.82781  0.65856  1.0000
  C  Sn21      1.0  0.43256  0.84857  0.74216  1.0000
  C  Sn22      1.0  0.44694  0.89193  0.70937  1.0000
  C   C175      1.0  0.47791  0.91342  0.59365  1.0000
  C   C176      1.0  0.49466  0.89234  0.51074  1.0000
  H   H177      1.0  0.49341  0.83327  0.47897  1.0000
  O  Te21      1.0  0.40166  0.82635  0.85707  1.0000
  O  Te22      1.0  0.43054  0.91345  0.79112  1.0000
  H   H178      1.0  0.51862  0.90920  0.42135  1.0000
  Mg  Mg11      1.0  0.38898  0.86950  0.93689  1.0000
  C   C177      1.0  0.15170  0.63256  0.55692  1.0000
  C   C178      1.0  0.17399  0.62209  0.66701  1.0000
  C  Sn23      1.0  0.15386  0.58316  0.74758  1.0000
  C  Sn24      1.0  0.11061  0.55422  0.71709  1.0000
  C   C179      1.0  0.08860  0.56497  0.60665  1.0000
  C   C180      1.0  0.10904  0.60403  0.52673  1.0000
  H   H179      1.0  0.16752  0.66276  0.49502  1.0000
  O  Te23      1.0  0.17660  0.57321  0.85723  1.0000
  O  Te24      1.0  0.08973  0.51508  0.79590  1.0000
  H   H180      1.0  0.09178  0.61211  0.44143  1.0000
  Mg  Mg12      1.0  0.13422  0.51600  0.93466  1.0000
