data_image0
_chemical_formula_structural       H156C156N12O30SnCSn2CSnTe4Mg2SnCSn2CSnTe4Mg2SnCSn2CSnTe4Mg2SnCSn2CSnTe4Mg2SnCSn2CSnTe4Mg2SnCSn2CSnTe4Mg2
_chemical_formula_sum              "H156 C168 N12 O30 Sn24 Te24 Mg12"
_cell_length_a       36.8571
_cell_length_b       36.6405
_cell_length_c       8.63904
_cell_angle_alpha    91.0623
_cell_angle_beta     90.2601
_cell_angle_gamma    120.127

_symmetry_space_group_name_H-M    'P1'
_space_group_IT_number       1

loop_
  _space_group_symop_operation_xyz
  'x, y, z'

loop_
  _atom_site_type_symbol
  _atom_site_label
  _atom_site_symmetry_multiplicity
  _atom_site_fract_x
  _atom_site_fract_y
  _atom_site_fract_z
  _atom_site_occupancy
  H   H1        1.0  0.25729  0.61281  0.37702  1.0000
  H   H2        1.0  0.38705  0.64559  0.35943  1.0000
  H   H3        1.0  0.35476  0.74348  0.36783  1.0000
  H   H4        1.0  0.23835  0.66753  0.39249  1.0000
  H   H5        1.0  0.33469  0.57297  0.37164  1.0000
  H   H6        1.0  0.42742  0.76314  0.36614  1.0000
  H   H7        1.0  0.75501  0.86125  0.27951  1.0000
  H   H8        1.0  0.13995  0.89643  0.27048  1.0000
  H   H9        1.0  0.83175  0.89759  0.31588  1.0000
  H   H10       1.0  0.10325  0.93622  0.31435  1.0000
  H   H11       1.0  0.84605  0.98966  0.51244  1.0000
  H   H12       1.0  0.14094  0.15109  0.46697  1.0000
  H   H13       1.0  0.76928  0.95380  0.46363  1.0000
  H   H14       1.0  0.18207  0.22834  0.43302  1.0000
  H   H15       1.0  0.51259  0.71636  0.25456  1.0000
  H   H16       1.0  0.28492  0.79824  0.25922  1.0000
  H   H17       1.0  0.58836  0.76655  0.30813  1.0000
  H   H18       1.0  0.23574  0.82522  0.30146  1.0000
  H   H19       1.0  0.96261  0.92289  0.22446  1.0000
  H   H20       1.0  0.07769  0.04167  0.18684  1.0000
  H   H21       1.0  0.95904  0.03811  0.18723  1.0000
  H   H22       1.0  0.89570  0.91931  0.21575  1.0000
  H   H23       1.0  0.08063  0.97736  0.19121  1.0000
  H   H24       1.0  0.02245  0.10508  0.16416  1.0000
  H   H25       1.0  0.72503  0.08241  0.17612  1.0000
  H   H26       1.0  0.91614  0.64123  0.15214  1.0000
  H   H27       1.0  0.34737  0.26545  0.17269  1.0000
  H   H28       1.0  0.75796  0.12519  0.05656  1.0000
  H   H29       1.0  0.87663  0.63112  0.01121  1.0000
  H   H30       1.0  0.35465  0.23063  0.04762  1.0000
  H   H31       1.0  0.79562  0.09107  0.46649  1.0000
  H   H32       1.0  0.91122  0.69954  0.44607  1.0000
  H   H33       1.0  0.29472  0.20357  0.43234  1.0000
  H   H34       1.0  0.79594  0.09403  0.17539  1.0000
  H   H35       1.0  0.90654  0.70157  0.13837  1.0000
  H   H36       1.0  0.28442  0.19500  0.15909  1.0000
  H   H37       1.0  0.70051  0.01043  0.15019  1.0000
  H   H38       1.0  0.98963  0.68710  0.12305  1.0000
  H   H39       1.0  0.30696  0.29462  0.14958  1.0000
  H   H40       1.0  0.73967  0.02811  0.30001  1.0000
  H   H41       1.0  0.97374  0.70910  0.27722  1.0000
  H   H42       1.0  0.28055  0.25677  0.29610  1.0000
  H   H43       1.0  0.75200  0.96853  0.22555  1.0000
  H   H44       1.0  0.03361  0.78049  0.22247  1.0000
  H   H45       1.0  0.21395  0.25443  0.22469  1.0000
  H   H46       1.0  0.70137  0.95355  0.30063  1.0000
  H   H47       1.0  0.04818  0.74309  0.28001  1.0000
  H   H48       1.0  0.25532  0.30492  0.28935  1.0000
  H   H49       1.0  0.60881  0.01564  0.38384  1.0000
  H   H50       1.0  0.98733  0.58862  0.39065  1.0000
  H   H51       1.0  0.40922  0.39361  0.40705  1.0000
  H   H52       1.0  0.64893  0.02356  0.25255  1.0000
  H   H53       1.0  0.98919  0.62705  0.26226  1.0000
  H   H54       1.0  0.37856  0.35529  0.26119  1.0000
  H   H55       1.0  0.66758  0.08725  0.42287  1.0000
  H   H56       1.0  0.91675  0.57769  0.35168  1.0000
  H   H57       1.0  0.42002  0.33271  0.42715  1.0000
  H   H58       1.0  0.66791  0.07120  0.07291  1.0000
  H   H59       1.0  0.92822  0.59357  0.05735  1.0000
  H   H60       1.0  0.39512  0.32251  0.07343  1.0000
  H   H61       1.0  0.57993  0.93657  0.42452  1.0000
  H   H62       1.0  0.06434  0.65403  0.37084  1.0000
  H   H63       1.0  0.35779  0.42138  0.45197  1.0000
  H   H64       1.0  0.58405  0.95851  0.09143  1.0000
  H   H65       1.0  0.05642  0.62665  0.97009  1.0000
  H   H66       1.0  0.37612  0.41665  0.09446  1.0000
  H   H67       1.0  0.63929  0.93605  0.17296  1.0000
  H   H68       1.0  0.06034  0.69983  0.12987  1.0000
  H   H69       1.0  0.29713  0.36427  0.18248  1.0000
  H   H70       1.0  0.58544  0.89735  0.15458  1.0000
  H   H71       1.0  0.10007  0.68582  0.13028  1.0000
  H   H72       1.0  0.31585  0.41872  0.15935  1.0000
  H   H73       1.0  0.63124  0.77939  0.02177  1.0000
  H   H74       1.0  0.21963  0.85468  0.02997  1.0000
  H   H75       1.0  0.14928  0.36912  0.00318  1.0000
  H   H76       1.0  0.70647  0.82131  0.09039  1.0000
  H   H77       1.0  0.17646  0.88650  0.09426  1.0000
  H   H78       1.0  0.11570  0.29406  0.06674  1.0000
  H   H79       1.0  0.25763  0.61446  0.84933  1.0000
  H   H80       1.0  0.38675  0.64531  0.82616  1.0000
  H   H81       1.0  0.35660  0.74463  0.85569  1.0000
  H   H82       1.0  0.23947  0.66883  0.86851  1.0000
  H   H83       1.0  0.33283  0.57241  0.83906  1.0000
  H   H84       1.0  0.42930  0.76296  0.85742  1.0000
  H   H85       1.0  0.75172  0.85833  0.78623  1.0000
  H   H86       1.0  0.10610  0.24506  0.77209  1.0000
  H   H87       1.0  0.82822  0.89307  0.82960  1.0000
  H   H88       1.0  0.06460  0.16800  0.80324  1.0000
  H   H89       1.0  0.84535  0.99315  0.00139  1.0000
  H   H90       1.0  0.00269  0.84908  0.01211  1.0000
  H   H91       1.0  0.76836  0.95574  0.95951  1.0000
  H   H92       1.0  0.03985  0.80965  0.96425  1.0000
  H   H93       1.0  0.55553  0.84210  0.59660  1.0000
  H   H94       1.0  0.16512  0.72384  0.61080  1.0000
  H   H95       1.0  0.48074  0.79327  0.53971  1.0000
  H   H96       1.0  0.21219  0.69578  0.56250  1.0000
  H   H97       1.0  0.96277  0.92098  0.74164  1.0000
  H   H98       1.0  0.07556  0.04102  0.68880  1.0000
  H   H99       1.0  0.95550  0.03422  0.70342  1.0000
  H   H100      1.0  0.89438  0.91567  0.73442  1.0000
  H   H101      1.0  0.08031  0.97766  0.69322  1.0000
  H   H102      1.0  0.01922  0.10297  0.67764  1.0000
  H   H103      1.0  0.72530  0.08264  0.67929  1.0000
  H   H104      1.0  0.92597  0.64106  0.65444  1.0000
  H   H105      1.0  0.35607  0.27271  0.66078  1.0000
  H   H106      1.0  0.75669  0.12543  0.55758  1.0000
  H   H107      1.0  0.87965  0.62721  0.54519  1.0000
  H   H108      1.0  0.36797  0.24334  0.52554  1.0000
  H   H109      1.0  0.79622  0.08997  0.96938  1.0000
  H   H110      1.0  0.91253  0.70464  0.93352  1.0000
  H   H111      1.0  0.28131  0.19659  0.95371  1.0000
  H   H112      1.0  0.79655  0.09552  0.67235  1.0000
  H   H113      1.0  0.90936  0.69793  0.65208  1.0000
  H   H114      1.0  0.29897  0.20131  0.63724  1.0000
  H   H115      1.0  0.70069  0.01048  0.64448  1.0000
  H   H116      1.0  0.99542  0.69102  0.63680  1.0000
  H   H117      1.0  0.30753  0.29663  0.63492  1.0000
  H   H118      1.0  0.73924  0.02848  0.79710  1.0000
  H   H119      1.0  0.97750  0.71365  0.78079  1.0000
  H   H120      1.0  0.28658  0.25766  0.78148  1.0000
  H   H121      1.0  0.75397  0.97064  0.72168  1.0000
  H   H122      1.0  0.03289  0.78571  0.70523  1.0000
  H   H123      1.0  0.21396  0.24181  0.69759  1.0000
  H   H124      1.0  0.70322  0.95404  0.79866  1.0000
  H   H125      1.0  0.05202  0.75337  0.77965  1.0000
  H   H126      1.0  0.24695  0.29200  0.78893  1.0000
  H   H127      1.0  0.60870  0.01787  0.91365  1.0000
  H   H128      1.0  0.97552  0.58010  0.88259  1.0000
  H   H129      1.0  0.40479  0.38177  0.90718  1.0000
  H   H130      1.0  0.64342  0.01487  0.77758  1.0000
  H   H131      1.0  0.98440  0.62463  0.77219  1.0000
  H   H132      1.0  0.36066  0.34576  0.79038  1.0000
  H   H133      1.0  0.67062  0.08788  0.87936  1.0000
  H   H134      1.0  0.90924  0.57923  0.86302  1.0000
  H   H135      1.0  0.40803  0.31836  0.87779  1.0000
  H   H136      1.0  0.66377  0.05760  0.58926  1.0000
  H   H137      1.0  0.93319  0.59260  0.54796  1.0000
  H   H138      1.0  0.39291  0.33535  0.59291  1.0000
  H   H139      1.0  0.58717  0.93874  0.90477  1.0000
  H   H140      1.0  0.05426  0.66137  0.83379  1.0000
  H   H141      1.0  0.35174  0.40752  0.90821  1.0000
  H   H142      1.0  0.59605  0.96946  0.59544  1.0000
  H   H143      1.0  0.05307  0.62945  0.55402  1.0000
  H   H144      1.0  0.37286  0.40394  0.61876  1.0000
  H   H145      1.0  0.64438  0.94175  0.66337  1.0000
  H   H146      1.0  0.06595  0.70757  0.63959  1.0000
  H   H147      1.0  0.29613  0.35259  0.66608  1.0000
  H   H148      1.0  0.59023  0.90356  0.66516  1.0000
  H   H149      1.0  0.10685  0.69555  0.63769  1.0000
  H   H150      1.0  0.31066  0.40648  0.68672  1.0000
  H   H151      1.0  0.62916  0.77938  0.52606  1.0000
  H   H152      1.0  0.22204  0.85706  0.52320  1.0000
  H   H153      1.0  0.15129  0.36964  0.53077  1.0000
  H   H154      1.0  0.70404  0.81969  0.60089  1.0000
  H   H155      1.0  0.17970  0.89005  0.59027  1.0000
  H   H156      1.0  0.11578  0.29424  0.59225  1.0000
  C   C1        1.0  0.29029  0.63696  0.37135  1.0000
  C   C2        1.0  0.36303  0.65460  0.36067  1.0000
  C   C3        1.0  0.34565  0.71022  0.36549  1.0000
  C   C4        1.0  0.30260  0.67986  0.37101  1.0000
  C   C5        1.0  0.32050  0.62403  0.36687  1.0000
  C   C6        1.0  0.37589  0.69791  0.36043  1.0000
  C   C7        1.0  0.27113  0.69302  0.38188  1.0000
  C   C8        1.0  0.30860  0.57949  0.37495  1.0000
  C   C9        1.0  0.42037  0.73015  0.36384  1.0000
  C   C10       1.0  0.57764  0.80806  0.45642  1.0000
  C   C11       1.0  0.19582  0.77589  0.45565  1.0000
  C   C12       1.0  0.75571  0.90505  0.11355  1.0000
  C   C13       1.0  0.09346  0.85043  0.11081  1.0000
  C   C14       1.0  0.77473  0.88914  0.21277  1.0000
  C   C15       1.0  0.11061  0.88671  0.20856  1.0000
  C   C16       1.0  0.81813  0.90973  0.23388  1.0000
  C   C17       1.0  0.09002  0.90939  0.23335  1.0000
  C   C18       1.0  0.84419  0.94757  0.15712  1.0000
  C   C19       1.0  0.05085  0.89628  0.16144  1.0000
  C   C20       1.0  0.82523  0.96405  0.06101  1.0000
  C   C21       1.0  0.03301  0.85943  0.06724  1.0000
  C   C22       1.0  0.78206  0.94293  0.03767  1.0000
  C   C23       1.0  0.05411  0.83743  0.04034  1.0000
  C   C24       1.0  0.49141  0.75146  0.39128  1.0000
  C   C25       1.0  0.25151  0.74455  0.40375  1.0000
  C   C26       1.0  0.52242  0.74409  0.32901  1.0000
  C   C27       1.0  0.25832  0.78202  0.33530  1.0000
  C   C28       1.0  0.56465  0.77217  0.35956  1.0000
  C   C29       1.0  0.23068  0.79693  0.35910  1.0000
  C   C30       1.0  0.95571  0.97811  0.20963  1.0000
  C   C31       1.0  0.02264  0.97959  0.20793  1.0000
  C   C32       1.0  0.02114  0.04525  0.19016  1.0000
  C   C33       1.0  0.97852  0.95712  0.21713  1.0000
  C   C34       1.0  0.04368  0.02351  0.19628  1.0000
  C   C35       1.0  0.97735  0.02237  0.19637  1.0000
  C   C36       1.0  0.90982  0.95358  0.20207  1.0000
  C   C37       1.0  0.04627  0.95728  0.19610  1.0000
  C   C38       1.0  0.04265  0.09092  0.16868  1.0000
  C   C39       1.0  0.74224  0.09060  0.06690  1.0000
  C   C40       1.0  0.91057  0.65023  0.03744  1.0000
  C   C41       1.0  0.33750  0.24798  0.06132  1.0000
  C   C42       1.0  0.77614  0.07820  0.07127  1.0000
  C   C43       1.0  0.92318  0.69686  0.04048  1.0000
  C   C44       1.0  0.29046  0.21612  0.06049  1.0000
  C   C45       1.0  0.72988  0.01208  0.18603  1.0000
  C   C46       1.0  0.98897  0.71531  0.16397  1.0000
  C   C47       1.0  0.27702  0.26732  0.18161  1.0000
  C   C48       1.0  0.72247  0.96808  0.20319  1.0000
  C   C49       1.0  0.03316  0.75134  0.18793  1.0000
  C   C50       1.0  0.24485  0.28087  0.19613  1.0000
  C   C51       1.0  0.64076  0.02046  0.37574  1.0000
  C   C52       1.0  0.98343  0.61654  0.38277  1.0000
  C   C53       1.0  0.38216  0.36169  0.38681  1.0000
  C   C54       1.0  0.67120  0.06090  0.46514  1.0000
  C   C55       1.0  0.93894  0.60402  0.42867  1.0000
  C   C56       1.0  0.39006  0.32949  0.46659  1.0000
  C   C57       1.0  0.60616  0.95421  0.50776  1.0000
  C   C58       1.0  0.05342  0.65520  0.48829  1.0000
  C   C59       1.0  0.34852  0.39415  0.52701  1.0000
  C   C60       1.0  0.61309  0.92013  0.09013  1.0000
  C   C61       1.0  0.07919  0.69148  0.05582  1.0000
  C   C62       1.0  0.30878  0.38925  0.09731  1.0000
  C   C63       1.0  0.68581  0.90133  0.05925  1.0000
  C   C64       1.0  0.09864  0.78450  0.04998  1.0000
  C   C65       1.0  0.21654  0.31586  0.04707  1.0000
  C   C66       1.0  0.64291  0.87724  0.01516  1.0000
  C   C67       1.0  0.12352  0.76655  0.00793  1.0000
  C   C68       1.0  0.23594  0.35909  0.01071  1.0000
  C   C69       1.0  0.62249  0.83293  0.00039  1.0000
  C   C70       1.0  0.16757  0.79136  0.00095  1.0000
  C   C71       1.0  0.21188  0.37891  0.99061  1.0000
  C   C72       1.0  0.64642  0.81360  0.03132  1.0000
  C   C73       1.0  0.18571  0.83481  0.03467  1.0000
  C   C74       1.0  0.16837  0.35433  0.01445  1.0000
  C   C75       1.0  0.68862  0.83720  0.07256  1.0000
  C   C76       1.0  0.16138  0.85261  0.07321  1.0000
  C   C77       1.0  0.14950  0.31214  0.05216  1.0000
  C   C78       1.0  0.70979  0.88158  0.08527  1.0000
  C   C79       1.0  0.11731  0.82841  0.08110  1.0000
  C   C80       1.0  0.17261  0.29126  0.06601  1.0000
  C   C81       1.0  0.29076  0.63828  0.84450  1.0000
  C   C82       1.0  0.36307  0.65476  0.83171  1.0000
  C   C83       1.0  0.34700  0.71127  0.84756  1.0000
  C   C84       1.0  0.30374  0.68132  0.84970  1.0000
  C   C85       1.0  0.32036  0.62468  0.83597  1.0000
  C   C86       1.0  0.37673  0.69826  0.83910  1.0000
  C   C87       1.0  0.27237  0.69449  0.86403  1.0000
  C   C88       1.0  0.30736  0.57984  0.84202  1.0000
  C   C89       1.0  0.42149  0.72979  0.84771  1.0000
  C   C90       1.0  0.75473  0.90300  0.62007  1.0000
  C   C91       1.0  0.14701  0.24265  0.59890  1.0000
  C   C92       1.0  0.77247  0.88622  0.72116  1.0000
  C   C93       1.0  0.11293  0.22454  0.70056  1.0000
  C   C94       1.0  0.81566  0.90582  0.74581  1.0000
  C   C95       1.0  0.08927  0.18101  0.71772  1.0000
  C   C96       1.0  0.84265  0.94374  0.67108  1.0000
  C   C97       1.0  0.09930  0.15396  0.63397  1.0000
  C   C98       1.0  0.82497  0.96074  0.57120  1.0000
  C   C99       1.0  0.13347  0.17195  0.53295  1.0000
  C   C100      1.0  0.78201  0.94047  0.54397  1.0000
  C   C101      1.0  0.15632  0.21528  0.51383  1.0000
  C   C102      1.0  0.54656  0.81571  0.51620  1.0000
  C   C103      1.0  0.18971  0.73894  0.52631  1.0000
  C   C104      1.0  0.50427  0.78813  0.48401  1.0000
  C   C105      1.0  0.21662  0.72325  0.50033  1.0000
  C   C106      1.0  0.95413  0.97522  0.72689  1.0000
  C   C107      1.0  0.02174  0.97854  0.71780  1.0000
  C   C108      1.0  0.01833  0.04307  0.69986  1.0000
  C   C109      1.0  0.97778  0.95512  0.73253  1.0000
  C   C110      1.0  0.04174  0.02226  0.70331  1.0000
  C   C111      1.0  0.97470  0.01942  0.71135  1.0000
  C   C112      1.0  0.90829  0.94993  0.72109  1.0000
  C   C113      1.0  0.04615  0.95725  0.70328  1.0000
  C   C114      1.0  0.03926  0.08864  0.67665  1.0000
  C   C115      1.0  0.74176  0.09089  0.56862  1.0000
  C   C116      1.0  0.91418  0.64752  0.54747  1.0000
  C   C117      1.0  0.34815  0.25764  0.54486  1.0000
  C   C118      1.0  0.77622  0.07925  0.56994  1.0000
  C   C119      1.0  0.92467  0.69346  0.54932  1.0000
  C   C120      1.0  0.30229  0.22225  0.54086  1.0000
  C   C121      1.0  0.73021  0.01261  0.68270  1.0000
  C   C122      1.0  0.99241  0.71861  0.66700  1.0000
  C   C123      1.0  0.28015  0.26667  0.66831  1.0000
  C   C124      1.0  0.72384  0.96898  0.70033  1.0000
  C   C125      1.0  0.03527  0.75746  0.68233  1.0000
  C   C126      1.0  0.24263  0.27241  0.68516  1.0000
  C   C127      1.0  0.63969  0.02043  0.90098  1.0000
  C   C128      1.0  0.97670  0.61085  0.88827  1.0000
  C   C129      1.0  0.37449  0.35185  0.90819  1.0000
  C   C130      1.0  0.67328  0.06487  0.95257  1.0000
  C   C131      1.0  0.93426  0.60421  0.93692  1.0000
  C   C132      1.0  0.38318  0.31689  0.95324  1.0000
  C   C133      1.0  0.60427  0.95204  0.01527  1.0000
  C   C134      1.0  0.04973  0.65254  0.95612  1.0000
  C   C135      1.0  0.34842  0.39425  0.02411  1.0000
  C   C136      1.0  0.61637  0.92421  0.58972  1.0000
  C   C137      1.0  0.08345  0.69763  0.56483  1.0000
  C   C138      1.0  0.30706  0.38179  0.60279  1.0000
  C   C139      1.0  0.68618  0.90149  0.56129  1.0000
  C   C140      1.0  0.10081  0.78858  0.54224  1.0000
  C   C141      1.0  0.21491  0.31179  0.55443  1.0000
  C   C142      1.0  0.64320  0.87819  0.51870  1.0000
  C   C143      1.0  0.12506  0.77016  0.49769  1.0000
  C   C144      1.0  0.23528  0.35530  0.52059  1.0000
  C   C145      1.0  0.62219  0.83387  0.50292  1.0000
  C   C146      1.0  0.16916  0.79437  0.49210  1.0000
  C   C147      1.0  0.21256  0.37670  0.50705  1.0000
  C   C148      1.0  0.64513  0.81362  0.53533  1.0000
  C   C149      1.0  0.18805  0.83784  0.52721  1.0000
  C   C150      1.0  0.16928  0.35357  0.53651  1.0000
  C   C151      1.0  0.68708  0.83630  0.57904  1.0000
  C   C152      1.0  0.16430  0.85620  0.56741  1.0000
  C   C153      1.0  0.14941  0.31127  0.57332  1.0000
  C   C154      1.0  0.70902  0.88069  0.59026  1.0000
  C   C155      1.0  0.12026  0.83239  0.57590  1.0000
  C   C156      1.0  0.17113  0.28883  0.57851  1.0000
  N   N1        1.0  0.44942  0.72034  0.36695  1.0000
  N   N2        1.0  0.28147  0.73228  0.37930  1.0000
  N   N3        1.0  0.27003  0.54986  0.38574  1.0000
  N   N4        1.0  0.88800  0.97128  0.17153  1.0000
  N   N5        1.0  0.02756  0.91672  0.18059  1.0000
  N   N6        1.0  0.08269  0.11277  0.15031  1.0000
  N   N7        1.0  0.45008  0.71929  0.84788  1.0000
  N   N8        1.0  0.28269  0.73375  0.87190  1.0000
  N   N9        1.0  0.26854  0.55097  0.85403  1.0000
  N   N10       1.0  0.88628  0.96731  0.68950  1.0000
  N   N11       1.0  0.02811  0.91673  0.69061  1.0000
  N   N12       1.0  0.07897  0.11022  0.65121  1.0000
  O   O1        1.0  0.64279  0.98490  0.43029  1.0000
  O   O2        1.0  0.01224  0.65003  0.48452  1.0000
  O   O3        1.0  0.34394  0.35863  0.43890  1.0000
  O   O4        1.0  0.62230  0.89894  0.47387  1.0000
  O   O5        1.0  0.10484  0.72831  0.44642  1.0000
  O   O6        1.0  0.27731  0.37655  0.48291  1.0000
  O   O7        1.0  0.70262  0.94434  0.06072  1.0000
  O   O8        1.0  0.05587  0.75737  0.04446  1.0000
  O   O9        1.0  0.24273  0.29933  0.05117  1.0000
  O   O10       1.0  0.76135  0.03416  0.07094  1.0000
  O   O11       1.0  0.96708  0.72611  0.05119  1.0000
  O   O12       1.0  0.26400  0.23401  0.06539  1.0000
  O   O13       1.0  0.71287  0.06899  0.44269  1.0000
  O   O14       1.0  0.93231  0.63909  0.41446  1.0000
  O   O15       1.0  0.35564  0.28837  0.43011  1.0000
  O   O16       1.0  0.64320  0.99027  0.99228  1.0000
  O   O17       1.0  0.00734  0.63891  0.99951  1.0000
  O   O18       1.0  0.34635  0.35408  0.01575  1.0000
  O   O19       1.0  0.62179  0.89781  0.96967  1.0000
  O   O20       1.0  0.10453  0.72523  0.95227  1.0000
  O   O21       1.0  0.27825  0.38078  0.97541  1.0000
  O   O22       1.0  0.70423  0.94466  0.55877  1.0000
  O   O23       1.0  0.05799  0.76183  0.53967  1.0000
  O   O24       1.0  0.23956  0.29337  0.54826  1.0000
  O   O25       1.0  0.76211  0.03527  0.57022  1.0000
  O   O26       1.0  0.96809  0.72435  0.54849  1.0000
  O   O27       1.0  0.27180  0.23515  0.54952  1.0000
  O   O28       1.0  0.71393  0.06949  0.93838  1.0000
  O   O29       1.0  0.93431  0.64295  0.92225  1.0000
  O   O30       1.0  0.34612  0.27651  0.93650  1.0000
  C  Sn1       1.0  0.26605  0.46678  0.04849  1.0000
  C   C157      1.0  0.23489  0.43730  0.98909  1.0000
  C  Sn2       1.0  0.21374  0.43972  0.85861  1.0000
  C  Sn3       1.0  0.22838  0.47897  0.78591  1.0000
  C   C158      1.0  0.26385  0.51498  0.84530  1.0000
  C  Sn4       1.0  0.28502  0.51259  0.97580  1.0000
  O  Te1       1.0  0.28670  0.46363  0.17905  1.0000
  O  Te2       1.0  0.17832  0.40326  0.80137  1.0000
  O  Te3       1.0  0.20769  0.48209  0.65526  1.0000
  O  Te4       1.0  0.31608  0.54246  0.03301  1.0000
  Mg  Mg1       1.0  0.16090  0.42360  0.62067  1.0000
  Mg  Mg2       1.0  0.33354  0.52215  0.21365  1.0000
  C  Sn5       1.0  0.20996  0.46635  0.38041  1.0000
  C   C159      1.0  0.24673  0.50180  0.43531  1.0000
  C  Sn6       1.0  0.27961  0.49758  0.49580  1.0000
  C  Sn7       1.0  0.27567  0.45708  0.50145  1.0000
  C   C160      1.0  0.23892  0.42167  0.44656  1.0000
  C  Sn8       1.0  0.20602  0.42586  0.38607  1.0000
  O  Te5       1.0  0.17748  0.47131  0.32042  1.0000
  O  Te6       1.0  0.31606  0.53348  0.55003  1.0000
  O  Te7       1.0  0.30818  0.45215  0.56152  1.0000
  O  Te8       1.0  0.16959  0.38998  0.33184  1.0000
  Mg  Mg3       1.0  0.35161  0.51053  0.62115  1.0000
  Mg  Mg4       1.0  0.13403  0.41290  0.26063  1.0000
  C  Sn9       1.0  0.51229  0.79846  0.96899  1.0000
  C   C161      1.0  0.49540  0.76402  0.86490  1.0000
  C  Sn10      1.0  0.52009  0.74773  0.80960  1.0000
  C  Sn11      1.0  0.56255  0.76624  0.85943  1.0000
  C   C162      1.0  0.57942  0.80065  0.96347  1.0000
  C  Sn12      1.0  0.55041  0.81041  0.01882  1.0000
  O  Te9       1.0  0.48269  0.80767  0.02278  1.0000
  O  Te10      1.0  0.50251  0.71328  0.70557  1.0000
  O  Te11      1.0  0.58781  0.75044  0.80553  1.0000
  O  Te12      1.0  0.56797  0.84483  0.12280  1.0000
  Mg  Mg5       1.0  0.54957  0.70309  0.66521  1.0000
  Mg  Mg6       1.0  0.52094  0.85503  0.16329  1.0000
  C  Sn13      1.0  0.15584  0.21360  0.97993  1.0000
  C   C163      1.0  0.14451  0.23823  0.04411  1.0000
  C  Sn14      1.0  0.11803  0.22939  0.17027  1.0000
  C  Sn15      1.0  0.09812  0.18852  0.23369  1.0000
  C   C164      1.0  0.10512  0.15736  0.16954  1.0000
  C  Sn16      1.0  0.13160  0.16617  0.04335  1.0000
  O  Te13      1.0  0.18244  0.22314  0.85382  1.0000
  O  Te14      1.0  0.11152  0.26108  0.23242  1.0000
  O  Te15      1.0  0.07150  0.17900  0.35989  1.0000
  O  Te16      1.0  0.14245  0.14107  0.98123  1.0000
  Mg  Mg7       1.0  0.07255  0.23272  0.40407  1.0000
  Mg  Mg8       1.0  0.18143  0.16940  0.80964  1.0000
  C  Sn17      1.0  0.26023  0.79473  0.86857  1.0000
  C   C165      1.0  0.25996  0.75928  0.92696  1.0000
  C  Sn18      1.0  0.22402  0.72743  0.99577  1.0000
  C  Sn19      1.0  0.18323  0.72451  0.00638  1.0000
  C   C166      1.0  0.18784  0.76649  0.94800  1.0000
  C  Sn20      1.0  0.22378  0.79837  0.87918  1.0000
  O  Te17      1.0  0.29651  0.82618  0.80024  1.0000
  O  Te18      1.0  0.22017  0.68573  0.05335  1.0000
  O  Te19      1.0  0.14693  0.69301  0.07478  1.0000
  O  Te20      1.0  0.22329  0.83348  0.82160  1.0000
  Mg  Mg9       1.0  0.16303  0.65122  0.13613  1.0000
  Mg  Mg10      1.0  0.28040  0.86800  0.73873  1.0000
  C  Sn21      1.0  0.10265  0.88590  0.76653  1.0000
  C   C167      1.0  0.09250  0.85275  0.66053  1.0000
  C  Sn22      1.0  0.06293  0.84358  0.54245  1.0000
  C  Sn23      1.0  0.04310  0.86807  0.52999  1.0000
  C   C168      1.0  0.05326  0.90119  0.63593  1.0000
  C  Sn24      1.0  0.08283  0.91038  0.75407  1.0000
  O  Te21      1.0  0.13231  0.89450  0.88365  1.0000
  O  Te22      1.0  0.05329  0.81028  0.43788  1.0000
  O  Te23      1.0  0.01342  0.85944  0.41274  1.0000
  O  Te24      1.0  0.09248  0.94367  0.85858  1.0000
  Mg  Mg11      1.0  0.01085  0.81087  0.29827  1.0000
  Mg  Mg12      1.0  0.13492  0.94311  0.99818  1.0000
