data_image0
_chemical_formula_structural       H156C132N12O36SnCSn2CSnTe4Mg2SnCSn2CSnTe4Mg2SnCSn2CSnTe4Mg2SnCSn2CSnTe4Mg2SnCSn2CSnTe4Mg2SnCSn2CSnTe4Mg2SnCSn2CSnTe4Mg2SnCSn2CSnTe4Mg2SnCSn2CSnTe4Mg2SnCSn2CSnTe4Mg2SnCSn2CSnTe4Mg2SnCSn2CSnTe4Mg2
_chemical_formula_sum              "H156 C156 N12 O36 Sn48 Te48 Mg24"
_cell_length_a       36.603
_cell_length_b       36.5115
_cell_length_c       8.41014
_cell_angle_alpha    89.0237
_cell_angle_beta     90.6192
_cell_angle_gamma    120.053

_symmetry_space_group_name_H-M    'P1'
_space_group_IT_number       1

loop_
  _space_group_symop_operation_xyz
  'x, y, z'

loop_
  _atom_site_type_symbol
  _atom_site_label
  _atom_site_symmetry_multiplicity
  _atom_site_fract_x
  _atom_site_fract_y
  _atom_site_fract_z
  _atom_site_occupancy
  H   H1        1.0  0.22931  0.19073  0.06856  1.0000
  H   H2        1.0  0.80358  0.03908  0.14258  1.0000
  H   H3        1.0  0.96696  0.77459  0.06033  1.0000
  H   H4        1.0  0.21432  0.20344  0.38922  1.0000
  H   H5        1.0  0.79443  0.00631  0.45865  1.0000
  H   H6        1.0  0.99051  0.78824  0.39834  1.0000
  H   H7        1.0  0.19996  0.23044  0.15733  1.0000
  H   H8        1.0  0.75866  0.96826  0.20931  1.0000
  H   H9        1.0  0.03770  0.80494  0.14009  1.0000
  H   H10       1.0  0.25343  0.27091  0.13835  1.0000
  H   H11       1.0  0.72088  0.98269  0.15289  1.0000
  H   H12       1.0  0.02194  0.75058  0.13571  1.0000
  H   H13       1.0  0.20435  0.29783  0.15240  1.0000
  H   H14       1.0  0.70069  0.90318  0.16180  1.0000
  H   H15       1.0  0.09818  0.79858  0.14095  1.0000
  H   H16       1.0  0.18269  0.30295  0.47315  1.0000
  H   H17       1.0  0.69166  0.87668  0.44801  1.0000
  H   H18       1.0  0.11925  0.80813  0.39838  1.0000
  H   H19       1.0  0.25213  0.35346  0.36001  1.0000
  H   H20       1.0  0.64538  0.90354  0.34878  1.0000
  H   H21       1.0  0.07978  0.72893  0.35240  1.0000
  H   H22       1.0  0.24218  0.37027  0.03945  1.0000
  H   H23       1.0  0.63157  0.86830  0.02541  1.0000
  H   H24       1.0  0.13301  0.76036  0.03760  1.0000
  H   H25       1.0  0.37013  0.25124  0.04973  1.0000
  H   H26       1.0  0.74572  0.12141  0.05593  1.0000
  H   H27       1.0  0.88731  0.63314  0.04476  1.0000
  H   H28       1.0  0.34995  0.24684  0.35642  1.0000
  H   H29       1.0  0.75655  0.10303  0.37612  1.0000
  H   H30       1.0  0.89971  0.65295  0.34753  1.0000
  H   H31       1.0  0.29760  0.20889  0.09559  1.0000
  H   H32       1.0  0.78841  0.09306  0.13392  1.0000
  H   H33       1.0  0.91959  0.70560  0.09910  1.0000
  H   H34       1.0  0.30729  0.26032  0.13913  1.0000
  H   H35       1.0  0.73643  0.04992  0.16177  1.0000
  H   H36       1.0  0.96148  0.69501  0.12438  1.0000
  H   H37       1.0  0.40817  0.31299  0.25514  1.0000
  H   H38       1.0  0.69291  0.09825  0.25790  1.0000
  H   H39       1.0  0.90700  0.59307  0.23603  1.0000
  H   H40       1.0  0.43163  0.31785  0.44765  1.0000
  H   H41       1.0  0.68468  0.11497  0.44629  1.0000
  H   H42       1.0  0.88993  0.57072  0.43087  1.0000
  H   H43       1.0  0.45867  0.38629  0.29510  1.0000
  H   H44       1.0  0.61964  0.07739  0.28155  1.0000
  H   H45       1.0  0.92938  0.54256  0.27881  1.0000
  H   H46       1.0  0.40737  0.38002  0.29781  1.0000
  H   H47       1.0  0.62403  0.03120  0.28248  1.0000
  H   H48       1.0  0.97536  0.59340  0.28515  1.0000
  H   H49       1.0  0.31862  0.39276  0.22657  1.0000
  H   H50       1.0  0.58600  0.90455  0.14227  1.0000
  H   H51       1.0  0.08869  0.67933  0.18815  1.0000
  H   H52       1.0  0.31654  0.41465  0.49667  1.0000
  H   H53       1.0  0.58474  0.90316  0.43981  1.0000
  H   H54       1.0  0.10379  0.68550  0.59100  1.0000
  H   H55       1.0  0.35976  0.36339  0.07364  1.0000
  H   H56       1.0  0.63667  0.99084  0.08503  1.0000
  H   H57       1.0  0.00739  0.64422  0.11298  1.0000
  H   H58       1.0  0.36891  0.39703  0.42028  1.0000
  H   H59       1.0  0.60396  0.97463  0.40609  1.0000
  H   H60       1.0  0.04658  0.63922  0.40602  1.0000
  H   H61       1.0  0.55188  0.52321  0.45392  1.0000
  H   H62       1.0  0.47898  0.03150  0.42831  1.0000
  H   H63       1.0  0.97177  0.44711  0.45107  1.0000
  H   H64       1.0  0.50862  0.55447  0.02975  1.0000
  H   H65       1.0  0.44580  0.95373  0.01521  1.0000
  H   H66       1.0  0.04317  0.48987  0.02381  1.0000
  H   H67       1.0  0.69244  0.41277  0.33453  1.0000
  H   H68       1.0  0.59118  0.28315  0.32196  1.0000
  H   H69       1.0  0.72046  0.31148  0.31867  1.0000
  H   H70       1.0  0.57388  0.33797  0.33360  1.0000
  H   H71       1.0  0.66556  0.23914  0.32172  1.0000
  H   H72       1.0  0.76504  0.42963  0.34224  1.0000
  H   H73       1.0  0.40981  0.70446  0.23090  1.0000
  H   H74       1.0  0.29145  0.70307  0.23024  1.0000
  H   H75       1.0  0.29269  0.58574  0.23589  1.0000
  H   H76       1.0  0.41181  0.63995  0.21751  1.0000
  H   H77       1.0  0.35584  0.76961  0.20557  1.0000
  H   H78       1.0  0.22616  0.58372  0.21941  1.0000
  H   H79       1.0  0.23141  0.19241  0.57373  1.0000
  H   H80       1.0  0.79604  0.02913  0.64612  1.0000
  H   H81       1.0  0.96656  0.76903  0.58794  1.0000
  H   H82       1.0  0.21314  0.20327  0.88517  1.0000
  H   H83       1.0  0.80093  0.01480  0.95755  1.0000
  H   H84       1.0  0.99414  0.79100  0.87560  1.0000
  H   H85       1.0  0.19901  0.23019  0.65374  1.0000
  H   H86       1.0  0.75021  0.95773  0.70045  1.0000
  H   H87       1.0  0.03980  0.80129  0.64232  1.0000
  H   H88       1.0  0.25270  0.27067  0.64626  1.0000
  H   H89       1.0  0.71370  0.97443  0.65029  1.0000
  H   H90       1.0  0.02382  0.74688  0.63300  1.0000
  H   H91       1.0  0.20609  0.29899  0.65430  1.0000
  H   H92       1.0  0.69064  0.89375  0.64346  1.0000
  H   H93       1.0  0.10357  0.79773  0.60141  1.0000
  H   H94       1.0  0.18132  0.30185  0.97007  1.0000
  H   H95       1.0  0.70326  0.88384  0.97197  1.0000
  H   H96       1.0  0.12384  0.81909  0.95519  1.0000
  H   H97       1.0  0.25211  0.35147  0.85906  1.0000
  H   H98       1.0  0.65278  0.90347  0.85795  1.0000
  H   H99       1.0  0.10084  0.74640  0.86241  1.0000
  H   H100      1.0  0.24302  0.37154  0.54366  1.0000
  H   H101      1.0  0.62133  0.86393  0.50231  1.0000
  H   H102      1.0  0.12578  0.74856  0.47597  1.0000
  H   H103      1.0  0.37231  0.25587  0.55073  1.0000
  H   H104      1.0  0.74410  0.11630  0.56260  1.0000
  H   H105      1.0  0.88831  0.62717  0.53707  1.0000
  H   H106      1.0  0.34872  0.24518  0.85427  1.0000
  H   H107      1.0  0.75853  0.10809  0.87025  1.0000
  H   H108      1.0  0.89902  0.65617  0.85043  1.0000
  H   H109      1.0  0.30014  0.21311  0.60229  1.0000
  H   H110      1.0  0.78439  0.08520  0.63779  1.0000
  H   H111      1.0  0.91750  0.69814  0.60693  1.0000
  H   H112      1.0  0.30934  0.26480  0.63765  1.0000
  H   H113      1.0  0.73172  0.04355  0.66493  1.0000
  H   H114      1.0  0.96110  0.68977  0.62648  1.0000
  H   H115      1.0  0.40586  0.30984  0.76047  1.0000
  H   H116      1.0  0.69254  0.09991  0.75609  1.0000
  H   H117      1.0  0.90354  0.59663  0.74685  1.0000
  H   H118      1.0  0.43117  0.31637  0.94997  1.0000
  H   H119      1.0  0.68319  0.11552  0.94491  1.0000
  H   H120      1.0  0.88725  0.57325  0.94063  1.0000
  H   H121      1.0  0.45583  0.38358  0.79348  1.0000
  H   H122      1.0  0.61821  0.07381  0.78152  1.0000
  H   H123      1.0  0.92508  0.54461  0.78334  1.0000
  H   H124      1.0  0.40413  0.37648  0.79900  1.0000
  H   H125      1.0  0.62671  0.03010  0.78458  1.0000
  H   H126      1.0  0.97107  0.59553  0.78100  1.0000
  H   H127      1.0  0.31918  0.40216  0.70015  1.0000
  H   H128      1.0  0.57963  0.90509  0.64877  1.0000
  H   H129      1.0  0.06671  0.67115  0.74647  1.0000
  H   H130      1.0  0.31306  0.41340  0.04095  1.0000
  H   H131      1.0  0.59242  0.90535  0.93263  1.0000
  H   H132      1.0  0.09700  0.68444  0.97998  1.0000
  H   H133      1.0  0.35987  0.36436  0.59191  1.0000
  H   H134      1.0  0.63469  0.98980  0.58358  1.0000
  H   H135      1.0  0.00762  0.63908  0.53338  1.0000
  H   H136      1.0  0.36361  0.39814  0.91459  1.0000
  H   H137      1.0  0.60578  0.97485  0.90831  1.0000
  H   H138      1.0  0.02335  0.63578  0.92543  1.0000
  H   H139      1.0  0.55023  0.52089  0.95807  1.0000
  H   H140      1.0  0.47992  0.02874  0.93289  1.0000
  H   H141      1.0  0.96771  0.44917  0.95072  1.0000
  H   H142      1.0  0.51065  0.55635  0.53304  1.0000
  H   H143      1.0  0.44464  0.95619  0.50768  1.0000
  H   H144      1.0  0.04650  0.48853  0.53095  1.0000
  H   H145      1.0  0.68633  0.40877  0.86130  1.0000
  H   H146      1.0  0.58820  0.27803  0.84124  1.0000
  H   H147      1.0  0.71879  0.31064  0.84127  1.0000
  H   H148      1.0  0.56912  0.33278  0.86241  1.0000
  H   H149      1.0  0.66535  0.23764  0.84977  1.0000
  H   H150      1.0  0.75952  0.42828  0.87018  1.0000
  H   H151      1.0  0.41299  0.70768  0.74362  1.0000
  H   H152      1.0  0.29427  0.70559  0.73988  1.0000
  H   H153      1.0  0.29626  0.58864  0.74171  1.0000
  H   H154      1.0  0.41527  0.64340  0.72023  1.0000
  H   H155      1.0  0.35846  0.77251  0.72824  1.0000
  H   H156      1.0  0.22976  0.58602  0.72343  1.0000
  C   C1        1.0  0.23494  0.21685  0.98602  1.0000
  C   C2        1.0  0.78246  0.02105  0.04381  1.0000
  C   C3        1.0  0.98666  0.76901  0.97678  1.0000
  C   C4        1.0  0.22573  0.24777  0.07114  1.0000
  C   C5        1.0  0.74707  0.97920  0.10834  1.0000
  C   C6        1.0  0.02712  0.77769  0.06065  1.0000
  C   C7        1.0  0.20935  0.30262  0.02311  1.0000
  C   C8        1.0  0.69891  0.90786  0.03294  1.0000
  C   C9        1.0  0.09699  0.79172  0.01355  1.0000
  C   C10       1.0  0.24771  0.34579  0.98860  1.0000
  C   C11       1.0  0.65543  0.90078  0.98799  1.0000
  C   C12       1.0  0.10193  0.75324  0.99008  1.0000
  C   C13       1.0  0.35193  0.26224  0.47046  1.0000
  C   C14       1.0  0.73877  0.08950  0.48731  1.0000
  C   C15       1.0  0.91421  0.64932  0.45793  1.0000
  C   C16       1.0  0.30672  0.24015  0.04222  1.0000
  C   C17       1.0  0.75922  0.07057  0.07072  1.0000
  C   C18       1.0  0.94004  0.69658  0.03522  1.0000
  C   C19       1.0  0.41060  0.32532  0.37641  1.0000
  C   C20       1.0  0.67812  0.08700  0.37605  1.0000
  C   C21       1.0  0.91790  0.59121  0.35744  1.0000
  C   C22       1.0  0.42905  0.37251  0.36193  1.0000
  C   C23       1.0  0.63121  0.05940  0.35030  1.0000
  C   C24       1.0  0.94582  0.57193  0.34637  1.0000
  C   C25       1.0  0.43187  0.45131  0.06597  1.0000
  C   C26       1.0  0.54828  0.97903  0.05562  1.0000
  C   C27       1.0  0.01866  0.56773  0.05613  1.0000
  C   C28       1.0  0.45504  0.43222  0.01676  1.0000
  C   C29       1.0  0.56784  0.02148  0.00142  1.0000
  C   C30       1.0  0.97621  0.54516  0.00573  1.0000
  C   C31       1.0  0.31765  0.38854  0.09679  1.0000
  C   C32       1.0  0.60612  0.92347  0.04198  1.0000
  C   C33       1.0  0.07486  0.68152  0.07360  1.0000
  C   C34       1.0  0.35912  0.39240  0.04343  1.0000
  C   C35       1.0  0.60731  0.96596  0.03212  1.0000
  C   C36       1.0  0.03215  0.64146  0.05121  1.0000
  C   C37       1.0  0.50038  0.45906  0.47564  1.0000
  C   C38       1.0  0.54258  0.04309  0.45187  1.0000
  C   C39       1.0  0.95963  0.49894  0.46673  1.0000
  C   C40       1.0  0.51869  0.50334  0.48339  1.0000
  C   C41       1.0  0.49829  0.01744  0.45817  1.0000
  C   C42       1.0  0.98540  0.48049  0.47753  1.0000
  C   C43       1.0  0.49367  0.52014  0.02791  1.0000
  C   C44       1.0  0.48006  0.97284  0.01327  1.0000
  C   C45       1.0  0.02426  0.50525  0.02052  1.0000
  C   C46       1.0  0.45081  0.49583  0.06795  1.0000
  C   C47       1.0  0.50376  0.95386  0.05947  1.0000
  C   C48       1.0  0.04356  0.54811  0.06020  1.0000
  C   C49       1.0  0.68218  0.37920  0.32840  1.0000
  C   C50       1.0  0.62470  0.30659  0.32105  1.0000
  C   C51       1.0  0.69713  0.32168  0.31959  1.0000
  C   C52       1.0  0.63848  0.34988  0.32633  1.0000
  C   C53       1.0  0.65396  0.29220  0.31812  1.0000
  C   C54       1.0  0.71160  0.36540  0.32530  1.0000
  C   C55       1.0  0.60712  0.36351  0.33532  1.0000
  C   C56       1.0  0.64021  0.24704  0.32166  1.0000
  C   C57       1.0  0.75674  0.39625  0.33486  1.0000
  C   C58       1.0  0.35370  0.64228  0.23796  1.0000
  C   C59       1.0  0.35347  0.70901  0.23484  1.0000
  C   C60       1.0  0.28694  0.64201  0.23784  1.0000
  C   C61       1.0  0.37549  0.68651  0.23704  1.0000
  C   C62       1.0  0.30936  0.68662  0.23647  1.0000
  C   C63       1.0  0.30921  0.62016  0.23982  1.0000
  C   C64       1.0  0.37722  0.61994  0.22066  1.0000
  C   C65       1.0  0.37583  0.75506  0.21545  1.0000
  C   C66       1.0  0.24099  0.61844  0.22104  1.0000
  C   C67       1.0  0.23617  0.21792  0.48938  1.0000
  C   C68       1.0  0.77562  0.01231  0.54416  1.0000
  C   C69       1.0  0.98513  0.76521  0.49389  1.0000
  C   C70       1.0  0.22597  0.24829  0.57301  1.0000
  C   C71       1.0  0.73925  0.97033  0.60267  1.0000
  C   C72       1.0  0.02727  0.77398  0.56222  1.0000
  C   C73       1.0  0.21099  0.30401  0.52508  1.0000
  C   C74       1.0  0.68903  0.90071  0.51644  1.0000
  C   C75       1.0  0.09470  0.78543  0.47993  1.0000
  C   C76       1.0  0.24880  0.34752  0.48966  1.0000
  C   C77       1.0  0.64657  0.89675  0.47655  1.0000
  C   C78       1.0  0.09329  0.74319  0.46829  1.0000
  C   C79       1.0  0.35042  0.25907  0.97149  1.0000
  C   C80       1.0  0.74132  0.09463  0.98256  1.0000
  C   C81       1.0  0.91337  0.65341  0.96269  1.0000
  C   C82       1.0  0.30858  0.24369  0.54408  1.0000
  C   C83       1.0  0.75489  0.06374  0.57417  1.0000
  C   C84       1.0  0.93924  0.69151  0.53963  1.0000
  C   C85       1.0  0.40905  0.32281  0.88098  1.0000
  C   C86       1.0  0.67837  0.08813  0.87480  1.0000
  C   C87       1.0  0.91496  0.59395  0.86629  1.0000
  C   C88       1.0  0.42652  0.36980  0.86229  1.0000
  C   C89       1.0  0.63183  0.05786  0.85102  1.0000
  C   C90       1.0  0.94243  0.57439  0.84825  1.0000
  C   C91       1.0  0.43413  0.45322  0.57040  1.0000
  C   C92       1.0  0.54706  0.98160  0.54983  1.0000
  C   C93       1.0  0.02058  0.56551  0.55739  1.0000
  C   C94       1.0  0.45734  0.43426  0.51891  1.0000
  C   C95       1.0  0.56677  0.02416  0.49704  1.0000
  C   C96       1.0  0.97830  0.54219  0.50611  1.0000
  C   C97       1.0  0.31989  0.39240  0.57724  1.0000
  C   C98       1.0  0.60004  0.92192  0.54633  1.0000
  C   C99       1.0  0.07182  0.67918  0.61934  1.0000
  C   C100      1.0  0.36161  0.39363  0.54760  1.0000
  C   C101      1.0  0.60470  0.96595  0.53090  1.0000
  C   C102      1.0  0.03820  0.64032  0.53042  1.0000
  C   C103      1.0  0.49823  0.45698  0.97709  1.0000
  C   C104      1.0  0.54354  0.04031  0.95657  1.0000
  C   C105      1.0  0.95688  0.50175  0.96769  1.0000
  C   C106      1.0  0.51682  0.50127  0.98446  1.0000
  C   C107      1.0  0.49928  0.01480  0.96362  1.0000
  C   C108      1.0  0.98209  0.48266  0.97613  1.0000
  C   C109      1.0  0.49570  0.52205  0.53087  1.0000
  C   C110      1.0  0.47891  0.97525  0.50607  1.0000
  C   C111      1.0  0.02732  0.50361  0.52517  1.0000
  C   C112      1.0  0.45304  0.49776  0.57400  1.0000
  C   C113      1.0  0.50260  0.95624  0.55172  1.0000
  C   C114      1.0  0.04603  0.54651  0.56500  1.0000
  C   C115      1.0  0.67736  0.37557  0.85306  1.0000
  C   C116      1.0  0.62145  0.30230  0.84213  1.0000
  C   C117      1.0  0.69472  0.31983  0.84261  1.0000
  C   C118      1.0  0.63399  0.34525  0.84810  1.0000
  C   C119      1.0  0.65182  0.28934  0.83958  1.0000
  C   C120      1.0  0.70782  0.36322  0.85042  1.0000
  C   C121      1.0  0.60228  0.35834  0.85553  1.0000
  C   C122      1.0  0.63936  0.24456  0.84158  1.0000
  C   C123      1.0  0.75252  0.39535  0.86049  1.0000
  C   C124      1.0  0.35703  0.64534  0.74554  1.0000
  C   C125      1.0  0.35641  0.71185  0.74653  1.0000
  C   C126      1.0  0.29001  0.64463  0.74523  1.0000
  C   C127      1.0  0.37864  0.68955  0.74757  1.0000
  C   C128      1.0  0.31228  0.68924  0.74617  1.0000
  C   C129      1.0  0.31253  0.62303  0.74638  1.0000
  C   C130      1.0  0.38073  0.62320  0.72679  1.0000
  C   C131      1.0  0.37855  0.75799  0.72899  1.0000
  C   C132      1.0  0.24407  0.62067  0.72746  1.0000
  N   N1        1.0  0.61749  0.40277  0.34594  1.0000
  N   N2        1.0  0.60089  0.21817  0.32724  1.0000
  N   N3        1.0  0.78507  0.38503  0.33665  1.0000
  N   N4        1.0  0.35843  0.57962  0.19910  1.0000
  N   N5        1.0  0.41632  0.77676  0.20028  1.0000
  N   N6        1.0  0.21979  0.63758  0.19819  1.0000
  N   N7        1.0  0.61280  0.39777  0.85501  1.0000
  N   N8        1.0  0.60031  0.21497  0.83723  1.0000
  N   N9        1.0  0.78187  0.38561  0.85852  1.0000
  N   N10       1.0  0.36199  0.58280  0.70773  1.0000
  N   N11       1.0  0.41865  0.77967  0.70363  1.0000
  N   N12       1.0  0.22222  0.63922  0.70707  1.0000
  O   O1        1.0  0.36989  0.30685  0.44801  1.0000
  O   O2        1.0  0.69464  0.06346  0.45517  1.0000
  O   O3        1.0  0.94104  0.63239  0.42453  1.0000
  O   O4        1.0  0.43478  0.38850  0.01813  1.0000
  O   O5        1.0  0.61152  0.04457  0.00492  1.0000
  O   O6        1.0  0.95377  0.56643  0.00516  1.0000
  O   O7        1.0  0.39186  0.42843  0.12815  1.0000
  O   O8        1.0  0.57102  0.96149  0.11889  1.0000
  O   O9        1.0  0.03699  0.60745  0.12011  1.0000
  O   O10       1.0  0.28424  0.34716  0.05748  1.0000
  O   O11       1.0  0.64834  0.93148  0.06416  1.0000
  O   O12       1.0  0.06864  0.71719  0.07122  1.0000
  O   O13       1.0  0.21491  0.27052  0.45631  1.0000
  O   O14       1.0  0.72411  0.94083  0.47272  1.0000
  O   O15       1.0  0.05619  0.78349  0.43225  1.0000
  O   O16       1.0  0.27785  0.23708  0.42395  1.0000
  O   O17       1.0  0.76289  0.03915  0.46343  1.0000
  O   O18       1.0  0.96109  0.72432  0.42317  1.0000
  O   O19       1.0  0.36888  0.30395  0.95730  1.0000
  O   O20       1.0  0.69738  0.06679  0.95259  1.0000
  O   O21       1.0  0.93893  0.63471  0.93562  1.0000
  O   O22       1.0  0.43688  0.39050  0.51933  1.0000
  O   O23       1.0  0.61043  0.04698  0.50333  1.0000
  O   O24       1.0  0.95534  0.56289  0.50471  1.0000
  O   O25       1.0  0.39402  0.43008  0.63187  1.0000
  O   O26       1.0  0.56965  0.96441  0.61638  1.0000
  O   O27       1.0  0.03695  0.60528  0.62058  1.0000
  O   O28       1.0  0.28643  0.34993  0.55269  1.0000
  O   O29       1.0  0.64088  0.92617  0.56848  1.0000
  O   O30       1.0  0.06871  0.71633  0.59829  1.0000
  O   O31       1.0  0.21295  0.26884  0.95539  1.0000
  O   O32       1.0  0.73287  0.94820  0.98382  1.0000
  O   O33       1.0  0.05916  0.78707  0.94359  1.0000
  O   O34       1.0  0.27668  0.23524  0.92125  1.0000
  O   O35       1.0  0.76845  0.04664  0.96121  1.0000
  O   O36       1.0  0.96268  0.72736  0.91268  1.0000
  C  Sn1       1.0  0.59382  0.46350  0.33939  1.0000
  C   C133      1.0  0.59377  0.42759  0.40005  1.0000
  C  Sn2       1.0  0.55730  0.39449  0.46853  1.0000
  C  Sn3       1.0  0.52010  0.39731  0.47646  1.0000
  C   C134      1.0  0.52017  0.43319  0.41581  1.0000
  C  Sn4       1.0  0.55662  0.46632  0.34733  1.0000
  O  Te1       1.0  0.63064  0.49621  0.27144  1.0000
  O  Te2       1.0  0.55802  0.35892  0.52841  1.0000
  O  Te3       1.0  0.48327  0.36455  0.54449  1.0000
  O  Te4       1.0  0.55591  0.50186  0.28745  1.0000
  Mg  Mg1       1.0  0.49995  0.32261  0.60962  1.0000
  Mg  Mg2       1.0  0.61396  0.53817  0.20614  1.0000
  C  Sn5       1.0  0.59662  0.13025  0.51892  1.0000
  C   C135      1.0  0.56162  0.09517  0.45311  1.0000
  C  Sn6       1.0  0.54158  0.09992  0.31857  1.0000
  C  Sn7       1.0  0.55684  0.14057  0.24828  1.0000
  C   C136      1.0  0.59182  0.17562  0.31406  1.0000
  C  Sn8       1.0  0.61188  0.17091  0.44862  1.0000
  O  Te5       1.0  0.61616  0.12477  0.65344  1.0000
  O  Te6       1.0  0.50664  0.06438  0.25496  1.0000
  O  Te7       1.0  0.53726  0.14603  0.11365  1.0000
  O  Te8       1.0  0.64680  0.20642  0.51221  1.0000
  Mg  Mg3       1.0  0.49075  0.08800  0.07073  1.0000
  Mg  Mg4       1.0  0.66272  0.18283  0.69637  1.0000
  C  Sn9       1.0  0.87265  0.46623  0.53215  1.0000
  C   C137      1.0  0.90762  0.46606  0.46799  1.0000
  C  Sn10      1.0  0.90308  0.44181  0.33465  1.0000
  C  Sn11      1.0  0.86274  0.41724  0.26389  1.0000
  C   C138      1.0  0.82779  0.41742  0.32803  1.0000
  C  Sn12      1.0  0.83231  0.44165  0.46139  1.0000
  O  Te9       1.0  0.87792  0.49071  0.66549  1.0000
  O  Te10      1.0  0.93851  0.44214  0.27267  1.0000
  O  Te11      1.0  0.85749  0.39275  0.13045  1.0000
  O  Te12      1.0  0.79691  0.44133  0.52334  1.0000
  Mg  Mg5       1.0  0.91526  0.40362  0.08960  1.0000
  Mg  Mg6       1.0  0.82012  0.47986  0.70635  1.0000
  C  Sn13      1.0  0.36133  0.51005  0.09690  1.0000
  C   C139      1.0  0.37395  0.54494  0.19488  1.0000
  C  Sn14      1.0  0.41608  0.56929  0.24200  1.0000
  C  Sn15      1.0  0.44623  0.55856  0.19005  1.0000
  C   C140      1.0  0.43361  0.52370  0.09211  1.0000
  C  Sn16      1.0  0.39148  0.49933  0.04494  1.0000
  O  Te13      1.0  0.31904  0.48616  0.05125  1.0000
  O  Te14      1.0  0.42794  0.60401  0.34004  1.0000
  O  Te15      1.0  0.48855  0.58249  0.23579  1.0000
  O  Te16      1.0  0.38031  0.46105  0.94695  1.0000
  Mg  Mg7       1.0  0.48928  0.62684  0.37015  1.0000
  Mg  Mg8       1.0  0.31899  0.43821  0.91670  1.0000
  C  Sn17      1.0  0.48772  0.84943  0.10629  1.0000
  C   C141      1.0  0.45129  0.82704  0.19824  1.0000
  C  Sn18      1.0  0.42658  0.84506  0.23422  1.0000
  C  Sn19      1.0  0.43851  0.88632  0.17703  1.0000
  C   C142      1.0  0.47491  0.90868  0.08512  1.0000
  C  Sn20      1.0  0.49965  0.89069  0.04910  1.0000
  O  Te17      1.0  0.51195  0.83080  0.07178  1.0000
  O  Te18      1.0  0.39031  0.82207  0.32640  1.0000
  O  Te19      1.0  0.41425  0.90494  0.21163  1.0000
  O  Te20      1.0  0.53659  0.91008  0.95696  1.0000
  Mg  Mg9       1.0  0.36761  0.86102  0.34152  1.0000
  Mg  Mg10      1.0  0.55930  0.87116  0.94170  1.0000
  C  Sn21      1.0  0.14131  0.56169  0.20460  1.0000
  C   C143      1.0  0.17266  0.60132  0.14917  1.0000
  C  Sn22      1.0  0.16177  0.62918  0.07611  1.0000
  C  Sn23      1.0  0.11865  0.61721  0.05816  1.0000
  C   C144      1.0  0.08732  0.57760  0.11358  1.0000
  C  Sn24      1.0  0.09819  0.54971  0.18664  1.0000
  O  Te21      1.0  0.15293  0.53434  0.27727  1.0000
  O  Te22      1.0  0.19368  0.66862  0.02161  1.0000
  O  Te23      1.0  0.10775  0.64102  0.98541  1.0000
  O  Te24      1.0  0.06631  0.51030  0.24115  1.0000
  Mg  Mg11      1.0  0.16267  0.69130  0.93071  1.0000
  Mg  Mg12      1.0  0.09798  0.48403  0.33213  1.0000
  C  Sn25      1.0  0.53276  0.38039  0.95983  1.0000
  C   C145      1.0  0.56838  0.39853  0.86212  1.0000
  C  Sn26      1.0  0.58522  0.44010  0.80595  1.0000
  C  Sn27      1.0  0.56608  0.46404  0.84840  1.0000
  C   C146      1.0  0.53049  0.44590  0.94607  1.0000
  C  Sn28      1.0  0.51293  0.40790  0.00228  1.0000
  O  Te25      1.0  0.51577  0.34236  0.01462  1.0000
  O  Te26      1.0  0.62083  0.45755  0.70838  1.0000
  O  Te27      1.0  0.58241  0.50568  0.79351  1.0000
  O  Te28      1.0  0.47734  0.39046  0.09982  1.0000
  Mg  Mg13      1.0  0.63137  0.51546  0.66373  1.0000
  Mg  Mg14      1.0  0.46679  0.33256  0.14460  1.0000
  C  Sn29      1.0  0.54766  0.10738  0.76099  1.0000
  C   C147      1.0  0.56536  0.08934  0.86067  1.0000
  C  Sn30      1.0  0.59424  0.11339  0.97871  1.0000
  C  Sn31      1.0  0.60565  0.15636  0.99760  1.0000
  C   C148      1.0  0.58795  0.17437  0.89798  1.0000
  C  Sn32      1.0  0.55907  0.15035  0.77988  1.0000
  O  Te29      1.0  0.51885  0.08275  0.64379  1.0000
  O  Te30      1.0  0.61082  0.09823  0.07690  1.0000
  O  Te31      1.0  0.63379  0.18456  0.11492  1.0000
  O  Te32      1.0  0.54179  0.16905  0.68176  1.0000
  Mg  Mg15      1.0  0.64870  0.14479  0.21935  1.0000
  Mg  Mg16      1.0  0.50389  0.12252  0.53933  1.0000
  C  Sn33      1.0  0.88907  0.43925  0.78000  1.0000
  C   C149      1.0  0.90766  0.47480  0.87698  1.0000
  C  Sn34      1.0  0.88412  0.47986  0.99535  1.0000
  C  Sn35      1.0  0.84042  0.45229  0.01731  1.0000
  C   C150      1.0  0.82255  0.41318  0.92039  1.0000
  C  Sn36      1.0  0.84606  0.40810  0.80197  1.0000
  O  Te33      1.0  0.91319  0.43484  0.66243  1.0000
  O  Te34      1.0  0.90270  0.51926  0.09079  1.0000
  O  Te35      1.0  0.81629  0.45673  0.13501  1.0000
  O  Te36      1.0  0.82681  0.37230  0.70658  1.0000
  Mg  Mg17      1.0  0.85671  0.51102  0.23499  1.0000
  Mg  Mg18      1.0  0.87277  0.38049  0.56241  1.0000
  C  Sn37      1.0  0.43921  0.55302  0.76658  1.0000
  C   C151      1.0  0.42670  0.51871  0.66561  1.0000
  C  Sn38      1.0  0.39391  0.50794  0.55659  1.0000
  C  Sn39      1.0  0.37322  0.53199  0.54822  1.0000
  C   C152      1.0  0.38575  0.56628  0.64912  1.0000
  C  Sn40      1.0  0.41852  0.57706  0.75821  1.0000
  O  Te37      1.0  0.47207  0.56321  0.87465  1.0000
  O  Te38      1.0  0.38195  0.47350  0.45692  1.0000
  O  Te39      1.0  0.34035  0.52176  0.44003  1.0000
  O  Te40      1.0  0.43049  0.61149  0.85781  1.0000
  Mg  Mg19      1.0  0.33548  0.47208  0.32942  1.0000
  Mg  Mg20      1.0  0.47697  0.61295  0.98530  1.0000
  C  Sn41      1.0  0.48746  0.85203  0.59000  1.0000
  C   C153      1.0  0.45352  0.83007  0.69399  1.0000
  C  Sn42      1.0  0.42978  0.84816  0.74258  1.0000
  C  Sn43      1.0  0.44015  0.88905  0.68599  1.0000
  C   C154      1.0  0.47407  0.91099  0.58205  1.0000
  C  Sn44      1.0  0.49784  0.89292  0.53340  1.0000
  O  Te41      1.0  0.51077  0.83332  0.54298  1.0000
  O  Te42      1.0  0.39599  0.82560  0.84666  1.0000
  O  Te43      1.0  0.41681  0.90775  0.73310  1.0000
  O  Te44      1.0  0.53160  0.91546  0.42937  1.0000
  Mg  Mg21      1.0  0.37369  0.86447  0.87636  1.0000
  Mg  Mg22      1.0  0.55390  0.87661  0.39953  1.0000
  C  Sn45      1.0  0.12963  0.61312  0.50998  1.0000
  C   C155      1.0  0.09870  0.57344  0.56663  1.0000
  C  Sn46      1.0  0.10647  0.55520  0.70060  1.0000
  C  Sn47      1.0  0.14598  0.57708  0.77967  1.0000
  C   C156      1.0  0.17688  0.61674  0.72304  1.0000
  C  Sn48      1.0  0.16914  0.63501  0.58905  1.0000
  O  Te45      1.0  0.12118  0.63076  0.37584  1.0000
  O  Te46      1.0  0.07506  0.51549  0.75497  1.0000
  O  Te47      1.0  0.15441  0.55941  0.91390  1.0000
  O  Te48      1.0  0.20052  0.67469  0.53469  1.0000
  Mg  Mg23      1.0  0.10160  0.50462  0.94250  1.0000
  Mg  Mg24      1.0  0.17401  0.68561  0.34724  1.0000
