data_image0
_chemical_formula_structural       H132C144N12O24C2Sn2C2HTe2HMgC2Sn2C2HTe2HMgC2Sn2C2HTe2HMgC2Sn2C2HTe2HMgC2Sn2C2HTe2HMgC2Sn2C2HTe2HMg
_chemical_formula_sum              "H144 C168 N12 O24 Sn12 Te12 Mg6"
_cell_length_a       36.8712
_cell_length_b       36.9835
_cell_length_c       8.29886
_cell_angle_alpha    90.5283
_cell_angle_beta     90.0269
_cell_angle_gamma    120.087

_symmetry_space_group_name_H-M    'P1'
_space_group_IT_number       1

loop_
  _space_group_symop_operation_xyz
  'x, y, z'

loop_
  _atom_site_type_symbol
  _atom_site_label
  _atom_site_symmetry_multiplicity
  _atom_site_fract_x
  _atom_site_fract_y
  _atom_site_fract_z
  _atom_site_occupancy
  H   H1        1.0  0.25601  0.61265  0.45930  1.0000
  H   H2        1.0  0.38460  0.64135  0.44685  1.0000
  H   H3        1.0  0.35597  0.74093  0.45083  1.0000
  H   H4        1.0  0.33068  0.57005  0.45675  1.0000
  H   H5        1.0  0.42813  0.75845  0.45666  1.0000
  H   H6        1.0  0.23888  0.66794  0.46489  1.0000
  H   H7        1.0  0.55740  0.83847  0.17768  1.0000
  H   H8        1.0  0.48201  0.78984  0.14136  1.0000
  H   H9        1.0  0.28843  0.79825  0.33571  1.0000
  H   H10       1.0  0.23786  0.82331  0.36317  1.0000
  H   H11       1.0  0.63408  0.78020  0.02306  1.0000
  H   H12       1.0  0.22066  0.85684  0.04275  1.0000
  H   H13       1.0  0.14702  0.36342  0.00426  1.0000
  H   H14       1.0  0.70973  0.82092  0.07993  1.0000
  H   H15       1.0  0.18017  0.89170  0.10151  1.0000
  H   H16       1.0  0.11298  0.28832  0.05781  1.0000
  H   H17       1.0  0.58766  0.87288  0.40260  1.0000
  H   H18       1.0  0.12759  0.71386  0.40072  1.0000
  H   H19       1.0  0.28588  0.40813  0.39709  1.0000
  H   H20       1.0  0.62535  0.92678  0.40861  1.0000
  H   H21       1.0  0.07377  0.69853  0.39238  1.0000
  H   H22       1.0  0.30240  0.37074  0.40605  1.0000
  H   H23       1.0  0.75620  0.85741  0.31562  1.0000
  H   H24       1.0  0.14392  0.90175  0.32809  1.0000
  H   H25       1.0  0.83261  0.89564  0.36328  1.0000
  H   H26       1.0  0.10569  0.93994  0.37714  1.0000
  H   H27       1.0  0.84538  0.99320  0.04931  1.0000
  H   H28       1.0  0.00696  0.85460  0.05992  1.0000
  H   H29       1.0  0.04638  0.81686  0.50467  1.0000
  H   H30       1.0  0.18140  0.22774  0.48849  1.0000
  H   H31       1.0  0.68532  0.95337  0.46691  1.0000
  H   H32       1.0  0.04435  0.73121  0.45982  1.0000
  H   H33       1.0  0.26485  0.30882  0.45486  1.0000
  H   H34       1.0  0.74015  0.98450  0.01943  1.0000
  H   H35       1.0  0.01522  0.75802  0.01580  1.0000
  H   H36       1.0  0.24770  0.26081  0.00344  1.0000
  H   H37       1.0  0.71381  0.02954  0.06099  1.0000
  H   H38       1.0  0.97101  0.68578  0.04723  1.0000
  H   H39       1.0  0.31669  0.28134  0.07338  1.0000
  H   H40       1.0  0.71731  0.01289  0.25710  1.0000
  H   H41       1.0  0.98645  0.70574  0.24578  1.0000
  H   H42       1.0  0.29507  0.28352  0.26086  1.0000
  H   H43       1.0  0.65363  0.00147  0.44324  1.0000
  H   H44       1.0  0.99988  0.65462  0.42387  1.0000
  H   H45       1.0  0.35806  0.34512  0.43817  1.0000
  H   H46       1.0  0.65332  0.04182  0.13614  1.0000
  H   H47       1.0  0.96066  0.61288  0.13369  1.0000
  H   H48       1.0  0.38674  0.34095  0.05959  1.0000
  H   H49       1.0  0.58893  0.00858  0.53592  1.0000
  H   H50       1.0  0.98866  0.58031  0.50405  1.0000
  H   H51       1.0  0.42384  0.41241  0.53084  1.0000
  H   H52       1.0  0.58293  0.97711  0.21125  1.0000
  H   H53       1.0  0.02920  0.61241  0.19388  1.0000
  H   H54       1.0  0.40170  0.41241  0.18425  1.0000
  H   H55       1.0  0.56908  0.91356  0.16929  1.0000
  H   H56       1.0  0.09255  0.65844  0.13980  1.0000
  H   H57       1.0  0.34698  0.42326  0.18103  1.0000
  H   H58       1.0  0.53763  0.88703  0.50797  1.0000
  H   H59       1.0  0.11117  0.64957  0.50498  1.0000
  H   H60       1.0  0.35020  0.45946  0.49951  1.0000
  H   H61       1.0  0.95897  0.03790  0.24276  1.0000
  H   H62       1.0  0.96371  0.92411  0.27002  1.0000
  H   H63       1.0  0.07818  0.04287  0.25133  1.0000
  H   H64       1.0  0.89670  0.91976  0.24969  1.0000
  H   H65       1.0  0.08202  0.97972  0.24501  1.0000
  H   H66       1.0  0.02270  0.10483  0.21858  1.0000
  H   H67       1.0  0.25509  0.61296  0.96778  1.0000
  H   H68       1.0  0.38432  0.64367  0.97123  1.0000
  H   H69       1.0  0.35377  0.74188  0.96093  1.0000
  H   H70       1.0  0.33087  0.57199  0.97865  1.0000
  H   H71       1.0  0.42623  0.76039  0.97204  1.0000
  H   H72       1.0  0.23691  0.66769  0.97105  1.0000
  H   H73       1.0  0.16387  0.72196  0.68372  1.0000
  H   H74       1.0  0.21251  0.69541  0.64641  1.0000
  H   H75       1.0  0.50877  0.71245  0.83185  1.0000
  H   H76       1.0  0.58458  0.76281  0.85898  1.0000
  H   H77       1.0  0.63468  0.77810  0.52053  1.0000
  H   H78       1.0  0.22130  0.85570  0.52899  1.0000
  H   H79       1.0  0.14506  0.36370  0.51555  1.0000
  H   H80       1.0  0.71005  0.81822  0.58253  1.0000
  H   H81       1.0  0.18122  0.89078  0.58832  1.0000
  H   H82       1.0  0.10941  0.28850  0.57049  1.0000
  H   H83       1.0  0.58852  0.87613  0.89458  1.0000
  H   H84       1.0  0.12651  0.71977  0.88920  1.0000
  H   H85       1.0  0.29220  0.41485  0.90281  1.0000
  H   H86       1.0  0.62556  0.93026  0.90595  1.0000
  H   H87       1.0  0.07189  0.70088  0.89199  1.0000
  H   H88       1.0  0.30653  0.37578  0.90286  1.0000
  H   H89       1.0  0.14690  0.90211  0.81588  1.0000
  H   H90       1.0  0.09872  0.24352  0.80870  1.0000
  H   H91       1.0  0.10904  0.94042  0.87087  1.0000
  H   H92       1.0  0.05987  0.16753  0.85883  1.0000
  H   H93       1.0  0.00727  0.85355  0.56871  1.0000
  H   H94       1.0  0.14402  0.15185  0.54624  1.0000
  H   H95       1.0  0.76904  0.95346  0.99373  1.0000
  H   H96       1.0  0.04656  0.81806  0.00273  1.0000
  H   H97       1.0  0.68662  0.95419  0.96251  1.0000
  H   H98       1.0  0.04645  0.73611  0.95822  1.0000
  H   H99       1.0  0.27297  0.31466  0.95725  1.0000
  H   H100      1.0  0.73966  0.98159  0.50776  1.0000
  H   H101      1.0  0.01652  0.75742  0.50623  1.0000
  H   H102      1.0  0.24216  0.25608  0.51453  1.0000
  H   H103      1.0  0.72050  0.03085  0.58213  1.0000
  H   H104      1.0  0.96696  0.68906  0.57586  1.0000
  H   H105      1.0  0.31348  0.28188  0.55760  1.0000
  H   H106      1.0  0.72138  0.00828  0.76820  1.0000
  H   H107      1.0  0.99107  0.71162  0.76306  1.0000
  H   H108      1.0  0.29303  0.28021  0.75204  1.0000
  H   H109      1.0  0.65151  0.01419  0.95462  1.0000
  H   H110      1.0  0.98462  0.63817  0.94830  1.0000
  H   H111      1.0  0.35294  0.34712  0.92226  1.0000
  H   H112      1.0  0.65997  0.04100  0.58434  1.0000
  H   H113      1.0  0.95751  0.62012  0.54952  1.0000
  H   H114      1.0  0.38621  0.34228  0.60914  1.0000
  H   H115      1.0  0.58273  0.00851  0.04979  1.0000
  H   H116      1.0  0.99537  0.57806  0.03997  1.0000
  H   H117      1.0  0.42545  0.41136  0.99808  1.0000
  H   H118      1.0  0.58877  0.97957  0.70660  1.0000
  H   H119      1.0  0.01601  0.60701  0.68342  1.0000
  H   H120      1.0  0.39408  0.41318  0.69923  1.0000
  H   H121      1.0  0.57055  0.91281  0.67660  1.0000
  H   H122      1.0  0.08423  0.65730  0.66689  1.0000
  H   H123      1.0  0.34419  0.42777  0.66844  1.0000
  H   H124      1.0  0.53719  0.88889  0.99674  1.0000
  H   H125      1.0  0.11260  0.65339  0.95182  1.0000
  H   H126      1.0  0.35448  0.46218  0.03903  1.0000
  H   H127      1.0  0.95729  0.03402  0.77003  1.0000
  H   H128      1.0  0.96528  0.92188  0.78491  1.0000
  H   H129      1.0  0.07798  0.04216  0.76641  1.0000
  H   H130      1.0  0.89729  0.91591  0.76824  1.0000
  H   H131      1.0  0.08341  0.97977  0.75542  1.0000
  H   H132      1.0  0.01934  0.10166  0.74975  1.0000
  C   C1        1.0  0.28925  0.63592  0.45470  1.0000
  C   C2        1.0  0.36136  0.65131  0.44772  1.0000
  C   C3        1.0  0.34609  0.70780  0.44993  1.0000
  C   C4        1.0  0.30276  0.67867  0.45368  1.0000
  C   C5        1.0  0.31852  0.62197  0.45192  1.0000
  C   C6        1.0  0.37552  0.69450  0.44717  1.0000
  C   C7        1.0  0.30524  0.57746  0.45733  1.0000
  C   C8        1.0  0.42031  0.72555  0.45000  1.0000
  C   C9        1.0  0.27204  0.69272  0.46098  1.0000
  C   C10       1.0  0.57736  0.80488  0.02122  1.0000
  C   C11       1.0  0.54710  0.81189  0.09658  1.0000
  C   C12       1.0  0.50439  0.78442  0.07554  1.0000
  C   C13       1.0  0.25342  0.74430  0.48399  1.0000
  C   C14       1.0  0.26084  0.78159  0.41091  1.0000
  C   C15       1.0  0.23249  0.79570  0.42841  1.0000
  C   C16       1.0  0.64854  0.81349  0.04850  1.0000
  C   C17       1.0  0.18720  0.83800  0.06456  1.0000
  C   C18       1.0  0.16633  0.34980  0.03324  1.0000
  C   C19       1.0  0.69109  0.83621  0.08330  1.0000
  C   C20       1.0  0.16457  0.85775  0.09989  1.0000
  C   C21       1.0  0.14693  0.30745  0.06524  1.0000
  C   C22       1.0  0.71107  0.87904  0.12179  1.0000
  C   C23       1.0  0.12143  0.83479  0.13267  1.0000
  C   C24       1.0  0.17016  0.28819  0.10646  1.0000
  C   C25       1.0  0.68604  0.89788  0.12671  1.0000
  C   C26       1.0  0.10217  0.79086  0.13218  1.0000
  C   C27       1.0  0.21406  0.31364  0.11458  1.0000
  C   C28       1.0  0.64271  0.87490  0.09065  1.0000
  C   C29       1.0  0.12513  0.77066  0.09573  1.0000
  C   C30       1.0  0.23389  0.35693  0.08362  1.0000
  C   C31       1.0  0.62293  0.83179  0.05081  1.0000
  C   C32       1.0  0.16848  0.79413  0.06117  1.0000
  C   C33       1.0  0.21021  0.37609  0.04265  1.0000
  C   C34       1.0  0.75668  0.90277  0.15301  1.0000
  C   C35       1.0  0.09784  0.85663  0.16411  1.0000
  C   C36       1.0  0.60195  0.90075  0.48027  1.0000
  C   C37       1.0  0.09864  0.70048  0.47088  1.0000
  C   C38       1.0  0.30000  0.39483  0.47553  1.0000
  C   C39       1.0  0.77580  0.88654  0.25293  1.0000
  C   C40       1.0  0.11448  0.89211  0.26539  1.0000
  C   C41       1.0  0.81898  0.90807  0.27959  1.0000
  C   C42       1.0  0.09308  0.91374  0.29255  1.0000
  C   C43       1.0  0.84456  0.94700  0.20647  1.0000
  C   C44       1.0  0.05381  0.90008  0.21915  1.0000
  C   C45       1.0  0.82546  0.96356  0.10816  1.0000
  C   C46       1.0  0.03680  0.86432  0.11933  1.0000
  C   C47       1.0  0.78255  0.94150  0.07963  1.0000
  C   C48       1.0  0.05881  0.84359  0.08988  1.0000
  C   C49       1.0  0.70778  0.96923  0.06516  1.0000
  C   C50       1.0  0.03082  0.74124  0.06070  1.0000
  C   C51       1.0  0.26499  0.29256  0.05606  1.0000
  C   C52       1.0  0.70039  0.00237  0.14134  1.0000
  C   C53       1.0  0.99789  0.70007  0.13113  1.0000
  C   C54       1.0  0.30395  0.29813  0.14182  1.0000
  C   C55       1.0  0.64123  0.01048  0.08106  1.0000
  C   C56       1.0  0.99088  0.63305  0.07344  1.0000
  C   C57       1.0  0.36727  0.35565  0.04329  1.0000
  C   C58       1.0  0.59357  0.98703  0.08717  1.0000
  C   C59       1.0  0.01642  0.61108  0.07269  1.0000
  C   C60       1.0  0.39550  0.40295  0.05645  1.0000
  C   C61       1.0  0.56929  0.91142  0.54433  1.0000
  C   C62       1.0  0.08668  0.65708  0.53512  1.0000
  C   C63       1.0  0.34360  0.42829  0.53618  1.0000
  C   C64       1.0  0.97749  0.02253  0.25229  1.0000
  C   C65       1.0  0.97933  0.95808  0.26772  1.0000
  C   C66       1.0  0.04413  0.02440  0.25719  1.0000
  C   C67       1.0  0.95620  0.97855  0.26065  1.0000
  C   C68       1.0  0.02351  0.98085  0.26428  1.0000
  C   C69       1.0  0.02126  0.04552  0.24988  1.0000
  C   C70       1.0  0.91049  0.95392  0.24783  1.0000
  C   C71       1.0  0.04775  0.95949  0.25240  1.0000
  C   C72       1.0  0.04278  0.09076  0.22791  1.0000
  C   C73       1.0  0.28822  0.63666  0.96628  1.0000
  C   C74       1.0  0.36071  0.65313  0.96793  1.0000
  C   C75       1.0  0.34434  0.70887  0.96269  1.0000
  C   C76       1.0  0.30113  0.67924  0.96410  1.0000
  C   C77       1.0  0.31800  0.62335  0.96792  1.0000
  C   C78       1.0  0.37422  0.69615  0.96471  1.0000
  C   C79       1.0  0.30522  0.57902  0.97204  1.0000
  C   C80       1.0  0.41883  0.72762  0.96702  1.0000
  C   C81       1.0  0.26998  0.69272  0.96740  1.0000
  C   C82       1.0  0.19650  0.77462  0.52542  1.0000
  C   C83       1.0  0.19005  0.73796  0.60188  1.0000
  C   C84       1.0  0.21749  0.72281  0.58036  1.0000
  C   C85       1.0  0.48986  0.74788  0.98098  1.0000
  C   C86       1.0  0.51979  0.74032  0.90686  1.0000
  C   C87       1.0  0.56238  0.76862  0.92401  1.0000
  C   C88       1.0  0.64922  0.81131  0.54744  1.0000
  C   C89       1.0  0.18793  0.83693  0.55265  1.0000
  C   C90       1.0  0.16369  0.34922  0.54262  1.0000
  C   C91       1.0  0.69164  0.83377  0.58415  1.0000
  C   C92       1.0  0.16545  0.85683  0.58775  1.0000
  C   C93       1.0  0.14344  0.30690  0.57608  1.0000
  C   C94       1.0  0.71176  0.87661  0.62260  1.0000
  C   C95       1.0  0.12244  0.83416  0.62274  1.0000
  C   C96       1.0  0.16596  0.28679  0.61552  1.0000
  C   C97       1.0  0.68704  0.89586  0.62511  1.0000
  C   C98       1.0  0.10304  0.79021  0.62229  1.0000
  C   C99       1.0  0.21002  0.31147  0.62246  1.0000
  C   C100      1.0  0.64358  0.87276  0.59150  1.0000
  C   C101      1.0  0.12604  0.76988  0.58849  1.0000
  C   C102      1.0  0.23073  0.35477  0.59022  1.0000
  C   C103      1.0  0.62373  0.82973  0.55009  1.0000
  C   C104      1.0  0.16939  0.79304  0.55306  1.0000
  C   C105      1.0  0.20772  0.37462  0.54840  1.0000
  C   C106      1.0  0.09926  0.85624  0.65790  1.0000
  C   C107      1.0  0.14341  0.24146  0.64699  1.0000
  C   C108      1.0  0.60193  0.90358  0.97438  1.0000
  C   C109      1.0  0.09828  0.70357  0.96285  1.0000
  C   C110      1.0  0.30443  0.39917  0.97837  1.0000
  C   C111      1.0  0.11689  0.89216  0.75725  1.0000
  C   C112      1.0  0.10795  0.22333  0.74695  1.0000
  C   C113      1.0  0.09570  0.91385  0.78794  1.0000
  C   C114      1.0  0.08592  0.18045  0.77483  1.0000
  C   C115      1.0  0.05574  0.89989  0.72042  1.0000
  C   C116      1.0  0.09907  0.15424  0.70357  1.0000
  C   C117      1.0  0.03779  0.86370  0.62287  1.0000
  C   C118      1.0  0.13457  0.17231  0.60402  1.0000
  C   C119      1.0  0.05949  0.84283  0.58985  1.0000
  C   C120      1.0  0.15580  0.21492  0.57411  1.0000
  C   C121      1.0  0.70848  0.96771  0.56411  1.0000
  C   C122      1.0  0.03048  0.73987  0.55876  1.0000
  C   C123      1.0  0.25926  0.28869  0.55889  1.0000
  C   C124      1.0  0.70469  0.00185  0.65242  1.0000
  C   C125      1.0  0.99653  0.70177  0.64465  1.0000
  C   C126      1.0  0.29993  0.29632  0.63564  1.0000
  C   C127      1.0  0.64576  0.00692  0.56584  1.0000
  C   C128      1.0  0.99202  0.63935  0.54218  1.0000
  C   C129      1.0  0.36658  0.35496  0.56474  1.0000
  C   C130      1.0  0.59821  0.98639  0.57961  1.0000
  C   C131      1.0  0.01102  0.61109  0.55560  1.0000
  C   C132      1.0  0.39196  0.40249  0.57356  1.0000
  C   C133      1.0  0.56847  0.91327  0.03696  1.0000
  C   C134      1.0  0.08944  0.65978  0.00866  1.0000
  C   C135      1.0  0.34745  0.42977  0.05212  1.0000
  C   C136      1.0  0.97653  0.01937  0.77610  1.0000
  C   C137      1.0  0.98014  0.95580  0.78452  1.0000
  C   C138      1.0  0.04401  0.02306  0.77415  1.0000
  C   C139      1.0  0.95616  0.97538  0.78136  1.0000
  C   C140      1.0  0.02426  0.97950  0.77898  1.0000
  C   C141      1.0  0.02022  0.04330  0.77166  1.0000
  C   C142      1.0  0.91052  0.95001  0.76758  1.0000
  C   C143      1.0  0.04923  0.95899  0.76244  1.0000
  C   C144      1.0  0.04037  0.08858  0.75144  1.0000
  N   N1        1.0  0.26629  0.54873  0.46244  1.0000
  N   N2        1.0  0.44884  0.71508  0.44719  1.0000
  N   N3        1.0  0.28327  0.73186  0.46310  1.0000
  N   N4        1.0  0.88814  0.97135  0.22562  1.0000
  N   N5        1.0  0.02970  0.91940  0.23971  1.0000
  N   N6        1.0  0.08294  0.11237  0.21240  1.0000
  N   N7        1.0  0.26635  0.54994  0.96740  1.0000
  N   N8        1.0  0.44756  0.71742  0.96369  1.0000
  N   N9        1.0  0.28094  0.73179  0.96703  1.0000
  N   N10       1.0  0.88793  0.96711  0.74406  1.0000
  N   N11       1.0  0.03162  0.91900  0.74539  1.0000
  N   N12       1.0  0.08016  0.11110  0.72775  1.0000
  O   O1        1.0  0.70330  0.93864  0.18264  1.0000
  O   O2        1.0  0.06101  0.76726  0.18252  1.0000
  O   O3        1.0  0.23786  0.29693  0.17053  1.0000
  O   O4        1.0  0.62109  0.89595  0.11310  1.0000
  O   O5        1.0  0.10396  0.72781  0.10939  1.0000
  O   O6        1.0  0.27641  0.37920  0.11241  1.0000
  O   O7        1.0  0.65682  0.98767  0.16833  1.0000
  O   O8        1.0  0.01369  0.67227  0.15841  1.0000
  O   O9        1.0  0.33568  0.34090  0.16696  1.0000
  O   O10       1.0  0.57439  0.94970  0.48085  1.0000
  O   O11       1.0  0.04875  0.62388  0.46518  1.0000
  O   O12       1.0  0.37716  0.42352  0.47140  1.0000
  O   O13       1.0  0.70477  0.93682  0.67910  1.0000
  O   O14       1.0  0.06209  0.76685  0.67451  1.0000
  O   O15       1.0  0.23316  0.29381  0.67664  1.0000
  O   O16       1.0  0.62186  0.89361  0.61725  1.0000
  O   O17       1.0  0.10456  0.72725  0.60881  1.0000
  O   O18       1.0  0.27345  0.37647  0.61537  1.0000
  O   O19       1.0  0.66232  0.99106  0.68626  1.0000
  O   O20       1.0  0.00689  0.66981  0.67168  1.0000
  O   O21       1.0  0.32955  0.33977  0.66251  1.0000
  O   O22       1.0  0.57337  0.95195  0.97808  1.0000
  O   O23       1.0  0.04926  0.62664  0.95494  1.0000
  O   O24       1.0  0.38115  0.42751  0.97480  1.0000
  C   C145      1.0  0.16074  0.20623  0.06480  1.0000
  C   C146      1.0  0.15103  0.23670  0.11281  1.0000
  C  Sn1       1.0  0.11709  0.22635  0.21454  1.0000
  C  Sn2       1.0  0.09248  0.18469  0.26906  1.0000
  C   C147      1.0  0.10246  0.15444  0.22044  1.0000
  C   C148      1.0  0.13649  0.16514  0.11857  1.0000
  H   H133      1.0  0.18861  0.21735  0.98606  1.0000
  O  Te1       1.0  0.10782  0.25717  0.26129  1.0000
  O  Te2       1.0  0.05839  0.17349  0.37085  1.0000
  H   H134      1.0  0.14401  0.14155  0.08151  1.0000
  Mg  Mg1       1.0  0.05823  0.22658  0.40121  1.0000
  C   C149      1.0  0.20440  0.44359  0.90266  1.0000
  C   C150      1.0  0.22367  0.42456  0.98291  1.0000
  C  Sn3       1.0  0.25794  0.44569  0.07708  1.0000
  C  Sn4       1.0  0.27468  0.48950  0.09097  1.0000
  C   C151      1.0  0.25515  0.50823  0.01030  1.0000
  C   C152      1.0  0.22088  0.48680  0.91635  1.0000
  H   H135      1.0  0.17668  0.42481  0.83004  1.0000
  O  Te3       1.0  0.27681  0.42618  0.15640  1.0000
  O  Te4       1.0  0.31042  0.51418  0.18434  1.0000
  H   H136      1.0  0.20595  0.50153  0.85432  1.0000
  Mg  Mg2       1.0  0.32494  0.47315  0.26936  1.0000
  C   C153      1.0  0.19019  0.72952  0.11034  1.0000
  C   C154      1.0  0.19386  0.76693  0.05691  1.0000
  C  Sn5       1.0  0.22831  0.79596  0.95586  1.0000
  C  Sn6       1.0  0.25805  0.78441  0.90757  1.0000
  C   C155      1.0  0.25409  0.74690  0.96159  1.0000
  C   C156      1.0  0.21951  0.71809  0.06272  1.0000
  H   H137      1.0  0.16461  0.70940  0.18851  1.0000
  O  Te5       1.0  0.23151  0.83323  0.90365  1.0000
  O  Te6       1.0  0.29125  0.81000  0.80660  1.0000
  H   H138      1.0  0.21666  0.68911  0.10398  1.0000
  Mg  Mg3       1.0  0.28226  0.85767  0.76732  1.0000
  C   C157      1.0  0.51326  0.78949  0.59477  1.0000
  C   C158      1.0  0.49359  0.75603  0.48588  1.0000
  C  Sn7       1.0  0.51741  0.74441  0.39076  1.0000
  C  Sn8       1.0  0.56175  0.76676  0.40523  1.0000
  C   C159      1.0  0.58113  0.80017  0.51461  1.0000
  C   C160      1.0  0.55698  0.81154  0.60917  1.0000
  H   H139      1.0  0.49458  0.79827  0.66800  1.0000
  O  Te7       1.0  0.49725  0.71092  0.28253  1.0000
  O  Te8       1.0  0.58632  0.75581  0.31168  1.0000
  H   H140      1.0  0.57222  0.83743  0.69354  1.0000
  Mg  Mg4       1.0  0.54432  0.70788  0.18137  1.0000
  C   C161      1.0  0.20270  0.44227  0.40477  1.0000
  C   C162      1.0  0.22200  0.42305  0.48336  1.0000
  C  Sn9       1.0  0.25841  0.44691  0.57452  1.0000
  C  Sn10      1.0  0.27573  0.49082  0.58704  1.0000
  C   C163      1.0  0.25617  0.50975  0.50805  1.0000
  C   C164      1.0  0.21976  0.48558  0.41711  1.0000
  H   H141      1.0  0.17451  0.42357  0.33447  1.0000
  O  Te9       1.0  0.27730  0.42719  0.65221  1.0000
  O  Te10      1.0  0.31209  0.51541  0.67741  1.0000
  H   H142      1.0  0.20481  0.50048  0.35636  1.0000
  Mg  Mg5       1.0  0.32638  0.47410  0.76114  1.0000
  C   C165      1.0  0.79381  0.94932  0.59011  1.0000
  C   C166      1.0  0.76338  0.90882  0.63278  1.0000
  C  Sn11      1.0  0.77374  0.88529  0.73377  1.0000
  C  Sn12      1.0  0.81536  0.90272  0.79299  1.0000
  C   C167      1.0  0.84556  0.94327  0.74969  1.0000
  C   C168      1.0  0.83486  0.96654  0.64852  1.0000
  H   H143      1.0  0.78553  0.96733  0.51190  1.0000
  O  Te11      1.0  0.74297  0.84486  0.77516  1.0000
  O  Te12      1.0  0.82656  0.87989  0.89417  1.0000
  H   H144      1.0  0.85842  0.99790  0.61559  1.0000
  Mg  Mg6       1.0  0.77354  0.82611  0.91638  1.0000
