data_image0
_chemical_formula_structural       H180C168N12O36SnCSn2CSnTe4Mg2SnCSn2CSnTe4Mg2SnCSn2CSnTe4Mg2SnCSn2CSnTe4Mg2SnCSn2CSnTe4Mg2SnCSn2CSnTe4Mg2
_chemical_formula_sum              "H180 C180 N12 O36 Sn24 Te24 Mg12"
_cell_length_a       36.603
_cell_length_b       36.5115
_cell_length_c       8.41014
_cell_angle_alpha    89.0237
_cell_angle_beta     90.6192
_cell_angle_gamma    120.053

_symmetry_space_group_name_H-M    'P1'
_space_group_IT_number       1

loop_
  _space_group_symop_operation_xyz
  'x, y, z'

loop_
  _atom_site_type_symbol
  _atom_site_label
  _atom_site_symmetry_multiplicity
  _atom_site_fract_x
  _atom_site_fract_y
  _atom_site_fract_z
  _atom_site_occupancy
  H   H1        1.0  0.22931  0.19073  0.06856  1.0000
  H   H2        1.0  0.80358  0.03908  0.14258  1.0000
  H   H3        1.0  0.96696  0.77459  0.06033  1.0000
  H   H4        1.0  0.21432  0.20344  0.38922  1.0000
  H   H5        1.0  0.79443  0.00631  0.45865  1.0000
  H   H6        1.0  0.99051  0.78824  0.39834  1.0000
  H   H7        1.0  0.19996  0.23044  0.15733  1.0000
  H   H8        1.0  0.75866  0.96826  0.20931  1.0000
  H   H9        1.0  0.03770  0.80494  0.14009  1.0000
  H   H10       1.0  0.25343  0.27091  0.13835  1.0000
  H   H11       1.0  0.72088  0.98269  0.15289  1.0000
  H   H12       1.0  0.02194  0.75058  0.13571  1.0000
  H   H13       1.0  0.20435  0.29783  0.15240  1.0000
  H   H14       1.0  0.70069  0.90318  0.16180  1.0000
  H   H15       1.0  0.09818  0.79858  0.14095  1.0000
  H   H16       1.0  0.18269  0.30295  0.47315  1.0000
  H   H17       1.0  0.69166  0.87668  0.44801  1.0000
  H   H18       1.0  0.11925  0.80813  0.39838  1.0000
  H   H19       1.0  0.25213  0.35346  0.36001  1.0000
  H   H20       1.0  0.64538  0.90354  0.34878  1.0000
  H   H21       1.0  0.07978  0.72893  0.35240  1.0000
  H   H22       1.0  0.24218  0.37027  0.03945  1.0000
  H   H23       1.0  0.63157  0.86830  0.02541  1.0000
  H   H24       1.0  0.13301  0.76036  0.03760  1.0000
  H   H25       1.0  0.37013  0.25124  0.04973  1.0000
  H   H26       1.0  0.74572  0.12141  0.05593  1.0000
  H   H27       1.0  0.88731  0.63314  0.04476  1.0000
  H   H28       1.0  0.34995  0.24684  0.35642  1.0000
  H   H29       1.0  0.75655  0.10303  0.37612  1.0000
  H   H30       1.0  0.89971  0.65295  0.34753  1.0000
  H   H31       1.0  0.29760  0.20889  0.09559  1.0000
  H   H32       1.0  0.78841  0.09306  0.13392  1.0000
  H   H33       1.0  0.91959  0.70560  0.09910  1.0000
  H   H34       1.0  0.30729  0.26032  0.13913  1.0000
  H   H35       1.0  0.73643  0.04992  0.16177  1.0000
  H   H36       1.0  0.96148  0.69501  0.12438  1.0000
  H   H37       1.0  0.40817  0.31299  0.25514  1.0000
  H   H38       1.0  0.69291  0.09825  0.25790  1.0000
  H   H39       1.0  0.90700  0.59307  0.23603  1.0000
  H   H40       1.0  0.43163  0.31785  0.44765  1.0000
  H   H41       1.0  0.68468  0.11497  0.44629  1.0000
  H   H42       1.0  0.88993  0.57072  0.43087  1.0000
  H   H43       1.0  0.45867  0.38629  0.29510  1.0000
  H   H44       1.0  0.61964  0.07739  0.28155  1.0000
  H   H45       1.0  0.92938  0.54256  0.27881  1.0000
  H   H46       1.0  0.40737  0.38002  0.29781  1.0000
  H   H47       1.0  0.62403  0.03120  0.28248  1.0000
  H   H48       1.0  0.97536  0.59340  0.28515  1.0000
  H   H49       1.0  0.31862  0.39276  0.22657  1.0000
  H   H50       1.0  0.58600  0.90455  0.14227  1.0000
  H   H51       1.0  0.08869  0.67933  0.18815  1.0000
  H   H52       1.0  0.31654  0.41465  0.49667  1.0000
  H   H53       1.0  0.58474  0.90316  0.43981  1.0000
  H   H54       1.0  0.10379  0.68550  0.59100  1.0000
  H   H55       1.0  0.35976  0.36339  0.07364  1.0000
  H   H56       1.0  0.63667  0.99084  0.08503  1.0000
  H   H57       1.0  0.00739  0.64422  0.11298  1.0000
  H   H58       1.0  0.36891  0.39703  0.42028  1.0000
  H   H59       1.0  0.60396  0.97463  0.40609  1.0000
  H   H60       1.0  0.04658  0.63922  0.40602  1.0000
  H   H61       1.0  0.55188  0.52321  0.45392  1.0000
  H   H62       1.0  0.47898  0.03150  0.42831  1.0000
  H   H63       1.0  0.97177  0.44711  0.45107  1.0000
  H   H64       1.0  0.50862  0.55447  0.02975  1.0000
  H   H65       1.0  0.44580  0.95373  0.01521  1.0000
  H   H66       1.0  0.04317  0.48987  0.02381  1.0000
  H   H67       1.0  0.69244  0.41277  0.33453  1.0000
  H   H68       1.0  0.59118  0.28315  0.32196  1.0000
  H   H69       1.0  0.72046  0.31148  0.31867  1.0000
  H   H70       1.0  0.57388  0.33797  0.33360  1.0000
  H   H71       1.0  0.66556  0.23914  0.32172  1.0000
  H   H72       1.0  0.76504  0.42963  0.34224  1.0000
  H   H73       1.0  0.61589  0.10858  0.07052  1.0000
  H   H74       1.0  0.63986  0.18382  0.02465  1.0000
  H   H75       1.0  0.61840  0.46971  0.22556  1.0000
  H   H76       1.0  0.56618  0.49257  0.27081  1.0000
  H   H77       1.0  0.08464  0.52341  0.26432  1.0000
  H   H78       1.0  0.16112  0.56056  0.32762  1.0000
  H   H79       1.0  0.18039  0.66337  0.01685  1.0000
  H   H80       1.0  0.37516  0.47959  0.46847  1.0000
  H   H81       1.0  0.51854  0.89612  0.44236  1.0000
  H   H82       1.0  0.10488  0.62513  0.46268  1.0000
  H   H83       1.0  0.40981  0.70446  0.23090  1.0000
  H   H84       1.0  0.29145  0.70307  0.23024  1.0000
  H   H85       1.0  0.29269  0.58574  0.23589  1.0000
  H   H86       1.0  0.41181  0.63995  0.21751  1.0000
  H   H87       1.0  0.35584  0.76961  0.20557  1.0000
  H   H88       1.0  0.22616  0.58372  0.21941  1.0000
  H   H89       1.0  0.23141  0.19241  0.57373  1.0000
  H   H90       1.0  0.79604  0.02913  0.64612  1.0000
  H   H91       1.0  0.96656  0.76903  0.58794  1.0000
  H   H92       1.0  0.21314  0.20327  0.88517  1.0000
  H   H93       1.0  0.80093  0.01480  0.95755  1.0000
  H   H94       1.0  0.99414  0.79100  0.87560  1.0000
  H   H95       1.0  0.19901  0.23019  0.65374  1.0000
  H   H96       1.0  0.75021  0.95773  0.70045  1.0000
  H   H97       1.0  0.03980  0.80129  0.64232  1.0000
  H   H98       1.0  0.25270  0.27067  0.64626  1.0000
  H   H99       1.0  0.71370  0.97443  0.65029  1.0000
  H   H100      1.0  0.02382  0.74688  0.63300  1.0000
  H   H101      1.0  0.20609  0.29899  0.65430  1.0000
  H   H102      1.0  0.69064  0.89375  0.64346  1.0000
  H   H103      1.0  0.10357  0.79773  0.60141  1.0000
  H   H104      1.0  0.18132  0.30185  0.97007  1.0000
  H   H105      1.0  0.70326  0.88384  0.97197  1.0000
  H   H106      1.0  0.12384  0.81909  0.95519  1.0000
  H   H107      1.0  0.25211  0.35147  0.85906  1.0000
  H   H108      1.0  0.65278  0.90347  0.85795  1.0000
  H   H109      1.0  0.10084  0.74640  0.86241  1.0000
  H   H110      1.0  0.24302  0.37154  0.54366  1.0000
  H   H111      1.0  0.62133  0.86393  0.50231  1.0000
  H   H112      1.0  0.12578  0.74856  0.47597  1.0000
  H   H113      1.0  0.37231  0.25587  0.55073  1.0000
  H   H114      1.0  0.74410  0.11630  0.56260  1.0000
  H   H115      1.0  0.88831  0.62717  0.53707  1.0000
  H   H116      1.0  0.34872  0.24518  0.85427  1.0000
  H   H117      1.0  0.75853  0.10809  0.87025  1.0000
  H   H118      1.0  0.89902  0.65617  0.85043  1.0000
  H   H119      1.0  0.30014  0.21311  0.60229  1.0000
  H   H120      1.0  0.78439  0.08520  0.63779  1.0000
  H   H121      1.0  0.91750  0.69814  0.60693  1.0000
  H   H122      1.0  0.30934  0.26480  0.63765  1.0000
  H   H123      1.0  0.73172  0.04355  0.66493  1.0000
  H   H124      1.0  0.96110  0.68977  0.62648  1.0000
  H   H125      1.0  0.40586  0.30984  0.76047  1.0000
  H   H126      1.0  0.69254  0.09991  0.75609  1.0000
  H   H127      1.0  0.90354  0.59663  0.74685  1.0000
  H   H128      1.0  0.43117  0.31637  0.94997  1.0000
  H   H129      1.0  0.68319  0.11552  0.94491  1.0000
  H   H130      1.0  0.88725  0.57325  0.94063  1.0000
  H   H131      1.0  0.45583  0.38358  0.79348  1.0000
  H   H132      1.0  0.61821  0.07381  0.78152  1.0000
  H   H133      1.0  0.92508  0.54461  0.78334  1.0000
  H   H134      1.0  0.40413  0.37648  0.79900  1.0000
  H   H135      1.0  0.62671  0.03010  0.78458  1.0000
  H   H136      1.0  0.97107  0.59553  0.78100  1.0000
  H   H137      1.0  0.31918  0.40216  0.70015  1.0000
  H   H138      1.0  0.57963  0.90509  0.64877  1.0000
  H   H139      1.0  0.06671  0.67115  0.74647  1.0000
  H   H140      1.0  0.31306  0.41340  0.04095  1.0000
  H   H141      1.0  0.59242  0.90535  0.93263  1.0000
  H   H142      1.0  0.09700  0.68444  0.97998  1.0000
  H   H143      1.0  0.35987  0.36436  0.59191  1.0000
  H   H144      1.0  0.63469  0.98980  0.58358  1.0000
  H   H145      1.0  0.00762  0.63908  0.53338  1.0000
  H   H146      1.0  0.36361  0.39814  0.91459  1.0000
  H   H147      1.0  0.60578  0.97485  0.90831  1.0000
  H   H148      1.0  0.02335  0.63578  0.92543  1.0000
  H   H149      1.0  0.55023  0.52089  0.95807  1.0000
  H   H150      1.0  0.47992  0.02874  0.93289  1.0000
  H   H151      1.0  0.96771  0.44917  0.95072  1.0000
  H   H152      1.0  0.51065  0.55635  0.53304  1.0000
  H   H153      1.0  0.44464  0.95619  0.50768  1.0000
  H   H154      1.0  0.04650  0.48853  0.53095  1.0000
  H   H155      1.0  0.68633  0.40877  0.86130  1.0000
  H   H156      1.0  0.58820  0.27803  0.84124  1.0000
  H   H157      1.0  0.71879  0.31064  0.84127  1.0000
  H   H158      1.0  0.56912  0.33278  0.86241  1.0000
  H   H159      1.0  0.66535  0.23764  0.84977  1.0000
  H   H160      1.0  0.75952  0.42828  0.87018  1.0000
  H   H161      1.0  0.49683  0.38551  0.58375  1.0000
  H   H162      1.0  0.54755  0.36165  0.53139  1.0000
  H   H163      1.0  0.53587  0.15071  0.70422  1.0000
  H   H164      1.0  0.51243  0.07479  0.74651  1.0000
  H   H165      1.0  0.47732  0.56391  0.77094  1.0000
  H   H166      1.0  0.43840  0.91449  0.76109  1.0000
  H   H167      1.0  0.08849  0.52234  0.76766  1.0000
  H   H168      1.0  0.43947  0.60217  0.83160  1.0000
  H   H169      1.0  0.40108  0.83821  0.83182  1.0000
  H   H170      1.0  0.16470  0.56099  0.83203  1.0000
  H   H171      1.0  0.33664  0.51743  0.53228  1.0000
  H   H172      1.0  0.48185  0.81966  0.51642  1.0000
  H   H173      1.0  0.18122  0.66451  0.53098  1.0000
  H   H174      1.0  0.10369  0.62534  0.94986  1.0000
  H   H175      1.0  0.41299  0.70768  0.74362  1.0000
  H   H176      1.0  0.29427  0.70559  0.73988  1.0000
  H   H177      1.0  0.29626  0.58864  0.74171  1.0000
  H   H178      1.0  0.41527  0.64340  0.72023  1.0000
  H   H179      1.0  0.35846  0.77251  0.72824  1.0000
  H   H180      1.0  0.22976  0.58602  0.72343  1.0000
  C   C1        1.0  0.23494  0.21685  0.98602  1.0000
  C   C2        1.0  0.78246  0.02105  0.04381  1.0000
  C   C3        1.0  0.98666  0.76901  0.97678  1.0000
  C   C4        1.0  0.22573  0.24777  0.07114  1.0000
  C   C5        1.0  0.74707  0.97920  0.10834  1.0000
  C   C6        1.0  0.02712  0.77769  0.06065  1.0000
  C   C7        1.0  0.20935  0.30262  0.02311  1.0000
  C   C8        1.0  0.69891  0.90786  0.03294  1.0000
  C   C9        1.0  0.09699  0.79172  0.01355  1.0000
  C   C10       1.0  0.24771  0.34579  0.98860  1.0000
  C   C11       1.0  0.65543  0.90078  0.98799  1.0000
  C   C12       1.0  0.10193  0.75324  0.99008  1.0000
  C   C13       1.0  0.35193  0.26224  0.47046  1.0000
  C   C14       1.0  0.73877  0.08950  0.48731  1.0000
  C   C15       1.0  0.91421  0.64932  0.45793  1.0000
  C   C16       1.0  0.30672  0.24015  0.04222  1.0000
  C   C17       1.0  0.75922  0.07057  0.07072  1.0000
  C   C18       1.0  0.94004  0.69658  0.03522  1.0000
  C   C19       1.0  0.41060  0.32532  0.37641  1.0000
  C   C20       1.0  0.67812  0.08700  0.37605  1.0000
  C   C21       1.0  0.91790  0.59121  0.35744  1.0000
  C   C22       1.0  0.42905  0.37251  0.36193  1.0000
  C   C23       1.0  0.63121  0.05940  0.35030  1.0000
  C   C24       1.0  0.94582  0.57193  0.34637  1.0000
  C   C25       1.0  0.43187  0.45131  0.06597  1.0000
  C   C26       1.0  0.54828  0.97903  0.05562  1.0000
  C   C27       1.0  0.01866  0.56773  0.05613  1.0000
  C   C28       1.0  0.45504  0.43222  0.01676  1.0000
  C   C29       1.0  0.56784  0.02148  0.00142  1.0000
  C   C30       1.0  0.97621  0.54516  0.00573  1.0000
  C   C31       1.0  0.31765  0.38854  0.09679  1.0000
  C   C32       1.0  0.60612  0.92347  0.04198  1.0000
  C   C33       1.0  0.07486  0.68152  0.07360  1.0000
  C   C34       1.0  0.35912  0.39240  0.04343  1.0000
  C   C35       1.0  0.60731  0.96596  0.03212  1.0000
  C   C36       1.0  0.03215  0.64146  0.05121  1.0000
  C   C37       1.0  0.50038  0.45906  0.47564  1.0000
  C   C38       1.0  0.54258  0.04309  0.45187  1.0000
  C   C39       1.0  0.95963  0.49894  0.46673  1.0000
  C   C40       1.0  0.51869  0.50334  0.48339  1.0000
  C   C41       1.0  0.49829  0.01744  0.45817  1.0000
  C   C42       1.0  0.98540  0.48049  0.47753  1.0000
  C   C43       1.0  0.49367  0.52014  0.02791  1.0000
  C   C44       1.0  0.48006  0.97284  0.01327  1.0000
  C   C45       1.0  0.02426  0.50525  0.02052  1.0000
  C   C46       1.0  0.45081  0.49583  0.06795  1.0000
  C   C47       1.0  0.50376  0.95386  0.05947  1.0000
  C   C48       1.0  0.04356  0.54811  0.06020  1.0000
  C   C49       1.0  0.68218  0.37920  0.32840  1.0000
  C   C50       1.0  0.62470  0.30659  0.32105  1.0000
  C   C51       1.0  0.69713  0.32168  0.31959  1.0000
  C   C52       1.0  0.63848  0.34988  0.32633  1.0000
  C   C53       1.0  0.65396  0.29220  0.31812  1.0000
  C   C54       1.0  0.71160  0.36540  0.32530  1.0000
  C   C55       1.0  0.60712  0.36351  0.33532  1.0000
  C   C56       1.0  0.64021  0.24704  0.32166  1.0000
  C   C57       1.0  0.75674  0.39625  0.33486  1.0000
  C   C58       1.0  0.52745  0.44121  0.43262  1.0000
  C   C59       1.0  0.52254  0.40346  0.50105  1.0000
  C   C60       1.0  0.55100  0.38971  0.47022  1.0000
  C   C61       1.0  0.58632  0.41357  0.37184  1.0000
  C   C62       1.0  0.59160  0.45139  0.30359  1.0000
  C   C63       1.0  0.56234  0.46426  0.33095  1.0000
  C   C64       1.0  0.08877  0.57161  0.10247  1.0000
  C   C65       1.0  0.10587  0.55352  0.20641  1.0000
  C   C66       1.0  0.14886  0.57431  0.24153  1.0000
  C   C67       1.0  0.17612  0.61424  0.17266  1.0000
  C   C68       1.0  0.15893  0.63282  0.07113  1.0000
  C   C69       1.0  0.11615  0.61166  0.03511  1.0000
  C   C70       1.0  0.35370  0.64228  0.23796  1.0000
  C   C71       1.0  0.35347  0.70901  0.23484  1.0000
  C   C72       1.0  0.28694  0.64201  0.23784  1.0000
  C   C73       1.0  0.37549  0.68651  0.23704  1.0000
  C   C74       1.0  0.30936  0.68662  0.23647  1.0000
  C   C75       1.0  0.30921  0.62016  0.23982  1.0000
  C   C76       1.0  0.37722  0.61994  0.22066  1.0000
  C   C77       1.0  0.37583  0.75506  0.21545  1.0000
  C   C78       1.0  0.24099  0.61844  0.22104  1.0000
  C   C79       1.0  0.23617  0.21792  0.48938  1.0000
  C   C80       1.0  0.77562  0.01231  0.54416  1.0000
  C   C81       1.0  0.98513  0.76521  0.49389  1.0000
  C   C82       1.0  0.22597  0.24829  0.57301  1.0000
  C   C83       1.0  0.73925  0.97033  0.60267  1.0000
  C   C84       1.0  0.02727  0.77398  0.56222  1.0000
  C   C85       1.0  0.21099  0.30401  0.52508  1.0000
  C   C86       1.0  0.68903  0.90071  0.51644  1.0000
  C   C87       1.0  0.09470  0.78543  0.47993  1.0000
  C   C88       1.0  0.24880  0.34752  0.48966  1.0000
  C   C89       1.0  0.64657  0.89675  0.47655  1.0000
  C   C90       1.0  0.09329  0.74319  0.46829  1.0000
  C   C91       1.0  0.35042  0.25907  0.97149  1.0000
  C   C92       1.0  0.74132  0.09463  0.98256  1.0000
  C   C93       1.0  0.91337  0.65341  0.96269  1.0000
  C   C94       1.0  0.30858  0.24369  0.54408  1.0000
  C   C95       1.0  0.75489  0.06374  0.57417  1.0000
  C   C96       1.0  0.93924  0.69151  0.53963  1.0000
  C   C97       1.0  0.40905  0.32281  0.88098  1.0000
  C   C98       1.0  0.67837  0.08813  0.87480  1.0000
  C   C99       1.0  0.91496  0.59395  0.86629  1.0000
  C   C100      1.0  0.42652  0.36980  0.86229  1.0000
  C   C101      1.0  0.63183  0.05786  0.85102  1.0000
  C   C102      1.0  0.94243  0.57439  0.84825  1.0000
  C   C103      1.0  0.43413  0.45322  0.57040  1.0000
  C   C104      1.0  0.54706  0.98160  0.54983  1.0000
  C   C105      1.0  0.02058  0.56551  0.55739  1.0000
  C   C106      1.0  0.45734  0.43426  0.51891  1.0000
  C   C107      1.0  0.56677  0.02416  0.49704  1.0000
  C   C108      1.0  0.97830  0.54219  0.50611  1.0000
  C   C109      1.0  0.31989  0.39240  0.57724  1.0000
  C   C110      1.0  0.60004  0.92192  0.54633  1.0000
  C   C111      1.0  0.07182  0.67918  0.61934  1.0000
  C   C112      1.0  0.36161  0.39363  0.54760  1.0000
  C   C113      1.0  0.60470  0.96595  0.53090  1.0000
  C   C114      1.0  0.03820  0.64032  0.53042  1.0000
  C   C115      1.0  0.49823  0.45698  0.97709  1.0000
  C   C116      1.0  0.54354  0.04031  0.95657  1.0000
  C   C117      1.0  0.95688  0.50175  0.96769  1.0000
  C   C118      1.0  0.51682  0.50127  0.98446  1.0000
  C   C119      1.0  0.49928  0.01480  0.96362  1.0000
  C   C120      1.0  0.98209  0.48266  0.97613  1.0000
  C   C121      1.0  0.49570  0.52205  0.53087  1.0000
  C   C122      1.0  0.47891  0.97525  0.50607  1.0000
  C   C123      1.0  0.02732  0.50361  0.52517  1.0000
  C   C124      1.0  0.45304  0.49776  0.57400  1.0000
  C   C125      1.0  0.50260  0.95624  0.55172  1.0000
  C   C126      1.0  0.04603  0.54651  0.56500  1.0000
  C   C127      1.0  0.67736  0.37557  0.85306  1.0000
  C   C128      1.0  0.62145  0.30230  0.84213  1.0000
  C   C129      1.0  0.69472  0.31983  0.84261  1.0000
  C   C130      1.0  0.63399  0.34525  0.84810  1.0000
  C   C131      1.0  0.65182  0.28934  0.83958  1.0000
  C   C132      1.0  0.70782  0.36322  0.85042  1.0000
  C   C133      1.0  0.60228  0.35834  0.85553  1.0000
  C   C134      1.0  0.63936  0.24456  0.84158  1.0000
  C   C135      1.0  0.75252  0.39535  0.86049  1.0000
  C   C136      1.0  0.56184  0.08561  0.91434  1.0000
  C   C137      1.0  0.59881  0.11748  0.98693  1.0000
  C   C138      1.0  0.61262  0.16008  0.95956  1.0000
  C   C139      1.0  0.58975  0.17273  0.85935  1.0000
  C   C140      1.0  0.55307  0.14113  0.78490  1.0000
  C   C141      1.0  0.53993  0.09860  0.81011  1.0000
  C   C142      1.0  0.42912  0.51894  0.61557  1.0000
  C   C143      1.0  0.48129  0.91093  0.59734  1.0000
  C   C144      1.0  0.09104  0.57065  0.60970  1.0000
  C   C145      1.0  0.44700  0.55439  0.71485  1.0000
  C   C146      1.0  0.44722  0.89354  0.70406  1.0000
  C   C147      1.0  0.10900  0.55296  0.71167  1.0000
  C   C148      1.0  0.42582  0.57614  0.74827  1.0000
  C   C149      1.0  0.42601  0.85053  0.74313  1.0000
  C   C150      1.0  0.15199  0.57460  0.74720  1.0000
  C   C151      1.0  0.38570  0.56296  0.68200  1.0000
  C   C152      1.0  0.43836  0.82344  0.67511  1.0000
  C   C153      1.0  0.17856  0.61509  0.68102  1.0000
  C   C154      1.0  0.36733  0.52701  0.58507  1.0000
  C   C155      1.0  0.47289  0.84089  0.57026  1.0000
  C   C156      1.0  0.16048  0.63340  0.58271  1.0000
  C   C157      1.0  0.38886  0.50579  0.55075  1.0000
  C   C158      1.0  0.49354  0.88368  0.53052  1.0000
  C   C159      1.0  0.11772  0.61139  0.54601  1.0000
  C   C160      1.0  0.35703  0.64534  0.74554  1.0000
  C   C161      1.0  0.35641  0.71185  0.74653  1.0000
  C   C162      1.0  0.29001  0.64463  0.74523  1.0000
  C   C163      1.0  0.37864  0.68955  0.74757  1.0000
  C   C164      1.0  0.31228  0.68924  0.74617  1.0000
  C   C165      1.0  0.31253  0.62303  0.74638  1.0000
  C   C166      1.0  0.38073  0.62320  0.72679  1.0000
  C   C167      1.0  0.37855  0.75799  0.72899  1.0000
  C   C168      1.0  0.24407  0.62067  0.72746  1.0000
  N   N1        1.0  0.61749  0.40277  0.34594  1.0000
  N   N2        1.0  0.60089  0.21817  0.32724  1.0000
  N   N3        1.0  0.78507  0.38503  0.33665  1.0000
  N   N4        1.0  0.35843  0.57962  0.19910  1.0000
  N   N5        1.0  0.41632  0.77676  0.20028  1.0000
  N   N6        1.0  0.21979  0.63758  0.19819  1.0000
  N   N7        1.0  0.61280  0.39777  0.85501  1.0000
  N   N8        1.0  0.60031  0.21497  0.83723  1.0000
  N   N9        1.0  0.78187  0.38561  0.85852  1.0000
  N   N10       1.0  0.36199  0.58280  0.70773  1.0000
  N   N11       1.0  0.41865  0.77967  0.70363  1.0000
  N   N12       1.0  0.22222  0.63922  0.70707  1.0000
  O   O1        1.0  0.36989  0.30685  0.44801  1.0000
  O   O2        1.0  0.69464  0.06346  0.45517  1.0000
  O   O3        1.0  0.94104  0.63239  0.42453  1.0000
  O   O4        1.0  0.43478  0.38850  0.01813  1.0000
  O   O5        1.0  0.61152  0.04457  0.00492  1.0000
  O   O6        1.0  0.95377  0.56643  0.00516  1.0000
  O   O7        1.0  0.39186  0.42843  0.12815  1.0000
  O   O8        1.0  0.57102  0.96149  0.11889  1.0000
  O   O9        1.0  0.03699  0.60745  0.12011  1.0000
  O   O10       1.0  0.28424  0.34716  0.05748  1.0000
  O   O11       1.0  0.64834  0.93148  0.06416  1.0000
  O   O12       1.0  0.06864  0.71719  0.07122  1.0000
  O   O13       1.0  0.21491  0.27052  0.45631  1.0000
  O   O14       1.0  0.72411  0.94083  0.47272  1.0000
  O   O15       1.0  0.05619  0.78349  0.43225  1.0000
  O   O16       1.0  0.27785  0.23708  0.42395  1.0000
  O   O17       1.0  0.76289  0.03915  0.46343  1.0000
  O   O18       1.0  0.96109  0.72432  0.42317  1.0000
  O   O19       1.0  0.36888  0.30395  0.95730  1.0000
  O   O20       1.0  0.69738  0.06679  0.95259  1.0000
  O   O21       1.0  0.93893  0.63471  0.93562  1.0000
  O   O22       1.0  0.43688  0.39050  0.51933  1.0000
  O   O23       1.0  0.61043  0.04698  0.50333  1.0000
  O   O24       1.0  0.95534  0.56289  0.50471  1.0000
  O   O25       1.0  0.39402  0.43008  0.63187  1.0000
  O   O26       1.0  0.56965  0.96441  0.61638  1.0000
  O   O27       1.0  0.03695  0.60528  0.62058  1.0000
  O   O28       1.0  0.28643  0.34993  0.55269  1.0000
  O   O29       1.0  0.64088  0.92617  0.56848  1.0000
  O   O30       1.0  0.06871  0.71633  0.59829  1.0000
  O   O31       1.0  0.21295  0.26884  0.95539  1.0000
  O   O32       1.0  0.73287  0.94820  0.98382  1.0000
  O   O33       1.0  0.05916  0.78707  0.94359  1.0000
  O   O34       1.0  0.27668  0.23524  0.92125  1.0000
  O   O35       1.0  0.76845  0.04664  0.96121  1.0000
  O   O36       1.0  0.96268  0.72736  0.91268  1.0000
  C  Sn1       1.0  0.54666  0.11021  0.25643  1.0000
  C   C169      1.0  0.56444  0.09218  0.35575  1.0000
  C  Sn2       1.0  0.59387  0.11640  0.47201  1.0000
  C  Sn3       1.0  0.60577  0.15954  0.48946  1.0000
  C   C170      1.0  0.58799  0.17755  0.39020  1.0000
  C  Sn4       1.0  0.55856  0.15335  0.27387  1.0000
  O  Te1       1.0  0.51730  0.08540  0.14101  1.0000
  O  Te2       1.0  0.61122  0.09768  0.56987  1.0000
  O  Te3       1.0  0.63516  0.18435  0.60499  1.0000
  O  Te4       1.0  0.54121  0.17205  0.17608  1.0000
  Mg  Mg1       1.0  0.64994  0.14451  0.70965  1.0000
  Mg  Mg2       1.0  0.50247  0.12525  0.03631  1.0000
  C  Sn5       1.0  0.43500  0.57861  0.20478  1.0000
  C   C171      1.0  0.39531  0.56978  0.14935  1.0000
  C  Sn6       1.0  0.36816  0.53101  0.07868  1.0000
  C  Sn7       1.0  0.38092  0.50043  0.06316  1.0000
  C   C172      1.0  0.42058  0.50926  0.11859  1.0000
  C  Sn8       1.0  0.44777  0.54802  0.18926  1.0000
  O  Te5       1.0  0.46164  0.61757  0.27504  1.0000
  O  Te6       1.0  0.32864  0.52291  0.02412  1.0000
  O  Te7       1.0  0.35494  0.45787  0.99282  1.0000
  O  Te8       1.0  0.48726  0.55612  0.24382  1.0000
  Mg  Mg3       1.0  0.30424  0.46163  0.93702  1.0000
  Mg  Mg4       1.0  0.51237  0.61381  0.33100  1.0000
  C  Sn9       1.0  0.86541  0.40867  0.84111  1.0000
  C   C173      1.0  0.83082  0.40924  0.90713  1.0000
  C  Sn10      1.0  0.83588  0.44592  0.97711  1.0000
  C  Sn11      1.0  0.87634  0.48282  0.98112  1.0000
  C   C174      1.0  0.91089  0.48224  0.91511  1.0000
  C  Sn12      1.0  0.90587  0.44557  0.84512  1.0000
  O  Te9       1.0  0.85962  0.37164  0.77175  1.0000
  O  Te10      1.0  0.80014  0.44930  0.04238  1.0000
  O  Te11      1.0  0.88141  0.52344  0.05056  1.0000
  O  Te12      1.0  0.94088  0.44576  0.77986  1.0000
  Mg  Mg5       1.0  0.82402  0.50748  0.12353  1.0000
  Mg  Mg6       1.0  0.91703  0.38760  0.69860  1.0000
  C  Sn13      1.0  0.86860  0.40632  0.33140  1.0000
  C   C175      1.0  0.83365  0.40727  0.39153  1.0000
  C  Sn14      1.0  0.83851  0.44397  0.46073  1.0000
  C  Sn15      1.0  0.87916  0.48049  0.46994  1.0000
  C   C176      1.0  0.91408  0.47953  0.40980  1.0000
  C  Sn16      1.0  0.90925  0.44284  0.34060  1.0000
  O  Te13      1.0  0.86301  0.36929  0.26271  1.0000
  O  Te14      1.0  0.80309  0.44415  0.52008  1.0000
  O  Te15      1.0  0.88473  0.51754  0.53870  1.0000
  O  Te16      1.0  0.94464  0.44266  0.28126  1.0000
  Mg  Mg7       1.0  0.82684  0.50218  0.60267  1.0000
  Mg  Mg8       1.0  0.92092  0.38465  0.19857  1.0000
  C  Sn17      1.0  0.44549  0.88379  0.25020  1.0000
  C   C177      1.0  0.48144  0.90604  0.15571  1.0000
  C  Sn18      1.0  0.49365  0.88449  0.05286  1.0000
  C  Sn19      1.0  0.46941  0.83975  0.04419  1.0000
  C   C178      1.0  0.43347  0.81752  0.13861  1.0000
  C  Sn20      1.0  0.42125  0.83905  0.24152  1.0000
  O  Te17      1.0  0.43388  0.90599  0.35217  1.0000
  O  Te18      1.0  0.53042  0.90385  0.95961  1.0000
  O  Te19      1.0  0.48175  0.81398  0.94211  1.0000
  O  Te20      1.0  0.38519  0.81614  0.33471  1.0000
  Mg  Mg9       1.0  0.53339  0.85932  0.83897  1.0000
  Mg  Mg10      1.0  0.38219  0.86064  0.45532  1.0000
  C  Sn21      1.0  0.55954  0.45252  0.78282  1.0000
  C   C179      1.0  0.52464  0.43508  0.88409  1.0000
  C  Sn22      1.0  0.51958  0.40945  0.00256  1.0000
  C  Sn23      1.0  0.55076  0.39745  0.02026  1.0000
  C   C180      1.0  0.58633  0.41132  0.91905  1.0000
  C  Sn24      1.0  0.59072  0.44052  0.80052  1.0000
  O  Te21      1.0  0.56326  0.48165  0.66522  1.0000
  O  Te22      1.0  0.48440  0.39244  0.10234  1.0000
  O  Te23      1.0  0.54701  0.36829  0.13798  1.0000
  O  Te24      1.0  0.62587  0.45753  0.70080  1.0000
  Mg  Mg11      1.0  0.49344  0.35394  0.24474  1.0000
  Mg  Mg12      1.0  0.61687  0.49605  0.55842  1.0000
