data_image0
_chemical_formula_structural       H40C56N12C2Sn2C2HTe2HMgC2Sn2C2HTe2HMgC2Sn2C2HTe2HMgC2Sn2C2HTe2HMgC2Sn2C2HTe2HMgC2Sn2C2HTe2HMgC2Sn2C2HTe2HMgC2Sn2C2HTe2HMgC2Sn2C2HTe2HMgC2Sn2C2HTe2HMgC2Sn2C2HTe2HMgC2Sn2C2HTe2HMgC2Sn2C2HTe2HMgC2Sn2C2HTe2HMgC2Sn2C2HTe2HMgC2Sn2C2HTe2HMgC2Sn2C2HTe2HMgC2Sn2C2HTe2HMgC2Sn2C2HTe2HMgC2Sn2C2HTe2HMg
_chemical_formula_sum              "H80 C136 N12 Sn40 Te40 Mg20"
_cell_length_a       40.8029
_cell_length_b       43.6131
_cell_length_c       8.16455
_cell_angle_alpha    91.9626
_cell_angle_beta     109.877
_cell_angle_gamma    120.456

_symmetry_space_group_name_H-M    'P1'
_space_group_IT_number       1

loop_
  _space_group_symop_operation_xyz
  'x, y, z'

loop_
  _atom_site_type_symbol
  _atom_site_label
  _atom_site_symmetry_multiplicity
  _atom_site_fract_x
  _atom_site_fract_y
  _atom_site_fract_z
  _atom_site_occupancy
  H   H1        1.0  0.76909  0.32397  0.17013  1.0000
  H   H2        1.0  0.80528  0.34406  0.03841  1.0000
  H   H3        1.0  0.98039  0.41794  0.96022  1.0000
  H   H4        1.0  0.14395  0.41786  0.82477  1.0000
  H   H5        1.0  0.08501  0.52483  0.01675  1.0000
  H   H6        1.0  0.09154  0.68366  0.94065  1.0000
  H   H7        1.0  0.97709  0.51383  0.04826  1.0000
  H   H8        1.0  0.75822  0.41443  0.90537  1.0000
  H   H9        1.0  0.67383  0.39925  0.88302  1.0000
  H   H10       1.0  0.71265  0.43677  0.82053  1.0000
  H   H11       1.0  0.65997  0.35068  0.96858  1.0000
  H   H12       1.0  0.60345  0.30024  0.86206  1.0000
  H   H13       1.0  0.43063  0.23284  0.96826  1.0000
  H   H14       1.0  0.26166  0.23138  0.06371  1.0000
  H   H15       1.0  0.33083  0.12831  0.96209  1.0000
  H   H16       1.0  0.33203  0.96644  0.97248  1.0000
  H   H17       1.0  0.44211  0.14061  0.96142  1.0000
  H   H18       1.0  0.67237  0.26104  0.23814  1.0000
  H   H19       1.0  0.71514  0.23565  0.29575  1.0000
  H   H20       1.0  0.74960  0.26965  0.20345  1.0000
  H   H21       1.0  0.77205  0.32441  0.67347  1.0000
  H   H22       1.0  0.80865  0.34468  0.54461  1.0000
  H   H23       1.0  0.98221  0.41908  0.45144  1.0000
  H   H24       1.0  0.14898  0.41902  0.34616  1.0000
  H   H25       1.0  0.08749  0.52609  0.51440  1.0000
  H   H26       1.0  0.09513  0.68751  0.47261  1.0000
  H   H27       1.0  0.97967  0.51506  0.54811  1.0000
  H   H28       1.0  0.76029  0.41463  0.40534  1.0000
  H   H29       1.0  0.67667  0.39970  0.39276  1.0000
  H   H30       1.0  0.71461  0.43687  0.32532  1.0000
  H   H31       1.0  0.66272  0.35078  0.46991  1.0000
  H   H32       1.0  0.60663  0.30116  0.36607  1.0000
  H   H33       1.0  0.43227  0.23351  0.46258  1.0000
  H   H34       1.0  0.26776  0.23352  0.58850  1.0000
  H   H35       1.0  0.33310  0.12880  0.45832  1.0000
  H   H36       1.0  0.33213  0.96568  0.45053  1.0000
  H   H37       1.0  0.44485  0.14182  0.45957  1.0000
  H   H38       1.0  0.67564  0.26185  0.74415  1.0000
  H   H39       1.0  0.71867  0.23682  0.80614  1.0000
  H   H40       1.0  0.75330  0.27055  0.71364  1.0000
  C   C1        1.0  0.72107  0.36787  0.99166  1.0000
  C   C2        1.0  0.75211  0.35943  0.04625  1.0000
  C   C3        1.0  0.74438  0.32894  0.11830  1.0000
  C   C4        1.0  0.81369  0.37213  0.03149  1.0000
  C   C5        1.0  0.97413  0.46306  0.00813  1.0000
  C   C6        1.0  0.99575  0.44759  0.98556  1.0000
  C   C7        1.0  0.12761  0.40732  0.91283  1.0000
  C   C8        1.0  0.03572  0.46907  0.98747  1.0000
  C   C9        1.0  0.05407  0.50720  0.01407  1.0000
  C   C10       1.0  0.11187  0.67598  0.02913  1.0000
  C   C11       1.0  0.03271  0.52328  0.03052  1.0000
  C   C12       1.0  0.99288  0.50108  0.02791  1.0000
  C   C13       1.0  0.72880  0.39993  0.91965  1.0000
  C   C14       1.0  0.70365  0.41245  0.87243  1.0000
  C   C15       1.0  0.70683  0.30519  0.13204  1.0000
  C   C16       1.0  0.67503  0.31264  0.06923  1.0000
  C   C17       1.0  0.68358  0.34424  0.00674  1.0000
  C   C18       1.0  0.60321  0.28490  0.96633  1.0000
  C   C19       1.0  0.44008  0.18885  0.95787  1.0000
  C   C20       1.0  0.41685  0.20378  0.96226  1.0000
  C   C21       1.0  0.28333  0.24465  0.99939  1.0000
  C   C22       1.0  0.37758  0.18255  0.96715  1.0000
  C   C23       1.0  0.36183  0.14547  0.96560  1.0000
  C   C24       1.0  0.31633  0.97850  0.00540  1.0000
  C   C25       1.0  0.38473  0.12977  0.96904  1.0000
  C   C26       1.0  0.42386  0.15198  0.96313  1.0000
  C   C27       1.0  0.69958  0.27349  0.20671  1.0000
  C   C28       1.0  0.72280  0.25905  0.23693  1.0000
  C   C29       1.0  0.72389  0.36815  0.49435  1.0000
  C   C30       1.0  0.75495  0.35972  0.54841  1.0000
  C   C31       1.0  0.74729  0.32931  0.62112  1.0000
  C   C32       1.0  0.81672  0.37255  0.53464  1.0000
  C   C33       1.0  0.97639  0.46419  0.50424  1.0000
  C   C34       1.0  0.99786  0.44877  0.47927  1.0000
  C   C35       1.0  0.12801  0.40612  0.41391  1.0000
  C   C36       1.0  0.03790  0.47026  0.48195  1.0000
  C   C37       1.0  0.05643  0.50845  0.51046  1.0000
  C   C38       1.0  0.11549  0.67838  0.54468  1.0000
  C   C39       1.0  0.03517  0.52456  0.52870  1.0000
  C   C40       1.0  0.99528  0.50227  0.52577  1.0000
  C   C41       1.0  0.73124  0.40018  0.42256  1.0000
  C   C42       1.0  0.70607  0.41271  0.37842  1.0000
  C   C43       1.0  0.70983  0.30563  0.63576  1.0000
  C   C44       1.0  0.67788  0.31289  0.57187  1.0000
  C   C45       1.0  0.68639  0.34443  0.50898  1.0000
  C   C46       1.0  0.60623  0.28569  0.46982  1.0000
  C   C47       1.0  0.44239  0.18987  0.45452  1.0000
  C   C48       1.0  0.41879  0.20451  0.45720  1.0000
  C   C49       1.0  0.28473  0.24423  0.50280  1.0000
  C   C50       1.0  0.37960  0.18314  0.46267  1.0000
  C   C51       1.0  0.36408  0.14607  0.46152  1.0000
  C   C52       1.0  0.32013  0.97945  0.50335  1.0000
  C   C53       1.0  0.38721  0.13059  0.46471  1.0000
  C   C54       1.0  0.42638  0.15302  0.45974  1.0000
  C   C55       1.0  0.70284  0.27425  0.71280  1.0000
  C   C56       1.0  0.72631  0.26001  0.74575  1.0000
  N   N1        1.0  0.78970  0.38316  0.03195  1.0000
  N   N2        1.0  0.12906  0.38312  0.99681  1.0000
  N   N3        1.0  0.15189  0.69892  0.10979  1.0000
  N   N4        1.0  0.63681  0.28801  0.07661  1.0000
  N   N5        1.0  0.28847  0.27306  0.93867  1.0000
  N   N6        1.0  0.28589  0.96086  0.05397  1.0000
  N   N7        1.0  0.79244  0.38337  0.53313  1.0000
  N   N8        1.0  0.12367  0.37814  0.47736  1.0000
  N   N9        1.0  0.15568  0.69994  0.60890  1.0000
  N   N10       1.0  0.63962  0.28837  0.57918  1.0000
  N   N11       1.0  0.28394  0.26883  0.42045  1.0000
  N   N12       1.0  0.29233  0.96301  0.56729  1.0000
  C   C57       1.0  0.89238  0.38633  0.07318  1.0000
  C   C58       1.0  0.86044  0.39245  0.03685  1.0000
  C  Sn1       1.0  0.96033  0.47512  0.97540  1.0000
  C  Sn2       1.0  0.99666  0.50001  0.94993  1.0000
  C   C59       1.0  0.02842  0.49362  0.98653  1.0000
  C   C60       1.0  0.92822  0.41086  0.04803  1.0000
  H   H41       1.0  0.88929  0.36255  0.12066  1.0000
  O  Te1       1.0  0.92813  0.48083  0.93981  1.0000
  O  Te2       1.0  0.00112  0.53082  0.88858  1.0000
  H   H42       1.0  0.95293  0.40611  0.07603  1.0000
  Mg  Mg1       1.0  0.94872  0.52678  0.85865  1.0000
  C   C61       1.0  0.20421  0.37719  0.90210  1.0000
  C   C62       1.0  0.20122  0.34615  0.95626  1.0000
  C  Sn3       1.0  0.07562  0.27330  0.02426  1.0000
  C  Sn4       1.0  0.04878  0.28383  0.03809  1.0000
  C   C63       1.0  0.14823  0.36696  0.98342  1.0000
  C   C64       1.0  0.17774  0.38758  0.91562  1.0000
  H   H43       1.0  0.22703  0.39313  0.84955  1.0000
  O  Te3       1.0  0.07306  0.24238  0.07782  1.0000
  O  Te4       1.0  0.01914  0.26353  0.10551  1.0000
  H   H44       1.0  0.18003  0.41160  0.87359  1.0000
  Mg  Mg2       1.0  0.02764  0.22359  0.16108  1.0000
  C   C65       1.0  0.10046  0.47251  0.90306  1.0000
  C   C66       1.0  0.06514  0.45699  0.94049  1.0000
  C  Sn5       1.0  0.04929  0.42281  0.98104  1.0000
  C  Sn6       1.0  0.06924  0.40389  0.98412  1.0000
  C   C67       1.0  0.10457  0.41966  0.94661  1.0000
  C   C68       1.0  0.12016  0.45387  0.90614  1.0000
  H   H45       1.0  0.11254  0.49899  0.87185  1.0000
  O  Te5       1.0  0.91773  0.35565  0.01804  1.0000
  O  Te6       1.0  0.95783  0.31765  0.02430  1.0000
  H   H46       1.0  0.14752  0.46588  0.87729  1.0000
  Mg  Mg3       1.0  0.90882  0.30837  0.06538  1.0000
  C   C69       1.0  0.16238  0.78367  0.10095  1.0000
  C   C70       1.0  0.20212  0.80712  0.10532  1.0000
  C  Sn7       1.0  0.22654  0.79363  0.10205  1.0000
  C  Sn8       1.0  0.21081  0.75594  0.09421  1.0000
  C   C71       1.0  0.17101  0.73270  0.08976  1.0000
  C   C72       1.0  0.14684  0.74649  0.09315  1.0000
  H   H47       1.0  0.14367  0.79433  0.10348  1.0000
  O  Te7       1.0  0.26618  0.81745  0.10656  1.0000
  O  Te8       1.0  0.23456  0.74173  0.09073  1.0000
  H   H48       1.0  0.11606  0.72832  0.08965  1.0000
  Mg  Mg4       1.0  0.28672  0.78510  0.09928  1.0000
  C   C73       1.0  0.11395  0.61863  0.18521  1.0000
  C   C74       1.0  0.09821  0.63555  0.07057  1.0000
  C  Sn9       1.0  0.15298  0.66726  0.94282  1.0000
  C  Sn10      1.0  0.12687  0.62928  0.92995  1.0000
  C   C75       1.0  0.04668  0.56056  0.04534  1.0000
  C   C76       1.0  0.08821  0.58117  0.17265  1.0000
  H   H49       1.0  0.14608  0.63457  0.28378  1.0000
  O  Te9       1.0  0.13776  0.68460  0.82929  1.0000
  O  Te10      1.0  0.08531  0.60830  0.80353  1.0000
  H   H50       1.0  0.10038  0.56806  0.26147  1.0000
  Mg  Mg5       1.0  0.07898  0.64437  0.67879  1.0000
  C   C77       1.0  0.51860  0.26188  0.85902  1.0000
  C   C78       1.0  0.55529  0.26314  0.94973  1.0000
  C  Sn11      1.0  0.45853  0.18493  0.04478  1.0000
  C  Sn12      1.0  0.42050  0.15701  0.04880  1.0000
  C   C79       1.0  0.48019  0.20801  0.95751  1.0000
  C   C80       1.0  0.48107  0.23434  0.86286  1.0000
  H   H51       1.0  0.51927  0.28224  0.78570  1.0000
  O  Te11      1.0  0.49547  0.18660  0.13472  1.0000
  O  Te12      1.0  0.41908  0.13050  0.14270  1.0000
  H   H52       1.0  0.45265  0.23334  0.79254  1.0000
  Mg  Mg6       1.0  0.47765  0.14432  0.24417  1.0000
  C   C81       1.0  0.26993  0.34165  0.95925  1.0000
  C   C82       1.0  0.22885  0.32510  0.94147  1.0000
  C  Sn13      1.0  0.20447  0.28744  0.92720  1.0000
  C  Sn14      1.0  0.22163  0.26604  0.93090  1.0000
  C   C83       1.0  0.26277  0.28286  0.94886  1.0000
  C   C84       1.0  0.28689  0.32056  0.96298  1.0000
  H   H53       1.0  0.28860  0.37082  0.97028  1.0000
  O  Te13      1.0  0.16347  0.27135  0.90945  1.0000
  O  Te14      1.0  0.19796  0.22835  0.91696  1.0000
  H   H54       1.0  0.31870  0.33337  0.97686  1.0000
  Mg  Mg7       1.0  0.14363  0.21901  0.89499  1.0000
  C   C85       1.0  0.31060  0.17936  0.03132  1.0000
  C   C86       1.0  0.43986  0.24448  0.97898  1.0000
  C  Sn15      1.0  0.45642  0.27843  0.93627  1.0000
  C  Sn16      1.0  0.43955  0.29963  0.94631  1.0000
  C   C87       1.0  0.40653  0.28631  0.99893  1.0000
  C   C88       1.0  0.29395  0.20025  0.04132  1.0000
  H   H55       1.0  0.29797  0.15305  0.06422  1.0000
  O  Te15      1.0  0.48941  0.29108  0.88416  1.0000
  O  Te16      1.0  0.45552  0.33366  0.90442  1.0000
  H   H56       1.0  0.26840  0.19014  0.08195  1.0000
  Mg  Mg8       1.0  0.50053  0.33914  0.84035  1.0000
  C   C89       1.0  0.23077  0.90101  0.13958  1.0000
  C   C90       1.0  0.26327  0.92139  0.08690  1.0000
  C  Sn17      1.0  0.27994  0.90471  0.02543  1.0000
  C  Sn18      1.0  0.26370  0.86692  0.01665  1.0000
  C   C91       1.0  0.23116  0.84676  0.06954  1.0000
  C   C92       1.0  0.21472  0.86373  0.13090  1.0000
  H   H57       1.0  0.21803  0.91412  0.18696  1.0000
  O  Te17      1.0  0.40865  0.97753  0.97338  1.0000
  O  Te18      1.0  0.37600  0.90161  0.95568  1.0000
  H   H58       1.0  0.18954  0.84793  0.17157  1.0000
  Mg  Mg9       1.0  0.42017  0.94153  0.89977  1.0000
  C   C93       1.0  0.38614  0.06397  0.94943  1.0000
  C   C94       1.0  0.37153  0.08636  0.96390  1.0000
  C  Sn19      1.0  0.24093  0.02167  0.00650  1.0000
  C  Sn20      1.0  0.76269  0.98596  0.03510  1.0000
  C   C95       1.0  0.77757  0.96378  0.02044  1.0000
  C   C96       1.0  0.90820  0.02874  0.97769  1.0000
  H   H59       1.0  0.41277  0.07397  0.91646  1.0000
  O  Te19      1.0  0.22672  0.04439  0.02036  1.0000
  O  Te20      1.0  0.72829  0.97265  0.07790  1.0000
  H   H60       1.0  0.91952  0.01142  0.96661  1.0000
  Mg  Mg10      1.0  0.17874  0.01391  0.08158  1.0000
  C   C97       1.0  0.89566  0.38732  0.57445  1.0000
  C   C98       1.0  0.86338  0.39298  0.53795  1.0000
  C  Sn21      1.0  0.86643  0.42331  0.47510  1.0000
  C  Sn22      1.0  0.90250  0.44839  0.44837  1.0000
  C   C99       1.0  0.93462  0.44247  0.48516  1.0000
  C   C100      1.0  0.93125  0.41203  0.54806  1.0000
  H   H61       1.0  0.89305  0.36376  0.62302  1.0000
  O  Te21      1.0  0.83389  0.42856  0.43936  1.0000
  O  Te22      1.0  0.90635  0.47893  0.38561  1.0000
  H   H62       1.0  0.95624  0.40764  0.57620  1.0000
  Mg  Mg11      1.0  0.85368  0.47427  0.35605  1.0000
  C   C101      1.0  0.14412  0.31060  0.47253  1.0000
  C   C102      1.0  0.18230  0.32591  0.45887  1.0000
  C  Sn23      1.0  0.20582  0.36322  0.46453  1.0000
  C  Sn24      1.0  0.19078  0.38554  0.48428  1.0000
  C   C103      1.0  0.15257  0.36997  0.49796  1.0000
  C   C104      1.0  0.12927  0.33261  0.49208  1.0000
  H   H63       1.0  0.12611  0.28170  0.46809  1.0000
  O  Te23      1.0  0.24388  0.37806  0.45063  1.0000
  O  Te24      1.0  0.21366  0.42291  0.49039  1.0000
  H   H64       1.0  0.09973  0.32077  0.50278  1.0000
  Mg  Mg12      1.0  0.26372  0.43042  0.46599  1.0000
  C   C105      1.0  0.11382  0.46387  0.38744  1.0000
  C   C106      1.0  0.10960  0.43148  0.42710  1.0000
  C  Sn25      1.0  0.07771  0.40794  0.47723  1.0000
  C  Sn26      1.0  0.04955  0.41706  0.48769  1.0000
  C   C107      1.0  0.05401  0.44951  0.44762  1.0000
  C   C108      1.0  0.08605  0.47288  0.39765  1.0000
  H   H65       1.0  0.13859  0.48194  0.34868  1.0000
  O  Te25      1.0  0.07395  0.37569  0.51647  1.0000
  O  Te26      1.0  0.01738  0.39401  0.53738  1.0000
  H   H66       1.0  0.08929  0.49795  0.36684  1.0000
  Mg  Mg13      1.0  0.02507  0.35315  0.57796  1.0000
  C   C109      1.0  0.17323  0.78783  0.65213  1.0000
  C   C110      1.0  0.20763  0.80865  0.61129  1.0000
  C  Sn27      1.0  0.22475  0.79200  0.55362  1.0000
  C  Sn28      1.0  0.20703  0.75380  0.53660  1.0000
  C   C111      1.0  0.17260  0.73320  0.57766  1.0000
  C   C112      1.0  0.15572  0.75015  0.63531  1.0000
  H   H67       1.0  0.16015  0.80093  0.69664  1.0000
  O  Te27      1.0  0.25914  0.81321  0.51344  1.0000
  O  Te28      1.0  0.22352  0.73645  0.47918  1.0000
  H   H68       1.0  0.12907  0.73401  0.66681  1.0000
  Mg  Mg14      1.0  0.27050  0.77705  0.44039  1.0000
  C   C113      1.0  0.03127  0.58537  0.42368  1.0000
  C   C114      1.0  0.04858  0.56696  0.51454  1.0000
  C  Sn29      1.0  0.09034  0.58669  0.63890  1.0000
  C  Sn30      1.0  0.11514  0.62556  0.67268  1.0000
  C   C115      1.0  0.09752  0.64372  0.58118  1.0000
  C   C116      1.0  0.05570  0.62371  0.45697  1.0000
  H   H69       1.0  0.99891  0.56989  0.32765  1.0000
  O  Te29      1.0  0.10715  0.56787  0.72845  1.0000
  O  Te30      1.0  0.15696  0.64596  0.79634  1.0000
  H   H70       1.0  0.04230  0.63797  0.38673  1.0000
  Mg  Mg15      1.0  0.16568  0.60782  0.88461  1.0000
  C   C117      1.0  0.52194  0.26362  0.36366  1.0000
  C   C118      1.0  0.55842  0.26457  0.45465  1.0000
  C  Sn31      1.0  0.55739  0.23793  0.54701  1.0000
  C  Sn32      1.0  0.51906  0.20985  0.54802  1.0000
  C   C119      1.0  0.48273  0.20912  0.45648  1.0000
  C   C120      1.0  0.48412  0.23592  0.36453  1.0000
  H   H71       1.0  0.52301  0.28434  0.29243  1.0000
  O  Te31      1.0  0.59413  0.23930  0.63727  1.0000
  O  Te32      1.0  0.51714  0.18288  0.63921  1.0000
  H   H72       1.0  0.45587  0.23516  0.29400  1.0000
  Mg  Mg16      1.0  0.57560  0.19641  0.74233  1.0000
  C   C121      1.0  0.20676  0.27336  0.50352  1.0000
  C   C122      1.0  0.21450  0.30755  0.47823  1.0000
  C  Sn33      1.0  0.24491  0.32912  0.41659  1.0000
  C  Sn34      1.0  0.26794  0.31616  0.37964  1.0000
  C   C123      1.0  0.25994  0.28192  0.40525  1.0000
  C   C124      1.0  0.22945  0.26055  0.46704  1.0000
  H   H73       1.0  0.18315  0.25682  0.55123  1.0000
  O  Te33      1.0  0.25226  0.36322  0.39213  1.0000
  O  Te34      1.0  0.29850  0.33716  0.31783  1.0000
  H   H74       1.0  0.22344  0.23408  0.48649  1.0000
  Mg  Mg17      1.0  0.29713  0.38178  0.30555  1.0000
  C   C125      1.0  0.36319  0.24045  0.42443  1.0000
  C   C126      1.0  0.36084  0.20934  0.47492  1.0000
  C  Sn35      1.0  0.33005  0.18641  0.53203  1.0000
  C  Sn36      1.0  0.30112  0.19485  0.53852  1.0000
  C   C127      1.0  0.30372  0.22602  0.48760  1.0000
  C   C128      1.0  0.33466  0.24878  0.43073  1.0000
  H   H75       1.0  0.38712  0.25805  0.38033  1.0000
  O  Te35      1.0  0.32816  0.15545  0.58205  1.0000
  O  Te36      1.0  0.27003  0.17240  0.59500  1.0000
  H   H76       1.0  0.33646  0.27285  0.39154  1.0000
  Mg  Mg18      1.0  0.28018  0.13330  0.64965  1.0000
  C   C129      1.0  0.21717  0.87918  0.58848  1.0000
  C   C130      1.0  0.22872  0.85449  0.57086  1.0000
  C  Sn37      1.0  0.26728  0.86679  0.56604  1.0000
  C  Sn38      1.0  0.29472  0.90454  0.57917  1.0000
  C   C131      1.0  0.28289  0.92903  0.59689  1.0000
  C   C132      1.0  0.24423  0.91642  0.60152  1.0000
  H   H77       1.0  0.18727  0.86943  0.59216  1.0000
  O  Te37      1.0  0.27832  0.84174  0.54831  1.0000
  O  Te38      1.0  0.33344  0.91758  0.57478  1.0000
  H   H78       1.0  0.23531  0.93556  0.61528  1.0000
  Mg  Mg19      1.0  0.33441  0.87278  0.54881  1.0000
  C   C133      1.0  0.32065  0.04544  0.54427  1.0000
  C   C134      1.0  0.87188  0.02094  0.49397  1.0000
  C  Sn39      1.0  0.36268  0.03303  0.43951  1.0000
  C  Sn40      1.0  0.38622  0.07035  0.43551  1.0000
  C   C135      1.0  0.37655  0.09465  0.48621  1.0000
  C   C136      1.0  0.34386  0.08226  0.54043  1.0000
  H   H79       1.0  0.29537  0.03586  0.58632  1.0000
  O  Te39      1.0  0.91347  0.00819  0.38963  1.0000
  O  Te40      1.0  0.41897  0.08317  0.38169  1.0000
  H   H80       1.0  0.33657  0.10124  0.57948  1.0000
  Mg  Mg20      1.0  0.41926  0.03878  0.32615  1.0000
