data_image0
_chemical_formula_structural       H80C116N12C2Sn2C2HTe2HMgC2Sn2C2HTe2HMgC2Sn2C2HTe2HMgC2Sn2C2HTe2HMgC2Sn2C2HTe2HMgC2Sn2C2HTe2HMgC2Sn2C2HTe2HMgC2Sn2C2HTe2HMgC2Sn2C2HTe2HMgC2Sn2C2HTe2HMg
_chemical_formula_sum              "H100 C156 N12 Sn20 Te20 Mg10"
_cell_length_a       40.8029
_cell_length_b       43.6131
_cell_length_c       8.16455
_cell_angle_alpha    91.9626
_cell_angle_beta     109.877
_cell_angle_gamma    120.456

_symmetry_space_group_name_H-M    'P1'
_space_group_IT_number       1

loop_
  _space_group_symop_operation_xyz
  'x, y, z'

loop_
  _atom_site_type_symbol
  _atom_site_label
  _atom_site_symmetry_multiplicity
  _atom_site_fract_x
  _atom_site_fract_y
  _atom_site_fract_z
  _atom_site_occupancy
  H   H1        1.0  0.76909  0.32397  0.17013  1.0000
  H   H2        1.0  0.80528  0.34406  0.03841  1.0000
  H   H3        1.0  0.98039  0.41794  0.96022  1.0000
  H   H4        1.0  0.14395  0.41786  0.82477  1.0000
  H   H5        1.0  0.13819  0.47096  0.84700  1.0000
  H   H6        1.0  0.09927  0.49740  0.87760  1.0000
  H   H7        1.0  0.02234  0.40250  0.03581  1.0000
  H   H8        1.0  0.06196  0.37626  0.00479  1.0000
  H   H9        1.0  0.08501  0.52483  0.01675  1.0000
  H   H10       1.0  0.09154  0.68366  0.94065  1.0000
  H   H11       1.0  0.97709  0.51383  0.04826  1.0000
  H   H12       1.0  0.75822  0.41443  0.90537  1.0000
  H   H13       1.0  0.67383  0.39925  0.88302  1.0000
  H   H14       1.0  0.71265  0.43677  0.82053  1.0000
  H   H15       1.0  0.65997  0.35068  0.96858  1.0000
  H   H16       1.0  0.60345  0.30024  0.86206  1.0000
  H   H17       1.0  0.43063  0.23284  0.96826  1.0000
  H   H18       1.0  0.27468  0.36977  0.96556  1.0000
  H   H19       1.0  0.31290  0.34081  0.95298  1.0000
  H   H20       1.0  0.20871  0.23615  0.91955  1.0000
  H   H21       1.0  0.16964  0.26426  0.92256  1.0000
  H   H22       1.0  0.26166  0.23138  0.06371  1.0000
  H   H23       1.0  0.26979  0.17990  0.06240  1.0000
  H   H24       1.0  0.31009  0.15368  0.05293  1.0000
  H   H25       1.0  0.39080  0.24839  0.90502  1.0000
  H   H26       1.0  0.35073  0.27494  0.92130  1.0000
  H   H27       1.0  0.33083  0.12831  0.96209  1.0000
  H   H28       1.0  0.33203  0.96644  0.97248  1.0000
  H   H29       1.0  0.38160  0.02107  0.92805  1.0000
  H   H30       1.0  0.41138  0.08524  0.91166  1.0000
  H   H31       1.0  0.31916  0.08592  0.05497  1.0000
  H   H32       1.0  0.28864  0.02108  0.06250  1.0000
  H   H33       1.0  0.44211  0.14061  0.96142  1.0000
  H   H34       1.0  0.67237  0.26104  0.23814  1.0000
  H   H35       1.0  0.71514  0.23565  0.29575  1.0000
  H   H36       1.0  0.74960  0.26965  0.20345  1.0000
  H   H37       1.0  0.77205  0.32441  0.67347  1.0000
  H   H38       1.0  0.80865  0.34468  0.54461  1.0000
  H   H39       1.0  0.87796  0.36115  0.61697  1.0000
  H   H40       1.0  0.94713  0.40084  0.61052  1.0000
  H   H41       1.0  0.91201  0.47418  0.40349  1.0000
  H   H42       1.0  0.84382  0.43556  0.42213  1.0000
  H   H43       1.0  0.98221  0.41908  0.45144  1.0000
  H   H44       1.0  0.14898  0.41902  0.34616  1.0000
  H   H45       1.0  0.08749  0.52609  0.51440  1.0000
  H   H46       1.0  0.25008  0.79930  0.48460  1.0000
  H   H47       1.0  0.21626  0.73497  0.50529  1.0000
  H   H48       1.0  0.13838  0.74822  0.70564  1.0000
  H   H49       1.0  0.17346  0.81295  0.69582  1.0000
  H   H50       1.0  0.09513  0.68751  0.47261  1.0000
  H   H51       1.0  0.03457  0.62464  0.35232  1.0000
  H   H52       1.0  0.99975  0.55837  0.34616  1.0000
  H   H53       1.0  0.11412  0.58021  0.75439  1.0000
  H   H54       1.0  0.14901  0.64689  0.76079  1.0000
  H   H55       1.0  0.97967  0.51506  0.54811  1.0000
  H   H56       1.0  0.76029  0.41463  0.40534  1.0000
  H   H57       1.0  0.67667  0.39970  0.39276  1.0000
  H   H58       1.0  0.71461  0.43687  0.32532  1.0000
  H   H59       1.0  0.66272  0.35078  0.46991  1.0000
  H   H60       1.0  0.60663  0.30116  0.36607  1.0000
  H   H61       1.0  0.53935  0.28889  0.31524  1.0000
  H   H62       1.0  0.46894  0.24786  0.30681  1.0000
  H   H63       1.0  0.51063  0.18622  0.61103  1.0000
  H   H64       1.0  0.58159  0.22808  0.62276  1.0000
  H   H65       1.0  0.43227  0.23351  0.46258  1.0000
  H   H66       1.0  0.26776  0.23352  0.58850  1.0000
  H   H67       1.0  0.27467  0.18158  0.57969  1.0000
  H   H68       1.0  0.31476  0.15559  0.56560  1.0000
  H   H69       1.0  0.39087  0.24810  0.39161  1.0000
  H   H70       1.0  0.35019  0.27407  0.40797  1.0000
  H   H71       1.0  0.33310  0.12880  0.45832  1.0000
  H   H72       1.0  0.18611  0.85683  0.58605  1.0000
  H   H73       1.0  0.22263  0.92254  0.58813  1.0000
  H   H74       1.0  0.32613  0.92086  0.57623  1.0000
  H   H75       1.0  0.29102  0.85615  0.58138  1.0000
  H   H76       1.0  0.33213  0.96568  0.45053  1.0000
  H   H77       1.0  0.44485  0.14182  0.45957  1.0000
  H   H78       1.0  0.67564  0.26185  0.74415  1.0000
  H   H79       1.0  0.71867  0.23682  0.80614  1.0000
  H   H80       1.0  0.75330  0.27055  0.71364  1.0000
  C   C1        1.0  0.72107  0.36787  0.99166  1.0000
  C   C2        1.0  0.75211  0.35943  0.04625  1.0000
  C   C3        1.0  0.74438  0.32894  0.11830  1.0000
  C   C4        1.0  0.81369  0.37213  0.03149  1.0000
  C   C5        1.0  0.97413  0.46306  0.00813  1.0000
  C   C6        1.0  0.99575  0.44759  0.98556  1.0000
  C   C7        1.0  0.12761  0.40732  0.91283  1.0000
  C   C8        1.0  0.10338  0.42206  0.92834  1.0000
  C   C9        1.0  0.11324  0.45623  0.89154  1.0000
  C   C10       1.0  0.09122  0.47119  0.90962  1.0000
  C   C11       1.0  0.05790  0.45236  0.96124  1.0000
  C   C12       1.0  0.04726  0.41749  0.99161  1.0000
  C   C13       1.0  0.06964  0.40273  0.97672  1.0000
  C   C14       1.0  0.03572  0.46907  0.98747  1.0000
  C   C15       1.0  0.05407  0.50720  0.01407  1.0000
  C   C16       1.0  0.11187  0.67598  0.02913  1.0000
  C   C17       1.0  0.03271  0.52328  0.03052  1.0000
  C   C18       1.0  0.99288  0.50108  0.02791  1.0000
  C   C19       1.0  0.72880  0.39993  0.91965  1.0000
  C   C20       1.0  0.70365  0.41245  0.87243  1.0000
  C   C21       1.0  0.70683  0.30519  0.13204  1.0000
  C   C22       1.0  0.67503  0.31264  0.06923  1.0000
  C   C23       1.0  0.68358  0.34424  0.00674  1.0000
  C   C24       1.0  0.60321  0.28490  0.96633  1.0000
  C   C25       1.0  0.44008  0.18885  0.95787  1.0000
  C   C26       1.0  0.41685  0.20378  0.96226  1.0000
  C   C27       1.0  0.21925  0.31944  0.94829  1.0000
  C   C28       1.0  0.25985  0.34041  0.95456  1.0000
  C   C29       1.0  0.28173  0.32449  0.94965  1.0000
  C   C30       1.0  0.26445  0.28695  0.94353  1.0000
  C   C31       1.0  0.22353  0.26557  0.93314  1.0000
  C   C32       1.0  0.20151  0.28153  0.93461  1.0000
  C   C33       1.0  0.28333  0.24465  0.99939  1.0000
  C   C34       1.0  0.30720  0.22916  0.99005  1.0000
  C   C35       1.0  0.29604  0.19470  0.02552  1.0000
  C   C36       1.0  0.31886  0.17982  0.01903  1.0000
  C   C37       1.0  0.35373  0.19865  0.97702  1.0000
  C   C38       1.0  0.36487  0.23340  0.94329  1.0000
  C   C39       1.0  0.34227  0.24838  0.94989  1.0000
  C   C40       1.0  0.37758  0.18255  0.96715  1.0000
  C   C41       1.0  0.36183  0.14547  0.96560  1.0000
  C   C42       1.0  0.31633  0.97850  0.00540  1.0000
  C   C43       1.0  0.33277  0.01642  0.99494  1.0000
  C   C44       1.0  0.36806  0.03550  0.95642  1.0000
  C   C45       1.0  0.38508  0.07201  0.94879  1.0000
  C   C46       1.0  0.36764  0.09117  0.98032  1.0000
  C   C47       1.0  0.33257  0.07185  0.02172  1.0000
  C   C48       1.0  0.31526  0.03538  0.02784  1.0000
  C   C49       1.0  0.38473  0.12977  0.96904  1.0000
  C   C50       1.0  0.42386  0.15198  0.96313  1.0000
  C   C51       1.0  0.69958  0.27349  0.20671  1.0000
  C   C52       1.0  0.72280  0.25905  0.23693  1.0000
  C   C53       1.0  0.72389  0.36815  0.49435  1.0000
  C   C54       1.0  0.75495  0.35972  0.54841  1.0000
  C   C55       1.0  0.74729  0.32931  0.62112  1.0000
  C   C56       1.0  0.81672  0.37255  0.53464  1.0000
  C   C57       1.0  0.85647  0.39607  0.52299  1.0000
  C   C58       1.0  0.88560  0.38604  0.57042  1.0000
  C   C59       1.0  0.92436  0.40823  0.56564  1.0000
  C   C60       1.0  0.93511  0.44077  0.50845  1.0000
  C   C61       1.0  0.90529  0.45013  0.45643  1.0000
  C   C62       1.0  0.86693  0.42852  0.46504  1.0000
  C   C63       1.0  0.97639  0.46419  0.50424  1.0000
  C   C64       1.0  0.99786  0.44877  0.47927  1.0000
  C   C65       1.0  0.12801  0.40612  0.41391  1.0000
  C   C66       1.0  0.03790  0.47026  0.48195  1.0000
  C   C67       1.0  0.05643  0.50845  0.51046  1.0000
  C   C68       1.0  0.21426  0.81160  0.58624  1.0000
  C   C69       1.0  0.22620  0.78876  0.53659  1.0000
  C   C70       1.0  0.20715  0.75238  0.54663  1.0000
  C   C71       1.0  0.17404  0.73669  0.60069  1.0000
  C   C72       1.0  0.16201  0.75921  0.65209  1.0000
  C   C73       1.0  0.18206  0.79589  0.64626  1.0000
  C   C74       1.0  0.11549  0.67838  0.54468  1.0000
  C   C75       1.0  0.09455  0.64008  0.55438  1.0000
  C   C76       1.0  0.05195  0.61500  0.44199  1.0000
  C   C77       1.0  0.03234  0.57775  0.43816  1.0000
  C   C78       1.0  0.05481  0.56448  0.54583  1.0000
  C   C79       1.0  0.09699  0.58996  0.66418  1.0000
  C   C80       1.0  0.11654  0.62712  0.66896  1.0000
  C   C81       1.0  0.03517  0.52456  0.52870  1.0000
  C   C82       1.0  0.99528  0.50227  0.52577  1.0000
  C   C83       1.0  0.73124  0.40018  0.42256  1.0000
  C   C84       1.0  0.70607  0.41271  0.37842  1.0000
  C   C85       1.0  0.70983  0.30563  0.63576  1.0000
  C   C86       1.0  0.67788  0.31289  0.57187  1.0000
  C   C87       1.0  0.68639  0.34443  0.50898  1.0000
  C   C88       1.0  0.60623  0.28569  0.46982  1.0000
  C   C89       1.0  0.56542  0.26144  0.47146  1.0000
  C   C90       1.0  0.53318  0.26670  0.38257  1.0000
  C   C91       1.0  0.49357  0.24361  0.37782  1.0000
  C   C92       1.0  0.48429  0.21379  0.45686  1.0000
  C   C93       1.0  0.51663  0.20838  0.54384  1.0000
  C   C94       1.0  0.55653  0.23192  0.55269  1.0000
  C   C95       1.0  0.44239  0.18987  0.45452  1.0000
  C   C96       1.0  0.41879  0.20451  0.45720  1.0000
  C   C97       1.0  0.28473  0.24423  0.50280  1.0000
  C   C98       1.0  0.30905  0.22938  0.49081  1.0000
  C   C99       1.0  0.29964  0.19584  0.53487  1.0000
  C   C100      1.0  0.32236  0.18104  0.52552  1.0000
  C   C101      1.0  0.35581  0.19924  0.47417  1.0000
  C   C102      1.0  0.36571  0.23339  0.43469  1.0000
  C   C103      1.0  0.34280  0.24808  0.44183  1.0000
  C   C104      1.0  0.37960  0.18314  0.46267  1.0000
  C   C105      1.0  0.36408  0.14607  0.46152  1.0000
  C   C106      1.0  0.23507  0.85049  0.57959  1.0000
  C   C107      1.0  0.21670  0.87039  0.58288  1.0000
  C   C108      1.0  0.23688  0.90737  0.58334  1.0000
  C   C109      1.0  0.27605  0.92636  0.57495  1.0000
  C   C110      1.0  0.29518  0.90697  0.57589  1.0000
  C   C111      1.0  0.27505  0.87006  0.57809  1.0000
  C   C112      1.0  0.32013  0.97945  0.50335  1.0000
  C   C113      1.0  0.38721  0.13059  0.46471  1.0000
  C   C114      1.0  0.42638  0.15302  0.45974  1.0000
  C   C115      1.0  0.70284  0.27425  0.71280  1.0000
  C   C116      1.0  0.72631  0.26001  0.74575  1.0000
  N   N1        1.0  0.78970  0.38316  0.03195  1.0000
  N   N2        1.0  0.12906  0.38312  0.99681  1.0000
  N   N3        1.0  0.15189  0.69892  0.10979  1.0000
  N   N4        1.0  0.63681  0.28801  0.07661  1.0000
  N   N5        1.0  0.28847  0.27306  0.93867  1.0000
  N   N6        1.0  0.28589  0.96086  0.05397  1.0000
  N   N7        1.0  0.79244  0.38337  0.53313  1.0000
  N   N8        1.0  0.12367  0.37814  0.47736  1.0000
  N   N9        1.0  0.15568  0.69994  0.60890  1.0000
  N   N10       1.0  0.63962  0.28837  0.57918  1.0000
  N   N11       1.0  0.28394  0.26883  0.42045  1.0000
  N   N12       1.0  0.29233  0.96301  0.56729  1.0000
  C   C117      1.0  0.52508  0.20959  0.05605  1.0000
  C   C118      1.0  0.58607  0.26334  0.98526  1.0000
  C  Sn1       1.0  0.58676  0.28981  0.89231  1.0000
  C  Sn2       1.0  0.62344  0.31501  0.86999  1.0000
  C   C119      1.0  0.65852  0.31306  0.94120  1.0000
  C   C120      1.0  0.56127  0.23442  0.03403  1.0000
  H   H81       1.0  0.52428  0.18900  0.12779  1.0000
  O  Te1       1.0  0.55128  0.29114  0.82251  1.0000
  O  Te2       1.0  0.62498  0.34174  0.77761  1.0000
  H   H82       1.0  0.58855  0.23309  0.08871  1.0000
  Mg  Mg1       1.0  0.56867  0.33254  0.70711  1.0000
  C   C121      1.0  0.38856  0.06471  0.43856  1.0000
  C   C122      1.0  0.37444  0.08724  0.45890  1.0000
  C  Sn3       1.0  0.34127  0.07491  0.50969  1.0000
  C  Sn4       1.0  0.32194  0.03936  0.54063  1.0000
  C   C123      1.0  0.87810  0.01703  0.52004  1.0000
  C   C124      1.0  0.36952  0.02964  0.46912  1.0000
  H   H83       1.0  0.41426  0.07447  0.39925  1.0000
  O  Te3       1.0  0.32755  0.09778  0.52935  1.0000
  O  Te4       1.0  0.83053  0.02635  0.59158  1.0000
  H   H84       1.0  0.92225  0.01219  0.45349  1.0000
  Mg  Mg2       1.0  0.28123  0.06771  0.60090  1.0000
  C   C125      1.0  0.28224  0.89317  0.01062  1.0000
  C   C126      1.0  0.27357  0.91918  0.04662  1.0000
  C  Sn5       1.0  0.24411  0.91094  0.11708  1.0000
  C  Sn6       1.0  0.22298  0.87599  0.15206  1.0000
  C   C127      1.0  0.23190  0.85017  0.11570  1.0000
  C   C128      1.0  0.26143  0.85870  0.04514  1.0000
  H   H85       1.0  0.40133  0.95182  0.95612  1.0000
  O  Te5       1.0  0.23581  0.93724  0.15220  1.0000
  O  Te6       1.0  0.19340  0.86704  0.22253  1.0000
  H   H86       1.0  0.26815  0.83856  0.01739  1.0000
  Mg  Mg3       1.0  0.19288  0.91208  0.24788  1.0000
  C   C129      1.0  0.89256  0.44774  0.94726  1.0000
  C   C130      1.0  0.83007  0.39174  0.00273  1.0000
  C  Sn7       1.0  0.82659  0.36132  0.06597  1.0000
  C  Sn8       1.0  0.78857  0.33441  0.07362  1.0000
  C   C131      1.0  0.75498  0.33860  0.01769  1.0000
  C   C132      1.0  0.85504  0.42120  0.95469  1.0000
  H   H87       1.0  0.89551  0.47136  0.89842  1.0000
  O  Te7       1.0  0.86062  0.35780  0.12093  1.0000
  O  Te8       1.0  0.78423  0.30373  0.13619  1.0000
  H   H88       1.0  0.82890  0.42424  0.91164  1.0000
  Mg  Mg4       1.0  0.83945  0.31116  0.19599  1.0000
  C   C133      1.0  0.11395  0.61863  0.18521  1.0000
  C   C134      1.0  0.09821  0.63555  0.07057  1.0000
  C  Sn9       1.0  0.15298  0.66726  0.94282  1.0000
  C  Sn10      1.0  0.12687  0.62928  0.92995  1.0000
  C   C135      1.0  0.04668  0.56056  0.04534  1.0000
  C   C136      1.0  0.08821  0.58117  0.17265  1.0000
  H   H89       1.0  0.14608  0.63457  0.28378  1.0000
  O  Te9       1.0  0.13776  0.68460  0.82929  1.0000
  O  Te10      1.0  0.08531  0.60830  0.80353  1.0000
  H   H90       1.0  0.10038  0.56806  0.26147  1.0000
  Mg  Mg5       1.0  0.07898  0.64437  0.67879  1.0000
  C   C137      1.0  0.15206  0.76411  0.10925  1.0000
  C   C138      1.0  0.16373  0.73938  0.09519  1.0000
  C  Sn11      1.0  0.20187  0.75132  0.08668  1.0000
  C  Sn12      1.0  0.22876  0.78873  0.09243  1.0000
  C   C139      1.0  0.21681  0.81326  0.10663  1.0000
  C   C140      1.0  0.17857  0.80102  0.11499  1.0000
  H   H91       1.0  0.12248  0.75465  0.11582  1.0000
  O  Te11      1.0  0.21304  0.72624  0.07259  1.0000
  O  Te12      1.0  0.26706  0.80140  0.08422  1.0000
  H   H92       1.0  0.16955  0.82018  0.12599  1.0000
  Mg  Mg6       1.0  0.26841  0.75670  0.06558  1.0000
  C   C141      1.0  0.20676  0.27336  0.50352  1.0000
  C   C142      1.0  0.21450  0.30755  0.47823  1.0000
  C  Sn13      1.0  0.24491  0.32912  0.41659  1.0000
  C  Sn14      1.0  0.26794  0.31616  0.37964  1.0000
  C   C143      1.0  0.25994  0.28192  0.40525  1.0000
  C   C144      1.0  0.22945  0.26055  0.46704  1.0000
  H   H93       1.0  0.18315  0.25682  0.55123  1.0000
  O  Te13      1.0  0.25226  0.36322  0.39213  1.0000
  O  Te14      1.0  0.29850  0.33716  0.31783  1.0000
  H   H94       1.0  0.22344  0.23408  0.48649  1.0000
  Mg  Mg7       1.0  0.29713  0.38178  0.30555  1.0000
  C   C145      1.0  0.20421  0.37719  0.90210  1.0000
  C   C146      1.0  0.20122  0.34615  0.95626  1.0000
  C  Sn15      1.0  0.07562  0.27330  0.02426  1.0000
  C  Sn16      1.0  0.04878  0.28383  0.03809  1.0000
  C   C147      1.0  0.14823  0.36696  0.98342  1.0000
  C   C148      1.0  0.17774  0.38758  0.91562  1.0000
  H   H95       1.0  0.22703  0.39313  0.84955  1.0000
  O  Te15      1.0  0.07306  0.24238  0.07782  1.0000
  O  Te16      1.0  0.01914  0.26353  0.10551  1.0000
  H   H96       1.0  0.18003  0.41160  0.87359  1.0000
  Mg  Mg8       1.0  0.02764  0.22359  0.16108  1.0000
  C   C149      1.0  0.06184  0.40217  0.48416  1.0000
  C   C150      1.0  0.09372  0.41491  0.42465  1.0000
  C  Sn17      1.0  0.11049  0.44920  0.38537  1.0000
  C  Sn18      1.0  0.09500  0.47108  0.40623  1.0000
  C   C151      1.0  0.06312  0.45810  0.46597  1.0000
  C   C152      1.0  0.04655  0.42374  0.50484  1.0000
  H   H97       1.0  0.04903  0.37560  0.51434  1.0000
  O  Te17      1.0  0.14233  0.46150  0.32600  1.0000
  O  Te18      1.0  0.11121  0.50546  0.36799  1.0000
  H   H98       1.0  0.02188  0.41390  0.55103  1.0000
  Mg  Mg9       1.0  0.15431  0.51025  0.29098  1.0000
  C   C153      1.0  0.20976  0.37813  0.47435  1.0000
  C   C154      1.0  0.19947  0.34259  0.48336  1.0000
  C  Sn19      1.0  0.16064  0.31639  0.48027  1.0000
  C  Sn20      1.0  0.13164  0.32603  0.46789  1.0000
  C   C155      1.0  0.14222  0.36165  0.45882  1.0000
  C   C156      1.0  0.18116  0.38765  0.46206  1.0000
  H   H99       1.0  0.23988  0.39825  0.47676  1.0000
  O  Te19      1.0  0.15087  0.28102  0.48945  1.0000
  O  Te20      1.0  0.09261  0.30038  0.46448  1.0000
  H   H100      1.0  0.18911  0.41516  0.45497  1.0000
  Mg  Mg10      1.0  0.09376  0.25571  0.48033  1.0000
