data_image0
_chemical_formula_structural       H40C56N12C2Sn2C2HTe2HMgC2Sn2C2HTe2HMgC2Sn2C2HTe2HMgC2Sn2C2HTe2HMgC2Sn2C2HTe2HMgC2Sn2C2HTe2HMgC2Sn2C2HTe2HMgC2Sn2C2HTe2HMgC2Sn2C2HTe2HMgC2Sn2C2HTe2HMgC2Sn2C2HTe2HMgC2Sn2C2HTe2HMgC2Sn2C2HTe2HMgC2Sn2C2HTe2HMgC2Sn2C2HTe2HMgC2Sn2C2HTe2HMg
_chemical_formula_sum              "H72 C120 N12 Sn32 Te32 Mg16"
_cell_length_a       35.2242
_cell_length_b       36.8709
_cell_length_c       7.98844
_cell_angle_alpha    89.3992
_cell_angle_beta     93.8556
_cell_angle_gamma    116.473

_symmetry_space_group_name_H-M    'P1'
_space_group_IT_number       1

loop_
  _space_group_symop_operation_xyz
  'x, y, z'

loop_
  _atom_site_type_symbol
  _atom_site_label
  _atom_site_symmetry_multiplicity
  _atom_site_fract_x
  _atom_site_fract_y
  _atom_site_fract_z
  _atom_site_occupancy
  H   H1        1.0  0.48960  0.57942  0.17790  1.0000
  H   H2        1.0  0.50715  0.41341  0.20900  1.0000
  H   H3        1.0  0.53715  0.57321  0.35940  1.0000
  H   H4        1.0  0.46800  0.42439  0.41618  1.0000
  H   H5        1.0  0.41128  0.71573  0.17117  1.0000
  H   H6        1.0  0.59032  0.28147  0.18522  1.0000
  H   H7        1.0  0.41496  0.90543  0.22752  1.0000
  H   H8        1.0  0.59452  0.09363  0.20375  1.0000
  H   H9        1.0  0.28779  0.70880  0.03856  1.0000
  H   H10       1.0  0.71004  0.29069  0.04735  1.0000
  H   H11       1.0  0.10402  0.52564  0.32031  1.0000
  H   H12       1.0  0.88733  0.47222  0.33190  1.0000
  H   H13       1.0  0.30302  0.59972  0.09124  1.0000
  H   H14       1.0  0.69472  0.39861  0.12123  1.0000
  H   H15       1.0  0.39409  0.47265  0.39036  1.0000
  H   H16       1.0  0.60960  0.52456  0.34250  1.0000
  H   H17       1.0  0.35955  0.40820  0.53282  1.0000
  H   H18       1.0  0.65200  0.59543  0.42808  1.0000
  H   H19       1.0  0.41066  0.40566  0.56750  1.0000
  H   H20       1.0  0.60388  0.59968  0.48216  1.0000
  H   H21       1.0  0.49180  0.58338  0.68749  1.0000
  H   H22       1.0  0.51046  0.41622  0.71506  1.0000
  H   H23       1.0  0.53779  0.57538  0.85785  1.0000
  H   H24       1.0  0.46992  0.42676  0.92178  1.0000
  H   H25       1.0  0.41173  0.71786  0.67674  1.0000
  H   H26       1.0  0.59187  0.28384  0.68675  1.0000
  H   H27       1.0  0.41636  0.90647  0.72946  1.0000
  H   H28       1.0  0.59107  0.09443  0.68485  1.0000
  H   H29       1.0  0.28895  0.71103  0.53328  1.0000
  H   H30       1.0  0.71077  0.29196  0.54444  1.0000
  H   H31       1.0  0.10289  0.52392  0.81747  1.0000
  H   H32       1.0  0.88625  0.47583  0.85006  1.0000
  H   H33       1.0  0.30356  0.60177  0.59309  1.0000
  H   H34       1.0  0.69686  0.40054  0.62279  1.0000
  H   H35       1.0  0.39611  0.47623  0.89589  1.0000
  H   H36       1.0  0.61013  0.52744  0.83236  1.0000
  H   H37       1.0  0.35771  0.40760  0.99480  1.0000
  H   H38       1.0  0.65296  0.59795  0.92439  1.0000
  H   H39       1.0  0.40713  0.40173  0.02277  1.0000
  H   H40       1.0  0.60504  0.60141  0.98751  1.0000
  C   C1        1.0  0.46218  0.57009  0.25518  1.0000
  C   C2        1.0  0.53784  0.42446  0.28325  1.0000
  C   C3        1.0  0.47771  0.52017  0.37612  1.0000
  C   C4        1.0  0.52691  0.47724  0.38750  1.0000
  C   C5        1.0  0.45784  0.47778  0.40666  1.0000
  C   C6        1.0  0.54766  0.52037  0.38419  1.0000
  C   C7        1.0  0.52210  0.54049  0.37264  1.0000
  C   C8        1.0  0.48297  0.45717  0.40438  1.0000
  C   C9        1.0  0.36028  0.65538  0.13575  1.0000
  C   C10       1.0  0.63921  0.34238  0.15624  1.0000
  C   C11       1.0  0.37750  0.69780  0.13790  1.0000
  C   C12       1.0  0.62278  0.30003  0.15224  1.0000
  C   C13       1.0  0.42761  0.89223  0.13639  1.0000
  C   C14       1.0  0.57525  0.10677  0.13763  1.0000
  C   C15       1.0  0.35164  0.71745  0.10580  1.0000
  C   C16       1.0  0.64828  0.28116  0.11688  1.0000
  C   C17       1.0  0.30789  0.69384  0.06830  1.0000
  C   C18       1.0  0.69057  0.30523  0.08052  1.0000
  C   C19       1.0  0.11227  0.55147  0.40706  1.0000
  C   C20       1.0  0.88202  0.44655  0.41461  1.0000
  C   C21       1.0  0.29002  0.65136  0.05907  1.0000
  C   C22       1.0  0.70756  0.34767  0.07814  1.0000
  C   C23       1.0  0.31654  0.63262  0.09526  1.0000
  C   C24       1.0  0.68163  0.36573  0.11900  1.0000
  C   C25       1.0  0.41251  0.45688  0.43437  1.0000
  C   C26       1.0  0.59401  0.54227  0.38371  1.0000
  C   C27       1.0  0.39334  0.42166  0.51384  1.0000
  C   C28       1.0  0.61764  0.58113  0.43290  1.0000
  C   C29       1.0  0.46338  0.57283  0.75961  1.0000
  C   C30       1.0  0.54089  0.42756  0.79133  1.0000
  C   C31       1.0  0.47846  0.52221  0.87699  1.0000
  C   C32       1.0  0.52840  0.47974  0.89128  1.0000
  C   C33       1.0  0.45889  0.47975  0.90673  1.0000
  C   C34       1.0  0.54862  0.52283  0.88425  1.0000
  C   C35       1.0  0.52287  0.54272  0.87291  1.0000
  C   C36       1.0  0.48450  0.45949  0.90788  1.0000
  C   C37       1.0  0.36088  0.65732  0.63834  1.0000
  C   C38       1.0  0.64124  0.34462  0.66000  1.0000
  C   C39       1.0  0.37813  0.69973  0.64075  1.0000
  C   C40       1.0  0.62440  0.30228  0.65452  1.0000
  C   C41       1.0  0.42840  0.89392  0.63343  1.0000
  C   C42       1.0  0.57120  0.10853  0.63322  1.0000
  C   C43       1.0  0.35247  0.71941  0.60607  1.0000
  C   C44       1.0  0.64940  0.28301  0.61725  1.0000
  C   C45       1.0  0.30880  0.69598  0.56623  1.0000
  C   C46       1.0  0.69173  0.30671  0.58065  1.0000
  C   C47       1.0  0.11135  0.54984  0.90393  1.0000
  C   C48       1.0  0.88069  0.44891  0.92506  1.0000
  C   C49       1.0  0.29078  0.65346  0.55932  1.0000
  C   C50       1.0  0.70914  0.34921  0.57962  1.0000
  C   C51       1.0  0.31718  0.63467  0.59732  1.0000
  C   C52       1.0  0.68360  0.36765  0.62125  1.0000
  C   C53       1.0  0.41325  0.45851  0.92778  1.0000
  C   C54       1.0  0.59487  0.54486  0.87968  1.0000
  C   C55       1.0  0.39186  0.42072  0.98411  1.0000
  C   C56       1.0  0.61868  0.58341  0.93229  1.0000
  N   N1        1.0  0.45214  0.54025  0.35721  1.0000
  N   N2        1.0  0.55183  0.45670  0.37747  1.0000
  N   N3        1.0  0.45888  0.91415  0.04725  1.0000
  N   N4        1.0  0.53732  0.08453  0.07281  1.0000
  N   N5        1.0  0.08375  0.55666  0.48300  1.0000
  N   N6        1.0  0.91315  0.44044  0.48047  1.0000
  N   N7        1.0  0.45264  0.54205  0.85697  1.0000
  N   N8        1.0  0.55403  0.45975  0.88524  1.0000
  N   N9        1.0  0.45798  0.91666  0.53872  1.0000
  N   N10       1.0  0.53189  0.08698  0.58228  1.0000
  N   N11       1.0  0.08307  0.55525  0.98070  1.0000
  N   N12       1.0  0.91165  0.44186  0.98572  1.0000
  C   C57       1.0  0.45073  0.63661  0.11815  1.0000
  C   C58       1.0  0.44281  0.60268  0.21612  1.0000
  C  Sn1       1.0  0.40445  0.58308  0.29257  1.0000
  C  Sn2       1.0  0.37351  0.59780  0.27027  1.0000
  C   C59       1.0  0.38172  0.63174  0.17193  1.0000
  C   C60       1.0  0.42022  0.65113  0.09604  1.0000
  H   H41       1.0  0.48051  0.65159  0.05935  1.0000
  O  Te1       1.0  0.39706  0.54923  0.39009  1.0000
  O  Te2       1.0  0.33489  0.57878  0.34520  1.0000
  H   H42       1.0  0.42633  0.67738  0.02011  1.0000
  Mg  Mg1       1.0  0.33960  0.53370  0.46656  1.0000
  C   C61       1.0  0.54716  0.35916  0.13473  1.0000
  C   C62       1.0  0.55648  0.39190  0.24372  1.0000
  C  Sn3       1.0  0.59636  0.41118  0.33094  1.0000
  C  Sn4       1.0  0.62741  0.39738  0.30832  1.0000
  C   C63       1.0  0.61779  0.36463  0.19891  1.0000
  C   C64       1.0  0.57778  0.34554  0.11230  1.0000
  H   H43       1.0  0.51622  0.34441  0.06764  1.0000
  O  Te3       1.0  0.60514  0.44384  0.43939  1.0000
  O  Te4       1.0  0.66752  0.41611  0.39388  1.0000
  H   H44       1.0  0.57058  0.32021  0.02784  1.0000
  Mg  Mg2       1.0  0.66436  0.45943  0.52791  1.0000
  C   C65       1.0  0.41775  0.79550  0.02532  1.0000
  C   C66       1.0  0.38201  0.76746  0.10143  1.0000
  C  Sn5       1.0  0.35704  0.78056  0.18796  1.0000
  C  Sn6       1.0  0.36814  0.82253  0.19823  1.0000
  C   C67       1.0  0.40394  0.85034  0.12156  1.0000
  C   C68       1.0  0.42871  0.83690  0.03533  1.0000
  H   H45       1.0  0.45461  0.79037  0.95853  1.0000
  O  Te5       1.0  0.32145  0.75214  0.26333  1.0000
  O  Te6       1.0  0.34374  0.83645  0.28387  1.0000
  H   H46       1.0  0.47408  0.86388  0.97633  1.0000
  Mg  Mg3       1.0  0.29819  0.78599  0.36596  1.0000
  C   C69       1.0  0.57142  0.17938  0.02830  1.0000
  C   C70       1.0  0.58899  0.15508  0.10041  1.0000
  C  Sn7       1.0  0.62832  0.17273  0.19239  1.0000
  C  Sn8       1.0  0.65039  0.21551  0.21236  1.0000
  C   C71       1.0  0.63253  0.23956  0.13983  1.0000
  C   C72       1.0  0.59316  0.22158  0.04799  1.0000
  H   H47       1.0  0.55866  0.17074  0.95732  1.0000
  O  Te7       1.0  0.64542  0.14801  0.26355  1.0000
  O  Te8       1.0  0.68974  0.23395  0.30372  1.0000
  H   H48       1.0  0.59726  0.24567  0.99227  1.0000
  Mg  Mg4       1.0  0.69996  0.18738  0.37678  1.0000
  C   C73       1.0  0.46581  0.01168  0.10425  1.0000
  C   C74       1.0  0.50847  0.03746  0.08181  1.0000
  C  Sn9       1.0  0.53585  0.02155  0.03785  1.0000
  C  Sn10      1.0  0.98676  0.97904  0.01598  1.0000
  C   C75       1.0  0.94402  0.95351  0.03861  1.0000
  C   C76       1.0  0.91690  0.96975  0.08265  1.0000
  H   H49       1.0  0.44482  0.02424  0.13823  1.0000
  O  Te9       1.0  0.57839  0.04773  0.01598  1.0000
  O  Te10      1.0  0.03114  0.96760  0.97199  1.0000
  H   H50       1.0  0.88387  0.94978  0.09990  1.0000
  Mg  Mg5       1.0  0.62000  0.01573  0.95626  1.0000
  C   C77       1.0  0.17986  0.62466  0.55086  1.0000
  C   C78       1.0  0.16011  0.58966  0.44931  1.0000
  C  Sn11      1.0  0.18431  0.57291  0.38018  1.0000
  C  Sn12      1.0  0.22910  0.59161  0.41361  1.0000
  C   C79       1.0  0.24855  0.62660  0.51547  1.0000
  C   C80       1.0  0.22403  0.64311  0.58395  1.0000
  H   H51       1.0  0.16090  0.63742  0.60393  1.0000
  O  Te11      1.0  0.16406  0.53794  0.27894  1.0000
  O  Te12      1.0  0.25404  0.57551  0.34618  1.0000
  H   H52       1.0  0.23933  0.67019  0.66267  1.0000
  Mg  Mg6       1.0  0.21175  0.52744  0.21581  1.0000
  C   C81       1.0  0.79646  0.36324  0.58360  1.0000
  C   C82       1.0  0.76112  0.37080  0.55339  1.0000
  C  Sn13      1.0  0.76428  0.40401  0.45889  1.0000
  C  Sn14      1.0  0.80359  0.43008  0.39357  1.0000
  C   C83       1.0  0.83875  0.42223  0.42440  1.0000
  C   C84       1.0  0.83524  0.38892  0.51916  1.0000
  H   H53       1.0  0.79374  0.33745  0.65684  1.0000
  O  Te13      1.0  0.72867  0.41114  0.42994  1.0000
  O  Te14      1.0  0.80763  0.46348  0.29867  1.0000
  H   H54       1.0  0.86259  0.38306  0.54244  1.0000
  Mg  Mg7       1.0  0.75005  0.46055  0.29332  1.0000
  C   C85       1.0  0.20243  0.63589  0.06934  1.0000
  C   C86       1.0  0.23720  0.62964  0.03065  1.0000
  C  Sn15      1.0  0.24894  0.60200  0.92850  1.0000
  C  Sn16      1.0  0.20735  0.57492  0.86405  1.0000
  C   C87       1.0  0.17278  0.58146  0.90340  1.0000
  C   C88       1.0  0.16141  0.60921  0.00578  1.0000
  H   H55       1.0  0.20733  0.66145  0.14848  1.0000
  O  Te15      1.0  0.28402  0.59619  0.89113  1.0000
  O  Te16      1.0  0.20048  0.54180  0.76162  1.0000
  H   H56       1.0  0.13448  0.61406  0.03563  1.0000
  Mg  Mg8       1.0  0.25843  0.54666  0.74624  1.0000
  C   C89       1.0  0.77008  0.41793  0.92318  1.0000
  C   C90       1.0  0.73549  0.37549  0.00382  1.0000
  C  Sn17      1.0  0.76223  0.35925  0.06958  1.0000
  C  Sn18      1.0  0.80670  0.38069  0.05416  1.0000
  C   C91       1.0  0.84099  0.42313  0.97337  1.0000
  C   C92       1.0  0.81394  0.43910  0.90798  1.0000
  H   H57       1.0  0.74916  0.43030  0.87266  1.0000
  O  Te17      1.0  0.74483  0.32207  0.14971  1.0000
  O  Te18      1.0  0.83416  0.36516  0.11880  1.0000
  H   H58       1.0  0.82703  0.46789  0.84565  1.0000
  Mg  Mg9       1.0  0.79526  0.31339  0.21722  1.0000
  C   C93       1.0  0.97512  0.52241  0.48424  1.0000
  C   C94       1.0  0.95685  0.48036  0.46101  1.0000
  C  Sn19      1.0  0.98261  0.46074  0.45004  1.0000
  C  Sn20      1.0  0.02749  0.48372  0.46264  1.0000
  C   C95       1.0  0.04546  0.52578  0.48599  1.0000
  C   C96       1.0  0.01938  0.54511  0.49675  1.0000
  H   H59       1.0  0.95495  0.53737  0.49266  1.0000
  O  Te19      1.0  0.96383  0.41871  0.42676  1.0000
  O  Te20      1.0  0.05398  0.46488  0.45216  1.0000
  H   H60       1.0  0.03354  0.57766  0.51484  1.0000
  Mg  Mg10      1.0  0.01333  0.40689  0.42006  1.0000
  C   C97       1.0  0.43960  0.65212  0.61769  1.0000
  C   C98       1.0  0.39774  0.64066  0.65667  1.0000
  C  Sn21      1.0  0.37608  0.60562  0.74738  1.0000
  C  Sn22      1.0  0.39679  0.58168  0.79990  1.0000
  C   C99       1.0  0.43868  0.59342  0.76038  1.0000
  C   C100      1.0  0.46006  0.62853  0.66951  1.0000
  H   H61       1.0  0.45614  0.67929  0.54746  1.0000
  O  Te21      1.0  0.33426  0.59460  0.78520  1.0000
  O  Te22      1.0  0.37589  0.54652  0.89077  1.0000
  H   H62       1.0  0.49247  0.63740  0.63944  1.0000
  Mg  Mg11      1.0  0.31911  0.54408  0.91174  1.0000
  C   C101      1.0  0.61784  0.41850  0.85233  1.0000
  C   C102      1.0  0.57726  0.41096  0.78529  1.0000
  C  Sn23      1.0  0.55390  0.37742  0.67871  1.0000
  C  Sn24      1.0  0.57157  0.35099  0.63878  1.0000
  C   C103      1.0  0.61217  0.35878  0.70659  1.0000
  C   C104      1.0  0.63528  0.39244  0.81307  1.0000
  H   H63       1.0  0.63571  0.44453  0.93479  1.0000
  O  Te23      1.0  0.51341  0.37034  0.61278  1.0000
  O  Te24      1.0  0.54890  0.31724  0.53265  1.0000
  H   H64       1.0  0.66668  0.39825  0.86504  1.0000
  Mg  Mg12      1.0  0.49495  0.32038  0.47400  1.0000
  C   C105      1.0  0.36138  0.81695  0.70371  1.0000
  C   C106      1.0  0.40071  0.84480  0.65088  1.0000
  C  Sn25      1.0  0.42576  0.83142  0.56644  1.0000
  C  Sn26      1.0  0.41107  0.78936  0.53443  1.0000
  C   C107      1.0  0.37166  0.76174  0.58769  1.0000
  C   C108      1.0  0.34686  0.77546  0.67213  1.0000
  H   H65       1.0  0.34218  0.82756  0.76896  1.0000
  O  Te25      1.0  0.46498  0.85965  0.51458  1.0000
  O  Te26      1.0  0.43545  0.77515  0.45023  1.0000
  H   H66       1.0  0.31640  0.75389  0.71292  1.0000
  Mg  Mg13      1.0  0.48669  0.82544  0.40443  1.0000
  C   C109      1.0  0.58026  0.20533  0.52752  1.0000
  C   C110      1.0  0.61890  0.23330  0.60554  1.0000
  C  Sn27      1.0  0.64566  0.21995  0.69457  1.0000
  C  Sn28      1.0  0.63341  0.17780  0.70543  1.0000
  C   C111      1.0  0.59469  0.15006  0.62683  1.0000
  C   C112      1.0  0.56816  0.16375  0.53811  1.0000
  H   H67       1.0  0.55973  0.21591  0.45880  1.0000
  O  Te27      1.0  0.68415  0.24830  0.77183  1.0000
  O  Te28      1.0  0.65955  0.16363  0.79355  1.0000
  H   H68       1.0  0.53825  0.14209  0.47762  1.0000
  Mg  Mg14      1.0  0.70891  0.21410  0.87756  1.0000
  C   C113      1.0  0.45466  0.98952  0.63991  1.0000
  C   C114      1.0  0.46798  0.96361  0.56378  1.0000
  C  Sn29      1.0  0.50743  0.97927  0.49454  1.0000
  C  Sn30      1.0  0.06736  0.02167  0.50188  1.0000
  C   C115      1.0  0.05376  0.04733  0.57843  1.0000
  C   C116      1.0  0.01421  0.03134  0.64727  1.0000
  H   H69       1.0  0.42407  0.97715  0.69327  1.0000
  O  Te29      1.0  0.52024  0.95295  0.41888  1.0000
  O  Te30      1.0  0.10695  0.03813  0.43373  1.0000
  H   H70       1.0  0.00392  0.05141  0.70631  1.0000
  Mg  Mg15      1.0  0.57695  0.98989  0.34380  1.0000
  C   C117      1.0  0.99587  0.45854  0.95432  1.0000
  C   C118      1.0  0.96140  0.46620  0.98328  1.0000
  C  Sn31      1.0  0.96707  0.50602  0.99991  1.0000
  C  Sn32      1.0  0.00805  0.53871  0.98720  1.0000
  C   C119      1.0  0.04234  0.53073  0.95810  1.0000
  C   C120      1.0  0.03631  0.49077  0.94171  1.0000
  H   H71       1.0  0.99121  0.42762  0.94155  1.0000
  O  Te31      1.0  0.91457  0.50786  0.02887  1.0000
  O  Te32      1.0  0.99691  0.57353  0.00327  1.0000
  H   H72       1.0  0.06300  0.48485  0.91918  1.0000
  Mg  Mg16      1.0  0.93956  0.56776  0.04193  1.0000
