data_image0
_chemical_formula_structural       H72C104N12C2Sn2C2HTe2HMgC2Sn2C2HTe2HMgC2Sn2C2HTe2HMgC2Sn2C2HTe2HMgC2Sn2C2HTe2HMgC2Sn2C2HTe2HMgC2Sn2C2HTe2HMgC2Sn2C2HTe2HMg
_chemical_formula_sum              "H88 C136 N12 Sn16 Te16 Mg8"
_cell_length_a       35.2242
_cell_length_b       36.8709
_cell_length_c       7.98844
_cell_angle_alpha    89.3992
_cell_angle_beta     93.8556
_cell_angle_gamma    116.473

_symmetry_space_group_name_H-M    'P1'
_space_group_IT_number       1

loop_
  _space_group_symop_operation_xyz
  'x, y, z'

loop_
  _atom_site_type_symbol
  _atom_site_label
  _atom_site_symmetry_multiplicity
  _atom_site_fract_x
  _atom_site_fract_y
  _atom_site_fract_z
  _atom_site_occupancy
  H   H1        1.0  0.55737  0.32059  0.04501  1.0000
  H   H2        1.0  0.51402  0.35619  0.09878  1.0000
  H   H3        1.0  0.61633  0.44252  0.42143  1.0000
  H   H4        1.0  0.66072  0.40756  0.36213  1.0000
  H   H5        1.0  0.48960  0.57942  0.17790  1.0000
  H   H6        1.0  0.50715  0.41341  0.20900  1.0000
  H   H7        1.0  0.53715  0.57321  0.35940  1.0000
  H   H8        1.0  0.46800  0.42439  0.41618  1.0000
  H   H9        1.0  0.41128  0.71573  0.17117  1.0000
  H   H10       1.0  0.59032  0.28147  0.18522  1.0000
  H   H11       1.0  0.68212  0.23578  0.27554  1.0000
  H   H12       1.0  0.65066  0.16090  0.28687  1.0000
  H   H13       1.0  0.54247  0.15127  0.97353  1.0000
  H   H14       1.0  0.57407  0.22658  0.96257  1.0000
  H   H15       1.0  0.41496  0.90543  0.22752  1.0000
  H   H16       1.0  0.59452  0.09363  0.20375  1.0000
  H   H17       1.0  0.28779  0.70880  0.03856  1.0000
  H   H18       1.0  0.71004  0.29069  0.04735  1.0000
  H   H19       1.0  0.25431  0.58370  0.37194  1.0000
  H   H20       1.0  0.73991  0.41800  0.39755  1.0000
  H   H21       1.0  0.17751  0.54054  0.30361  1.0000
  H   H22       1.0  0.81411  0.45869  0.32148  1.0000
  H   H23       1.0  0.14678  0.62030  0.08104  1.0000
  H   H24       1.0  0.22376  0.66368  0.15092  1.0000
  H   H25       1.0  0.10402  0.52564  0.32031  1.0000
  H   H26       1.0  0.88733  0.47222  0.33190  1.0000
  H   H27       1.0  0.30302  0.59972  0.09124  1.0000
  H   H28       1.0  0.69472  0.39861  0.12123  1.0000
  H   H29       1.0  0.39409  0.47265  0.39036  1.0000
  H   H30       1.0  0.60960  0.52456  0.34250  1.0000
  H   H31       1.0  0.35955  0.40820  0.53282  1.0000
  H   H32       1.0  0.65200  0.59543  0.42808  1.0000
  H   H33       1.0  0.41066  0.40566  0.56750  1.0000
  H   H34       1.0  0.60388  0.59968  0.48216  1.0000
  H   H35       1.0  0.44088  0.67957  0.54679  1.0000
  H   H36       1.0  0.48469  0.64301  0.59693  1.0000
  H   H37       1.0  0.38583  0.55216  0.86664  1.0000
  H   H38       1.0  0.34125  0.58844  0.81420  1.0000
  H   H39       1.0  0.49180  0.58338  0.68749  1.0000
  H   H40       1.0  0.51046  0.41622  0.71506  1.0000
  H   H41       1.0  0.53779  0.57538  0.85785  1.0000
  H   H42       1.0  0.46992  0.42676  0.92178  1.0000
  H   H43       1.0  0.41173  0.71786  0.67674  1.0000
  H   H44       1.0  0.59187  0.28384  0.68675  1.0000
  H   H45       1.0  0.32274  0.76724  0.75003  1.0000
  H   H46       1.0  0.35602  0.84224  0.76261  1.0000
  H   H47       1.0  0.45809  0.84714  0.48222  1.0000
  H   H48       1.0  0.42586  0.77173  0.47659  1.0000
  H   H49       1.0  0.41636  0.90647  0.72946  1.0000
  H   H50       1.0  0.59107  0.09443  0.68485  1.0000
  H   H51       1.0  0.28895  0.71103  0.53328  1.0000
  H   H52       1.0  0.71077  0.29196  0.54444  1.0000
  H   H53       1.0  0.25375  0.58405  0.85700  1.0000
  H   H54       1.0  0.17701  0.54104  0.78710  1.0000
  H   H55       1.0  0.14761  0.62385  0.57117  1.0000
  H   H56       1.0  0.85227  0.37724  0.58797  1.0000
  H   H57       1.0  0.22476  0.66767  0.63849  1.0000
  H   H58       1.0  0.77765  0.33572  0.66167  1.0000
  H   H59       1.0  0.10289  0.52392  0.81747  1.0000
  H   H60       1.0  0.88625  0.47583  0.85006  1.0000
  H   H61       1.0  0.02001  0.57229  0.00520  1.0000
  H   H62       1.0  0.97449  0.42427  0.95794  1.0000
  H   H63       1.0  0.05121  0.47297  0.95094  1.0000
  H   H64       1.0  0.94325  0.52362  0.00624  1.0000
  H   H65       1.0  0.30356  0.60177  0.59309  1.0000
  H   H66       1.0  0.69686  0.40054  0.62279  1.0000
  H   H67       1.0  0.39611  0.47623  0.89589  1.0000
  H   H68       1.0  0.61013  0.52744  0.83236  1.0000
  H   H69       1.0  0.35771  0.40760  0.99480  1.0000
  H   H70       1.0  0.65296  0.59795  0.92439  1.0000
  H   H71       1.0  0.40713  0.40173  0.02277  1.0000
  H   H72       1.0  0.60504  0.60141  0.98751  1.0000
  C   C1        1.0  0.61239  0.36196  0.19782  1.0000
  C   C2        1.0  0.57021  0.34692  0.12946  1.0000
  C   C3        1.0  0.54589  0.36706  0.15955  1.0000
  C   C4        1.0  0.56264  0.40225  0.26185  1.0000
  C   C5        1.0  0.60421  0.41626  0.33681  1.0000
  C   C6        1.0  0.62875  0.39677  0.30289  1.0000
  C   C7        1.0  0.46218  0.57009  0.25518  1.0000
  C   C8        1.0  0.53784  0.42446  0.28325  1.0000
  C   C9        1.0  0.47771  0.52017  0.37612  1.0000
  C   C10       1.0  0.52691  0.47724  0.38750  1.0000
  C   C11       1.0  0.45784  0.47778  0.40666  1.0000
  C   C12       1.0  0.54766  0.52037  0.38419  1.0000
  C   C13       1.0  0.52210  0.54049  0.37264  1.0000
  C   C14       1.0  0.48297  0.45717  0.40438  1.0000
  C   C15       1.0  0.36028  0.65538  0.13575  1.0000
  C   C16       1.0  0.63921  0.34238  0.15624  1.0000
  C   C17       1.0  0.37750  0.69780  0.13790  1.0000
  C   C18       1.0  0.62278  0.30003  0.15224  1.0000
  C   C19       1.0  0.63030  0.23650  0.11931  1.0000
  C   C20       1.0  0.65185  0.21729  0.20712  1.0000
  C   C21       1.0  0.63401  0.17514  0.21360  1.0000
  C   C22       1.0  0.59419  0.15095  0.13051  1.0000
  C   C23       1.0  0.57285  0.17020  0.04033  1.0000
  C   C24       1.0  0.59052  0.21214  0.03553  1.0000
  C   C25       1.0  0.42761  0.89223  0.13639  1.0000
  C   C26       1.0  0.57525  0.10677  0.13763  1.0000
  C   C27       1.0  0.35164  0.71745  0.10580  1.0000
  C   C28       1.0  0.64828  0.28116  0.11688  1.0000
  C   C29       1.0  0.30789  0.69384  0.06830  1.0000
  C   C30       1.0  0.69057  0.30523  0.08052  1.0000
  C   C31       1.0  0.24440  0.62673  0.01059  1.0000
  C   C32       1.0  0.23107  0.59235  0.41811  1.0000
  C   C33       1.0  0.76441  0.40905  0.44039  1.0000
  C   C34       1.0  0.18789  0.56816  0.37906  1.0000
  C   C35       1.0  0.80606  0.43188  0.39741  1.0000
  C   C36       1.0  0.15736  0.57905  0.43581  1.0000
  C   C37       1.0  0.83811  0.42059  0.45042  1.0000
  C   C38       1.0  0.17056  0.61301  0.03093  1.0000
  C   C39       1.0  0.21360  0.63724  0.06850  1.0000
  C   C40       1.0  0.11227  0.55147  0.40706  1.0000
  C   C41       1.0  0.88202  0.44655  0.41461  1.0000
  C   C42       1.0  0.29002  0.65136  0.05907  1.0000
  C   C43       1.0  0.70756  0.34767  0.07814  1.0000
  C   C44       1.0  0.31654  0.63262  0.09526  1.0000
  C   C45       1.0  0.68163  0.36573  0.11900  1.0000
  C   C46       1.0  0.41251  0.45688  0.43437  1.0000
  C   C47       1.0  0.59401  0.54227  0.38371  1.0000
  C   C48       1.0  0.39334  0.42166  0.51384  1.0000
  C   C49       1.0  0.61764  0.58113  0.43290  1.0000
  C   C50       1.0  0.38785  0.63666  0.67639  1.0000
  C   C51       1.0  0.42900  0.65210  0.61975  1.0000
  C   C52       1.0  0.45350  0.63132  0.64703  1.0000
  C   C53       1.0  0.43796  0.59487  0.73510  1.0000
  C   C54       1.0  0.39720  0.57990  0.79557  1.0000
  C   C55       1.0  0.37253  0.60022  0.76521  1.0000
  C   C56       1.0  0.46338  0.57283  0.75961  1.0000
  C   C57       1.0  0.54089  0.42756  0.79133  1.0000
  C   C58       1.0  0.47846  0.52221  0.87699  1.0000
  C   C59       1.0  0.52840  0.47974  0.89128  1.0000
  C   C60       1.0  0.45889  0.47975  0.90673  1.0000
  C   C61       1.0  0.54862  0.52283  0.88425  1.0000
  C   C62       1.0  0.52287  0.54272  0.87291  1.0000
  C   C63       1.0  0.48450  0.45949  0.90788  1.0000
  C   C64       1.0  0.36088  0.65732  0.63834  1.0000
  C   C65       1.0  0.64124  0.34462  0.66000  1.0000
  C   C66       1.0  0.37813  0.69973  0.64075  1.0000
  C   C67       1.0  0.62440  0.30228  0.65452  1.0000
  C   C68       1.0  0.37162  0.76412  0.61065  1.0000
  C   C69       1.0  0.35194  0.78460  0.68851  1.0000
  C   C70       1.0  0.37088  0.82677  0.69681  1.0000
  C   C71       1.0  0.40934  0.84977  0.62259  1.0000
  C   C72       1.0  0.42878  0.82929  0.54225  1.0000
  C   C73       1.0  0.41054  0.78724  0.53909  1.0000
  C   C74       1.0  0.42840  0.89392  0.63343  1.0000
  C   C75       1.0  0.57120  0.10853  0.63322  1.0000
  C   C76       1.0  0.35247  0.71941  0.60607  1.0000
  C   C77       1.0  0.64940  0.28301  0.61725  1.0000
  C   C78       1.0  0.30880  0.69598  0.56623  1.0000
  C   C79       1.0  0.69173  0.30671  0.58065  1.0000
  C   C80       1.0  0.24518  0.62863  0.51177  1.0000
  C   C81       1.0  0.75321  0.37371  0.53395  1.0000
  C   C82       1.0  0.23039  0.59174  0.90855  1.0000
  C   C83       1.0  0.18720  0.56765  0.86870  1.0000
  C   C84       1.0  0.15652  0.57739  0.93232  1.0000
  C   C85       1.0  0.17141  0.61580  0.52643  1.0000
  C   C86       1.0  0.82713  0.38533  0.54480  1.0000
  C   C87       1.0  0.21449  0.64017  0.56261  1.0000
  C   C88       1.0  0.78543  0.36226  0.58458  1.0000
  C   C89       1.0  0.11135  0.54984  0.90393  1.0000
  C   C90       1.0  0.88069  0.44891  0.92506  1.0000
  C   C91       1.0  0.04059  0.52626  0.97007  1.0000
  C   C92       1.0  0.95367  0.47064  0.97395  1.0000
  C   C93       1.0  0.00952  0.53992  0.98856  1.0000
  C   C94       1.0  0.98484  0.45682  0.96212  1.0000
  C   C95       1.0  0.02743  0.48409  0.95733  1.0000
  C   C96       1.0  0.96680  0.51275  0.98790  1.0000
  C   C97       1.0  0.29078  0.65346  0.55932  1.0000
  C   C98       1.0  0.70914  0.34921  0.57962  1.0000
  C   C99       1.0  0.31718  0.63467  0.59732  1.0000
  C   C100      1.0  0.68360  0.36765  0.62125  1.0000
  C   C101      1.0  0.41325  0.45851  0.92778  1.0000
  C   C102      1.0  0.59487  0.54486  0.87968  1.0000
  C   C103      1.0  0.39186  0.42072  0.98411  1.0000
  C   C104      1.0  0.61868  0.58341  0.93229  1.0000
  N   N1        1.0  0.45214  0.54025  0.35721  1.0000
  N   N2        1.0  0.55183  0.45670  0.37747  1.0000
  N   N3        1.0  0.45888  0.91415  0.04725  1.0000
  N   N4        1.0  0.53732  0.08453  0.07281  1.0000
  N   N5        1.0  0.08375  0.55666  0.48300  1.0000
  N   N6        1.0  0.91315  0.44044  0.48047  1.0000
  N   N7        1.0  0.45264  0.54205  0.85697  1.0000
  N   N8        1.0  0.55403  0.45975  0.88524  1.0000
  N   N9        1.0  0.45798  0.91666  0.53872  1.0000
  N   N10       1.0  0.53189  0.08698  0.58228  1.0000
  N   N11       1.0  0.08307  0.55525  0.98070  1.0000
  N   N12       1.0  0.91165  0.44186  0.98572  1.0000
  C   C105      1.0  0.35031  0.79194  0.20391  1.0000
  C   C106      1.0  0.36284  0.76669  0.11801  1.0000
  C  Sn1       1.0  0.40068  0.78316  0.03691  1.0000
  C  Sn2       1.0  0.42641  0.82571  0.04216  1.0000
  C   C107      1.0  0.41361  0.85072  0.12854  1.0000
  C   C108      1.0  0.37567  0.83392  0.20921  1.0000
  H   H73       1.0  0.32097  0.77895  0.26642  1.0000
  O  Te1       1.0  0.43043  0.76277  0.95160  1.0000
  O  Te2       1.0  0.48211  0.84825  0.96224  1.0000
  H   H74       1.0  0.36600  0.85347  0.27580  1.0000
  Mg  Mg1       1.0  0.48494  0.80069  0.86214  1.0000
  C   C109      1.0  0.45466  0.98952  0.63991  1.0000
  C   C110      1.0  0.46798  0.96361  0.56378  1.0000
  C  Sn3       1.0  0.50743  0.97927  0.49454  1.0000
  C  Sn4       1.0  0.06736  0.02167  0.50188  1.0000
  C   C111      1.0  0.05376  0.04733  0.57843  1.0000
  C   C112      1.0  0.01421  0.03134  0.64727  1.0000
  H   H75       1.0  0.42407  0.97715  0.69327  1.0000
  O  Te3       1.0  0.52024  0.95295  0.41888  1.0000
  O  Te4       1.0  0.10695  0.03813  0.43373  1.0000
  H   H76       1.0  0.00392  0.05141  0.70631  1.0000
  Mg  Mg2       1.0  0.57695  0.98989  0.34380  1.0000
  C   C113      1.0  0.63154  0.40880  0.82576  1.0000
  C   C114      1.0  0.61939  0.37241  0.73709  1.0000
  C  Sn5       1.0  0.57890  0.35273  0.65507  1.0000
  C  Sn6       1.0  0.55010  0.36990  0.66214  1.0000
  C   C115      1.0  0.56257  0.40634  0.75109  1.0000
  C   C116      1.0  0.60317  0.42576  0.83275  1.0000
  H   H77       1.0  0.66296  0.42384  0.88888  1.0000
  O  Te5       1.0  0.56727  0.31639  0.56709  1.0000
  O  Te6       1.0  0.50944  0.35088  0.58126  1.0000
  H   H78       1.0  0.61258  0.45395  0.90130  1.0000
  Mg  Mg3       1.0  0.50837  0.30188  0.47738  1.0000
  C   C117      1.0  0.99802  0.53777  0.47805  1.0000
  C   C118      1.0  0.03409  0.53099  0.48515  1.0000
  C  Sn7       1.0  0.02986  0.49153  0.47660  1.0000
  C  Sn8       1.0  0.98872  0.45829  0.46061  1.0000
  C   C119      1.0  0.95283  0.46539  0.45350  1.0000
  C   C120      1.0  0.95743  0.50501  0.46221  1.0000
  H   H79       1.0  0.00157  0.56842  0.48470  1.0000
  O  Te7       1.0  0.06623  0.48530  0.48394  1.0000
  O  Te8       1.0  0.98358  0.41854  0.45174  1.0000
  H   H80       1.0  0.92949  0.51025  0.45660  1.0000
  Mg  Mg4       1.0  0.04281  0.42554  0.46700  1.0000
  C   C121      1.0  0.52957  0.98720  0.01003  1.0000
  C   C122      1.0  0.48821  0.96133  0.05024  1.0000
  C  Sn9       1.0  0.46095  0.97723  0.09582  1.0000
  C  Sn10      1.0  0.00882  0.01983  0.10108  1.0000
  C   C123      1.0  0.05024  0.04546  0.06052  1.0000
  C   C124      1.0  0.07727  0.02922  0.01513  1.0000
  H   H81       1.0  0.56818  0.97992  0.97482  1.0000
  O  Te9       1.0  0.41973  0.95095  0.13567  1.0000
  O  Te10      1.0  0.98223  0.03653  0.14616  1.0000
  H   H82       1.0  0.12699  0.05453  0.98390  1.0000
  Mg  Mg5       1.0  0.39541  0.98825  0.18965  1.0000
  C   C125      1.0  0.79245  0.42984  0.89435  1.0000
  C   C126      1.0  0.82936  0.42636  0.94613  1.0000
  C  Sn11      1.0  0.80915  0.38811  0.04074  1.0000
  C  Sn12      1.0  0.76891  0.35810  0.08408  1.0000
  C   C127      1.0  0.73217  0.36184  0.03157  1.0000
  C   C128      1.0  0.75274  0.40024  0.93699  1.0000
  H   H83       1.0  0.79466  0.45547  0.82109  1.0000
  O  Te11      1.0  0.84634  0.38512  0.09149  1.0000
  O  Te12      1.0  0.76550  0.32482  0.17847  1.0000
  H   H84       1.0  0.72416  0.40291  0.89683  1.0000
  Mg  Mg6       1.0  0.82529  0.33417  0.21825  1.0000
  C   C129      1.0  0.45073  0.63661  0.11815  1.0000
  C   C130      1.0  0.44281  0.60268  0.21612  1.0000
  C  Sn13      1.0  0.40445  0.58308  0.29257  1.0000
  C  Sn14      1.0  0.37351  0.59780  0.27027  1.0000
  C   C131      1.0  0.38172  0.63174  0.17193  1.0000
  C   C132      1.0  0.42022  0.65113  0.09604  1.0000
  H   H85       1.0  0.48051  0.65159  0.05935  1.0000
  O  Te13      1.0  0.39706  0.54923  0.39009  1.0000
  O  Te14      1.0  0.33489  0.57878  0.34520  1.0000
  H   H86       1.0  0.42633  0.67738  0.02011  1.0000
  Mg  Mg7       1.0  0.33960  0.53370  0.46656  1.0000
  C   C133      1.0  0.64234  0.18545  0.71056  1.0000
  C   C134      1.0  0.60123  0.15771  0.65324  1.0000
  C  Sn15      1.0  0.57421  0.17108  0.56653  1.0000
  C  Sn16      1.0  0.58870  0.21303  0.53681  1.0000
  C   C135      1.0  0.62989  0.24053  0.59457  1.0000
  C   C136      1.0  0.65667  0.22682  0.68125  1.0000
  H   H87       1.0  0.66307  0.17485  0.77755  1.0000
  O  Te15      1.0  0.53322  0.14296  0.51017  1.0000
  O  Te16      1.0  0.56235  0.22721  0.45043  1.0000
  H   H88       1.0  0.68850  0.24831  0.72552  1.0000
  Mg  Mg8       1.0  0.50918  0.17710  0.39849  1.0000
