data_image0
_chemical_formula_structural       H80C116N12SnCSn2CSnTe4Mg2SnCSn2CSnTe4Mg2SnCSn2CSnTe4Mg2SnCSn2CSnTe4Mg2SnCSn2CSnTe4Mg2SnCSn2CSnTe4Mg2SnCSn2CSnTe4Mg2SnCSn2CSnTe4Mg2SnCSn2CSnTe4Mg2SnCSn2CSnTe4Mg2
_chemical_formula_sum              "H80 C136 N12 Sn40 Te40 Mg20"
_cell_length_a       40.8029
_cell_length_b       43.6131
_cell_length_c       8.16455
_cell_angle_alpha    91.9626
_cell_angle_beta     109.877
_cell_angle_gamma    120.456

_symmetry_space_group_name_H-M    'P1'
_space_group_IT_number       1

loop_
  _space_group_symop_operation_xyz
  'x, y, z'

loop_
  _atom_site_type_symbol
  _atom_site_label
  _atom_site_symmetry_multiplicity
  _atom_site_fract_x
  _atom_site_fract_y
  _atom_site_fract_z
  _atom_site_occupancy
  H   H1        1.0  0.76909  0.32397  0.17013  1.0000
  H   H2        1.0  0.80528  0.34406  0.03841  1.0000
  H   H3        1.0  0.87437  0.36016  0.11477  1.0000
  H   H4        1.0  0.94363  0.39922  0.11039  1.0000
  H   H5        1.0  0.91050  0.47395  0.90659  1.0000
  H   H6        1.0  0.84190  0.43575  0.92290  1.0000
  H   H7        1.0  0.98039  0.41794  0.96022  1.0000
  H   H8        1.0  0.15782  0.29561  0.06865  1.0000
  H   H9        1.0  0.11999  0.32453  0.08777  1.0000
  H   H10       1.0  0.19383  0.41197  0.88599  1.0000
  H   H11       1.0  0.23020  0.38287  0.86053  1.0000
  H   H12       1.0  0.14395  0.41786  0.82477  1.0000
  H   H13       1.0  0.08501  0.52483  0.01675  1.0000
  H   H14       1.0  0.26025  0.80449  0.09077  1.0000
  H   H15       1.0  0.22402  0.73901  0.09443  1.0000
  H   H16       1.0  0.12201  0.74191  0.11717  1.0000
  H   H17       1.0  0.15696  0.80667  0.10669  1.0000
  H   H18       1.0  0.09154  0.68366  0.94065  1.0000
  H   H19       1.0  0.97709  0.51383  0.04826  1.0000
  H   H20       1.0  0.75822  0.41443  0.90537  1.0000
  H   H21       1.0  0.67383  0.39925  0.88302  1.0000
  H   H22       1.0  0.71265  0.43677  0.82053  1.0000
  H   H23       1.0  0.65997  0.35068  0.96858  1.0000
  H   H24       1.0  0.60345  0.30024  0.86206  1.0000
  H   H25       1.0  0.53565  0.28674  0.80719  1.0000
  H   H26       1.0  0.46552  0.24581  0.80347  1.0000
  H   H27       1.0  0.50872  0.18563  0.11360  1.0000
  H   H28       1.0  0.57938  0.22761  0.12250  1.0000
  H   H29       1.0  0.43063  0.23284  0.96826  1.0000
  H   H30       1.0  0.27468  0.36977  0.96556  1.0000
  H   H31       1.0  0.31290  0.34081  0.95298  1.0000
  H   H32       1.0  0.20871  0.23615  0.91955  1.0000
  H   H33       1.0  0.16964  0.26426  0.92256  1.0000
  H   H34       1.0  0.26166  0.23138  0.06371  1.0000
  H   H35       1.0  0.33083  0.12831  0.96209  1.0000
  H   H36       1.0  0.33203  0.96644  0.97248  1.0000
  H   H37       1.0  0.38160  0.02107  0.92805  1.0000
  H   H38       1.0  0.41138  0.08524  0.91166  1.0000
  H   H39       1.0  0.31916  0.08592  0.05497  1.0000
  H   H40       1.0  0.28864  0.02108  0.06250  1.0000
  H   H41       1.0  0.44211  0.14061  0.96142  1.0000
  H   H42       1.0  0.67237  0.26104  0.23814  1.0000
  H   H43       1.0  0.71514  0.23565  0.29575  1.0000
  H   H44       1.0  0.74960  0.26965  0.20345  1.0000
  H   H45       1.0  0.77205  0.32441  0.67347  1.0000
  H   H46       1.0  0.80865  0.34468  0.54461  1.0000
  H   H47       1.0  0.98221  0.41908  0.45144  1.0000
  H   H48       1.0  0.14898  0.41902  0.34616  1.0000
  H   H49       1.0  0.08749  0.52609  0.51440  1.0000
  H   H50       1.0  0.09513  0.68751  0.47261  1.0000
  H   H51       1.0  0.97967  0.51506  0.54811  1.0000
  H   H52       1.0  0.76029  0.41463  0.40534  1.0000
  H   H53       1.0  0.67667  0.39970  0.39276  1.0000
  H   H54       1.0  0.71461  0.43687  0.32532  1.0000
  H   H55       1.0  0.66272  0.35078  0.46991  1.0000
  H   H56       1.0  0.60663  0.30116  0.36607  1.0000
  H   H57       1.0  0.43227  0.23351  0.46258  1.0000
  H   H58       1.0  0.25590  0.35686  0.35399  1.0000
  H   H59       1.0  0.29387  0.32818  0.33542  1.0000
  H   H60       1.0  0.21845  0.23939  0.52601  1.0000
  H   H61       1.0  0.18186  0.26832  0.55177  1.0000
  H   H62       1.0  0.26776  0.23352  0.58850  1.0000
  H   H63       1.0  0.27467  0.18158  0.57969  1.0000
  H   H64       1.0  0.31476  0.15559  0.56560  1.0000
  H   H65       1.0  0.39087  0.24810  0.39161  1.0000
  H   H66       1.0  0.35019  0.27407  0.40797  1.0000
  H   H67       1.0  0.33310  0.12880  0.45832  1.0000
  H   H68       1.0  0.18611  0.85683  0.58605  1.0000
  H   H69       1.0  0.22263  0.92254  0.58813  1.0000
  H   H70       1.0  0.32613  0.92086  0.57623  1.0000
  H   H71       1.0  0.29102  0.85615  0.58138  1.0000
  H   H72       1.0  0.33213  0.96568  0.45053  1.0000
  H   H73       1.0  0.38385  0.02175  0.41372  1.0000
  H   H74       1.0  0.41281  0.08575  0.39545  1.0000
  H   H75       1.0  0.32384  0.08726  0.56165  1.0000
  H   H76       1.0  0.29431  0.02267  0.57382  1.0000
  H   H77       1.0  0.44485  0.14182  0.45957  1.0000
  H   H78       1.0  0.67564  0.26185  0.74415  1.0000
  H   H79       1.0  0.71867  0.23682  0.80614  1.0000
  H   H80       1.0  0.75330  0.27055  0.71364  1.0000
  C   C1        1.0  0.72107  0.36787  0.99166  1.0000
  C   C2        1.0  0.75211  0.35943  0.04625  1.0000
  C   C3        1.0  0.74438  0.32894  0.11830  1.0000
  C   C4        1.0  0.81369  0.37213  0.03149  1.0000
  C   C5        1.0  0.85362  0.39562  0.02157  1.0000
  C   C6        1.0  0.88236  0.38516  0.06906  1.0000
  C   C7        1.0  0.92130  0.40711  0.06589  1.0000
  C   C8        1.0  0.93267  0.43987  0.01060  1.0000
  C   C9        1.0  0.90324  0.44970  0.95840  1.0000
  C   C10       1.0  0.86467  0.42832  0.96544  1.0000
  C   C11       1.0  0.97413  0.46306  0.00813  1.0000
  C   C12       1.0  0.99575  0.44759  0.98556  1.0000
  C   C13       1.0  0.19650  0.33642  0.95920  1.0000
  C   C14       1.0  0.16486  0.32039  0.02226  1.0000
  C   C15       1.0  0.14368  0.33661  0.03483  1.0000
  C   C16       1.0  0.15280  0.36941  0.98227  1.0000
  C   C17       1.0  0.18528  0.38621  0.92416  1.0000
  C   C18       1.0  0.20640  0.36994  0.91235  1.0000
  C   C19       1.0  0.12761  0.40732  0.91283  1.0000
  C   C20       1.0  0.03572  0.46907  0.98747  1.0000
  C   C21       1.0  0.05407  0.50720  0.01407  1.0000
  C   C22       1.0  0.21147  0.81109  0.09688  1.0000
  C   C23       1.0  0.22963  0.79096  0.09345  1.0000
  C   C24       1.0  0.20960  0.75416  0.09638  1.0000
  C   C25       1.0  0.16995  0.73548  0.09984  1.0000
  C   C26       1.0  0.15166  0.75534  0.10510  1.0000
  C   C27       1.0  0.17206  0.79221  0.10335  1.0000
  C   C28       1.0  0.11187  0.67598  0.02913  1.0000
  C   C29       1.0  0.03271  0.52328  0.03052  1.0000
  C   C30       1.0  0.99288  0.50108  0.02791  1.0000
  C   C31       1.0  0.72880  0.39993  0.91965  1.0000
  C   C32       1.0  0.70365  0.41245  0.87243  1.0000
  C   C33       1.0  0.70683  0.30519  0.13204  1.0000
  C   C34       1.0  0.67503  0.31264  0.06923  1.0000
  C   C35       1.0  0.68358  0.34424  0.00674  1.0000
  C   C36       1.0  0.60321  0.28490  0.96633  1.0000
  C   C37       1.0  0.56248  0.26031  0.96820  1.0000
  C   C38       1.0  0.52985  0.26501  0.87757  1.0000
  C   C39       1.0  0.49044  0.24194  0.87506  1.0000
  C   C40       1.0  0.48174  0.21259  0.95739  1.0000
  C   C41       1.0  0.51434  0.20751  0.04458  1.0000
  C   C42       1.0  0.55408  0.23114  0.05181  1.0000
  C   C43       1.0  0.44008  0.18885  0.95787  1.0000
  C   C44       1.0  0.41685  0.20378  0.96226  1.0000
  C   C45       1.0  0.21925  0.31944  0.94829  1.0000
  C   C46       1.0  0.25985  0.34041  0.95456  1.0000
  C   C47       1.0  0.28173  0.32449  0.94965  1.0000
  C   C48       1.0  0.26445  0.28695  0.94353  1.0000
  C   C49       1.0  0.22353  0.26557  0.93314  1.0000
  C   C50       1.0  0.20151  0.28153  0.93461  1.0000
  C   C51       1.0  0.28333  0.24465  0.99939  1.0000
  C   C52       1.0  0.37758  0.18255  0.96715  1.0000
  C   C53       1.0  0.36183  0.14547  0.96560  1.0000
  C   C54       1.0  0.31633  0.97850  0.00540  1.0000
  C   C55       1.0  0.33277  0.01642  0.99494  1.0000
  C   C56       1.0  0.36806  0.03550  0.95642  1.0000
  C   C57       1.0  0.38508  0.07201  0.94879  1.0000
  C   C58       1.0  0.36764  0.09117  0.98032  1.0000
  C   C59       1.0  0.33257  0.07185  0.02172  1.0000
  C   C60       1.0  0.31526  0.03538  0.02784  1.0000
  C   C61       1.0  0.38473  0.12977  0.96904  1.0000
  C   C62       1.0  0.42386  0.15198  0.96313  1.0000
  C   C63       1.0  0.69958  0.27349  0.20671  1.0000
  C   C64       1.0  0.72280  0.25905  0.23693  1.0000
  C   C65       1.0  0.72389  0.36815  0.49435  1.0000
  C   C66       1.0  0.75495  0.35972  0.54841  1.0000
  C   C67       1.0  0.74729  0.32931  0.62112  1.0000
  C   C68       1.0  0.81672  0.37255  0.53464  1.0000
  C   C69       1.0  0.97639  0.46419  0.50424  1.0000
  C   C70       1.0  0.99786  0.44877  0.47927  1.0000
  C   C71       1.0  0.12801  0.40612  0.41391  1.0000
  C   C72       1.0  0.03790  0.47026  0.48195  1.0000
  C   C73       1.0  0.05643  0.50845  0.51046  1.0000
  C   C74       1.0  0.11549  0.67838  0.54468  1.0000
  C   C75       1.0  0.03517  0.52456  0.52870  1.0000
  C   C76       1.0  0.99528  0.50227  0.52577  1.0000
  C   C77       1.0  0.73124  0.40018  0.42256  1.0000
  C   C78       1.0  0.70607  0.41271  0.37842  1.0000
  C   C79       1.0  0.70983  0.30563  0.63576  1.0000
  C   C80       1.0  0.67788  0.31289  0.57187  1.0000
  C   C81       1.0  0.68639  0.34443  0.50898  1.0000
  C   C82       1.0  0.60623  0.28569  0.46982  1.0000
  C   C83       1.0  0.44239  0.18987  0.45452  1.0000
  C   C84       1.0  0.41879  0.20451  0.45720  1.0000
  C   C85       1.0  0.21638  0.31544  0.45866  1.0000
  C   C86       1.0  0.24845  0.33180  0.39818  1.0000
  C   C87       1.0  0.26969  0.31566  0.38546  1.0000
  C   C88       1.0  0.26016  0.28252  0.43481  1.0000
  C   C89       1.0  0.22728  0.26542  0.49049  1.0000
  C   C90       1.0  0.20614  0.28164  0.50278  1.0000
  C   C91       1.0  0.28473  0.24423  0.50280  1.0000
  C   C92       1.0  0.30905  0.22938  0.49081  1.0000
  C   C93       1.0  0.29964  0.19584  0.53487  1.0000
  C   C94       1.0  0.32236  0.18104  0.52552  1.0000
  C   C95       1.0  0.35581  0.19924  0.47417  1.0000
  C   C96       1.0  0.36571  0.23339  0.43469  1.0000
  C   C97       1.0  0.34280  0.24808  0.44183  1.0000
  C   C98       1.0  0.37960  0.18314  0.46267  1.0000
  C   C99       1.0  0.36408  0.14607  0.46152  1.0000
  C   C100      1.0  0.23507  0.85049  0.57959  1.0000
  C   C101      1.0  0.21670  0.87039  0.58288  1.0000
  C   C102      1.0  0.23688  0.90737  0.58334  1.0000
  C   C103      1.0  0.27605  0.92636  0.57495  1.0000
  C   C104      1.0  0.29518  0.90697  0.57589  1.0000
  C   C105      1.0  0.27505  0.87006  0.57809  1.0000
  C   C106      1.0  0.32013  0.97945  0.50335  1.0000
  C   C107      1.0  0.33689  0.01755  0.49453  1.0000
  C   C108      1.0  0.37089  0.03630  0.44739  1.0000
  C   C109      1.0  0.38752  0.07276  0.43888  1.0000
  C   C110      1.0  0.37066  0.09204  0.47628  1.0000
  C   C111      1.0  0.33675  0.07301  0.52493  1.0000
  C   C112      1.0  0.32010  0.03672  0.53380  1.0000
  C   C113      1.0  0.38721  0.13059  0.46471  1.0000
  C   C114      1.0  0.42638  0.15302  0.45974  1.0000
  C   C115      1.0  0.70284  0.27425  0.71280  1.0000
  C   C116      1.0  0.72631  0.26001  0.74575  1.0000
  N   N1        1.0  0.78970  0.38316  0.03195  1.0000
  N   N2        1.0  0.12906  0.38312  0.99681  1.0000
  N   N3        1.0  0.15189  0.69892  0.10979  1.0000
  N   N4        1.0  0.63681  0.28801  0.07661  1.0000
  N   N5        1.0  0.28847  0.27306  0.93867  1.0000
  N   N6        1.0  0.28589  0.96086  0.05397  1.0000
  N   N7        1.0  0.79244  0.38337  0.53313  1.0000
  N   N8        1.0  0.12367  0.37814  0.47736  1.0000
  N   N9        1.0  0.15568  0.69994  0.60890  1.0000
  N   N10       1.0  0.63962  0.28837  0.57918  1.0000
  N   N11       1.0  0.28394  0.26883  0.42045  1.0000
  N   N12       1.0  0.29233  0.96301  0.56729  1.0000
  C  Sn1       1.0  0.04179  0.60832  0.47080  1.0000
  C   C117      1.0  0.08342  0.63679  0.57376  1.0000
  C  Sn2       1.0  0.11329  0.62893  0.65914  1.0000
  C  Sn3       1.0  0.10131  0.59183  0.64115  1.0000
  C   C118      1.0  0.05971  0.56338  0.53822  1.0000
  C  Sn4       1.0  0.02981  0.57122  0.45281  1.0000
  O  Te1       1.0  0.01245  0.61681  0.38662  1.0000
  O  Te2       1.0  0.15471  0.65787  0.76141  1.0000
  O  Te3       1.0  0.13069  0.58335  0.72544  1.0000
  O  Te4       1.0  0.98842  0.54231  0.35057  1.0000
  Mg  Mg1       1.0  0.18323  0.63230  0.85016  1.0000
  Mg  Mg2       1.0  0.95987  0.56784  0.26169  1.0000
  C  Sn5       1.0  0.36731  0.94268  0.96086  1.0000
  C   C119      1.0  0.26490  0.91732  0.01528  1.0000
  C  Sn6       1.0  0.24435  0.91197  0.12828  1.0000
  C  Sn7       1.0  0.22969  0.87929  0.18823  1.0000
  C   C120      1.0  0.23588  0.85264  0.13385  1.0000
  C  Sn8       1.0  0.25642  0.85795  0.02082  1.0000
  O  Te5       1.0  0.38794  0.94860  0.84787  1.0000
  O  Te6       1.0  0.23853  0.93904  0.18082  1.0000
  O  Te7       1.0  0.20905  0.87339  0.30131  1.0000
  O  Te8       1.0  0.35848  0.88296  0.96831  1.0000
  Mg  Mg3       1.0  0.20865  0.91832  0.33599  1.0000
  Mg  Mg4       1.0  0.38838  0.90366  0.81323  1.0000
  C  Sn9       1.0  0.30677  0.19462  0.08038  1.0000
  C   C121      1.0  0.31220  0.22742  0.04164  1.0000
  C  Sn10      1.0  0.43332  0.29780  0.95074  1.0000
  C  Sn11      1.0  0.45317  0.28303  0.89733  1.0000
  C   C122      1.0  0.44774  0.25024  0.93603  1.0000
  C  Sn12      1.0  0.32663  0.17985  0.02697  1.0000
  O  Te9       1.0  0.28175  0.17676  0.17138  1.0000
  O  Te10      1.0  0.43829  0.33056  0.91357  1.0000
  O  Te11      1.0  0.47821  0.30092  0.80626  1.0000
  O  Te12      1.0  0.32165  0.14711  0.06410  1.0000
  Mg  Mg5       1.0  0.47542  0.34473  0.78641  1.0000
  Mg  Mg6       1.0  0.28450  0.13291  0.19117  1.0000
  C  Sn13      1.0  0.05866  0.41729  0.53575  1.0000
  C   C123      1.0  0.06510  0.45088  0.50569  1.0000
  C  Sn14      1.0  0.08947  0.46955  0.41337  1.0000
  C  Sn15      1.0  0.10777  0.45433  0.34965  1.0000
  C   C124      1.0  0.10132  0.42077  0.37969  1.0000
  C  Sn16      1.0  0.07696  0.40207  0.47204  1.0000
  O  Te13      1.0  0.03417  0.39910  0.62836  1.0000
  O  Te14      1.0  0.09547  0.50310  0.38499  1.0000
  O  Te15      1.0  0.13227  0.47256  0.25699  1.0000
  O  Te16      1.0  0.07094  0.36855  0.50039  1.0000
  Mg  Mg7       1.0  0.13133  0.51745  0.25160  1.0000
  Mg  Mg8       1.0  0.03508  0.35416  0.63368  1.0000
  C  Sn17      1.0  0.54578  0.21893  0.51170  1.0000
  C   C125      1.0  0.56007  0.24978  0.44228  1.0000
  C  Sn18      1.0  0.53689  0.26553  0.39069  1.0000
  C  Sn19      1.0  0.49864  0.25014  0.40897  1.0000
  C   C126      1.0  0.48437  0.21932  0.47838  1.0000
  C  Sn20      1.0  0.50753  0.20354  0.52997  1.0000
  O  Te17      1.0  0.56946  0.20364  0.56241  1.0000
  O  Te18      1.0  0.55181  0.29636  0.32159  1.0000
  O  Te19      1.0  0.47496  0.26547  0.35818  1.0000
  O  Te20      1.0  0.49263  0.17274  0.59907  1.0000
  Mg  Mg9       1.0  0.50836  0.30734  0.27133  1.0000
  Mg  Mg10      1.0  0.53606  0.16175  0.64946  1.0000
  C  Sn21      1.0  0.11555  0.61672  0.13441  1.0000
  C   C127      1.0  0.09779  0.63365  0.03091  1.0000
  C  Sn22      1.0  0.15066  0.66743  0.94140  1.0000
  C  Sn23      1.0  0.12449  0.63149  0.95572  1.0000
  C   C128      1.0  0.04601  0.56253  0.05920  1.0000
  C  Sn24      1.0  0.08937  0.58078  0.14874  1.0000
  O  Te21      1.0  0.15898  0.63551  0.22275  1.0000
  O  Te22      1.0  0.13364  0.68491  0.83867  1.0000
  O  Te23      1.0  0.08103  0.61271  0.86727  1.0000
  O  Te24      1.0  0.10640  0.56331  0.25144  1.0000
  Mg  Mg11      1.0  0.07269  0.64806  0.74358  1.0000
  Mg  Mg12      1.0  0.16733  0.60015  0.34665  1.0000
  C  Sn25      1.0  0.15590  0.76440  0.60472  1.0000
  C   C129      1.0  0.16367  0.73829  0.55919  1.0000
  C  Sn26      1.0  0.20044  0.74926  0.53912  1.0000
  C  Sn27      1.0  0.23008  0.78713  0.56521  1.0000
  C   C130      1.0  0.22231  0.81323  0.61074  1.0000
  C  Sn28      1.0  0.18554  0.80227  0.63081  1.0000
  O  Te25      1.0  0.11894  0.75281  0.62410  1.0000
  O  Te26      1.0  0.20751  0.72265  0.49347  1.0000
  O  Te27      1.0  0.26706  0.79871  0.54578  1.0000
  O  Te28      1.0  0.17847  0.82887  0.67646  1.0000
  Mg  Mg13      1.0  0.26253  0.75209  0.48247  1.0000
  Mg  Mg14      1.0  0.12348  0.79946  0.68759  1.0000
  C  Sn29      1.0  0.21323  0.37824  0.53331  1.0000
  C   C131      1.0  0.20046  0.34157  0.52353  1.0000
  C  Sn30      1.0  0.15834  0.31411  0.47184  1.0000
  C  Sn31      1.0  0.12836  0.32349  0.42892  1.0000
  C   C132      1.0  0.14114  0.36013  0.43868  1.0000
  C  Sn32      1.0  0.18326  0.38761  0.49039  1.0000
  O  Te29      1.0  0.25550  0.40524  0.58529  1.0000
  O  Te30      1.0  0.14632  0.27765  0.46310  1.0000
  O  Te31      1.0  0.08607  0.29645  0.37692  1.0000
  O  Te32      1.0  0.19528  0.42406  0.49911  1.0000
  Mg  Mg15      1.0  0.08509  0.25070  0.38514  1.0000
  Mg  Mg16      1.0  0.25650  0.45103  0.57696  1.0000
  C  Sn33      1.0  0.86922  0.42869  0.40728  1.0000
  C   C133      1.0  0.85492  0.39708  0.47113  1.0000
  C  Sn34      1.0  0.88278  0.38824  0.57236  1.0000
  C  Sn35      1.0  0.92584  0.41149  0.61069  1.0000
  C   C134      1.0  0.94012  0.44308  0.54689  1.0000
  C  Sn36      1.0  0.91228  0.45194  0.44561  1.0000
  O  Te33      1.0  0.84081  0.43699  0.30634  1.0000
  O  Te34      1.0  0.86774  0.35649  0.63467  1.0000
  O  Te35      1.0  0.95425  0.40316  0.71171  1.0000
  O  Te36      1.0  0.92730  0.48367  0.38335  1.0000
  Mg  Mg17      1.0  0.91867  0.35690  0.76679  1.0000
  Mg  Mg18      1.0  0.87640  0.48330  0.25130  1.0000
  C  Sn37      1.0  0.05507  0.39869  0.93161  1.0000
  C   C135      1.0  0.08912  0.41402  0.88534  1.0000
  C  Sn38      1.0  0.11111  0.45138  0.89004  1.0000
  C  Sn39      1.0  0.09883  0.47389  0.94219  1.0000
  C   C136      1.0  0.06480  0.45855  0.98846  1.0000
  C  Sn40      1.0  0.04278  0.42120  0.98376  1.0000
  O  Te37      1.0  0.03354  0.36128  0.92595  1.0000
  O  Te38      1.0  0.14505  0.46608  0.84313  1.0000
  O  Te39      1.0  0.12039  0.51133  0.94781  1.0000
  O  Te40      1.0  0.91264  0.35445  0.03066  1.0000
  Mg  Mg19      1.0  0.16450  0.51857  0.87194  1.0000
  Mg  Mg20      1.0  0.89318  0.30197  0.00200  1.0000
