data_image0
_chemical_formula_structural       H72C104N12SnCSn2CSnTe4Mg2SnCSn2CSnTe4Mg2SnCSn2CSnTe4Mg2SnCSn2CSnTe4Mg2SnCSn2CSnTe4Mg2SnCSn2CSnTe4Mg2SnCSn2CSnTe4Mg2SnCSn2CSnTe4Mg2
_chemical_formula_sum              "H72 C120 N12 Sn32 Te32 Mg16"
_cell_length_a       35.2242
_cell_length_b       36.8709
_cell_length_c       7.98844
_cell_angle_alpha    89.3992
_cell_angle_beta     93.8556
_cell_angle_gamma    116.473

_symmetry_space_group_name_H-M    'P1'
_space_group_IT_number       1

loop_
  _space_group_symop_operation_xyz
  'x, y, z'

loop_
  _atom_site_type_symbol
  _atom_site_label
  _atom_site_symmetry_multiplicity
  _atom_site_fract_x
  _atom_site_fract_y
  _atom_site_fract_z
  _atom_site_occupancy
  H   H1        1.0  0.43999  0.67659  0.03879  1.0000
  H   H2        1.0  0.48303  0.63935  0.08744  1.0000
  H   H3        1.0  0.38543  0.55073  0.36928  1.0000
  H   H4        1.0  0.34125  0.58759  0.31710  1.0000
  H   H5        1.0  0.48960  0.57942  0.17790  1.0000
  H   H6        1.0  0.50715  0.41341  0.20900  1.0000
  H   H7        1.0  0.53715  0.57321  0.35940  1.0000
  H   H8        1.0  0.46800  0.42439  0.41618  1.0000
  H   H9        1.0  0.41128  0.71573  0.17117  1.0000
  H   H10       1.0  0.59032  0.28147  0.18522  1.0000
  H   H11       1.0  0.32043  0.76514  0.24328  1.0000
  H   H12       1.0  0.35377  0.84009  0.26008  1.0000
  H   H13       1.0  0.45719  0.84585  0.98716  1.0000
  H   H14       1.0  0.42499  0.77049  0.97654  1.0000
  H   H15       1.0  0.41496  0.90543  0.22752  1.0000
  H   H16       1.0  0.59452  0.09363  0.20375  1.0000
  H   H17       1.0  0.28779  0.70880  0.03856  1.0000
  H   H18       1.0  0.71004  0.29069  0.04735  1.0000
  H   H19       1.0  0.25431  0.58370  0.37194  1.0000
  H   H20       1.0  0.17751  0.54054  0.30361  1.0000
  H   H21       1.0  0.14678  0.62030  0.08104  1.0000
  H   H22       1.0  0.22376  0.66368  0.15092  1.0000
  H   H23       1.0  0.10402  0.52564  0.32031  1.0000
  H   H24       1.0  0.88733  0.47222  0.33190  1.0000
  H   H25       1.0  0.01880  0.57197  0.49478  1.0000
  H   H26       1.0  0.97790  0.42463  0.46010  1.0000
  H   H27       1.0  0.05419  0.47494  0.46052  1.0000
  H   H28       1.0  0.94253  0.52169  0.48996  1.0000
  H   H29       1.0  0.30302  0.59972  0.09124  1.0000
  H   H30       1.0  0.69472  0.39861  0.12123  1.0000
  H   H31       1.0  0.39409  0.47265  0.39036  1.0000
  H   H32       1.0  0.60960  0.52456  0.34250  1.0000
  H   H33       1.0  0.35955  0.40820  0.53282  1.0000
  H   H34       1.0  0.65200  0.59543  0.42808  1.0000
  H   H35       1.0  0.41066  0.40566  0.56750  1.0000
  H   H36       1.0  0.60388  0.59968  0.48216  1.0000
  H   H37       1.0  0.55908  0.32296  0.55633  1.0000
  H   H38       1.0  0.51656  0.35939  0.61229  1.0000
  H   H39       1.0  0.62104  0.44661  0.92351  1.0000
  H   H40       1.0  0.66411  0.41053  0.86440  1.0000
  H   H41       1.0  0.49180  0.58338  0.68749  1.0000
  H   H42       1.0  0.51046  0.41622  0.71506  1.0000
  H   H43       1.0  0.53779  0.57538  0.85785  1.0000
  H   H44       1.0  0.46992  0.42676  0.92178  1.0000
  H   H45       1.0  0.41173  0.71786  0.67674  1.0000
  H   H46       1.0  0.59187  0.28384  0.68675  1.0000
  H   H47       1.0  0.32274  0.76724  0.75003  1.0000
  H   H48       1.0  0.68317  0.23530  0.76035  1.0000
  H   H49       1.0  0.35602  0.84224  0.76261  1.0000
  H   H50       1.0  0.64904  0.16023  0.76829  1.0000
  H   H51       1.0  0.45809  0.84714  0.48222  1.0000
  H   H52       1.0  0.53845  0.15525  0.48712  1.0000
  H   H53       1.0  0.42586  0.77173  0.47659  1.0000
  H   H54       1.0  0.57286  0.23067  0.47654  1.0000
  H   H55       1.0  0.41636  0.90647  0.72946  1.0000
  H   H56       1.0  0.59107  0.09443  0.68485  1.0000
  H   H57       1.0  0.28895  0.71103  0.53328  1.0000
  H   H58       1.0  0.71077  0.29196  0.54444  1.0000
  H   H59       1.0  0.25375  0.58405  0.85700  1.0000
  H   H60       1.0  0.17701  0.54104  0.78710  1.0000
  H   H61       1.0  0.14761  0.62385  0.57117  1.0000
  H   H62       1.0  0.22476  0.66767  0.63849  1.0000
  H   H63       1.0  0.10289  0.52392  0.81747  1.0000
  H   H64       1.0  0.88625  0.47583  0.85006  1.0000
  H   H65       1.0  0.30356  0.60177  0.59309  1.0000
  H   H66       1.0  0.69686  0.40054  0.62279  1.0000
  H   H67       1.0  0.39611  0.47623  0.89589  1.0000
  H   H68       1.0  0.61013  0.52744  0.83236  1.0000
  H   H69       1.0  0.35771  0.40760  0.99480  1.0000
  H   H70       1.0  0.65296  0.59795  0.92439  1.0000
  H   H71       1.0  0.40713  0.40173  0.02277  1.0000
  H   H72       1.0  0.60504  0.60141  0.98751  1.0000
  C   C1        1.0  0.38732  0.63470  0.17359  1.0000
  C   C2        1.0  0.42812  0.64950  0.11410  1.0000
  C   C3        1.0  0.45229  0.62837  0.14075  1.0000
  C   C4        1.0  0.43693  0.59235  0.23155  1.0000
  C   C5        1.0  0.39664  0.57813  0.29593  1.0000
  C   C6        1.0  0.37221  0.59872  0.26572  1.0000
  C   C7        1.0  0.46218  0.57009  0.25518  1.0000
  C   C8        1.0  0.53784  0.42446  0.28325  1.0000
  C   C9        1.0  0.47771  0.52017  0.37612  1.0000
  C   C10       1.0  0.52691  0.47724  0.38750  1.0000
  C   C11       1.0  0.45784  0.47778  0.40666  1.0000
  C   C12       1.0  0.54766  0.52037  0.38419  1.0000
  C   C13       1.0  0.52210  0.54049  0.37264  1.0000
  C   C14       1.0  0.48297  0.45717  0.40438  1.0000
  C   C15       1.0  0.36028  0.65538  0.13575  1.0000
  C   C16       1.0  0.63921  0.34238  0.15624  1.0000
  C   C17       1.0  0.37750  0.69780  0.13790  1.0000
  C   C18       1.0  0.62278  0.30003  0.15224  1.0000
  C   C19       1.0  0.37040  0.76222  0.11026  1.0000
  C   C20       1.0  0.35019  0.78260  0.18544  1.0000
  C   C21       1.0  0.36900  0.82482  0.19513  1.0000
  C   C22       1.0  0.40793  0.84803  0.12460  1.0000
  C   C23       1.0  0.42762  0.82769  0.04497  1.0000
  C   C24       1.0  0.40951  0.78565  0.04027  1.0000
  C   C25       1.0  0.42761  0.89223  0.13639  1.0000
  C   C26       1.0  0.57525  0.10677  0.13763  1.0000
  C   C27       1.0  0.35164  0.71745  0.10580  1.0000
  C   C28       1.0  0.64828  0.28116  0.11688  1.0000
  C   C29       1.0  0.30789  0.69384  0.06830  1.0000
  C   C30       1.0  0.69057  0.30523  0.08052  1.0000
  C   C31       1.0  0.24440  0.62673  0.01059  1.0000
  C   C32       1.0  0.23107  0.59235  0.41811  1.0000
  C   C33       1.0  0.18789  0.56816  0.37906  1.0000
  C   C34       1.0  0.15736  0.57905  0.43581  1.0000
  C   C35       1.0  0.17056  0.61301  0.03093  1.0000
  C   C36       1.0  0.21360  0.63724  0.06850  1.0000
  C   C37       1.0  0.11227  0.55147  0.40706  1.0000
  C   C38       1.0  0.88202  0.44655  0.41461  1.0000
  C   C39       1.0  0.04150  0.52709  0.47047  1.0000
  C   C40       1.0  0.95498  0.46967  0.46795  1.0000
  C   C41       1.0  0.00942  0.53971  0.48176  1.0000
  C   C42       1.0  0.98717  0.45698  0.46240  1.0000
  C   C43       1.0  0.02955  0.48512  0.46114  1.0000
  C   C44       1.0  0.96694  0.51163  0.47761  1.0000
  C   C45       1.0  0.29002  0.65136  0.05907  1.0000
  C   C46       1.0  0.70756  0.34767  0.07814  1.0000
  C   C47       1.0  0.31654  0.63262  0.09526  1.0000
  C   C48       1.0  0.68163  0.36573  0.11900  1.0000
  C   C49       1.0  0.41251  0.45688  0.43437  1.0000
  C   C50       1.0  0.59401  0.54227  0.38371  1.0000
  C   C51       1.0  0.39334  0.42166  0.51384  1.0000
  C   C52       1.0  0.61764  0.58113  0.43290  1.0000
  C   C53       1.0  0.61489  0.36450  0.70440  1.0000
  C   C54       1.0  0.57245  0.34954  0.63944  1.0000
  C   C55       1.0  0.54863  0.37008  0.67077  1.0000
  C   C56       1.0  0.56603  0.40563  0.77079  1.0000
  C   C57       1.0  0.60793  0.41971  0.84222  1.0000
  C   C58       1.0  0.63190  0.39964  0.80768  1.0000
  C   C59       1.0  0.46338  0.57283  0.75961  1.0000
  C   C60       1.0  0.54089  0.42756  0.79133  1.0000
  C   C61       1.0  0.47846  0.52221  0.87699  1.0000
  C   C62       1.0  0.52840  0.47974  0.89128  1.0000
  C   C63       1.0  0.45889  0.47975  0.90673  1.0000
  C   C64       1.0  0.54862  0.52283  0.88425  1.0000
  C   C65       1.0  0.52287  0.54272  0.87291  1.0000
  C   C66       1.0  0.48450  0.45949  0.90788  1.0000
  C   C67       1.0  0.36088  0.65732  0.63834  1.0000
  C   C68       1.0  0.64124  0.34462  0.66000  1.0000
  C   C69       1.0  0.37813  0.69973  0.64075  1.0000
  C   C70       1.0  0.62440  0.30228  0.65452  1.0000
  C   C71       1.0  0.37162  0.76412  0.61065  1.0000
  C   C72       1.0  0.63039  0.23833  0.61837  1.0000
  C   C73       1.0  0.35194  0.78460  0.68851  1.0000
  C   C74       1.0  0.65182  0.21789  0.69751  1.0000
  C   C75       1.0  0.37088  0.82677  0.69681  1.0000
  C   C76       1.0  0.63252  0.17567  0.70252  1.0000
  C   C77       1.0  0.40934  0.84977  0.62259  1.0000
  C   C78       1.0  0.59130  0.15275  0.62813  1.0000
  C   C79       1.0  0.42878  0.82929  0.54225  1.0000
  C   C80       1.0  0.56999  0.17322  0.54731  1.0000
  C   C81       1.0  0.41054  0.78724  0.53909  1.0000
  C   C82       1.0  0.58922  0.21519  0.54279  1.0000
  C   C83       1.0  0.42840  0.89392  0.63343  1.0000
  C   C84       1.0  0.57120  0.10853  0.63322  1.0000
  C   C85       1.0  0.35247  0.71941  0.60607  1.0000
  C   C86       1.0  0.64940  0.28301  0.61725  1.0000
  C   C87       1.0  0.30880  0.69598  0.56623  1.0000
  C   C88       1.0  0.69173  0.30671  0.58065  1.0000
  C   C89       1.0  0.24518  0.62863  0.51177  1.0000
  C   C90       1.0  0.23039  0.59174  0.90855  1.0000
  C   C91       1.0  0.18720  0.56765  0.86870  1.0000
  C   C92       1.0  0.15652  0.57739  0.93232  1.0000
  C   C93       1.0  0.17141  0.61580  0.52643  1.0000
  C   C94       1.0  0.21449  0.64017  0.56261  1.0000
  C   C95       1.0  0.11135  0.54984  0.90393  1.0000
  C   C96       1.0  0.88069  0.44891  0.92506  1.0000
  C   C97       1.0  0.29078  0.65346  0.55932  1.0000
  C   C98       1.0  0.70914  0.34921  0.57962  1.0000
  C   C99       1.0  0.31718  0.63467  0.59732  1.0000
  C   C100      1.0  0.68360  0.36765  0.62125  1.0000
  C   C101      1.0  0.41325  0.45851  0.92778  1.0000
  C   C102      1.0  0.59487  0.54486  0.87968  1.0000
  C   C103      1.0  0.39186  0.42072  0.98411  1.0000
  C   C104      1.0  0.61868  0.58341  0.93229  1.0000
  N   N1        1.0  0.45214  0.54025  0.35721  1.0000
  N   N2        1.0  0.55183  0.45670  0.37747  1.0000
  N   N3        1.0  0.45888  0.91415  0.04725  1.0000
  N   N4        1.0  0.53732  0.08453  0.07281  1.0000
  N   N5        1.0  0.08375  0.55666  0.48300  1.0000
  N   N6        1.0  0.91315  0.44044  0.48047  1.0000
  N   N7        1.0  0.45264  0.54205  0.85697  1.0000
  N   N8        1.0  0.55403  0.45975  0.88524  1.0000
  N   N9        1.0  0.45798  0.91666  0.53872  1.0000
  N   N10       1.0  0.53189  0.08698  0.58228  1.0000
  N   N11       1.0  0.08307  0.55525  0.98070  1.0000
  N   N12       1.0  0.91165  0.44186  0.98572  1.0000
  C  Sn1       1.0  0.01763  0.47647  0.90641  1.0000
  C   C105      1.0  0.03620  0.51872  0.92089  1.0000
  C  Sn2       1.0  0.01343  0.53813  0.98021  1.0000
  C  Sn3       1.0  0.95350  0.50957  0.02612  1.0000
  C   C106      1.0  0.93495  0.46735  0.01166  1.0000
  C  Sn4       1.0  0.97541  0.45317  0.95232  1.0000
  O  Te1       1.0  0.04100  0.45770  0.84681  1.0000
  O  Te2       1.0  0.03267  0.58041  0.99353  1.0000
  O  Te3       1.0  0.93014  0.52838  0.08575  1.0000
  O  Te4       1.0  0.95620  0.41092  0.93902  1.0000
  Mg  Mg1       1.0  0.97018  0.58672  0.08150  1.0000
  Mg  Mg2       1.0  0.00095  0.39931  0.85116  1.0000
  C  Sn5       1.0  0.62130  0.39558  0.35678  1.0000
  C   C107      1.0  0.61078  0.36213  0.25036  1.0000
  C  Sn6       1.0  0.57596  0.34980  0.13270  1.0000
  C  Sn7       1.0  0.55115  0.37137  0.12110  1.0000
  C   C108      1.0  0.56168  0.40480  0.22746  1.0000
  C  Sn8       1.0  0.59649  0.41714  0.34518  1.0000
  O  Te5       1.0  0.65625  0.40736  0.47346  1.0000
  O  Te6       1.0  0.56605  0.31626  0.02770  1.0000
  O  Te7       1.0  0.51618  0.35955  0.00430  1.0000
  O  Te8       1.0  0.60641  0.45066  0.45011  1.0000
  Mg  Mg3       1.0  0.53313  0.31723  0.88895  1.0000
  Mg  Mg4       1.0  0.65704  0.45500  0.58884  1.0000
  C  Sn9       1.0  0.52760  0.01573  0.44902  1.0000
  C   C109      1.0  0.51304  0.04105  0.52204  1.0000
  C  Sn10      1.0  0.47954  0.02519  0.62741  1.0000
  C  Sn11      1.0  0.92681  0.98314  0.66057  1.0000
  C   C110      1.0  0.94137  0.95785  0.58759  1.0000
  C  Sn12      1.0  0.97487  0.97368  0.48218  1.0000
  O  Te9       1.0  0.56114  0.03224  0.34409  1.0000
  O  Te10      1.0  0.46553  0.05110  0.69892  1.0000
  O  Te11      1.0  0.89324  0.96664  0.76559  1.0000
  O  Te12      1.0  0.98888  0.94780  0.41072  1.0000
  Mg  Mg5       1.0  0.41884  0.01424  0.83340  1.0000
  Mg  Mg6       1.0  0.03558  0.98462  0.27630  1.0000
  C  Sn13      1.0  0.76984  0.40889  0.38287  1.0000
  C   C111      1.0  0.75402  0.37442  0.48153  1.0000
  C  Sn14      1.0  0.78176  0.36427  0.58181  1.0000
  C  Sn15      1.0  0.82624  0.38909  0.58363  1.0000
  C   C112      1.0  0.84204  0.42354  0.48504  1.0000
  C  Sn16      1.0  0.81432  0.43371  0.38469  1.0000
  O  Te13      1.0  0.74152  0.41846  0.28358  1.0000
  O  Te14      1.0  0.76519  0.32966  0.67932  1.0000
  O  Te15      1.0  0.85456  0.37949  0.68303  1.0000
  O  Te16      1.0  0.83087  0.46830  0.28725  1.0000
  Mg  Mg7       1.0  0.81662  0.32928  0.79398  1.0000
  Mg  Mg8       1.0  0.77947  0.46872  0.17262  1.0000
  C  Sn17      1.0  0.55320  0.01663  0.97405  1.0000
  C   C113      1.0  0.51982  0.03821  0.02163  1.0000
  C  Sn18      1.0  0.48216  0.02414  0.10345  1.0000
  C  Sn19      1.0  0.92634  0.98235  0.13853  1.0000
  C   C114      1.0  0.94202  0.95553  0.09098  1.0000
  C  Sn20      1.0  0.97967  0.96958  0.00913  1.0000
  O  Te17      1.0  0.59091  0.03137  0.89239  1.0000
  O  Te18      1.0  0.46711  0.05156  0.14975  1.0000
  O  Te19      1.0  0.88861  0.96763  0.22025  1.0000
  O  Te20      1.0  0.01243  0.94745  0.96287  1.0000
  Mg  Mg9       1.0  0.41433  0.01685  0.25837  1.0000
  Mg  Mg10      1.0  0.06522  0.98213  0.85432  1.0000
  C  Sn21      1.0  0.79598  0.37184  0.12419  1.0000
  C   C115      1.0  0.75971  0.37673  0.07533  1.0000
  C  Sn22      1.0  0.77848  0.40849  0.94741  1.0000
  C  Sn23      1.0  0.81657  0.43054  0.86654  1.0000
  C   C116      1.0  0.85281  0.42564  0.91537  1.0000
  C  Sn24      1.0  0.83407  0.39389  0.04332  1.0000
  O  Te21      1.0  0.79419  0.34519  0.25237  1.0000
  O  Te22      1.0  0.74183  0.41287  0.90079  1.0000
  O  Te23      1.0  0.81833  0.45720  0.73827  1.0000
  O  Te24      1.0  0.87069  0.38949  0.08992  1.0000
  Mg  Mg11      1.0  0.76011  0.45281  0.71932  1.0000
  Mg  Mg12      1.0  0.85244  0.34955  0.27130  1.0000
  C  Sn25      1.0  0.38461  0.57567  0.75202  1.0000
  C   C117      1.0  0.42589  0.58696  0.70575  1.0000
  C  Sn26      1.0  0.45092  0.62638  0.65445  1.0000
  C  Sn27      1.0  0.43436  0.65512  0.64939  1.0000
  C   C118      1.0  0.39311  0.64382  0.69567  1.0000
  C  Sn28      1.0  0.36805  0.60440  0.74696  1.0000
  O  Te25      1.0  0.36016  0.53609  0.80291  1.0000
  O  Te26      1.0  0.49208  0.63696  0.60873  1.0000
  O  Te27      1.0  0.45885  0.69472  0.59844  1.0000
  O  Te28      1.0  0.32691  0.59382  0.79269  1.0000
  Mg  Mg13      1.0  0.51306  0.69459  0.54832  1.0000
  Mg  Mg14      1.0  0.30592  0.53622  0.85320  1.0000
  C  Sn29      1.0  0.63425  0.18451  0.26070  1.0000
  C   C119      1.0  0.59615  0.15604  0.18081  1.0000
  C  Sn30      1.0  0.57558  0.16762  0.05076  1.0000
  C  Sn31      1.0  0.61119  0.21376  0.99940  1.0000
  C   C120      1.0  0.63157  0.23693  0.07925  1.0000
  C  Sn32      1.0  0.65215  0.22538  0.20934  1.0000
  O  Te29      1.0  0.65426  0.17226  0.39041  1.0000
  O  Te30      1.0  0.55522  0.14389  0.97284  1.0000
  O  Te31      1.0  0.59115  0.22599  0.86958  1.0000
  O  Te32      1.0  0.69020  0.25435  0.28722  1.0000
  Mg  Mg15      1.0  0.53993  0.17536  0.80219  1.0000
  Mg  Mg16      1.0  0.70553  0.22292  0.45781  1.0000
