data_image0
_chemical_formula_structural       H40C56N12SnCSn2CSnTe4Mg2SnCSn2CSnTe4Mg2SnCSn2CSnTe4Mg2SnCSn2CSnTe4Mg2SnCSn2CSnTe4Mg2SnCSn2CSnTe4Mg2SnCSn2CSnTe4Mg2SnCSn2CSnTe4Mg2SnCSn2CSnTe4Mg2SnCSn2CSnTe4Mg2SnCSn2CSnTe4Mg2SnCSn2CSnTe4Mg2SnCSn2CSnTe4Mg2SnCSn2CSnTe4Mg2SnCSn2CSnTe4Mg2SnCSn2CSnTe4Mg2
_chemical_formula_sum              "H40 C88 N12 Sn64 Te64 Mg32"
_cell_length_a       35.2242
_cell_length_b       36.8709
_cell_length_c       7.98844
_cell_angle_alpha    89.3992
_cell_angle_beta     93.8556
_cell_angle_gamma    116.473

_symmetry_space_group_name_H-M    'P1'
_space_group_IT_number       1

loop_
  _space_group_symop_operation_xyz
  'x, y, z'

loop_
  _atom_site_type_symbol
  _atom_site_label
  _atom_site_symmetry_multiplicity
  _atom_site_fract_x
  _atom_site_fract_y
  _atom_site_fract_z
  _atom_site_occupancy
  H   H1        1.0  0.48960  0.57942  0.17790  1.0000
  H   H2        1.0  0.50715  0.41341  0.20900  1.0000
  H   H3        1.0  0.53715  0.57321  0.35940  1.0000
  H   H4        1.0  0.46800  0.42439  0.41618  1.0000
  H   H5        1.0  0.41128  0.71573  0.17117  1.0000
  H   H6        1.0  0.59032  0.28147  0.18522  1.0000
  H   H7        1.0  0.41496  0.90543  0.22752  1.0000
  H   H8        1.0  0.59452  0.09363  0.20375  1.0000
  H   H9        1.0  0.28779  0.70880  0.03856  1.0000
  H   H10       1.0  0.71004  0.29069  0.04735  1.0000
  H   H11       1.0  0.10402  0.52564  0.32031  1.0000
  H   H12       1.0  0.88733  0.47222  0.33190  1.0000
  H   H13       1.0  0.30302  0.59972  0.09124  1.0000
  H   H14       1.0  0.69472  0.39861  0.12123  1.0000
  H   H15       1.0  0.39409  0.47265  0.39036  1.0000
  H   H16       1.0  0.60960  0.52456  0.34250  1.0000
  H   H17       1.0  0.35955  0.40820  0.53282  1.0000
  H   H18       1.0  0.65200  0.59543  0.42808  1.0000
  H   H19       1.0  0.41066  0.40566  0.56750  1.0000
  H   H20       1.0  0.60388  0.59968  0.48216  1.0000
  H   H21       1.0  0.49180  0.58338  0.68749  1.0000
  H   H22       1.0  0.51046  0.41622  0.71506  1.0000
  H   H23       1.0  0.53779  0.57538  0.85785  1.0000
  H   H24       1.0  0.46992  0.42676  0.92178  1.0000
  H   H25       1.0  0.41173  0.71786  0.67674  1.0000
  H   H26       1.0  0.59187  0.28384  0.68675  1.0000
  H   H27       1.0  0.41636  0.90647  0.72946  1.0000
  H   H28       1.0  0.59107  0.09443  0.68485  1.0000
  H   H29       1.0  0.28895  0.71103  0.53328  1.0000
  H   H30       1.0  0.71077  0.29196  0.54444  1.0000
  H   H31       1.0  0.10289  0.52392  0.81747  1.0000
  H   H32       1.0  0.88625  0.47583  0.85006  1.0000
  H   H33       1.0  0.30356  0.60177  0.59309  1.0000
  H   H34       1.0  0.69686  0.40054  0.62279  1.0000
  H   H35       1.0  0.39611  0.47623  0.89589  1.0000
  H   H36       1.0  0.61013  0.52744  0.83236  1.0000
  H   H37       1.0  0.35771  0.40760  0.99480  1.0000
  H   H38       1.0  0.65296  0.59795  0.92439  1.0000
  H   H39       1.0  0.40713  0.40173  0.02277  1.0000
  H   H40       1.0  0.60504  0.60141  0.98751  1.0000
  C   C1        1.0  0.46218  0.57009  0.25518  1.0000
  C   C2        1.0  0.53784  0.42446  0.28325  1.0000
  C   C3        1.0  0.47771  0.52017  0.37612  1.0000
  C   C4        1.0  0.52691  0.47724  0.38750  1.0000
  C   C5        1.0  0.45784  0.47778  0.40666  1.0000
  C   C6        1.0  0.54766  0.52037  0.38419  1.0000
  C   C7        1.0  0.52210  0.54049  0.37264  1.0000
  C   C8        1.0  0.48297  0.45717  0.40438  1.0000
  C   C9        1.0  0.36028  0.65538  0.13575  1.0000
  C   C10       1.0  0.63921  0.34238  0.15624  1.0000
  C   C11       1.0  0.37750  0.69780  0.13790  1.0000
  C   C12       1.0  0.62278  0.30003  0.15224  1.0000
  C   C13       1.0  0.42761  0.89223  0.13639  1.0000
  C   C14       1.0  0.57525  0.10677  0.13763  1.0000
  C   C15       1.0  0.35164  0.71745  0.10580  1.0000
  C   C16       1.0  0.64828  0.28116  0.11688  1.0000
  C   C17       1.0  0.30789  0.69384  0.06830  1.0000
  C   C18       1.0  0.69057  0.30523  0.08052  1.0000
  C   C19       1.0  0.11227  0.55147  0.40706  1.0000
  C   C20       1.0  0.88202  0.44655  0.41461  1.0000
  C   C21       1.0  0.29002  0.65136  0.05907  1.0000
  C   C22       1.0  0.70756  0.34767  0.07814  1.0000
  C   C23       1.0  0.31654  0.63262  0.09526  1.0000
  C   C24       1.0  0.68163  0.36573  0.11900  1.0000
  C   C25       1.0  0.41251  0.45688  0.43437  1.0000
  C   C26       1.0  0.59401  0.54227  0.38371  1.0000
  C   C27       1.0  0.39334  0.42166  0.51384  1.0000
  C   C28       1.0  0.61764  0.58113  0.43290  1.0000
  C   C29       1.0  0.46338  0.57283  0.75961  1.0000
  C   C30       1.0  0.54089  0.42756  0.79133  1.0000
  C   C31       1.0  0.47846  0.52221  0.87699  1.0000
  C   C32       1.0  0.52840  0.47974  0.89128  1.0000
  C   C33       1.0  0.45889  0.47975  0.90673  1.0000
  C   C34       1.0  0.54862  0.52283  0.88425  1.0000
  C   C35       1.0  0.52287  0.54272  0.87291  1.0000
  C   C36       1.0  0.48450  0.45949  0.90788  1.0000
  C   C37       1.0  0.36088  0.65732  0.63834  1.0000
  C   C38       1.0  0.64124  0.34462  0.66000  1.0000
  C   C39       1.0  0.37813  0.69973  0.64075  1.0000
  C   C40       1.0  0.62440  0.30228  0.65452  1.0000
  C   C41       1.0  0.42840  0.89392  0.63343  1.0000
  C   C42       1.0  0.57120  0.10853  0.63322  1.0000
  C   C43       1.0  0.35247  0.71941  0.60607  1.0000
  C   C44       1.0  0.64940  0.28301  0.61725  1.0000
  C   C45       1.0  0.30880  0.69598  0.56623  1.0000
  C   C46       1.0  0.69173  0.30671  0.58065  1.0000
  C   C47       1.0  0.11135  0.54984  0.90393  1.0000
  C   C48       1.0  0.88069  0.44891  0.92506  1.0000
  C   C49       1.0  0.29078  0.65346  0.55932  1.0000
  C   C50       1.0  0.70914  0.34921  0.57962  1.0000
  C   C51       1.0  0.31718  0.63467  0.59732  1.0000
  C   C52       1.0  0.68360  0.36765  0.62125  1.0000
  C   C53       1.0  0.41325  0.45851  0.92778  1.0000
  C   C54       1.0  0.59487  0.54486  0.87968  1.0000
  C   C55       1.0  0.39186  0.42072  0.98411  1.0000
  C   C56       1.0  0.61868  0.58341  0.93229  1.0000
  N   N1        1.0  0.45214  0.54025  0.35721  1.0000
  N   N2        1.0  0.55183  0.45670  0.37747  1.0000
  N   N3        1.0  0.45888  0.91415  0.04725  1.0000
  N   N4        1.0  0.53732  0.08453  0.07281  1.0000
  N   N5        1.0  0.08375  0.55666  0.48300  1.0000
  N   N6        1.0  0.91315  0.44044  0.48047  1.0000
  N   N7        1.0  0.45264  0.54205  0.85697  1.0000
  N   N8        1.0  0.55403  0.45975  0.88524  1.0000
  N   N9        1.0  0.45798  0.91666  0.53872  1.0000
  N   N10       1.0  0.53189  0.08698  0.58228  1.0000
  N   N11       1.0  0.08307  0.55525  0.98070  1.0000
  N   N12       1.0  0.91165  0.44186  0.98572  1.0000
  C  Sn1       1.0  0.42997  0.64042  0.07085  1.0000
  C   C57       1.0  0.39032  0.63133  0.12991  1.0000
  C  Sn2       1.0  0.37470  0.60383  0.25902  1.0000
  C  Sn3       1.0  0.39922  0.58505  0.33068  1.0000
  C   C58       1.0  0.43884  0.59415  0.27165  1.0000
  C  Sn4       1.0  0.45449  0.62164  0.14252  1.0000
  O  Te1       1.0  0.46268  0.67327  0.94168  1.0000
  O  Te2       1.0  0.33497  0.59522  0.31592  1.0000
  O  Te3       1.0  0.38418  0.55746  0.45995  1.0000
  O  Te4       1.0  0.49420  0.63026  0.08564  1.0000
  Mg  Mg1       1.0  0.32824  0.55561  0.49461  1.0000
  Mg  Mg2       1.0  0.51867  0.67515  0.90703  1.0000
  C  Sn5       1.0  0.56739  0.35634  0.08872  1.0000
  C   C59       1.0  0.60835  0.36540  0.15618  1.0000
  C  Sn6       1.0  0.62601  0.39147  0.29581  1.0000
  C  Sn7       1.0  0.60224  0.40884  0.36963  1.0000
  C   C60       1.0  0.56130  0.39978  0.30220  1.0000
  C  Sn8       1.0  0.54361  0.37371  0.16254  1.0000
  O  Te5       1.0  0.56807  0.33547  0.94909  1.0000
  O  Te6       1.0  0.66702  0.40008  0.36098  1.0000
  O  Te7       1.0  0.61930  0.43500  0.50936  1.0000
  O  Te8       1.0  0.50262  0.36509  0.09739  1.0000
  Mg  Mg3       1.0  0.67640  0.43744  0.55257  1.0000
  Mg  Mg4       1.0  0.51092  0.33299  0.90587  1.0000
  C  Sn9       1.0  0.34537  0.79158  0.14989  1.0000
  C   C61       1.0  0.36083  0.76686  0.07790  1.0000
  C  Sn10      1.0  0.40325  0.78288  0.03872  1.0000
  C  Sn11      1.0  0.43080  0.82447  0.07228  1.0000
  C   C62       1.0  0.41534  0.84916  0.14425  1.0000
  C  Sn12      1.0  0.37292  0.83316  0.18345  1.0000
  O  Te9       1.0  0.30286  0.77492  0.18804  1.0000
  O  Te10      1.0  0.43567  0.76285  0.96676  1.0000
  O  Te11      1.0  0.47334  0.84112  0.03406  1.0000
  O  Te12      1.0  0.35821  0.85844  0.25539  1.0000
  Mg  Mg5       1.0  0.49616  0.79968  0.93741  1.0000
  Mg  Mg6       1.0  0.29773  0.82164  0.28487  1.0000
  C  Sn13      1.0  0.59780  0.18394  0.99058  1.0000
  C   C63       1.0  0.59635  0.15506  0.07822  1.0000
  C  Sn14      1.0  0.62912  0.17258  0.20393  1.0000
  C  Sn15      1.0  0.64599  0.21457  0.24294  1.0000
  C   C64       1.0  0.62973  0.23815  0.15534  1.0000
  C  Sn16      1.0  0.59696  0.22065  0.02958  1.0000
  O  Te13      1.0  0.56504  0.16579  0.86539  1.0000
  O  Te14      1.0  0.64486  0.14837  0.28979  1.0000
  O  Te15      1.0  0.67878  0.23271  0.36824  1.0000
  O  Te16      1.0  0.59893  0.25011  0.94377  1.0000
  Mg  Mg7       1.0  0.68960  0.18707  0.44998  1.0000
  Mg  Mg8       1.0  0.55418  0.21144  0.78364  1.0000
  C  Sn17      1.0  0.55320  0.01663  0.97405  1.0000
  C   C65       1.0  0.51982  0.03821  0.02163  1.0000
  C  Sn18      1.0  0.48216  0.02414  0.10345  1.0000
  C  Sn19      1.0  0.92634  0.98235  0.13853  1.0000
  C   C66       1.0  0.94202  0.95553  0.09098  1.0000
  C  Sn20      1.0  0.97967  0.96958  0.00913  1.0000
  O  Te17      1.0  0.59091  0.03137  0.89239  1.0000
  O  Te18      1.0  0.46711  0.05156  0.14975  1.0000
  O  Te19      1.0  0.88861  0.96763  0.22025  1.0000
  O  Te20      1.0  0.01243  0.94745  0.96287  1.0000
  Mg  Mg9       1.0  0.41433  0.01685  0.25837  1.0000
  Mg  Mg10      1.0  0.06522  0.98213  0.85432  1.0000
  C  Sn21      1.0  0.20418  0.63070  0.60345  1.0000
  C   C67       1.0  0.23856  0.62507  0.55440  1.0000
  C  Sn22      1.0  0.23282  0.59737  0.42564  1.0000
  C  Sn23      1.0  0.19186  0.57486  0.34412  1.0000
  C   C68       1.0  0.15752  0.58051  0.39315  1.0000
  C  Sn24      1.0  0.16323  0.60819  0.52193  1.0000
  O  Te21      1.0  0.21066  0.65855  0.73247  1.0000
  O  Te22      1.0  0.26767  0.59225  0.37884  1.0000
  O  Te23      1.0  0.18541  0.54700  0.21501  1.0000
  O  Te24      1.0  0.12841  0.61332  0.56871  1.0000
  Mg  Mg11      1.0  0.24278  0.55074  0.19613  1.0000
  Mg  Mg12      1.0  0.15326  0.65483  0.75133  1.0000
  C  Sn25      1.0  0.76984  0.40889  0.38287  1.0000
  C   C69       1.0  0.75402  0.37442  0.48153  1.0000
  C  Sn26      1.0  0.78176  0.36427  0.58181  1.0000
  C  Sn27      1.0  0.82624  0.38909  0.58363  1.0000
  C   C70       1.0  0.84204  0.42354  0.48504  1.0000
  C  Sn28      1.0  0.81432  0.43371  0.38469  1.0000
  O  Te25      1.0  0.74152  0.41846  0.28358  1.0000
  O  Te26      1.0  0.76519  0.32966  0.67932  1.0000
  O  Te27      1.0  0.85456  0.37949  0.68303  1.0000
  O  Te28      1.0  0.83087  0.46830  0.28725  1.0000
  Mg  Mg13      1.0  0.81662  0.32928  0.79398  1.0000
  Mg  Mg14      1.0  0.77947  0.46872  0.17262  1.0000
  C  Sn29      1.0  0.20333  0.62719  0.10792  1.0000
  C   C71       1.0  0.23780  0.62254  0.05326  1.0000
  C  Sn30      1.0  0.24987  0.60185  0.91770  1.0000
  C  Sn31      1.0  0.20893  0.58011  0.83497  1.0000
  C   C72       1.0  0.17449  0.58477  0.88961  1.0000
  C  Sn32      1.0  0.16239  0.60545  0.02519  1.0000
  O  Te29      1.0  0.20971  0.65331  0.24369  1.0000
  O  Te30      1.0  0.28482  0.59769  0.86537  1.0000
  O  Te31      1.0  0.20258  0.55398  0.69910  1.0000
  O  Te32      1.0  0.12748  0.60962  0.07750  1.0000
  Mg  Mg15      1.0  0.26005  0.55850  0.67440  1.0000
  Mg  Mg16      1.0  0.15221  0.64882  0.26838  1.0000
  C  Sn33      1.0  0.81613  0.37278  0.01751  1.0000
  C   C73       1.0  0.84973  0.41452  0.93163  1.0000
  C  Sn34      1.0  0.82528  0.43551  0.90490  1.0000
  C  Sn35      1.0  0.78410  0.41973  0.96534  1.0000
  C   C74       1.0  0.75053  0.37802  0.05118  1.0000
  C  Sn36      1.0  0.77495  0.35701  0.07795  1.0000
  O  Te33      1.0  0.84112  0.35232  0.04281  1.0000
  O  Te34      1.0  0.84185  0.47190  0.81866  1.0000
  O  Te35      1.0  0.75911  0.44023  0.93996  1.0000
  O  Te36      1.0  0.75840  0.32064  0.16416  1.0000
  Mg  Mg17      1.0  0.79565  0.48864  0.81549  1.0000
  Mg  Mg18      1.0  0.80458  0.30389  0.16747  1.0000
  C  Sn37      1.0  0.97424  0.52022  0.42820  1.0000
  C   C75       1.0  0.95703  0.47796  0.42228  1.0000
  C  Sn38      1.0  0.98300  0.45880  0.45701  1.0000
  C  Sn39      1.0  0.02710  0.48236  0.49864  1.0000
  C   C76       1.0  0.04429  0.52459  0.50458  1.0000
  C  Sn40      1.0  0.01834  0.54378  0.46983  1.0000
  O  Te37      1.0  0.94768  0.53873  0.39303  1.0000
  O  Te38      1.0  0.96506  0.41651  0.45023  1.0000
  O  Te39      1.0  0.05366  0.46381  0.53382  1.0000
  O  Te40      1.0  0.03625  0.58605  0.47662  1.0000
  Mg  Mg19      1.0  0.01432  0.40534  0.50838  1.0000
  Mg  Mg20      1.0  0.98703  0.59725  0.41859  1.0000
  C  Sn41      1.0  0.45565  0.64415  0.67848  1.0000
  C   C77       1.0  0.44509  0.60756  0.76035  1.0000
  C  Sn42      1.0  0.40289  0.58228  0.79174  1.0000
  C  Sn43      1.0  0.37056  0.59380  0.74015  1.0000
  C   C78       1.0  0.38112  0.63036  0.65831  1.0000
  C  Sn44      1.0  0.42331  0.65567  0.62689  1.0000
  O  Te41      1.0  0.49804  0.66895  0.64839  1.0000
  O  Te42      1.0  0.39311  0.54585  0.87384  1.0000
  O  Te43      1.0  0.32814  0.56896  0.77031  1.0000
  O  Te44      1.0  0.43309  0.69207  0.54482  1.0000
  Mg  Mg21      1.0  0.33072  0.52233  0.88626  1.0000
  Mg  Mg22      1.0  0.49546  0.71561  0.53225  1.0000
  C  Sn45      1.0  0.62478  0.39886  0.86209  1.0000
  C   C79       1.0  0.61333  0.36475  0.75858  1.0000
  C  Sn46      1.0  0.57797  0.35214  0.64348  1.0000
  C  Sn47      1.0  0.55356  0.37409  0.63152  1.0000
  C   C80       1.0  0.56502  0.40818  0.73497  1.0000
  C  Sn48      1.0  0.60037  0.42081  0.85013  1.0000
  O  Te45      1.0  0.66025  0.41092  0.97624  1.0000
  O  Te46      1.0  0.56714  0.31793  0.54137  1.0000
  O  Te47      1.0  0.51807  0.36200  0.51725  1.0000
  O  Te48      1.0  0.61121  0.45500  0.95217  1.0000
  Mg  Mg23      1.0  0.51608  0.31348  0.40537  1.0000
  Mg  Mg24      1.0  0.64456  0.45422  0.08815  1.0000
  C  Sn49      1.0  0.37111  0.81771  0.74523  1.0000
  C   C81       1.0  0.40842  0.84501  0.67603  1.0000
  C  Sn50      1.0  0.42669  0.83185  0.55532  1.0000
  C  Sn51      1.0  0.40725  0.79053  0.50260  1.0000
  C   C82       1.0  0.36995  0.76325  0.57176  1.0000
  C  Sn52      1.0  0.35166  0.77639  0.69250  1.0000
  O  Te49      1.0  0.35340  0.83154  0.86572  1.0000
  O  Te50      1.0  0.46401  0.85971  0.48799  1.0000
  O  Te51      1.0  0.42499  0.77671  0.38201  1.0000
  O  Te52      1.0  0.31436  0.74855  0.75979  1.0000
  Mg  Mg25      1.0  0.47601  0.82624  0.32734  1.0000
  Mg  Mg26      1.0  0.30233  0.78199  0.92038  1.0000
  C  Sn53      1.0  0.57755  0.20669  0.58104  1.0000
  C   C83       1.0  0.61819  0.23393  0.64554  1.0000
  C  Sn54      1.0  0.64845  0.22030  0.69283  1.0000
  C  Sn55      1.0  0.63789  0.17858  0.67520  1.0000
  C   C84       1.0  0.59728  0.15137  0.61072  1.0000
  C  Sn56      1.0  0.56699  0.16497  0.56341  1.0000
  O  Te53      1.0  0.54779  0.22098  0.53455  1.0000
  O  Te54      1.0  0.68887  0.24810  0.75705  1.0000
  O  Te55      1.0  0.66769  0.16430  0.72176  1.0000
  O  Te56      1.0  0.52660  0.13719  0.49920  1.0000
  Mg  Mg27      1.0  0.71848  0.21392  0.80275  1.0000
  Mg  Mg28      1.0  0.49697  0.17134  0.45339  1.0000
  C  Sn57      1.0  0.52712  0.99034  0.53228  1.0000
  C   C85       1.0  0.48679  0.96364  0.58031  1.0000
  C  Sn58      1.0  0.45735  0.97792  0.61379  1.0000
  C  Sn59      1.0  0.00182  0.01976  0.59885  1.0000
  C   C86       1.0  0.04213  0.04643  0.55081  1.0000
  C  Sn60      1.0  0.07159  0.03218  0.51734  1.0000
  O  Te57      1.0  0.55605  0.97539  0.49942  1.0000
  O  Te58      1.0  0.41723  0.95065  0.66167  1.0000
  O  Te59      1.0  0.97285  0.03469  0.63176  1.0000
  O  Te60      1.0  0.11169  0.05942  0.46946  1.0000
  Mg  Mg29      1.0  0.38879  0.98562  0.69289  1.0000
  Mg  Mg30      1.0  0.14014  0.02449  0.43813  1.0000
  C  Sn61      1.0  0.97838  0.45456  0.01066  1.0000
  C   C87       1.0  0.94383  0.46321  0.02245  1.0000
  C  Sn62      1.0  0.96597  0.50755  0.99331  1.0000
  C  Sn63      1.0  0.00575  0.53863  0.95141  1.0000
  C   C88       1.0  0.04026  0.52997  0.93962  1.0000
  C  Sn64      1.0  0.03586  0.49091  0.96877  1.0000
  O  Te61      1.0  0.97322  0.41529  0.04030  1.0000
  O  Te62      1.0  0.91328  0.51020  0.00589  1.0000
  O  Te63      1.0  0.01088  0.57793  0.92177  1.0000
  O  Te64      1.0  0.07082  0.48298  0.95618  1.0000
  Mg  Mg31      1.0  0.95385  0.57374  0.95397  1.0000
  Mg  Mg32      1.0  0.03028  0.41945  0.00799  1.0000
