data_image0
_chemical_formula_structural       H40C56N12SnCSn2CSnTe4Mg2SnCSn2CSnTe4Mg2SnCSn2CSnTe4Mg2SnCSn2CSnTe4Mg2SnCSn2CSnTe4Mg2SnCSn2CSnTe4Mg2SnCSn2CSnTe4Mg2SnCSn2CSnTe4Mg2SnCSn2CSnTe4Mg2SnCSn2CSnTe4Mg2SnCSn2CSnTe4Mg2SnCSn2CSnTe4Mg2SnCSn2CSnTe4Mg2SnCSn2CSnTe4Mg2SnCSn2CSnTe4Mg2SnCSn2CSnTe4Mg2SnCSn2CSnTe4Mg2SnCSn2CSnTe4Mg2SnCSn2CSnTe4Mg2SnCSn2CSnTe4Mg2
_chemical_formula_sum              "H40 C96 N12 Sn80 Te80 Mg40"
_cell_length_a       40.8029
_cell_length_b       43.6131
_cell_length_c       8.16455
_cell_angle_alpha    91.9626
_cell_angle_beta     109.877
_cell_angle_gamma    120.456

_symmetry_space_group_name_H-M    'P1'
_space_group_IT_number       1

loop_
  _space_group_symop_operation_xyz
  'x, y, z'

loop_
  _atom_site_type_symbol
  _atom_site_label
  _atom_site_symmetry_multiplicity
  _atom_site_fract_x
  _atom_site_fract_y
  _atom_site_fract_z
  _atom_site_occupancy
  H   H1        1.0  0.76909  0.32397  0.17013  1.0000
  H   H2        1.0  0.80528  0.34406  0.03841  1.0000
  H   H3        1.0  0.98039  0.41794  0.96022  1.0000
  H   H4        1.0  0.14395  0.41786  0.82477  1.0000
  H   H5        1.0  0.08501  0.52483  0.01675  1.0000
  H   H6        1.0  0.09154  0.68366  0.94065  1.0000
  H   H7        1.0  0.97709  0.51383  0.04826  1.0000
  H   H8        1.0  0.75822  0.41443  0.90537  1.0000
  H   H9        1.0  0.67383  0.39925  0.88302  1.0000
  H   H10       1.0  0.71265  0.43677  0.82053  1.0000
  H   H11       1.0  0.65997  0.35068  0.96858  1.0000
  H   H12       1.0  0.60345  0.30024  0.86206  1.0000
  H   H13       1.0  0.43063  0.23284  0.96826  1.0000
  H   H14       1.0  0.26166  0.23138  0.06371  1.0000
  H   H15       1.0  0.33083  0.12831  0.96209  1.0000
  H   H16       1.0  0.33203  0.96644  0.97248  1.0000
  H   H17       1.0  0.44211  0.14061  0.96142  1.0000
  H   H18       1.0  0.67237  0.26104  0.23814  1.0000
  H   H19       1.0  0.71514  0.23565  0.29575  1.0000
  H   H20       1.0  0.74960  0.26965  0.20345  1.0000
  H   H21       1.0  0.77205  0.32441  0.67347  1.0000
  H   H22       1.0  0.80865  0.34468  0.54461  1.0000
  H   H23       1.0  0.98221  0.41908  0.45144  1.0000
  H   H24       1.0  0.14898  0.41902  0.34616  1.0000
  H   H25       1.0  0.08749  0.52609  0.51440  1.0000
  H   H26       1.0  0.09513  0.68751  0.47261  1.0000
  H   H27       1.0  0.97967  0.51506  0.54811  1.0000
  H   H28       1.0  0.76029  0.41463  0.40534  1.0000
  H   H29       1.0  0.67667  0.39970  0.39276  1.0000
  H   H30       1.0  0.71461  0.43687  0.32532  1.0000
  H   H31       1.0  0.66272  0.35078  0.46991  1.0000
  H   H32       1.0  0.60663  0.30116  0.36607  1.0000
  H   H33       1.0  0.43227  0.23351  0.46258  1.0000
  H   H34       1.0  0.26776  0.23352  0.58850  1.0000
  H   H35       1.0  0.33310  0.12880  0.45832  1.0000
  H   H36       1.0  0.33213  0.96568  0.45053  1.0000
  H   H37       1.0  0.44485  0.14182  0.45957  1.0000
  H   H38       1.0  0.67564  0.26185  0.74415  1.0000
  H   H39       1.0  0.71867  0.23682  0.80614  1.0000
  H   H40       1.0  0.75330  0.27055  0.71364  1.0000
  C   C1        1.0  0.72107  0.36787  0.99166  1.0000
  C   C2        1.0  0.75211  0.35943  0.04625  1.0000
  C   C3        1.0  0.74438  0.32894  0.11830  1.0000
  C   C4        1.0  0.81369  0.37213  0.03149  1.0000
  C   C5        1.0  0.97413  0.46306  0.00813  1.0000
  C   C6        1.0  0.99575  0.44759  0.98556  1.0000
  C   C7        1.0  0.12761  0.40732  0.91283  1.0000
  C   C8        1.0  0.03572  0.46907  0.98747  1.0000
  C   C9        1.0  0.05407  0.50720  0.01407  1.0000
  C   C10       1.0  0.11187  0.67598  0.02913  1.0000
  C   C11       1.0  0.03271  0.52328  0.03052  1.0000
  C   C12       1.0  0.99288  0.50108  0.02791  1.0000
  C   C13       1.0  0.72880  0.39993  0.91965  1.0000
  C   C14       1.0  0.70365  0.41245  0.87243  1.0000
  C   C15       1.0  0.70683  0.30519  0.13204  1.0000
  C   C16       1.0  0.67503  0.31264  0.06923  1.0000
  C   C17       1.0  0.68358  0.34424  0.00674  1.0000
  C   C18       1.0  0.60321  0.28490  0.96633  1.0000
  C   C19       1.0  0.44008  0.18885  0.95787  1.0000
  C   C20       1.0  0.41685  0.20378  0.96226  1.0000
  C   C21       1.0  0.28333  0.24465  0.99939  1.0000
  C   C22       1.0  0.37758  0.18255  0.96715  1.0000
  C   C23       1.0  0.36183  0.14547  0.96560  1.0000
  C   C24       1.0  0.31633  0.97850  0.00540  1.0000
  C   C25       1.0  0.38473  0.12977  0.96904  1.0000
  C   C26       1.0  0.42386  0.15198  0.96313  1.0000
  C   C27       1.0  0.69958  0.27349  0.20671  1.0000
  C   C28       1.0  0.72280  0.25905  0.23693  1.0000
  C   C29       1.0  0.72389  0.36815  0.49435  1.0000
  C   C30       1.0  0.75495  0.35972  0.54841  1.0000
  C   C31       1.0  0.74729  0.32931  0.62112  1.0000
  C   C32       1.0  0.81672  0.37255  0.53464  1.0000
  C   C33       1.0  0.97639  0.46419  0.50424  1.0000
  C   C34       1.0  0.99786  0.44877  0.47927  1.0000
  C   C35       1.0  0.12801  0.40612  0.41391  1.0000
  C   C36       1.0  0.03790  0.47026  0.48195  1.0000
  C   C37       1.0  0.05643  0.50845  0.51046  1.0000
  C   C38       1.0  0.11549  0.67838  0.54468  1.0000
  C   C39       1.0  0.03517  0.52456  0.52870  1.0000
  C   C40       1.0  0.99528  0.50227  0.52577  1.0000
  C   C41       1.0  0.73124  0.40018  0.42256  1.0000
  C   C42       1.0  0.70607  0.41271  0.37842  1.0000
  C   C43       1.0  0.70983  0.30563  0.63576  1.0000
  C   C44       1.0  0.67788  0.31289  0.57187  1.0000
  C   C45       1.0  0.68639  0.34443  0.50898  1.0000
  C   C46       1.0  0.60623  0.28569  0.46982  1.0000
  C   C47       1.0  0.44239  0.18987  0.45452  1.0000
  C   C48       1.0  0.41879  0.20451  0.45720  1.0000
  C   C49       1.0  0.28473  0.24423  0.50280  1.0000
  C   C50       1.0  0.37960  0.18314  0.46267  1.0000
  C   C51       1.0  0.36408  0.14607  0.46152  1.0000
  C   C52       1.0  0.32013  0.97945  0.50335  1.0000
  C   C53       1.0  0.38721  0.13059  0.46471  1.0000
  C   C54       1.0  0.42638  0.15302  0.45974  1.0000
  C   C55       1.0  0.70284  0.27425  0.71280  1.0000
  C   C56       1.0  0.72631  0.26001  0.74575  1.0000
  N   N1        1.0  0.78970  0.38316  0.03195  1.0000
  N   N2        1.0  0.12906  0.38312  0.99681  1.0000
  N   N3        1.0  0.15189  0.69892  0.10979  1.0000
  N   N4        1.0  0.63681  0.28801  0.07661  1.0000
  N   N5        1.0  0.28847  0.27306  0.93867  1.0000
  N   N6        1.0  0.28589  0.96086  0.05397  1.0000
  N   N7        1.0  0.79244  0.38337  0.53313  1.0000
  N   N8        1.0  0.12367  0.37814  0.47736  1.0000
  N   N9        1.0  0.15568  0.69994  0.60890  1.0000
  N   N10       1.0  0.63962  0.28837  0.57918  1.0000
  N   N11       1.0  0.28394  0.26883  0.42045  1.0000
  N   N12       1.0  0.29233  0.96301  0.56729  1.0000
  C  Sn1       1.0  0.80322  0.40067  0.00745  1.0000
  C   C57       1.0  0.83485  0.39407  0.04627  1.0000
  C  Sn2       1.0  0.82670  0.35934  0.06148  1.0000
  C  Sn3       1.0  0.78608  0.33059  0.03729  1.0000
  C   C58       1.0  0.85071  0.38924  0.99847  1.0000
  C  Sn4       1.0  0.85884  0.42397  0.98326  1.0000
  O  Te1       1.0  0.90831  0.48766  0.99285  1.0000
  O  Te2       1.0  0.85882  0.35341  0.10044  1.0000
  O  Te3       1.0  0.77724  0.29563  0.05193  1.0000
  O  Te4       1.0  0.82674  0.42991  0.94430  1.0000
  Mg  Mg1       1.0  0.83134  0.30109  0.10678  1.0000
  Mg  Mg2       1.0  0.85417  0.48220  0.93784  1.0000
  C  Sn5       1.0  0.15526  0.33715  0.08798  1.0000
  C   C59       1.0  0.15966  0.36886  0.03733  1.0000
  C  Sn6       1.0  0.27703  0.43586  0.92843  1.0000
  C  Sn7       1.0  0.29412  0.41877  0.86881  1.0000
  C   C60       1.0  0.28971  0.38708  0.91943  1.0000
  C  Sn8       1.0  0.17235  0.32006  0.02836  1.0000
  O  Te5       1.0  0.13400  0.32267  0.19692  1.0000
  O  Te6       1.0  0.28104  0.46758  0.87960  1.0000
  O  Te7       1.0  0.31540  0.43328  0.75980  1.0000
  O  Te8       1.0  0.16833  0.28836  0.07716  1.0000
  Mg  Mg3       1.0  0.31269  0.47688  0.72924  1.0000
  Mg  Mg4       1.0  0.13667  0.27902  0.22743  1.0000
  C  Sn9       1.0  0.96220  0.36528  0.04374  1.0000
  C   C61       1.0  0.96713  0.39820  0.00957  1.0000
  C  Sn10      1.0  0.08641  0.46864  0.91196  1.0000
  C  Sn11      1.0  0.10488  0.45379  0.84703  1.0000
  C   C62       1.0  0.09994  0.42088  0.88117  1.0000
  C  Sn12      1.0  0.07691  0.40248  0.97881  1.0000
  O  Te9       1.0  0.93903  0.34736  0.14161  1.0000
  O  Te10      1.0  0.09091  0.50152  0.87955  1.0000
  O  Te11      1.0  0.12807  0.47174  0.74910  1.0000
  O  Te12      1.0  0.97616  0.31757  0.01119  1.0000
  Mg  Mg5       1.0  0.12534  0.51572  0.73961  1.0000
  Mg  Mg6       1.0  0.94173  0.30334  0.15103  1.0000
  C  Sn13      1.0  0.17138  0.78766  0.15964  1.0000
  C   C63       1.0  0.20931  0.80952  0.14527  1.0000
  C  Sn14      1.0  0.22758  0.79342  0.09348  1.0000
  C  Sn15      1.0  0.20750  0.75467  0.05513  1.0000
  C   C64       1.0  0.16959  0.73283  0.06947  1.0000
  C  Sn16      1.0  0.15131  0.74891  0.12129  1.0000
  O  Te13      1.0  0.15369  0.80435  0.21164  1.0000
  O  Te14      1.0  0.26552  0.81584  0.08011  1.0000
  O  Te15      1.0  0.22522  0.73799  0.00310  1.0000
  O  Te16      1.0  0.11339  0.72651  0.13463  1.0000
  Mg  Mg7       1.0  0.27722  0.78019  0.00407  1.0000
  Mg  Mg8       1.0  0.10164  0.76213  0.21056  1.0000
  C  Sn17      1.0  0.03451  0.58105  0.88330  1.0000
  C   C65       1.0  0.05156  0.56447  0.99421  1.0000
  C  Sn18      1.0  0.99247  0.53384  0.14927  1.0000
  C  Sn19      1.0  0.01298  0.57264  0.19451  1.0000
  C   C66       1.0  0.99593  0.58920  0.08366  1.0000
  C  Sn20      1.0  0.05502  0.61985  0.92854  1.0000
  O  Te17      1.0  0.99735  0.55909  0.72894  1.0000
  O  Te18      1.0  0.00892  0.51664  0.25801  1.0000
  O  Te19      1.0  0.05017  0.59459  0.34901  1.0000
  O  Te20      1.0  0.03857  0.63702  0.81986  1.0000
  Mg  Mg9       1.0  0.06026  0.55836  0.45429  1.0000
  Mg  Mg10      1.0  0.98723  0.59534  0.62361  1.0000
  C  Sn21      1.0  0.52403  0.26835  0.91631  1.0000
  C   C67       1.0  0.55919  0.26667  0.99257  1.0000
  C  Sn22      1.0  0.45906  0.18307  0.04317  1.0000
  C  Sn23      1.0  0.41920  0.15256  0.01690  1.0000
  C   C68       1.0  0.48031  0.20629  0.94066  1.0000
  C  Sn24      1.0  0.48417  0.23783  0.89004  1.0000
  O  Te21      1.0  0.52865  0.30017  0.86671  1.0000
  O  Te22      1.0  0.49466  0.18205  0.11921  1.0000
  O  Te23      1.0  0.41461  0.12073  0.06658  1.0000
  O  Te24      1.0  0.44860  0.23887  0.81402  1.0000
  Mg  Mg11      1.0  0.47237  0.13255  0.16478  1.0000
  Mg  Mg12      1.0  0.47085  0.28834  0.76832  1.0000
  C  Sn25      1.0  0.21191  0.26453  0.87811  1.0000
  C   C69       1.0  0.25283  0.28165  0.89283  1.0000
  C  Sn26      1.0  0.28015  0.31988  0.95310  1.0000
  C  Sn27      1.0  0.26629  0.34145  0.99975  1.0000
  C   C70       1.0  0.22540  0.32434  0.98505  1.0000
  C  Sn28      1.0  0.19805  0.28611  0.92476  1.0000
  O  Te25      1.0  0.18514  0.22627  0.81756  1.0000
  O  Te26      1.0  0.32090  0.33636  0.96664  1.0000
  O  Te27      1.0  0.19687  0.32769  0.06033  1.0000
  O  Te28      1.0  0.15732  0.26962  0.91124  1.0000
  Mg  Mg13      1.0  0.24945  0.33737  0.05602  1.0000
  Mg  Mg14      1.0  0.13252  0.21657  0.82197  1.0000
  C  Sn29      1.0  0.34107  0.24221  0.89198  1.0000
  C   C71       1.0  0.30729  0.22801  0.93979  1.0000
  C  Sn30      1.0  0.20179  0.14738  0.02569  1.0000
  C  Sn31      1.0  0.22682  0.13269  0.06472  1.0000
  C   C72       1.0  0.26058  0.14688  0.01695  1.0000
  C  Sn32      1.0  0.36610  0.22751  0.93101  1.0000
  O  Te29      1.0  0.34976  0.27079  0.80621  1.0000
  O  Te30      1.0  0.16784  0.13364  0.07213  1.0000
  O  Te31      1.0  0.21810  0.10409  0.15055  1.0000
  O  Te32      1.0  0.40003  0.24126  0.88461  1.0000
  Mg  Mg15      1.0  0.16857  0.09462  0.18716  1.0000
  Mg  Mg16      1.0  0.39935  0.28029  0.76967  1.0000
  C  Sn33      1.0  0.27828  0.87626  0.06920  1.0000
  C   C73       1.0  0.24639  0.85672  0.12635  1.0000
  C  Sn34      1.0  0.22285  0.87033  0.14257  1.0000
  C  Sn35      1.0  0.23134  0.90417  0.10070  1.0000
  C   C74       1.0  0.26321  0.92369  0.04356  1.0000
  C  Sn36      1.0  0.28677  0.91010  0.02733  1.0000
  O  Te33      1.0  0.30141  0.86214  0.05395  1.0000
  O  Te34      1.0  0.19114  0.85030  0.20002  1.0000
  O  Te35      1.0  0.20817  0.91828  0.11601  1.0000
  O  Te36      1.0  0.41469  0.98215  0.96989  1.0000
  Mg  Mg17      1.0  0.16822  0.88092  0.19958  1.0000
  Mg  Mg18      1.0  0.43761  0.95156  0.97020  1.0000
  C  Sn37      1.0  0.37586  0.06084  0.89467  1.0000
  C   C75       1.0  0.36326  0.08391  0.92808  1.0000
  C  Sn38      1.0  0.24065  0.02250  0.01662  1.0000
  C  Sn39      1.0  0.76839  0.98940  0.07305  1.0000
  C   C76       1.0  0.78100  0.96635  0.03966  1.0000
  C  Sn40      1.0  0.90360  0.02773  0.95110  1.0000
  O  Te37      1.0  0.40225  0.07074  0.80596  1.0000
  O  Te38      1.0  0.22846  0.04601  0.04845  1.0000
  O  Te39      1.0  0.74198  0.97950  0.16182  1.0000
  O  Te40      1.0  0.91580  0.00425  0.91930  1.0000
  Mg  Mg19      1.0  0.19224  0.02054  0.17428  1.0000
  Mg  Mg20      1.0  0.95203  0.02970  0.79357  1.0000
  C  Sn41      1.0  0.86922  0.42869  0.40728  1.0000
  C   C77       1.0  0.85492  0.39708  0.47113  1.0000
  C  Sn42      1.0  0.88278  0.38824  0.57236  1.0000
  C  Sn43      1.0  0.92584  0.41149  0.61069  1.0000
  C   C78       1.0  0.94012  0.44308  0.54689  1.0000
  C  Sn44      1.0  0.91228  0.45194  0.44561  1.0000
  O  Te41      1.0  0.84081  0.43699  0.30634  1.0000
  O  Te42      1.0  0.86774  0.35649  0.63467  1.0000
  O  Te43      1.0  0.95425  0.40316  0.71171  1.0000
  O  Te44      1.0  0.92730  0.48367  0.38335  1.0000
  Mg  Mg21      1.0  0.91867  0.35690  0.76679  1.0000
  Mg  Mg22      1.0  0.87640  0.48330  0.25130  1.0000
  C  Sn45      1.0  0.21323  0.37824  0.53331  1.0000
  C   C79       1.0  0.20046  0.34157  0.52353  1.0000
  C  Sn46      1.0  0.15834  0.31411  0.47184  1.0000
  C  Sn47      1.0  0.12836  0.32349  0.42892  1.0000
  C   C80       1.0  0.14114  0.36013  0.43868  1.0000
  C  Sn48      1.0  0.18326  0.38761  0.49039  1.0000
  O  Te45      1.0  0.25550  0.40524  0.58529  1.0000
  O  Te46      1.0  0.14632  0.27765  0.46310  1.0000
  O  Te47      1.0  0.08607  0.29645  0.37692  1.0000
  O  Te48      1.0  0.19528  0.42406  0.49911  1.0000
  Mg  Mg23      1.0  0.08509  0.25070  0.38514  1.0000
  Mg  Mg24      1.0  0.25650  0.45103  0.57696  1.0000
  C  Sn49      1.0  0.12092  0.46673  0.44782  1.0000
  C   C81       1.0  0.11334  0.43244  0.47023  1.0000
  C  Sn50      1.0  0.07535  0.40547  0.47166  1.0000
  C  Sn51      1.0  0.04428  0.41290  0.45013  1.0000
  C   C82       1.0  0.05187  0.44716  0.42770  1.0000
  C  Sn52      1.0  0.08986  0.47416  0.42629  1.0000
  O  Te49      1.0  0.15912  0.49329  0.44681  1.0000
  O  Te50      1.0  0.06849  0.37140  0.49433  1.0000
  O  Te51      1.0  0.00606  0.38630  0.45115  1.0000
  O  Te52      1.0  0.09672  0.50820  0.40361  1.0000
  Mg  Mg25      1.0  0.01145  0.34412  0.48622  1.0000
  Mg  Mg26      1.0  0.15374  0.53550  0.41160  1.0000
  C  Sn53      1.0  0.22171  0.76303  0.59027  1.0000
  C   C83       1.0  0.18964  0.74359  0.64652  1.0000
  C  Sn54      1.0  0.16601  0.75725  0.66079  1.0000
  C  Sn55      1.0  0.17460  0.79102  0.61783  1.0000
  C   C84       1.0  0.20665  0.81044  0.56159  1.0000
  C  Sn56      1.0  0.23030  0.79681  0.54731  1.0000
  O  Te53      1.0  0.24493  0.74886  0.57696  1.0000
  O  Te54      1.0  0.13411  0.73732  0.71738  1.0000
  O  Te55      1.0  0.15134  0.80518  0.63119  1.0000
  O  Te56      1.0  0.26217  0.81671  0.49073  1.0000
  Mg  Mg27      1.0  0.11114  0.76796  0.71423  1.0000
  Mg  Mg28      1.0  0.28514  0.78609  0.49374  1.0000
  C  Sn57      1.0  0.10022  0.59999  0.71282  1.0000
  C   C85       1.0  0.05923  0.57120  0.60266  1.0000
  C  Sn58      1.0  0.03535  0.57617  0.45035  1.0000
  C  Sn59      1.0  0.05281  0.61063  0.40717  1.0000
  C   C86       1.0  0.09377  0.63939  0.51727  1.0000
  C  Sn60      1.0  0.11767  0.63445  0.66964  1.0000
  O  Te57      1.0  0.12352  0.59441  0.86441  1.0000
  O  Te58      1.0  0.99445  0.54699  0.34230  1.0000
  O  Te59      1.0  0.02946  0.61619  0.25543  1.0000
  O  Te60      1.0  0.15855  0.66361  0.77763  1.0000
  Mg  Mg29      1.0  0.97519  0.56808  0.15007  1.0000
  Mg  Mg30      1.0  0.17785  0.64254  0.96983  1.0000
  C  Sn61      1.0  0.54578  0.21893  0.51170  1.0000
  C   C87       1.0  0.56007  0.24978  0.44228  1.0000
  C  Sn62      1.0  0.53689  0.26553  0.39069  1.0000
  C  Sn63      1.0  0.49864  0.25014  0.40897  1.0000
  C   C88       1.0  0.48437  0.21932  0.47838  1.0000
  C  Sn64      1.0  0.50753  0.20354  0.52997  1.0000
  O  Te61      1.0  0.56946  0.20364  0.56241  1.0000
  O  Te62      1.0  0.55181  0.29636  0.32159  1.0000
  O  Te63      1.0  0.47496  0.26547  0.35818  1.0000
  O  Te64      1.0  0.49263  0.17274  0.59907  1.0000
  Mg  Mg31      1.0  0.50836  0.30734  0.27133  1.0000
  Mg  Mg32      1.0  0.53606  0.16175  0.64946  1.0000
  C  Sn65      1.0  0.21257  0.26131  0.44683  1.0000
  C   C89       1.0  0.24518  0.27397  0.39199  1.0000
  C  Sn66      1.0  0.26739  0.31046  0.38298  1.0000
  C  Sn67      1.0  0.25681  0.33483  0.42987  1.0000
  C   C90       1.0  0.22422  0.32217  0.48470  1.0000
  C  Sn68      1.0  0.20199  0.28567  0.49372  1.0000
  O  Te65      1.0  0.19078  0.22471  0.45485  1.0000
  O  Te66      1.0  0.29986  0.32248  0.32771  1.0000
  O  Te67      1.0  0.27862  0.37145  0.42180  1.0000
  O  Te68      1.0  0.16954  0.27366  0.54898  1.0000
  Mg  Mg33      1.0  0.32033  0.37482  0.33859  1.0000
  Mg  Mg34      1.0  0.14907  0.22133  0.53824  1.0000
  C  Sn69      1.0  0.30777  0.17661  0.47902  1.0000
  C   C91       1.0  0.34209  0.19148  0.43471  1.0000
  C  Sn70      1.0  0.36356  0.22844  0.43189  1.0000
  C  Sn71      1.0  0.35046  0.25102  0.47436  1.0000
  C   C92       1.0  0.31616  0.23615  0.51866  1.0000
  C  Sn72      1.0  0.29467  0.19919  0.52149  1.0000
  O  Te69      1.0  0.28677  0.13959  0.48100  1.0000
  O  Te70      1.0  0.39778  0.24269  0.38712  1.0000
  O  Te71      1.0  0.37149  0.28807  0.47234  1.0000
  O  Te72      1.0  0.26048  0.18495  0.56625  1.0000
  Mg  Mg35      1.0  0.41627  0.29476  0.40304  1.0000
  Mg  Mg36      1.0  0.24198  0.13289  0.55047  1.0000
  C  Sn73      1.0  0.28783  0.89611  0.52183  1.0000
  C   C93       1.0  0.27419  0.91964  0.52603  1.0000
  C  Sn74      1.0  0.24129  0.91001  0.57557  1.0000
  C  Sn75      1.0  0.22162  0.87615  0.62199  1.0000
  C   C94       1.0  0.23526  0.85265  0.61781  1.0000
  C  Sn76      1.0  0.26815  0.86226  0.56825  1.0000
  O  Te73      1.0  0.32077  0.90631  0.47191  1.0000
  O  Te74      1.0  0.22820  0.93398  0.57871  1.0000
  O  Te75      1.0  0.18865  0.86597  0.67193  1.0000
  O  Te76      1.0  0.28125  0.83831  0.56513  1.0000
  Mg  Mg37      1.0  0.18206  0.90786  0.65581  1.0000
  Mg  Mg38      1.0  0.32740  0.86441  0.48815  1.0000
  C  Sn77      1.0  0.38456  0.04749  0.49382  1.0000
  C   C95       1.0  0.89291  0.02491  0.53759  1.0000
  C  Sn78      1.0  0.32340  0.03468  0.53783  1.0000
  C  Sn79      1.0  0.32920  0.06771  0.49328  1.0000
  C   C96       1.0  0.36262  0.09027  0.44951  1.0000
  C  Sn80      1.0  0.39037  0.08052  0.44927  1.0000
  O  Te77      1.0  0.41188  0.03718  0.49443  1.0000
  O  Te78      1.0  0.83199  0.01166  0.58211  1.0000
  O  Te79      1.0  0.30184  0.07801  0.49271  1.0000
  O  Te80      1.0  0.42354  0.10351  0.40499  1.0000
  Mg  Mg39      1.0  0.26135  0.03756  0.56233  1.0000
  Mg  Mg40      1.0  0.45240  0.07763  0.42463  1.0000
