data_image0
_chemical_formula_structural       H120C216N24SnCSn2CSnTe4Mg2SnCSn2CSnTe4Mg2SnCSn2CSnTe4Mg2SnCSn2CSnTe4Mg2SnCSn2CSnTe4Mg2SnCSn2CSnTe4Mg2
_chemical_formula_sum              "H120 C228 N24 Sn24 Te24 Mg12"
_cell_length_a       38.5113
_cell_length_b       38.5884
_cell_length_c       8.04384
_cell_angle_alpha    97.8912
_cell_angle_beta     111.45
_cell_angle_gamma    119.763

_symmetry_space_group_name_H-M    'P1'
_space_group_IT_number       1

loop_
  _space_group_symop_operation_xyz
  'x, y, z'

loop_
  _atom_site_type_symbol
  _atom_site_label
  _atom_site_symmetry_multiplicity
  _atom_site_fract_x
  _atom_site_fract_y
  _atom_site_fract_z
  _atom_site_occupancy
  H   H1        1.0  0.59215  0.56724  0.16583  1.0000
  H   H2        1.0  0.43735  0.02209  0.16710  1.0000
  H   H3        1.0  0.98504  0.40823  0.13347  1.0000
  H   H4        1.0  0.39192  0.41212  0.06286  1.0000
  H   H5        1.0  0.58503  0.97887  0.14168  1.0000
  H   H6        1.0  0.02358  0.59124  0.08018  1.0000
  H   H7        1.0  0.65226  0.56249  0.16690  1.0000
  H   H8        1.0  0.44542  0.08950  0.19450  1.0000
  H   H9        1.0  0.91560  0.34426  0.09292  1.0000
  H   H10       1.0  0.33076  0.41687  0.05533  1.0000
  H   H11       1.0  0.57515  0.91069  0.10563  1.0000
  H   H12       1.0  0.09109  0.65066  0.09803  1.0000
  H   H13       1.0  0.59291  0.44389  0.25417  1.0000
  H   H14       1.0  0.58571  0.15413  0.32245  1.0000
  H   H15       1.0  0.87056  0.42049  0.21624  1.0000
  H   H16       1.0  0.42187  0.55521  0.25887  1.0000
  H   H17       1.0  0.45851  0.86200  0.18765  1.0000
  H   H18       1.0  0.16510  0.59889  0.32521  1.0000
  H   H19       1.0  0.42909  0.41734  0.31991  1.0000
  H   H20       1.0  0.62858  0.02558  0.40610  1.0000
  H   H21       1.0  0.01029  0.59841  0.25830  1.0000
  H   H22       1.0  0.60751  0.59937  0.42480  1.0000
  H   H23       1.0  0.45046  0.01290  0.39432  1.0000
  H   H24       1.0  0.03565  0.44336  0.42915  1.0000
  H   H25       1.0  0.42154  0.35031  0.31728  1.0000
  H   H26       1.0  0.69515  0.08580  0.40283  1.0000
  H   H27       1.0  0.94937  0.60212  0.26073  1.0000
  H   H28       1.0  0.61558  0.66731  0.43571  1.0000
  H   H29       1.0  0.37995  0.95144  0.36127  1.0000
  H   H30       1.0  0.09739  0.43600  0.46141  1.0000
  H   H31       1.0  0.54248  0.39821  0.26847  1.0000
  H   H32       1.0  0.62206  0.14144  0.24067  1.0000
  H   H33       1.0  0.87901  0.47348  0.24704  1.0000
  H   H34       1.0  0.46979  0.59924  0.21411  1.0000
  H   H35       1.0  0.41066  0.86613  0.17723  1.0000
  H   H36       1.0  0.15725  0.54464  0.30773  1.0000
  H   H37       1.0  0.69819  0.55235  0.17846  1.0000
  H   H38       1.0  0.45921  0.14155  0.08099  1.0000
  H   H39       1.0  0.87366  0.30630  0.19268  1.0000
  H   H40       1.0  0.29075  0.43087  0.12651  1.0000
  H   H41       1.0  0.57387  0.85960  0.18943  1.0000
  H   H42       1.0  0.14791  0.68923  0.07984  1.0000
  H   H43       1.0  0.43147  0.18292  0.99165  1.0000
  H   H44       1.0  0.21867  0.40974  0.10953  1.0000
  H   H45       1.0  0.18783  0.75307  0.04003  1.0000
  H   H46       1.0  0.43699  0.25124  0.06099  1.0000
  H   H47       1.0  0.17296  0.42792  0.20635  1.0000
  H   H48       1.0  0.26092  0.81913  0.09598  1.0000
  H   H49       1.0  0.56282  0.31213  0.60328  1.0000
  H   H50       1.0  0.28926  0.56260  0.49441  1.0000
  H   H51       1.0  0.33904  0.78026  0.44017  1.0000
  H   H52       1.0  0.55751  0.24395  0.53435  1.0000
  H   H53       1.0  0.33472  0.54449  0.39465  1.0000
  H   H54       1.0  0.26597  0.71555  0.39439  1.0000
  H   H55       1.0  0.49477  0.66667  0.33663  1.0000
  H   H56       1.0  0.37865  0.84308  0.37597  1.0000
  H   H57       1.0  0.21851  0.54199  0.48609  1.0000
  H   H58       1.0  0.53835  0.35575  0.49287  1.0000
  H   H59       1.0  0.68524  0.19293  0.31776  1.0000
  H   H60       1.0  0.84464  0.49091  0.33349  1.0000
  H   H61       1.0  0.57405  0.56820  0.67006  1.0000
  H   H62       1.0  0.39660  0.01380  0.65302  1.0000
  H   H63       1.0  0.95167  0.38493  0.62274  1.0000
  H   H64       1.0  0.37096  0.41432  0.54115  1.0000
  H   H65       1.0  0.53987  0.96880  0.61757  1.0000
  H   H66       1.0  0.99408  0.57053  0.59160  1.0000
  H   H67       1.0  0.63295  0.56118  0.66927  1.0000
  H   H68       1.0  0.40566  0.08078  0.65266  1.0000
  H   H69       1.0  0.88376  0.32241  0.60235  1.0000
  H   H70       1.0  0.31109  0.41934  0.55037  1.0000
  H   H71       1.0  0.53121  0.90065  0.57363  1.0000
  H   H72       1.0  0.06177  0.63010  0.61276  1.0000
  H   H73       1.0  0.57279  0.44462  0.76929  1.0000
  H   H74       1.0  0.54606  0.14116  0.79212  1.0000
  H   H75       1.0  0.84063  0.40070  0.72122  1.0000
  H   H76       1.0  0.40446  0.55810  0.77852  1.0000
  H   H77       1.0  0.42591  0.85430  0.72689  1.0000
  H   H78       1.0  0.13367  0.57497  0.80881  1.0000
  H   H79       1.0  0.40518  0.41631  0.79802  1.0000
  H   H80       1.0  0.58583  0.01227  0.90734  1.0000
  H   H81       1.0  0.98449  0.57901  0.78237  1.0000
  H   H82       1.0  0.58806  0.60193  0.91693  1.0000
  H   H83       1.0  0.39918  0.99659  0.84893  1.0000
  H   H84       1.0  0.00300  0.41828  0.91074  1.0000
  H   H85       1.0  0.39740  0.34907  0.79398  1.0000
  H   H86       1.0  0.65237  0.06960  0.89530  1.0000
  H   H87       1.0  0.92387  0.58390  0.77826  1.0000
  H   H88       1.0  0.59472  0.66859  0.91598  1.0000
  H   H89       1.0  0.33217  0.93358  0.82604  1.0000
  H   H90       1.0  0.06645  0.41291  0.95509  1.0000
  H   H91       1.0  0.52021  0.39848  0.75828  1.0000
  H   H92       1.0  0.58239  0.12766  0.72111  1.0000
  H   H93       1.0  0.84716  0.45303  0.73370  1.0000
  H   H94       1.0  0.44924  0.59982  0.70535  1.0000
  H   H95       1.0  0.37817  0.85735  0.71381  1.0000
  H   H96       1.0  0.12667  0.52274  0.80978  1.0000
  H   H97       1.0  0.67802  0.54834  0.67531  1.0000
  H   H98       1.0  0.42583  0.13665  0.52176  1.0000
  H   H99       1.0  0.84100  0.28501  0.70522  1.0000
  H   H100      1.0  0.27229  0.43165  0.61914  1.0000
  H   H101      1.0  0.53888  0.85657  0.68923  1.0000
  H   H102      1.0  0.11273  0.66174  0.55427  1.0000
  H   H103      1.0  0.40393  0.18202  0.43443  1.0000
  H   H104      1.0  0.20091  0.40433  0.60334  1.0000
  H   H105      1.0  0.14857  0.72530  0.50738  1.0000
  H   H106      1.0  0.41450  0.25294  0.51128  1.0000
  H   H107      1.0  0.15016  0.41363  0.69727  1.0000
  H   H108      1.0  0.21890  0.79410  0.56106  1.0000
  H   H109      1.0  0.54405  0.31069  0.02985  1.0000
  H   H110      1.0  0.25801  0.55099  0.00097  1.0000
  H   H111      1.0  0.30399  0.76003  0.89443  1.0000
  H   H112      1.0  0.53323  0.23998  0.95715  1.0000
  H   H113      1.0  0.30893  0.54167  0.90818  1.0000
  H   H114      1.0  0.23395  0.69168  0.84222  1.0000
  H   H115      1.0  0.47281  0.66464  0.82559  1.0000
  H   H116      1.0  0.34052  0.82632  0.85766  1.0000
  H   H117      1.0  0.18586  0.52348  0.98313  1.0000
  H   H118      1.0  0.51901  0.35570  0.93847  1.0000
  H   H119      1.0  0.64835  0.17933  0.81484  1.0000
  H   H120      1.0  0.81498  0.47510  0.83675  1.0000
  C   C1        1.0  0.48504  0.48034  0.22909  1.0000
  C   C2        1.0  0.54082  0.00666  0.26027  1.0000
  C   C3        1.0  0.01559  0.52864  0.22974  1.0000
  C   C4        1.0  0.52570  0.51676  0.25073  1.0000
  C   C5        1.0  0.50581  0.01008  0.26002  1.0000
  C   C6        1.0  0.01475  0.49274  0.25726  1.0000
  C   C7        1.0  0.55945  0.51159  0.23613  1.0000
  C   C8        1.0  0.50849  0.04868  0.25060  1.0000
  C   C9        1.0  0.97179  0.45405  0.21898  1.0000
  C   C10       1.0  0.44580  0.48162  0.18975  1.0000
  C   C11       1.0  0.53169  0.96410  0.21511  1.0000
  C   C12       1.0  0.05459  0.56169  0.21767  1.0000
  C   C13       1.0  0.53265  0.55829  0.28750  1.0000
  C   C14       1.0  0.46769  0.97483  0.26765  1.0000
  C   C15       1.0  0.05601  0.49406  0.31782  1.0000
  C   C16       1.0  0.48446  0.44346  0.25352  1.0000
  C   C17       1.0  0.58398  0.04551  0.29914  1.0000
  C   C18       1.0  0.97862  0.53129  0.22565  1.0000
  C   C19       1.0  0.59375  0.54172  0.20048  1.0000
  C   C20       1.0  0.47081  0.05105  0.20997  1.0000
  C   C21       1.0  0.96172  0.41206  0.16441  1.0000
  C   C22       1.0  0.39991  0.44401  0.11644  1.0000
  C   C23       1.0  0.55902  0.95474  0.16598  1.0000
  C   C24       1.0  0.05515  0.59381  0.14798  1.0000
  C   C25       1.0  0.62762  0.53853  0.19760  1.0000
  C   C26       1.0  0.47474  0.08882  0.21896  1.0000
  C   C27       1.0  0.92252  0.37587  0.14182  1.0000
  C   C28       1.0  0.36492  0.44658  0.10904  1.0000
  C   C29       1.0  0.55307  0.91569  0.14279  1.0000
  C   C30       1.0  0.09351  0.62721  0.15254  1.0000
  C   C31       1.0  0.62822  0.50316  0.22282  1.0000
  C   C32       1.0  0.51744  0.12729  0.26954  1.0000
  C   C33       1.0  0.89074  0.37978  0.17554  1.0000
  C   C34       1.0  0.37414  0.48777  0.17713  1.0000
  C   C35       1.0  0.51807  0.88247  0.16481  1.0000
  C   C36       1.0  0.13488  0.63036  0.22464  1.0000
  C   C37       1.0  0.59242  0.47130  0.24121  1.0000
  C   C38       1.0  0.55345  0.12459  0.28897  1.0000
  C   C39       1.0  0.89737  0.41960  0.20497  1.0000
  C   C40       1.0  0.41634  0.52415  0.21667  1.0000
  C   C41       1.0  0.48656  0.88868  0.18148  1.0000
  C   C42       1.0  0.13358  0.59676  0.27521  1.0000
  C   C43       1.0  0.55756  0.47404  0.24490  1.0000
  C   C44       1.0  0.54900  0.08551  0.27035  1.0000
  C   C45       1.0  0.93620  0.45640  0.21993  1.0000
  C   C46       1.0  0.45162  0.52188  0.21605  1.0000
  C   C47       1.0  0.49163  0.92801  0.20251  1.0000
  C   C48       1.0  0.09432  0.56179  0.26581  1.0000
  C   C49       1.0  0.45131  0.41162  0.28856  1.0000
  C   C50       1.0  0.62590  0.04954  0.35832  1.0000
  C   C51       1.0  0.98032  0.56936  0.24122  1.0000
  C   C52       1.0  0.57680  0.59864  0.36825  1.0000
  C   C53       1.0  0.43981  0.98043  0.32784  1.0000
  C   C54       1.0  0.06047  0.46403  0.39054  1.0000
  C   C55       1.0  0.44761  0.37436  0.29252  1.0000
  C   C56       1.0  0.66364  0.08361  0.36102  1.0000
  C   C57       1.0  0.94677  0.57242  0.25000  1.0000
  C   C58       1.0  0.58173  0.63694  0.37859  1.0000
  C   C59       1.0  0.40076  0.94619  0.31505  1.0000
  C   C60       1.0  0.09556  0.46026  0.41275  1.0000
  C   C61       1.0  0.47994  0.36857  0.27734  1.0000
  C   C62       1.0  0.66188  0.11631  0.30643  1.0000
  C   C63       1.0  0.90889  0.53757  0.25008  1.0000
  C   C64       1.0  0.54255  0.63743  0.31250  1.0000
  C   C65       1.0  0.38889  0.90389  0.25330  1.0000
  C   C66       1.0  0.13005  0.48836  0.37426  1.0000
  C   C67       1.0  0.51671  0.40230  0.27073  1.0000
  C   C68       1.0  0.62377  0.11610  0.27748  1.0000
  C   C69       1.0  0.90746  0.50056  0.24463  1.0000
  C   C70       1.0  0.50012  0.59933  0.26051  1.0000
  C   C71       1.0  0.41891  0.89843  0.21621  1.0000
  C   C72       1.0  0.13051  0.52278  0.33541  1.0000
  C   C73       1.0  0.51973  0.43965  0.25731  1.0000
  C   C74       1.0  0.58611  0.08280  0.28324  1.0000
  C   C75       1.0  0.94081  0.49651  0.23194  1.0000
  C   C76       1.0  0.49491  0.56034  0.25596  1.0000
  C   C77       1.0  0.45865  0.93314  0.22634  1.0000
  C   C78       1.0  0.09454  0.52668  0.31024  1.0000
  C   C79       1.0  0.50535  0.32675  0.36945  1.0000
  C   C80       1.0  0.70526  0.18295  0.28720  1.0000
  C   C81       1.0  0.84446  0.51639  0.28746  1.0000
  C   C82       1.0  0.52227  0.68576  0.30417  1.0000
  C   C83       1.0  0.34694  0.84075  0.29655  1.0000
  C   C84       1.0  0.20119  0.50726  0.40745  1.0000
  C   C85       1.0  0.69465  0.52393  0.20540  1.0000
  C   C86       1.0  0.49161  0.16976  0.20967  1.0000
  C   C87       1.0  0.84800  0.31199  0.18696  1.0000
  C   C88       1.0  0.30625  0.46566  0.18876  1.0000
  C   C89       1.0  0.54190  0.83674  0.18896  1.0000
  C   C90       1.0  0.17901  0.69219  0.17602  1.0000
  C   C91       1.0  0.49461  0.20932  0.25789  1.0000
  C   C92       1.0  0.27973  0.47627  0.24536  1.0000
  C   C93       1.0  0.22239  0.72993  0.21201  1.0000
  C   C94       1.0  0.45990  0.21114  0.12661  1.0000
  C   C95       1.0  0.23417  0.44315  0.19541  1.0000
  C   C96       1.0  0.22117  0.75955  0.12969  1.0000
  C   C97       1.0  0.46269  0.24889  0.16387  1.0000
  C   C98       1.0  0.20860  0.45289  0.24849  1.0000
  C   C99       1.0  0.26150  0.79616  0.15939  1.0000
  C   C100      1.0  0.50026  0.28591  0.33486  1.0000
  C   C101      1.0  0.22814  0.49615  0.35695  1.0000
  C   C102      1.0  0.30433  0.80365  0.27013  1.0000
  C   C103      1.0  0.53420  0.28374  0.46926  1.0000
  C   C104      1.0  0.27394  0.52917  0.40956  1.0000
  C   C105      1.0  0.30577  0.77429  0.35426  1.0000
  C   C106      1.0  0.53145  0.24596  0.43194  1.0000
  C   C107      1.0  0.29930  0.51948  0.35461  1.0000
  C   C108      1.0  0.26546  0.73814  0.32793  1.0000
  C   C109      1.0  0.46497  0.48188  0.72653  1.0000
  C   C110      1.0  0.50017  0.99653  0.76755  1.0000
  C   C111      1.0  0.98586  0.50698  0.73414  1.0000
  C   C112      1.0  0.50642  0.51852  0.75367  1.0000
  C   C113      1.0  0.46498  0.99994  0.76576  1.0000
  C   C114      1.0  0.98367  0.47006  0.75318  1.0000
  C   C115      1.0  0.54022  0.51295  0.74157  1.0000
  C   C116      1.0  0.46798  0.03849  0.74705  1.0000
  C   C117      1.0  0.94034  0.43188  0.71460  1.0000
  C   C118      1.0  0.42595  0.48356  0.68587  1.0000
  C   C119      1.0  0.49219  0.95461  0.72437  1.0000
  C   C120      1.0  0.02474  0.54002  0.72181  1.0000
  C   C121      1.0  0.51329  0.56008  0.78710  1.0000
  C   C122      1.0  0.42696  0.96398  0.77296  1.0000
  C   C123      1.0  0.02441  0.47065  0.80979  1.0000
  C   C124      1.0  0.46320  0.44433  0.74834  1.0000
  C   C125      1.0  0.54306  0.03401  0.79950  1.0000
  C   C126      1.0  0.95020  0.51096  0.73698  1.0000
  C   C127      1.0  0.57490  0.54248  0.70581  1.0000
  C   C128      1.0  0.43063  0.04193  0.69531  1.0000
  C   C129      1.0  0.92950  0.38959  0.66000  1.0000
  C   C130      1.0  0.37967  0.44612  0.60584  1.0000
  C   C131      1.0  0.51744  0.94540  0.65776  1.0000
  C   C132      1.0  0.02544  0.57266  0.65729  1.0000
  C   C133      1.0  0.60800  0.53802  0.70157  1.0000
  C   C134      1.0  0.43507  0.07959  0.68835  1.0000
  C   C135      1.0  0.89098  0.35424  0.64606  1.0000
  C   C136      1.0  0.34548  0.44901  0.60736  1.0000
  C   C137      1.0  0.51230  0.90673  0.63079  1.0000
  C   C138      1.0  0.06383  0.60600  0.66216  1.0000
  C   C139      1.0  0.60828  0.50283  0.73204  1.0000
  C   C140      1.0  0.47815  0.11702  0.73476  1.0000
  C   C141      1.0  0.86016  0.35933  0.68279  1.0000
  C   C142      1.0  0.35579  0.49025  0.68869  1.0000
  C   C143      1.0  0.48060  0.87437  0.66886  1.0000
  C   C144      1.0  0.10430  0.60784  0.72274  1.0000
  C   C145      1.0  0.57235  0.47181  0.75198  1.0000
  C   C146      1.0  0.51364  0.11283  0.76452  1.0000
  C   C147      1.0  0.86688  0.39911  0.70760  1.0000
  C   C148      1.0  0.39804  0.52675  0.72910  1.0000
  C   C149      1.0  0.45118  0.88058  0.70724  1.0000
  C   C150      1.0  0.10286  0.57381  0.76881  1.0000
  C   C151      1.0  0.53744  0.47504  0.75035  1.0000
  C   C152      1.0  0.50873  0.07409  0.76031  1.0000
  C   C153      1.0  0.90555  0.43529  0.71914  1.0000
  C   C154      1.0  0.43247  0.52410  0.71957  1.0000
  C   C155      1.0  0.45504  0.91936  0.72864  1.0000
  C   C156      1.0  0.06387  0.53947  0.76453  1.0000
  C   C157      1.0  0.42850  0.41132  0.77357  1.0000
  C   C158      1.0  0.58382  0.03613  0.85612  1.0000
  C   C159      1.0  0.95363  0.54996  0.75956  1.0000
  C   C160      1.0  0.55692  0.60046  0.86017  1.0000
  C   C161      1.0  0.39416  0.96590  0.80826  1.0000
  C   C162      1.0  0.02863  0.43996  0.87792  1.0000
  C   C163      1.0  0.42448  0.37384  0.77592  1.0000
  C   C164      1.0  0.62147  0.06844  0.85293  1.0000
  C   C165      1.0  0.91996  0.55353  0.76271  1.0000
  C   C166      1.0  0.56120  0.63829  0.86399  1.0000
  C   C167      1.0  0.35642  0.93047  0.79952  1.0000
  C   C168      1.0  0.06437  0.43695  0.90514  1.0000
  C   C169      1.0  0.45736  0.36836  0.76436  1.0000
  C   C170      1.0  0.62094  0.10138  0.79680  1.0000
  C   C171      1.0  0.88021  0.51826  0.75035  1.0000
  C   C172      1.0  0.52181  0.63835  0.79925  1.0000
  C   C173      1.0  0.34912  0.88981  0.75886  1.0000
  C   C174      1.0  0.09952  0.46611  0.87195  1.0000
  C   C175      1.0  0.49485  0.40270  0.76474  1.0000
  C   C176      1.0  0.58340  0.10261  0.76459  1.0000
  C   C177      1.0  0.87721  0.48035  0.74062  1.0000
  C   C178      1.0  0.47992  0.60045  0.75326  1.0000
  C   C179      1.0  0.38315  0.88823  0.74259  1.0000
  C   C180      1.0  0.09953  0.50037  0.83404  1.0000
  C   C181      1.0  0.49886  0.44067  0.75795  1.0000
  C   C182      1.0  0.54572  0.07089  0.77593  1.0000
  C   C183      1.0  0.91099  0.47592  0.73472  1.0000
  C   C184      1.0  0.47549  0.56210  0.75545  1.0000
  C   C185      1.0  0.42189  0.92401  0.75208  1.0000
  C   C186      1.0  0.06338  0.50399  0.80695  1.0000
  C   C187      1.0  0.48446  0.32660  0.82478  1.0000
  C   C188      1.0  0.66785  0.16821  0.78723  1.0000
  C   C189      1.0  0.81565  0.50010  0.78364  1.0000
  C   C190      1.0  0.49940  0.68460  0.79039  1.0000
  C   C191      1.0  0.30806  0.82264  0.77636  1.0000
  C   C192      1.0  0.17127  0.48949  0.90570  1.0000
  C   C193      1.0  0.67353  0.52016  0.70822  1.0000
  C   C194      1.0  0.45897  0.16375  0.65155  1.0000
  C   C195      1.0  0.81675  0.29249  0.70262  1.0000
  C   C196      1.0  0.28724  0.46583  0.69465  1.0000
  C   C197      1.0  0.50705  0.83129  0.68285  1.0000
  C   C198      1.0  0.14505  0.66665  0.65109  1.0000
  C   C199      1.0  0.46775  0.20627  0.69216  1.0000
  C   C200      1.0  0.25835  0.47254  0.74974  1.0000
  C   C201      1.0  0.18676  0.70443  0.67482  1.0000
  C   C202      1.0  0.43447  0.21024  0.56532  1.0000
  C   C203      1.0  0.21339  0.43639  0.69188  1.0000
  C   C204      1.0  0.18289  0.73337  0.59334  1.0000
  C   C205      1.0  0.43997  0.24937  0.60666  1.0000
  C   C206      1.0  0.18493  0.44133  0.74273  1.0000
  C   C207      1.0  0.22171  0.77158  0.62250  1.0000
  C   C208      1.0  0.47925  0.28585  0.77627  1.0000
  C   C209      1.0  0.20070  0.48279  0.85552  1.0000
  C   C210      1.0  0.26610  0.78200  0.73420  1.0000
  C   C211      1.0  0.51349  0.28245  0.89898  1.0000
  C   C212      1.0  0.24562  0.51890  0.91344  1.0000
  C   C213      1.0  0.26979  0.75226  0.80921  1.0000
  C   C214      1.0  0.50776  0.24320  0.85888  1.0000
  C   C215      1.0  0.27411  0.51401  0.86232  1.0000
  C   C216      1.0  0.23094  0.71415  0.78100  1.0000
  N   N1        1.0  0.66116  0.49653  0.22764  1.0000
  N   N2        1.0  0.52503  0.16766  0.30926  1.0000
  N   N3        1.0  0.85213  0.34686  0.17579  1.0000
  N   N4        1.0  0.34582  0.49617  0.21393  1.0000
  N   N5        1.0  0.51162  0.84396  0.17396  1.0000
  N   N6        1.0  0.17718  0.66432  0.25219  1.0000
  N   N7        1.0  0.47285  0.32879  0.25962  1.0000
  N   N8        1.0  0.69826  0.14634  0.28417  1.0000
  N   N9        1.0  0.87521  0.54251  0.24909  1.0000
  N   N10       1.0  0.54917  0.67559  0.29688  1.0000
  N   N11       1.0  0.34774  0.86994  0.23275  1.0000
  N   N12       1.0  0.15885  0.47790  0.35824  1.0000
  N   N13       1.0  0.64046  0.49505  0.73822  1.0000
  N   N14       1.0  0.48829  0.15821  0.76184  1.0000
  N   N15       1.0  0.82222  0.32779  0.69086  1.0000
  N   N16       1.0  0.32761  0.49783  0.73288  1.0000
  N   N17       1.0  0.47506  0.83578  0.66906  1.0000
  N   N18       1.0  0.14566  0.64117  0.73971  1.0000
  N   N19       1.0  0.45008  0.32836  0.73866  1.0000
  N   N20       1.0  0.65860  0.13076  0.78049  1.0000
  N   N21       1.0  0.84665  0.52408  0.74198  1.0000
  N   N22       1.0  0.52725  0.67599  0.78087  1.0000
  N   N23       1.0  0.30798  0.85318  0.72724  1.0000
  N   N24       1.0  0.12990  0.45775  0.85870  1.0000
  C  Sn1       1.0  0.47230  0.75940  0.78577  1.0000
  C   C217      1.0  0.50431  0.79283  0.75673  1.0000
  C  Sn2       1.0  0.53368  0.78856  0.70802  1.0000
  C  Sn3       1.0  0.53098  0.75007  0.68780  1.0000
  C   C218      1.0  0.49898  0.71666  0.71680  1.0000
  C  Sn4       1.0  0.46960  0.72090  0.76555  1.0000
  O  Te1       1.0  0.44327  0.76436  0.83436  1.0000
  O  Te2       1.0  0.56541  0.82243  0.67978  1.0000
  O  Te3       1.0  0.56004  0.74513  0.63918  1.0000
  O  Te4       1.0  0.43787  0.68706  0.79376  1.0000
  Mg  Mg1       1.0  0.59752  0.80032  0.61537  1.0000
  Mg  Mg2       1.0  0.40574  0.70913  0.85806  1.0000
  C  Sn5       1.0  0.80565  0.56259  0.28082  1.0000
  C   C219      1.0  0.81177  0.53084  0.31293  1.0000
  C  Sn6       1.0  0.77470  0.49057  0.28261  1.0000
  C  Sn7       1.0  0.73056  0.48184  0.21874  1.0000
  C   C220      1.0  0.72445  0.51358  0.18664  1.0000
  C  Sn8       1.0  0.76151  0.55386  0.21695  1.0000
  O  Te5       1.0  0.84320  0.60261  0.31205  1.0000
  O  Te6       1.0  0.78167  0.45934  0.31575  1.0000
  O  Te7       1.0  0.69300  0.44177  0.18753  1.0000
  O  Te8       1.0  0.75455  0.58507  0.18381  1.0000
  Mg  Mg3       1.0  0.71980  0.40973  0.25263  1.0000
  Mg  Mg4       1.0  0.81639  0.63468  0.24678  1.0000
  C  Sn9       1.0  0.57591  0.76911  0.30442  1.0000
  C   C221      1.0  0.54030  0.73572  0.31852  1.0000
  C  Sn10      1.0  0.49883  0.73106  0.26202  1.0000
  C  Sn11      1.0  0.49281  0.76036  0.18982  1.0000
  C   C222      1.0  0.52840  0.79372  0.17573  1.0000
  C  Sn12      1.0  0.56989  0.79841  0.23222  1.0000
  O  Te9       1.0  0.61708  0.77315  0.36172  1.0000
  O  Te10      1.0  0.46373  0.69744  0.27752  1.0000
  O  Te11      1.0  0.45160  0.75629  0.13251  1.0000
  O  Te12      1.0  0.60497  0.83200  0.21673  1.0000
  Mg  Mg5       1.0  0.41397  0.70529  0.18096  1.0000
  Mg  Mg6       1.0  0.65474  0.82417  0.31314  1.0000
  C  Sn13      1.0  0.75812  0.20779  0.67682  1.0000
  C   C223      1.0  0.76884  0.24748  0.66677  1.0000
  C  Sn14      1.0  0.74954  0.26593  0.72338  1.0000
  C  Sn15      1.0  0.71890  0.24428  0.79156  1.0000
  C   C224      1.0  0.70820  0.20462  0.80161  1.0000
  C  Sn16      1.0  0.72748  0.18614  0.74500  1.0000
  O  Te13      1.0  0.77782  0.18994  0.61948  1.0000
  O  Te14      1.0  0.76077  0.30563  0.71197  1.0000
  O  Te15      1.0  0.69920  0.26216  0.84891  1.0000
  O  Te16      1.0  0.71628  0.14647  0.75641  1.0000
  Mg  Mg7       1.0  0.72513  0.31687  0.80686  1.0000
  Mg  Mg8       1.0  0.75191  0.13521  0.66166  1.0000
  C  Sn17      1.0  0.79045  0.22079  0.29302  1.0000
  C   C225      1.0  0.75457  0.21992  0.30302  1.0000
  C  Sn18      1.0  0.74386  0.24756  0.24584  1.0000
  C  Sn19      1.0  0.76953  0.27665  0.17710  1.0000
  C   C226      1.0  0.80538  0.27750  0.16710  1.0000
  C  Sn20      1.0  0.81612  0.24988  0.22429  1.0000
  O  Te17      1.0  0.80055  0.19287  0.35094  1.0000
  O  Te18      1.0  0.70785  0.24611  0.25722  1.0000
  O  Te19      1.0  0.75940  0.30458  0.11917  1.0000
  O  Te20      1.0  0.85210  0.25131  0.21291  1.0000
  Mg  Mg9       1.0  0.70720  0.29050  0.16142  1.0000
  Mg  Mg10      1.0  0.85276  0.20692  0.30856  1.0000
  C  Sn21      1.0  0.72041  0.48267  0.82626  1.0000
  C   C227      1.0  0.71496  0.51370  0.77707  1.0000
  C  Sn22      1.0  0.74016  0.53907  0.69981  1.0000
  C  Sn23      1.0  0.77144  0.53328  0.67100  1.0000
  C   C228      1.0  0.77687  0.50227  0.72015  1.0000
  C  Sn24      1.0  0.75169  0.47689  0.79745  1.0000
  O  Te21      1.0  0.69486  0.45767  0.90328  1.0000
  O  Te22      1.0  0.73414  0.56989  0.65180  1.0000
  O  Te23      1.0  0.79700  0.55832  0.59392  1.0000
  O  Te24      1.0  0.75769  0.44607  0.84541  1.0000
  Mg  Mg11      1.0  0.77675  0.59607  0.55115  1.0000
  Mg  Mg12      1.0  0.71508  0.41987  0.94598  1.0000
