data_image0
_chemical_formula_structural       H96C180N24SnCSn2CSnTe4Mg2SnCSn2CSnTe4Mg2SnCSn2CSnTe4Mg2SnCSn2CSnTe4Mg2SnCSn2CSnTe4Mg2SnCSn2CSnTe4Mg2SnCSn2CSnTe4Mg2SnCSn2CSnTe4Mg2SnCSn2CSnTe4Mg2SnCSn2CSnTe4Mg2SnCSn2CSnTe4Mg2SnCSn2CSnTe4Mg2SnCSn2CSnTe4Mg2SnCSn2CSnTe4Mg2SnCSn2CSnTe4Mg2SnCSn2CSnTe4Mg2SnCSn2CSnTe4Mg2SnCSn2CSnTe4Mg2SnCSn2CSnTe4Mg2SnCSn2CSnTe4Mg2SnCSn2CSnTe4Mg2SnCSn2CSnTe4Mg2SnCSn2CSnTe4Mg2SnCSn2CSnTe4Mg2
_chemical_formula_sum              "H96 C228 N24 Sn96 Te96 Mg48"
_cell_length_a       47.0845
_cell_length_b       47.1112
_cell_length_c       8.09474
_cell_angle_alpha    112.197
_cell_angle_beta     70.6771
_cell_angle_gamma    120.36

_symmetry_space_group_name_H-M    'P1'
_space_group_IT_number       1

loop_
  _space_group_symop_operation_xyz
  'x, y, z'

loop_
  _atom_site_type_symbol
  _atom_site_label
  _atom_site_symmetry_multiplicity
  _atom_site_fract_x
  _atom_site_fract_y
  _atom_site_fract_z
  _atom_site_occupancy
  H   H1        1.0  0.58334  0.56998  0.30845  1.0000
  H   H2        1.0  0.43551  0.02606  0.36582  1.0000
  H   H3        1.0  0.98657  0.42894  0.32983  1.0000
  H   H4        1.0  0.42519  0.45259  0.39652  1.0000
  H   H5        1.0  0.55169  0.98993  0.36832  1.0000
  H   H6        1.0  0.01767  0.58255  0.31586  1.0000
  H   H7        1.0  0.62887  0.56444  0.34165  1.0000
  H   H8        1.0  0.43995  0.08230  0.40658  1.0000
  H   H9        1.0  0.93144  0.38338  0.39573  1.0000
  H   H10       1.0  0.37391  0.45761  0.44180  1.0000
  H   H11       1.0  0.54254  0.93634  0.39905  1.0000
  H   H12       1.0  0.06912  0.63279  0.38245  1.0000
  H   H13       1.0  0.56716  0.45925  0.31822  1.0000
  H   H14       1.0  0.54626  0.12179  0.28445  1.0000
  H   H15       1.0  0.88640  0.43394  0.30735  1.0000
  H   H16       1.0  0.43091  0.55017  0.28274  1.0000
  H   H17       1.0  0.44766  0.88674  0.24065  1.0000
  H   H18       1.0  0.11518  0.57080  0.32569  1.0000
  H   H19       1.0  0.43943  0.42880  0.11278  1.0000
  H   H20       1.0  0.57345  0.99914  0.12914  1.0000
  H   H21       1.0  0.00351  0.56011  0.08655  1.0000
  H   H22       1.0  0.57584  0.57421  0.12689  1.0000
  H   H23       1.0  0.43322  0.99722  0.10304  1.0000
  H   H24       1.0  0.01236  0.42594  0.05588  1.0000
  H   H25       1.0  0.43426  0.37248  0.08345  1.0000
  H   H26       1.0  0.62899  0.04727  0.11708  1.0000
  H   H27       1.0  0.95375  0.56504  0.09056  1.0000
  H   H28       1.0  0.57973  0.62682  0.11774  1.0000
  H   H29       1.0  0.37854  0.94749  0.07503  1.0000
  H   H30       1.0  0.06192  0.41948  0.04666  1.0000
  H   H31       1.0  0.52747  0.41983  0.26418  1.0000
  H   H32       1.0  0.58470  0.11518  0.26997  1.0000
  H   H33       1.0  0.89122  0.47247  0.25398  1.0000
  H   H34       1.0  0.47376  0.58592  0.23473  1.0000
  H   H35       1.0  0.41354  0.89054  0.19362  1.0000
  H   H36       1.0  0.11167  0.52644  0.28394  1.0000
  H   H37       1.0  0.66486  0.54683  0.24366  1.0000
  H   H38       1.0  0.45493  0.11829  0.23871  1.0000
  H   H39       1.0  0.89090  0.34137  0.23027  1.0000
  H   H40       1.0  0.34240  0.45548  0.26465  1.0000
  H   H41       1.0  0.53968  0.88660  0.22872  1.0000
  H   H42       1.0  0.11873  0.65773  0.23928  1.0000
  H   H43       1.0  0.86165  0.47398  0.09173  1.0000
  H   H44       1.0  0.52507  0.37176  0.11031  1.0000
  H   H45       1.0  0.63433  0.14137  0.10931  1.0000
  H   H46       1.0  0.15154  0.51481  0.14419  1.0000
  H   H47       1.0  0.48825  0.62401  0.07856  1.0000
  H   H48       1.0  0.37557  0.85147  0.04076  1.0000
  H   H49       1.0  0.57383  0.55895  0.82066  1.0000
  H   H50       1.0  0.43626  0.01868  0.86561  1.0000
  H   H51       1.0  0.98142  0.43108  0.84561  1.0000
  H   H52       1.0  0.41576  0.44064  0.87770  1.0000
  H   H53       1.0  0.55747  0.98649  0.86128  1.0000
  H   H54       1.0  0.01601  0.58340  0.81146  1.0000
  H   H55       1.0  0.61868  0.55355  0.86507  1.0000
  H   H56       1.0  0.43931  0.07421  0.90838  1.0000
  H   H57       1.0  0.92590  0.38585  0.90972  1.0000
  H   H58       1.0  0.36518  0.44745  0.92590  1.0000
  H   H59       1.0  0.54981  0.93333  0.89207  1.0000
  H   H60       1.0  0.06785  0.63297  0.88061  1.0000
  H   H61       1.0  0.55861  0.44704  0.80896  1.0000
  H   H62       1.0  0.54585  0.11695  0.79985  1.0000
  H   H63       1.0  0.88305  0.43459  0.79009  1.0000
  H   H64       1.0  0.42502  0.54298  0.79663  1.0000
  H   H65       1.0  0.45193  0.88320  0.76498  1.0000
  H   H66       1.0  0.11128  0.56918  0.83126  1.0000
  H   H67       1.0  0.43151  0.41760  0.60123  1.0000
  H   H68       1.0  0.57733  0.99650  0.62052  1.0000
  H   H69       1.0  0.00139  0.56164  0.58549  1.0000
  H   H70       1.0  0.56817  0.56159  0.62421  1.0000
  H   H71       1.0  0.43726  0.99069  0.59967  1.0000
  H   H72       1.0  0.00699  0.42494  0.56703  1.0000
  H   H73       1.0  0.42579  0.36127  0.57616  1.0000
  H   H74       1.0  0.63223  0.04582  0.60419  1.0000
  H   H75       1.0  0.95242  0.56715  0.58394  1.0000
  H   H76       1.0  0.57370  0.61524  0.61586  1.0000
  H   H77       1.0  0.38279  0.94064  0.57098  1.0000
  H   H78       1.0  0.05671  0.41819  0.54969  1.0000
  H   H79       1.0  0.51805  0.40887  0.76871  1.0000
  H   H80       1.0  0.58446  0.11124  0.77564  1.0000
  H   H81       1.0  0.88855  0.47469  0.74827  1.0000
  H   H82       1.0  0.46779  0.57760  0.74213  1.0000
  H   H83       1.0  0.41712  0.88535  0.70984  1.0000
  H   H84       1.0  0.10803  0.52513  0.77614  1.0000
  H   H85       1.0  0.65514  0.53651  0.75195  1.0000
  H   H86       1.0  0.45361  0.11035  0.74706  1.0000
  H   H87       1.0  0.88626  0.34318  0.73603  1.0000
  H   H88       1.0  0.33545  0.44871  0.75652  1.0000
  H   H89       1.0  0.54502  0.88225  0.72962  1.0000
  H   H90       1.0  0.11856  0.65724  0.73824  1.0000
  H   H91       1.0  0.85983  0.47538  0.59035  1.0000
  H   H92       1.0  0.51597  0.36117  0.61592  1.0000
  H   H93       1.0  0.63205  0.13856  0.61678  1.0000
  H   H94       1.0  0.14804  0.51331  0.63833  1.0000
  H   H95       1.0  0.48343  0.61588  0.58748  1.0000
  H   H96       1.0  0.37894  0.84526  0.55187  1.0000
  C   C1        1.0  0.48842  0.49124  0.24800  1.0000
  C   C2        1.0  0.51248  0.00107  0.23707  1.0000
  C   C3        1.0  0.00556  0.51512  0.21751  1.0000
  C   C4        1.0  0.52030  0.51944  0.23920  1.0000
  C   C5        1.0  0.48481  0.00491  0.23334  1.0000
  C   C6        1.0  0.00258  0.48374  0.21699  1.0000
  C   C7        1.0  0.54832  0.51647  0.26012  1.0000
  C   C8        1.0  0.48812  0.03915  0.27410  1.0000
  C   C9        1.0  0.96977  0.45680  0.25566  1.0000
  C   C10       1.0  0.45854  0.49604  0.28736  1.0000
  C   C11       1.0  0.50685  0.96939  0.25965  1.0000
  C   C12       1.0  0.03662  0.54551  0.25414  1.0000
  C   C13       1.0  0.52260  0.54982  0.21490  1.0000
  C   C14       1.0  0.45411  0.97462  0.19133  1.0000
  C   C15       1.0  0.03263  0.47987  0.18793  1.0000
  C   C16       1.0  0.48589  0.45776  0.21805  1.0000
  C   C17       1.0  0.54567  0.02912  0.21992  1.0000
  C   C18       1.0  0.97666  0.51583  0.19395  1.0000
  C   C19       1.0  0.57985  0.54457  0.29063  1.0000
  C   C20       1.0  0.45981  0.04620  0.33381  1.0000
  C   C21       1.0  0.96511  0.42904  0.30895  1.0000
  C   C22       1.0  0.42667  0.47283  0.35744  1.0000
  C   C23       1.0  0.53008  0.96700  0.32296  1.0000
  C   C24       1.0  0.03941  0.57903  0.30287  1.0000
  C   C25       1.0  0.60581  0.54166  0.31498  1.0000
  C   C26       1.0  0.46230  0.07795  0.35866  1.0000
  C   C27       1.0  0.93405  0.40330  0.34699  1.0000
  C   C28       1.0  0.39763  0.47563  0.38411  1.0000
  C   C29       1.0  0.52495  0.93679  0.34201  1.0000
  C   C30       1.0  0.06847  0.60777  0.34387  1.0000
  C   C31       1.0  0.60196  0.51004  0.31743  1.0000
  C   C32       1.0  0.49414  0.10498  0.32680  1.0000
  C   C33       1.0  0.90517  0.40431  0.33788  1.0000
  C   C34       1.0  0.39927  0.50319  0.34561  1.0000
  C   C35       1.0  0.49547  0.90675  0.30284  1.0000
  C   C36       1.0  0.09708  0.60483  0.34075  1.0000
  C   C37       1.0  0.57040  0.48281  0.30459  1.0000
  C   C38       1.0  0.52237  0.09967  0.29483  1.0000
  C   C39       1.0  0.90906  0.43328  0.30637  1.0000
  C   C40       1.0  0.43080  0.52856  0.30016  1.0000
  C   C41       1.0  0.47092  0.90952  0.25896  1.0000
  C   C42       1.0  0.09363  0.57240  0.31545  1.0000
  C   C43       1.0  0.54394  0.48493  0.27279  1.0000
  C   C44       1.0  0.52028  0.06760  0.27140  1.0000
  C   C45       1.0  0.94054  0.45953  0.26419  1.0000
  C   C46       1.0  0.46060  0.52600  0.27234  1.0000
  C   C47       1.0  0.47569  0.94002  0.23770  1.0000
  C   C48       1.0  0.06440  0.54271  0.27070  1.0000
  C   C49       1.0  0.45823  0.42725  0.15402  1.0000
  C   C50       1.0  0.57538  0.02469  0.16707  1.0000
  C   C51       1.0  0.97912  0.54209  0.13663  1.0000
  C   C52       1.0  0.55312  0.57695  0.16448  1.0000
  C   C53       1.0  0.42833  0.97464  0.13608  1.0000
  C   C54       1.0  0.03367  0.44785  0.11228  1.0000
  C   C55       1.0  0.45523  0.39554  0.13561  1.0000
  C   C56       1.0  0.60678  0.05149  0.15739  1.0000
  C   C57       1.0  0.95132  0.54472  0.13503  1.0000
  C   C58       1.0  0.55556  0.60657  0.15284  1.0000
  C   C59       1.0  0.39781  0.94671  0.11693  1.0000
  C   C60       1.0  0.06127  0.44404  0.10533  1.0000
  C   C61       1.0  0.48000  0.39267  0.18146  1.0000
  C   C62       1.0  0.61071  0.08510  0.20027  1.0000
  C   C63       1.0  0.91897  0.51997  0.18419  1.0000
  C   C64       1.0  0.52664  0.61078  0.18330  1.0000
  C   C65       1.0  0.39171  0.91596  0.14411  1.0000
  C   C66       1.0  0.08943  0.47249  0.17482  1.0000
  C   C67       1.0  0.50853  0.42228  0.22963  1.0000
  C   C68       1.0  0.58193  0.08951  0.23713  1.0000
  C   C69       1.0  0.91611  0.49189  0.22093  1.0000
  C   C70       1.0  0.49612  0.58314  0.21437  1.0000
  C   C71       1.0  0.41829  0.91420  0.17376  1.0000
  C   C72       1.0  0.08986  0.50458  0.23241  1.0000
  C   C73       1.0  0.51273  0.45465  0.24144  1.0000
  C   C74       1.0  0.54968  0.06233  0.24125  1.0000
  C   C75       1.0  0.94413  0.48895  0.22485  1.0000
  C   C76       1.0  0.49323  0.55303  0.23036  1.0000
  C   C77       1.0  0.44933  0.94252  0.19671  1.0000
  C   C78       1.0  0.06271  0.50917  0.23124  1.0000
  C   C79       1.0  0.49938  0.35449  0.15911  1.0000
  C   C80       1.0  0.65067  0.13953  0.17171  1.0000
  C   C81       1.0  0.86368  0.49995  0.15862  1.0000
  C   C82       1.0  0.50850  0.64600  0.14824  1.0000
  C   C83       1.0  0.35474  0.85846  0.11207  1.0000
  C   C84       1.0  0.14534  0.49149  0.17744  1.0000
  C   C85       1.0  0.65800  0.52525  0.29492  1.0000
  C   C86       1.0  0.47742  0.14039  0.28638  1.0000
  C   C87       1.0  0.86926  0.34714  0.30073  1.0000
  C   C88       1.0  0.34440  0.48143  0.31120  1.0000
  C   C89       1.0  0.51457  0.86884  0.28018  1.0000
  C   C90       1.0  0.13609  0.65815  0.30470  1.0000
  C   C91       1.0  0.47999  0.48024  0.74434  1.0000
  C   C92       1.0  0.51552  0.99684  0.74727  1.0000
  C   C93       1.0  0.00264  0.51567  0.71278  1.0000
  C   C94       1.0  0.51190  0.50840  0.74071  1.0000
  C   C95       1.0  0.48733  0.99983  0.74372  1.0000
  C   C96       1.0  0.99900  0.48419  0.71549  1.0000
  C   C97       1.0  0.53964  0.50525  0.76339  1.0000
  C   C98       1.0  0.48939  0.03349  0.78264  1.0000
  C   C99       1.0  0.96588  0.45788  0.75533  1.0000
  C   C100      1.0  0.45042  0.48567  0.78346  1.0000
  C   C101      1.0  0.51083  0.96551  0.76992  1.0000
  C   C102      1.0  0.03395  0.54562  0.75007  1.0000
  C   C103      1.0  0.51502  0.53934  0.71913  1.0000
  C   C104      1.0  0.45719  0.96907  0.70097  1.0000
  C   C105      1.0  0.02847  0.47941  0.68859  1.0000
  C   C106      1.0  0.47743  0.44655  0.71134  1.0000
  C   C107      1.0  0.54822  0.02536  0.72572  1.0000
  C   C108      1.0  0.97406  0.51691  0.68859  1.0000
  C   C109      1.0  0.57060  0.53354  0.80135  1.0000
  C   C110      1.0  0.46046  0.03942  0.83851  1.0000
  C   C111      1.0  0.96043  0.43077  0.81702  1.0000
  C   C112      1.0  0.41800  0.46211  0.84635  1.0000
  C   C113      1.0  0.53534  0.96339  0.82379  1.0000
  C   C114      1.0  0.03743  0.57938  0.79915  1.0000
  C   C115      1.0  0.59621  0.53062  0.82933  1.0000
  C   C116      1.0  0.46212  0.07077  0.86355  1.0000
  C   C117      1.0  0.92912  0.40531  0.85503  1.0000
  C   C118      1.0  0.38943  0.46598  0.87536  1.0000
  C   C119      1.0  0.53106  0.93341  0.84221  1.0000
  C   C120      1.0  0.06662  0.60768  0.84203  1.0000
  C   C121      1.0  0.59287  0.49865  0.82257  1.0000
  C   C122      1.0  0.49364  0.09855  0.83608  1.0000
  C   C123      1.0  0.90074  0.40587  0.83643  1.0000
  C   C124      1.0  0.39205  0.49501  0.84660  1.0000
  C   C125      1.0  0.50100  0.90344  0.81262  1.0000
  C   C126      1.0  0.09458  0.60395  0.84160  1.0000
  C   C127      1.0  0.56166  0.47101  0.80222  1.0000
  C   C128      1.0  0.52235  0.09431  0.80726  1.0000
  C   C129      1.0  0.90540  0.43447  0.79749  1.0000
  C   C130      1.0  0.42401  0.52039  0.80830  1.0000
  C   C131      1.0  0.47551  0.90584  0.77602  1.0000
  C   C132      1.0  0.09035  0.57127  0.81693  1.0000
  C   C133      1.0  0.53525  0.47342  0.77142  1.0000
  C   C134      1.0  0.52102  0.06255  0.78230  1.0000
  C   C135      1.0  0.93708  0.46062  0.75757  1.0000
  C   C136      1.0  0.45327  0.51675  0.77714  1.0000
  C   C137      1.0  0.47957  0.93596  0.75372  1.0000
  C   C138      1.0  0.06110  0.54203  0.76863  1.0000
  C   C139      1.0  0.45005  0.41597  0.64486  1.0000
  C   C140      1.0  0.57848  0.02176  0.66403  1.0000
  C   C141      1.0  0.97682  0.54356  0.63288  1.0000
  C   C142      1.0  0.54603  0.56565  0.66621  1.0000
  C   C143      1.0  0.43206  0.96856  0.63804  1.0000
  C   C144      1.0  0.02885  0.44705  0.61701  1.0000
  C   C145      1.0  0.44677  0.38421  0.62911  1.0000
  C   C146      1.0  0.60949  0.04923  0.65156  1.0000
  C   C147      1.0  0.94943  0.54665  0.62948  1.0000
  C   C148      1.0  0.54928  0.59567  0.65518  1.0000
  C   C149      1.0  0.40176  0.94033  0.61772  1.0000
  C   C150      1.0  0.05653  0.44298  0.60620  1.0000
  C   C151      1.0  0.47111  0.38134  0.67973  1.0000
  C   C152      1.0  0.61214  0.08243  0.69890  1.0000
  C   C153      1.0  0.91686  0.52196  0.67660  1.0000
  C   C154      1.0  0.52092  0.60113  0.68904  1.0000
  C   C155      1.0  0.39562  0.91012  0.65079  1.0000
  C   C156      1.0  0.08532  0.47124  0.66994  1.0000
  C   C157      1.0  0.49957  0.41099  0.72802  1.0000
  C   C158      1.0  0.58270  0.08591  0.74201  1.0000
  C   C159      1.0  0.91366  0.49375  0.71385  1.0000
  C   C160      1.0  0.48982  0.57419  0.72240  1.0000
  C   C161      1.0  0.42187  0.90882  0.68774  1.0000
  C   C162      1.0  0.08602  0.50341  0.72719  1.0000
  C   C163      1.0  0.50407  0.44336  0.73702  1.0000
  C   C164      1.0  0.55097  0.05816  0.74948  1.0000
  C   C165      1.0  0.94128  0.49023  0.71754  1.0000
  C   C166      1.0  0.48617  0.54363  0.73728  1.0000
  C   C167      1.0  0.45269  0.93749  0.71210  1.0000
  C   C168      1.0  0.05888  0.50833  0.72885  1.0000
  C   C169      1.0  0.49056  0.34405  0.66862  1.0000
  C   C170      1.0  0.64958  0.13749  0.67373  1.0000
  C   C171      1.0  0.86144  0.50127  0.65486  1.0000
  C   C172      1.0  0.50444  0.63756  0.65264  1.0000
  C   C173      1.0  0.35823  0.85265  0.61720  1.0000
  C   C174      1.0  0.14138  0.48975  0.67091  1.0000
  C   C175      1.0  0.64898  0.51493  0.80133  1.0000
  C   C176      1.0  0.47582  0.13283  0.79441  1.0000
  C   C177      1.0  0.86462  0.34894  0.80412  1.0000
  C   C178      1.0  0.33791  0.47501  0.80554  1.0000
  C   C179      1.0  0.51991  0.86480  0.78294  1.0000
  C   C180      1.0  0.13510  0.65680  0.80568  1.0000
  N   N1        1.0  0.62709  0.50423  0.33554  1.0000
  N   N2        1.0  0.49945  0.13723  0.33167  1.0000
  N   N3        1.0  0.87279  0.37816  0.36111  1.0000
  N   N4        1.0  0.37164  0.50776  0.35477  1.0000
  N   N5        1.0  0.48911  0.87525  0.31775  1.0000
  N   N6        1.0  0.12860  0.63256  0.36218  1.0000
  N   N7        1.0  0.47424  0.36089  0.18723  1.0000
  N   N8        1.0  0.64257  0.11220  0.21391  1.0000
  N   N9        1.0  0.89146  0.52530  0.20103  1.0000
  N   N10       1.0  0.53003  0.64271  0.19584  1.0000
  N   N11       1.0  0.35929  0.88972  0.15695  1.0000
  N   N12       1.0  0.11531  0.46722  0.18681  1.0000
  N   N13       1.0  0.61828  0.49311  0.83949  1.0000
  N   N14       1.0  0.49824  0.13054  0.84122  1.0000
  N   N15       1.0  0.86821  0.37996  0.85953  1.0000
  N   N16       1.0  0.36513  0.50071  0.85474  1.0000
  N   N17       1.0  0.49479  0.87190  0.82604  1.0000
  N   N18       1.0  0.12634  0.63098  0.86473  1.0000
  N   N19       1.0  0.46524  0.34995  0.69330  1.0000
  N   N20       1.0  0.64353  0.11030  0.70969  1.0000
  N   N21       1.0  0.88925  0.52717  0.69301  1.0000
  N   N22       1.0  0.52551  0.63343  0.69921  1.0000
  N   N23       1.0  0.36317  0.88387  0.65936  1.0000
  N   N24       1.0  0.11120  0.46572  0.67991  1.0000
  C  Sn1       1.0  0.70371  0.48321  0.28561  1.0000
  C   C181      1.0  0.73731  0.50599  0.25018  1.0000
  C  Sn2       1.0  0.74618  0.53947  0.25668  1.0000
  C  Sn3       1.0  0.72094  0.55043  0.29961  1.0000
  C   C182      1.0  0.68736  0.52767  0.33504  1.0000
  C  Sn4       1.0  0.67846  0.49418  0.32854  1.0000
  O  Te1       1.0  0.69541  0.44986  0.27835  1.0000
  O  Te2       1.0  0.77994  0.56177  0.22069  1.0000
  O  Te3       1.0  0.72926  0.58381  0.30684  1.0000
  O  Te4       1.0  0.64472  0.47189  0.36453  1.0000
  Mg  Mg1       1.0  0.77869  0.60468  0.24740  1.0000
  Mg  Mg2       1.0  0.64595  0.42898  0.33796  1.0000
  C  Sn5       1.0  0.50795  0.21305  0.38590  1.0000
  C   C183      1.0  0.48172  0.18057  0.34527  1.0000
  C  Sn6       1.0  0.45811  0.17426  0.25171  1.0000
  C  Sn7       1.0  0.46077  0.20096  0.19752  1.0000
  C   C184      1.0  0.48698  0.23341  0.23813  1.0000
  C  Sn8       1.0  0.51061  0.23975  0.33172  1.0000
  O  Te5       1.0  0.53128  0.21879  0.47955  1.0000
  O  Te6       1.0  0.43210  0.14158  0.21268  1.0000
  O  Te7       1.0  0.43741  0.19520  0.10381  1.0000
  O  Te8       1.0  0.53661  0.27241  0.37072  1.0000
  Mg  Mg3       1.0  0.40651  0.14639  0.08215  1.0000
  Mg  Mg4       1.0  0.56222  0.26762  0.50115  1.0000
  C  Sn9       1.0  0.82881  0.27945  0.15526  1.0000
  C   C185      1.0  0.83524  0.31297  0.25509  1.0000
  C  Sn10      1.0  0.81070  0.32008  0.39327  1.0000
  C  Sn11      1.0  0.77908  0.29312  0.43258  1.0000
  C   C186      1.0  0.77266  0.25962  0.33281  1.0000
  C  Sn12      1.0  0.79719  0.25249  0.19457  1.0000
  O  Te9       1.0  0.85371  0.27293  0.01773  1.0000
  O  Te10      1.0  0.81771  0.35380  0.49117  1.0000
  O  Te11      1.0  0.75417  0.29966  0.57024  1.0000
  O  Te12      1.0  0.79019  0.21879  0.09673  1.0000
  Mg  Mg5       1.0  0.77569  0.34977  0.66564  1.0000
  Mg  Mg6       1.0  0.79989  0.27138  0.92230  1.0000
  C  Sn13      1.0  0.29675  0.52024  0.30857  1.0000
  C   C187      1.0  0.26779  0.49354  0.24430  1.0000
  C  Sn14      1.0  0.26042  0.45982  0.22337  1.0000
  C  Sn15      1.0  0.28244  0.45263  0.26771  1.0000
  C   C188      1.0  0.31137  0.47931  0.33197  1.0000
  C  Sn16      1.0  0.31876  0.51304  0.35292  1.0000
  O  Te13      1.0  0.30362  0.55376  0.32845  1.0000
  O  Te14      1.0  0.23132  0.43355  0.15881  1.0000
  O  Te15      1.0  0.27554  0.41907  0.24778  1.0000
  O  Te16      1.0  0.34783  0.53930  0.41746  1.0000
  Mg  Mg7       1.0  0.23283  0.39207  0.15502  1.0000
  Mg  Mg8       1.0  0.34634  0.58079  0.42139  1.0000
  C  Sn17      1.0  0.54630  0.81323  0.25334  1.0000
  C   C189      1.0  0.51961  0.78611  0.32008  1.0000
  C  Sn18      1.0  0.48718  0.78340  0.36481  1.0000
  C  Sn19      1.0  0.48129  0.80831  0.34225  1.0000
  C   C190      1.0  0.50797  0.83541  0.27552  1.0000
  C  Sn20      1.0  0.54041  0.83814  0.23078  1.0000
  O  Te17      1.0  0.57851  0.81543  0.20949  1.0000
  O  Te18      1.0  0.46090  0.75606  0.43136  1.0000
  O  Te19      1.0  0.44904  0.80609  0.38617  1.0000
  O  Te20      1.0  0.56668  0.86546  0.16424  1.0000
  Mg  Mg9       1.0  0.42146  0.76415  0.47192  1.0000
  Mg  Mg10      1.0  0.60612  0.85738  0.12355  1.0000
  C  Sn21      1.0  0.22385  0.70752  0.27488  1.0000
  C   C191      1.0  0.23040  0.73771  0.24409  1.0000
  C  Sn22      1.0  0.20419  0.74529  0.26328  1.0000
  C  Sn23      1.0  0.17074  0.72223  0.31443  1.0000
  C   C192      1.0  0.16420  0.69207  0.34522  1.0000
  C  Sn24      1.0  0.19039  0.68446  0.32603  1.0000
  O  Te21      1.0  0.25044  0.70047  0.25491  1.0000
  O  Te22      1.0  0.21137  0.77562  0.23170  1.0000
  O  Te23      1.0  0.14414  0.72931  0.33439  1.0000
  O  Te24      1.0  0.18324  0.65416  0.35761  1.0000
  Mg  Mg11      1.0  0.16662  0.77388  0.27649  1.0000
  Mg  Mg12      1.0  0.22796  0.65588  0.31295  1.0000
  C  Sn25      1.0  0.81327  0.54285  0.27289  1.0000
  C   C193      1.0  0.78193  0.51764  0.23203  1.0000
  C  Sn26      1.0  0.77476  0.48323  0.18478  1.0000
  C  Sn27      1.0  0.79944  0.47383  0.17833  1.0000
  C   C194      1.0  0.83077  0.49904  0.21921  1.0000
  C  Sn28      1.0  0.83795  0.53345  0.26645  1.0000
  O  Te25      1.0  0.81989  0.57709  0.31980  1.0000
  O  Te26      1.0  0.74325  0.45849  0.14443  1.0000
  O  Te27      1.0  0.79280  0.43957  0.13137  1.0000
  O  Te28      1.0  0.86945  0.55819  0.30681  1.0000
  Mg  Mg13      1.0  0.74618  0.41523  0.08799  1.0000
  Mg  Mg14      1.0  0.86653  0.60145  0.36335  1.0000
  C  Sn29      1.0  0.52564  0.30423  0.24792  1.0000
  C   C195      1.0  0.49653  0.27729  0.30299  1.0000
  C  Sn30      1.0  0.46529  0.27228  0.29160  1.0000
  C  Sn31      1.0  0.46308  0.29466  0.22363  1.0000
  C   C196      1.0  0.49217  0.32158  0.16857  1.0000
  C  Sn32      1.0  0.52344  0.32661  0.17995  1.0000
  O  Te29      1.0  0.55661  0.30876  0.26050  1.0000
  O  Te30      1.0  0.43654  0.24517  0.34754  1.0000
  O  Te31      1.0  0.43207  0.29012  0.21109  1.0000
  O  Te32      1.0  0.55217  0.35370  0.12403  1.0000
  Mg  Mg15      1.0  0.40010  0.24952  0.30405  1.0000
  Mg  Mg16      1.0  0.58862  0.34936  0.16736  1.0000
  C  Sn33      1.0  0.73604  0.18813  0.22107  1.0000
  C   C197      1.0  0.74437  0.22106  0.22009  1.0000
  C  Sn34      1.0  0.71959  0.22974  0.22735  1.0000
  C  Sn35      1.0  0.68576  0.20499  0.23588  1.0000
  C   C198      1.0  0.67744  0.17208  0.23688  1.0000
  C  Sn36      1.0  0.70222  0.16338  0.22959  1.0000
  O  Te33      1.0  0.76123  0.18001  0.21373  1.0000
  O  Te34      1.0  0.72853  0.26282  0.22616  1.0000
  O  Te35      1.0  0.66057  0.21313  0.24321  1.0000
  O  Te36      1.0  0.69329  0.13032  0.23081  1.0000
  Mg  Mg17      1.0  0.68523  0.26157  0.23829  1.0000
  Mg  Mg18      1.0  0.73656  0.13154  0.21878  1.0000
  C  Sn37      1.0  0.21387  0.51705  0.15778  1.0000
  C   C199      1.0  0.18093  0.49176  0.16294  1.0000
  C  Sn38      1.0  0.17043  0.46480  0.23630  1.0000
  C  Sn39      1.0  0.19332  0.46309  0.30607  1.0000
  C   C200      1.0  0.22623  0.48837  0.30092  1.0000
  C  Sn40      1.0  0.23676  0.51534  0.22755  1.0000
  O  Te37      1.0  0.22382  0.54377  0.08383  1.0000
  O  Te38      1.0  0.13738  0.43980  0.23991  1.0000
  O  Te39      1.0  0.18334  0.43633  0.38005  1.0000
  O  Te40      1.0  0.26978  0.54032  0.22395  1.0000
  Mg  Mg19      1.0  0.13573  0.40845  0.35451  1.0000
  Mg  Mg20      1.0  0.27145  0.57169  0.10948  1.0000
  C  Sn41      1.0  0.54343  0.73590  0.23460  1.0000
  C   C201      1.0  0.51955  0.74261  0.21045  1.0000
  C  Sn42      1.0  0.48756  0.71663  0.18731  1.0000
  C  Sn43      1.0  0.47926  0.68326  0.18845  1.0000
  C   C202      1.0  0.50313  0.67657  0.21262  1.0000
  C  Sn44      1.0  0.53512  0.70253  0.23573  1.0000
  O  Te41      1.0  0.57525  0.76226  0.25749  1.0000
  O  Te42      1.0  0.46411  0.72395  0.16334  1.0000
  O  Te43      1.0  0.44741  0.65690  0.16552  1.0000
  O  Te44      1.0  0.55856  0.69523  0.25972  1.0000
  Mg  Mg21      1.0  0.42409  0.67950  0.13767  1.0000
  Mg  Mg22      1.0  0.59858  0.73966  0.28550  1.0000
  C  Sn45      1.0  0.31270  0.78860  0.07215  1.0000
  C   C203      1.0  0.31956  0.82277  0.11114  1.0000
  C  Sn46      1.0  0.29777  0.83539  0.24225  1.0000
  C  Sn47      1.0  0.26851  0.81339  0.33645  1.0000
  C   C204      1.0  0.26166  0.77925  0.29748  1.0000
  C  Sn48      1.0  0.28344  0.76661  0.16636  1.0000
  O  Te45      1.0  0.30252  0.82513  0.94056  1.0000
  O  Te46      1.0  0.30516  0.86964  0.27883  1.0000
  O  Te47      1.0  0.24637  0.82548  0.46812  1.0000
  O  Te48      1.0  0.27606  0.73238  0.12979  1.0000
  Mg  Mg23      1.0  0.26732  0.87409  0.46990  1.0000
  Mg  Mg24      1.0  0.28158  0.77650  0.93882  1.0000
  C  Sn49      1.0  0.69752  0.47618  0.79864  1.0000
  C   C205      1.0  0.73071  0.49948  0.75826  1.0000
  C  Sn50      1.0  0.73830  0.53224  0.75824  1.0000
  C  Sn51      1.0  0.71218  0.54191  0.79955  1.0000
  C   C206      1.0  0.67902  0.51862  0.83993  1.0000
  C  Sn52      1.0  0.67140  0.48586  0.83995  1.0000
  O  Te49      1.0  0.69050  0.44357  0.79787  1.0000
  O  Te50      1.0  0.77168  0.55508  0.71738  1.0000
  O  Te51      1.0  0.71922  0.57455  0.80029  1.0000
  O  Te52      1.0  0.63805  0.46302  0.88081  1.0000
  Mg  Mg25      1.0  0.76858  0.59659  0.73596  1.0000
  Mg  Mg26      1.0  0.64112  0.42151  0.86236  1.0000
  C  Sn53      1.0  0.50465  0.20520  0.89161  1.0000
  C   C207      1.0  0.47926  0.17226  0.84755  1.0000
  C  Sn54      1.0  0.45554  0.16524  0.75252  1.0000
  C  Sn55      1.0  0.45725  0.19169  0.70032  1.0000
  C   C208      1.0  0.48263  0.22460  0.74435  1.0000
  C  Sn56      1.0  0.50636  0.23165  0.83941  1.0000
  O  Te53      1.0  0.52810  0.21164  0.98668  1.0000
  O  Te54      1.0  0.43038  0.13212  0.71007  1.0000
  O  Te55      1.0  0.43377  0.18523  0.60519  1.0000
  O  Te56      1.0  0.53151  0.26475  0.88183  1.0000
  Mg  Mg27      1.0  0.40424  0.13601  0.57876  1.0000
  Mg  Mg28      1.0  0.58998  0.21229  0.01304  1.0000
  C  Sn57      1.0  0.79542  0.31576  0.95453  1.0000
  C   C209      1.0  0.82738  0.31824  0.86838  1.0000
  C  Sn58      1.0  0.83135  0.29137  0.72683  1.0000
  C  Sn59      1.0  0.80278  0.26141  0.67010  1.0000
  C   C210      1.0  0.77086  0.25895  0.75620  1.0000
  C  Sn60      1.0  0.76686  0.28580  0.89780  1.0000
  O  Te57      1.0  0.82436  0.29434  0.09573  1.0000
  O  Te58      1.0  0.86354  0.29443  0.64283  1.0000
  O  Te59      1.0  0.80619  0.23423  0.52878  1.0000
  O  Te60      1.0  0.73469  0.28275  0.98176  1.0000
  Mg  Mg29      1.0  0.85523  0.25052  0.45672  1.0000
  Mg  Mg30      1.0  0.77528  0.27807  0.16780  1.0000
  C  Sn61      1.0  0.25444  0.44725  0.76614  1.0000
  C   C211      1.0  0.25002  0.47658  0.80917  1.0000
  C  Sn62      1.0  0.27715  0.50871  0.83642  1.0000
  C  Sn63      1.0  0.30938  0.51159  0.82023  1.0000
  C   C212      1.0  0.31379  0.48228  0.77719  1.0000
  C  Sn64      1.0  0.28667  0.45013  0.74994  1.0000
  O  Te61      1.0  0.22697  0.41539  0.73946  1.0000
  O  Te62      1.0  0.27211  0.53767  0.87938  1.0000
  O  Te63      1.0  0.33686  0.54349  0.84695  1.0000
  O  Te64      1.0  0.29170  0.42119  0.70698  1.0000
  Mg  Mg31      1.0  0.31735  0.57542  0.90297  1.0000
  Mg  Mg32      1.0  0.24648  0.38343  0.68327  1.0000
  C  Sn65      1.0  0.48039  0.77974  0.81572  1.0000
  C   C213      1.0  0.50557  0.76870  0.74604  1.0000
  C  Sn66      1.0  0.53901  0.79196  0.71274  1.0000
  C  Sn67      1.0  0.54748  0.82698  0.74995  1.0000
  C   C214      1.0  0.52231  0.83801  0.81962  1.0000
  C  Sn68      1.0  0.48886  0.81477  0.85294  1.0000
  O  Te65      1.0  0.44712  0.75604  0.84799  1.0000
  O  Te66      1.0  0.56374  0.78031  0.64298  1.0000
  O  Te67      1.0  0.58078  0.85068  0.71762  1.0000
  O  Te68      1.0  0.46414  0.82640  0.92268  1.0000
  Mg  Mg33      1.0  0.60550  0.82242  0.62195  1.0000
  Mg  Mg34      1.0  0.42238  0.78432  0.94385  1.0000
  C  Sn69      1.0  0.17870  0.71870  0.72333  1.0000
  C   C215      1.0  0.17062  0.68841  0.75896  1.0000
  C  Sn70      1.0  0.19248  0.68639  0.83129  1.0000
  C  Sn71      1.0  0.22305  0.71525  0.86890  1.0000
  C   C216      1.0  0.23111  0.74551  0.83331  1.0000
  C  Sn72      1.0  0.20927  0.74755  0.76094  1.0000
  O  Te69      1.0  0.15647  0.72014  0.65102  1.0000
  O  Te70      1.0  0.18386  0.65583  0.86570  1.0000
  O  Te71      1.0  0.24528  0.71378  0.94126  1.0000
  O  Te72      1.0  0.21787  0.77809  0.72657  1.0000
  Mg  Mg35      1.0  0.22237  0.66649  0.96470  1.0000
  Mg  Mg36      1.0  0.17938  0.76747  0.62766  1.0000
  C  Sn73      1.0  0.82050  0.53582  0.84653  1.0000
  C   C217      1.0  0.82718  0.50745  0.75716  1.0000
  C  Sn74      1.0  0.80432  0.47785  0.65843  1.0000
  C  Sn75      1.0  0.77417  0.47660  0.64873  1.0000
  C   C218      1.0  0.76750  0.50496  0.73803  1.0000
  C  Sn76      1.0  0.79034  0.53457  0.83682  1.0000
  O  Te73      1.0  0.84371  0.56514  0.94443  1.0000
  O  Te74      1.0  0.81155  0.44981  0.57027  1.0000
  O  Te75      1.0  0.75095  0.44725  0.55072  1.0000
  O  Te76      1.0  0.78313  0.56260  0.92492  1.0000
  Mg  Mg37      1.0  0.77209  0.41567  0.45384  1.0000
  Mg  Mg38      1.0  0.85489  0.54817  0.04130  1.0000
  C  Sn77      1.0  0.45225  0.26236  0.74686  1.0000
  C   C219      1.0  0.47846  0.25500  0.73083  1.0000
  C  Sn78      1.0  0.51140  0.28023  0.71980  1.0000
  C  Sn79      1.0  0.51829  0.31352  0.72500  1.0000
  C   C220      1.0  0.49209  0.32087  0.74104  1.0000
  C  Sn80      1.0  0.45914  0.29565  0.75206  1.0000
  O  Te77      1.0  0.41951  0.23675  0.75769  1.0000
  O  Te78      1.0  0.53719  0.27226  0.70378  1.0000
  O  Te79      1.0  0.55106  0.33914  0.71414  1.0000
  O  Te80      1.0  0.43336  0.30361  0.76810  1.0000
  Mg  Mg39      1.0  0.57766  0.31582  0.69366  1.0000
  Mg  Mg40      1.0  0.39288  0.26007  0.77832  1.0000
  C  Sn81      1.0  0.71082  0.17559  0.80658  1.0000
  C   C221      1.0  0.68199  0.17093  0.76461  1.0000
  C  Sn82      1.0  0.68259  0.19562  0.70626  1.0000
  C  Sn83      1.0  0.71262  0.22560  0.68939  1.0000
  C   C222      1.0  0.74142  0.23024  0.73131  1.0000
  C  Sn84      1.0  0.74085  0.20556  0.78971  1.0000
  O  Te81      1.0  0.70965  0.15056  0.86465  1.0000
  O  Te82      1.0  0.65345  0.19040  0.66514  1.0000
  O  Te83      1.0  0.71377  0.25063  0.63126  1.0000
  O  Te84      1.0  0.76996  0.21077  0.83078  1.0000
  Mg  Mg41      1.0  0.66760  0.23187  0.59130  1.0000
  Mg  Mg42      1.0  0.75585  0.16932  0.90454  1.0000
  C  Sn85      1.0  0.16705  0.46016  0.79871  1.0000
  C   C223      1.0  0.16677  0.48631  0.75798  1.0000
  C  Sn86      1.0  0.19669  0.51207  0.69885  1.0000
  C  Sn87      1.0  0.22754  0.51168  0.67993  1.0000
  C   C224      1.0  0.22781  0.48553  0.72063  1.0000
  C  Sn88      1.0  0.19790  0.45976  0.77980  1.0000
  O  Te85      1.0  0.13683  0.43466  0.85759  1.0000
  O  Te86      1.0  0.19578  0.53795  0.65900  1.0000
  O  Te87      1.0  0.25777  0.53720  0.62100  1.0000
  O  Te88      1.0  0.19880  0.43389  0.81960  1.0000
  Mg  Mg43      1.0  0.24358  0.56700  0.58336  1.0000
  Mg  Mg44      1.0  0.15102  0.40482  0.89516  1.0000
  C  Sn89      1.0  0.47556  0.69840  0.72541  1.0000
  C   C225      1.0  0.50090  0.73021  0.78952  1.0000
  C  Sn90      1.0  0.53202  0.73324  0.78867  1.0000
  C  Sn91      1.0  0.53796  0.70387  0.72225  1.0000
  C   C226      1.0  0.51264  0.67209  0.65817  1.0000
  C  Sn92      1.0  0.48150  0.66903  0.65900  1.0000
  O  Te89      1.0  0.44463  0.69597  0.72753  1.0000
  O  Te90      1.0  0.55696  0.76531  0.85351  1.0000
  O  Te91      1.0  0.56892  0.70633  0.72019  1.0000
  O  Te92      1.0  0.45657  0.63699  0.59418  1.0000
  Mg  Mg45      1.0  0.59495  0.75558  0.82268  1.0000
  Mg  Mg46      1.0  0.41858  0.64670  0.62485  1.0000
  C  Sn93      1.0  0.30190  0.77184  0.69783  1.0000
  C   C227      1.0  0.27136  0.77326  0.78307  1.0000
  C  Sn94      1.0  0.26686  0.80125  0.79697  1.0000
  C  Sn95      1.0  0.29342  0.82838  0.72405  1.0000
  C   C228      1.0  0.32392  0.82695  0.63884  1.0000
  C  Sn96      1.0  0.32845  0.79897  0.62491  1.0000
  O  Te93      1.0  0.30584  0.74361  0.68548  1.0000
  O  Te94      1.0  0.23611  0.80210  0.88285  1.0000
  O  Te95      1.0  0.28945  0.85663  0.73648  1.0000
  O  Te96      1.0  0.35918  0.79811  0.53907  1.0000
  Mg  Mg47      1.0  0.24291  0.84603  0.86584  1.0000
  Mg  Mg48      1.0  0.35240  0.75420  0.55591  1.0000
