data_image0
_chemical_formula_structural       H144C252N24C2Sn2C2HTe2HMgC2Sn2C2HTe2HMgC2Sn2C2HTe2HMgC2Sn2C2HTe2HMgC2Sn2C2HTe2HMgC2Sn2C2HTe2HMgC2Sn2C2HTe2HMgC2Sn2C2HTe2HMgC2Sn2C2HTe2HMgC2Sn2C2HTe2HMgC2Sn2C2HTe2HMgC2Sn2C2HTe2HMg
_chemical_formula_sum              "H168 C300 N24 Sn24 Te24 Mg12"
_cell_length_a       47.0845
_cell_length_b       47.1112
_cell_length_c       8.09474
_cell_angle_alpha    112.197
_cell_angle_beta     70.6771
_cell_angle_gamma    120.36

_symmetry_space_group_name_H-M    'P1'
_space_group_IT_number       1

loop_
  _space_group_symop_operation_xyz
  'x, y, z'

loop_
  _atom_site_type_symbol
  _atom_site_label
  _atom_site_symmetry_multiplicity
  _atom_site_fract_x
  _atom_site_fract_y
  _atom_site_fract_z
  _atom_site_occupancy
  H   H1        1.0  0.58334  0.56998  0.30845  1.0000
  H   H2        1.0  0.43551  0.02606  0.36582  1.0000
  H   H3        1.0  0.98657  0.42894  0.32983  1.0000
  H   H4        1.0  0.42519  0.45259  0.39652  1.0000
  H   H5        1.0  0.55169  0.98993  0.36832  1.0000
  H   H6        1.0  0.01767  0.58255  0.31586  1.0000
  H   H7        1.0  0.62887  0.56444  0.34165  1.0000
  H   H8        1.0  0.43995  0.08230  0.40658  1.0000
  H   H9        1.0  0.93144  0.38338  0.39573  1.0000
  H   H10       1.0  0.37391  0.45761  0.44180  1.0000
  H   H11       1.0  0.54254  0.93634  0.39905  1.0000
  H   H12       1.0  0.06912  0.63279  0.38245  1.0000
  H   H13       1.0  0.56716  0.45925  0.31822  1.0000
  H   H14       1.0  0.54626  0.12179  0.28445  1.0000
  H   H15       1.0  0.88640  0.43394  0.30735  1.0000
  H   H16       1.0  0.43091  0.55017  0.28274  1.0000
  H   H17       1.0  0.44766  0.88674  0.24065  1.0000
  H   H18       1.0  0.11518  0.57080  0.32569  1.0000
  H   H19       1.0  0.43943  0.42880  0.11278  1.0000
  H   H20       1.0  0.57345  0.99914  0.12914  1.0000
  H   H21       1.0  0.00351  0.56011  0.08655  1.0000
  H   H22       1.0  0.57584  0.57421  0.12689  1.0000
  H   H23       1.0  0.43322  0.99722  0.10304  1.0000
  H   H24       1.0  0.01236  0.42594  0.05588  1.0000
  H   H25       1.0  0.43426  0.37248  0.08345  1.0000
  H   H26       1.0  0.62899  0.04727  0.11708  1.0000
  H   H27       1.0  0.95375  0.56504  0.09056  1.0000
  H   H28       1.0  0.57973  0.62682  0.11774  1.0000
  H   H29       1.0  0.37854  0.94749  0.07503  1.0000
  H   H30       1.0  0.06192  0.41948  0.04666  1.0000
  H   H31       1.0  0.52747  0.41983  0.26418  1.0000
  H   H32       1.0  0.58470  0.11518  0.26997  1.0000
  H   H33       1.0  0.89122  0.47247  0.25398  1.0000
  H   H34       1.0  0.47376  0.58592  0.23473  1.0000
  H   H35       1.0  0.41354  0.89054  0.19362  1.0000
  H   H36       1.0  0.11167  0.52644  0.28394  1.0000
  H   H37       1.0  0.66486  0.54683  0.24366  1.0000
  H   H38       1.0  0.45493  0.11829  0.23871  1.0000
  H   H39       1.0  0.89090  0.34137  0.23027  1.0000
  H   H40       1.0  0.34240  0.45548  0.26465  1.0000
  H   H41       1.0  0.53968  0.88660  0.22872  1.0000
  H   H42       1.0  0.11873  0.65773  0.23928  1.0000
  H   H43       1.0  0.72131  0.56910  0.23536  1.0000
  H   H44       1.0  0.43264  0.15087  0.21193  1.0000
  H   H45       1.0  0.85792  0.28286  0.13327  1.0000
  H   H46       1.0  0.77125  0.56325  0.22586  1.0000
  H   H47       1.0  0.43776  0.20502  0.20119  1.0000
  H   H48       1.0  0.80307  0.23192  0.11647  1.0000
  H   H49       1.0  0.70811  0.46766  0.36613  1.0000
  H   H50       1.0  0.53452  0.25744  0.35680  1.0000
  H   H51       1.0  0.75339  0.29451  0.46944  1.0000
  H   H52       1.0  0.65800  0.47389  0.37697  1.0000
  H   H53       1.0  0.52917  0.20285  0.36800  1.0000
  H   H54       1.0  0.80865  0.34583  0.48591  1.0000
  H   H55       1.0  0.75208  0.45731  0.13139  1.0000
  H   H56       1.0  0.25595  0.54006  0.22859  1.0000
  H   H57       1.0  0.46292  0.71424  0.16258  1.0000
  H   H58       1.0  0.28939  0.74576  0.12561  1.0000
  H   H59       1.0  0.80421  0.45118  0.07110  1.0000
  H   H60       1.0  0.20692  0.54123  0.18458  1.0000
  H   H61       1.0  0.46294  0.65837  0.09401  1.0000
  H   H62       1.0  0.34282  0.79371  0.04181  1.0000
  H   H63       1.0  0.85523  0.55722  0.33145  1.0000
  H   H64       1.0  0.14555  0.43930  0.24449  1.0000
  H   H65       1.0  0.55604  0.70789  0.28410  1.0000
  H   H66       1.0  0.29635  0.86197  0.29199  1.0000
  H   H67       1.0  0.80286  0.56348  0.39407  1.0000
  H   H68       1.0  0.19456  0.43794  0.29010  1.0000
  H   H69       1.0  0.55709  0.76426  0.34191  1.0000
  H   H70       1.0  0.24246  0.81400  0.37700  1.0000
  H   H71       1.0  0.86165  0.47398  0.09173  1.0000
  H   H72       1.0  0.52507  0.37176  0.11031  1.0000
  H   H73       1.0  0.63433  0.14137  0.10931  1.0000
  H   H74       1.0  0.15154  0.51481  0.14419  1.0000
  H   H75       1.0  0.48825  0.62401  0.07856  1.0000
  H   H76       1.0  0.37557  0.85147  0.04076  1.0000
  H   H77       1.0  0.57383  0.55895  0.82066  1.0000
  H   H78       1.0  0.43626  0.01868  0.86561  1.0000
  H   H79       1.0  0.98142  0.43108  0.84561  1.0000
  H   H80       1.0  0.41576  0.44064  0.87770  1.0000
  H   H81       1.0  0.55747  0.98649  0.86128  1.0000
  H   H82       1.0  0.01601  0.58340  0.81146  1.0000
  H   H83       1.0  0.61868  0.55355  0.86507  1.0000
  H   H84       1.0  0.43931  0.07421  0.90838  1.0000
  H   H85       1.0  0.92590  0.38585  0.90972  1.0000
  H   H86       1.0  0.36518  0.44745  0.92590  1.0000
  H   H87       1.0  0.54981  0.93333  0.89207  1.0000
  H   H88       1.0  0.06785  0.63297  0.88061  1.0000
  H   H89       1.0  0.55861  0.44704  0.80896  1.0000
  H   H90       1.0  0.54585  0.11695  0.79985  1.0000
  H   H91       1.0  0.88305  0.43459  0.79009  1.0000
  H   H92       1.0  0.42502  0.54298  0.79663  1.0000
  H   H93       1.0  0.45193  0.88320  0.76498  1.0000
  H   H94       1.0  0.11128  0.56918  0.83126  1.0000
  H   H95       1.0  0.43151  0.41760  0.60123  1.0000
  H   H96       1.0  0.57733  0.99650  0.62052  1.0000
  H   H97       1.0  0.00139  0.56164  0.58549  1.0000
  H   H98       1.0  0.56817  0.56159  0.62421  1.0000
  H   H99       1.0  0.43726  0.99069  0.59967  1.0000
  H   H100      1.0  0.00699  0.42494  0.56703  1.0000
  H   H101      1.0  0.42579  0.36127  0.57616  1.0000
  H   H102      1.0  0.63223  0.04582  0.60419  1.0000
  H   H103      1.0  0.95242  0.56715  0.58394  1.0000
  H   H104      1.0  0.57370  0.61524  0.61586  1.0000
  H   H105      1.0  0.38279  0.94064  0.57098  1.0000
  H   H106      1.0  0.05671  0.41819  0.54969  1.0000
  H   H107      1.0  0.51805  0.40887  0.76871  1.0000
  H   H108      1.0  0.58446  0.11124  0.77564  1.0000
  H   H109      1.0  0.88855  0.47469  0.74827  1.0000
  H   H110      1.0  0.46779  0.57760  0.74213  1.0000
  H   H111      1.0  0.41712  0.88535  0.70984  1.0000
  H   H112      1.0  0.10803  0.52513  0.77614  1.0000
  H   H113      1.0  0.65514  0.53651  0.75195  1.0000
  H   H114      1.0  0.45361  0.11035  0.74706  1.0000
  H   H115      1.0  0.88626  0.34318  0.73603  1.0000
  H   H116      1.0  0.33545  0.44871  0.75652  1.0000
  H   H117      1.0  0.54502  0.88225  0.72962  1.0000
  H   H118      1.0  0.11856  0.65724  0.73824  1.0000
  H   H119      1.0  0.43035  0.14146  0.71418  1.0000
  H   H120      1.0  0.28217  0.42463  0.68607  1.0000
  H   H121      1.0  0.56826  0.84527  0.66345  1.0000
  H   H122      1.0  0.43375  0.19487  0.70351  1.0000
  H   H123      1.0  0.23364  0.42876  0.65824  1.0000
  H   H124      1.0  0.56516  0.79042  0.65245  1.0000
  H   H125      1.0  0.52987  0.24986  0.86709  1.0000
  H   H126      1.0  0.28033  0.53713  0.88633  1.0000
  H   H127      1.0  0.46212  0.75917  0.91396  1.0000
  H   H128      1.0  0.52660  0.19605  0.87453  1.0000
  H   H129      1.0  0.32949  0.53295  0.90933  1.0000
  H   H130      1.0  0.46588  0.81492  0.93045  1.0000
  H   H131      1.0  0.74813  0.45252  0.65213  1.0000
  H   H132      1.0  0.46363  0.70899  0.65495  1.0000
  H   H133      1.0  0.80233  0.45014  0.58611  1.0000
  H   H134      1.0  0.46061  0.65200  0.59514  1.0000
  H   H135      1.0  0.85043  0.55753  0.82078  1.0000
  H   H136      1.0  0.55369  0.69848  0.78178  1.0000
  H   H137      1.0  0.79617  0.56020  0.89007  1.0000
  H   H138      1.0  0.55707  0.75582  0.83830  1.0000
  H   H139      1.0  0.85983  0.47538  0.59035  1.0000
  H   H140      1.0  0.51597  0.36117  0.61592  1.0000
  H   H141      1.0  0.63205  0.13856  0.61678  1.0000
  H   H142      1.0  0.14804  0.51331  0.63833  1.0000
  H   H143      1.0  0.48343  0.61588  0.58748  1.0000
  H   H144      1.0  0.37894  0.84526  0.55187  1.0000
  C   C1        1.0  0.48842  0.49124  0.24800  1.0000
  C   C2        1.0  0.51248  0.00107  0.23707  1.0000
  C   C3        1.0  0.00556  0.51512  0.21751  1.0000
  C   C4        1.0  0.52030  0.51944  0.23920  1.0000
  C   C5        1.0  0.48481  0.00491  0.23334  1.0000
  C   C6        1.0  0.00258  0.48374  0.21699  1.0000
  C   C7        1.0  0.54832  0.51647  0.26012  1.0000
  C   C8        1.0  0.48812  0.03915  0.27410  1.0000
  C   C9        1.0  0.96977  0.45680  0.25566  1.0000
  C   C10       1.0  0.45854  0.49604  0.28736  1.0000
  C   C11       1.0  0.50685  0.96939  0.25965  1.0000
  C   C12       1.0  0.03662  0.54551  0.25414  1.0000
  C   C13       1.0  0.52260  0.54982  0.21490  1.0000
  C   C14       1.0  0.45411  0.97462  0.19133  1.0000
  C   C15       1.0  0.03263  0.47987  0.18793  1.0000
  C   C16       1.0  0.48589  0.45776  0.21805  1.0000
  C   C17       1.0  0.54567  0.02912  0.21992  1.0000
  C   C18       1.0  0.97666  0.51583  0.19395  1.0000
  C   C19       1.0  0.57985  0.54457  0.29063  1.0000
  C   C20       1.0  0.45981  0.04620  0.33381  1.0000
  C   C21       1.0  0.96511  0.42904  0.30895  1.0000
  C   C22       1.0  0.42667  0.47283  0.35744  1.0000
  C   C23       1.0  0.53008  0.96700  0.32296  1.0000
  C   C24       1.0  0.03941  0.57903  0.30287  1.0000
  C   C25       1.0  0.60581  0.54166  0.31498  1.0000
  C   C26       1.0  0.46230  0.07795  0.35866  1.0000
  C   C27       1.0  0.93405  0.40330  0.34699  1.0000
  C   C28       1.0  0.39763  0.47563  0.38411  1.0000
  C   C29       1.0  0.52495  0.93679  0.34201  1.0000
  C   C30       1.0  0.06847  0.60777  0.34387  1.0000
  C   C31       1.0  0.60196  0.51004  0.31743  1.0000
  C   C32       1.0  0.49414  0.10498  0.32680  1.0000
  C   C33       1.0  0.90517  0.40431  0.33788  1.0000
  C   C34       1.0  0.39927  0.50319  0.34561  1.0000
  C   C35       1.0  0.49547  0.90675  0.30284  1.0000
  C   C36       1.0  0.09708  0.60483  0.34075  1.0000
  C   C37       1.0  0.57040  0.48281  0.30459  1.0000
  C   C38       1.0  0.52237  0.09967  0.29483  1.0000
  C   C39       1.0  0.90906  0.43328  0.30637  1.0000
  C   C40       1.0  0.43080  0.52856  0.30016  1.0000
  C   C41       1.0  0.47092  0.90952  0.25896  1.0000
  C   C42       1.0  0.09363  0.57240  0.31545  1.0000
  C   C43       1.0  0.54394  0.48493  0.27279  1.0000
  C   C44       1.0  0.52028  0.06760  0.27140  1.0000
  C   C45       1.0  0.94054  0.45953  0.26419  1.0000
  C   C46       1.0  0.46060  0.52600  0.27234  1.0000
  C   C47       1.0  0.47569  0.94002  0.23770  1.0000
  C   C48       1.0  0.06440  0.54271  0.27070  1.0000
  C   C49       1.0  0.45823  0.42725  0.15402  1.0000
  C   C50       1.0  0.57538  0.02469  0.16707  1.0000
  C   C51       1.0  0.97912  0.54209  0.13663  1.0000
  C   C52       1.0  0.55312  0.57695  0.16448  1.0000
  C   C53       1.0  0.42833  0.97464  0.13608  1.0000
  C   C54       1.0  0.03367  0.44785  0.11228  1.0000
  C   C55       1.0  0.45523  0.39554  0.13561  1.0000
  C   C56       1.0  0.60678  0.05149  0.15739  1.0000
  C   C57       1.0  0.95132  0.54472  0.13503  1.0000
  C   C58       1.0  0.55556  0.60657  0.15284  1.0000
  C   C59       1.0  0.39781  0.94671  0.11693  1.0000
  C   C60       1.0  0.06127  0.44404  0.10533  1.0000
  C   C61       1.0  0.48000  0.39267  0.18146  1.0000
  C   C62       1.0  0.61071  0.08510  0.20027  1.0000
  C   C63       1.0  0.91897  0.51997  0.18419  1.0000
  C   C64       1.0  0.52664  0.61078  0.18330  1.0000
  C   C65       1.0  0.39171  0.91596  0.14411  1.0000
  C   C66       1.0  0.08943  0.47249  0.17482  1.0000
  C   C67       1.0  0.50853  0.42228  0.22963  1.0000
  C   C68       1.0  0.58193  0.08951  0.23713  1.0000
  C   C69       1.0  0.91611  0.49189  0.22093  1.0000
  C   C70       1.0  0.49612  0.58314  0.21437  1.0000
  C   C71       1.0  0.41829  0.91420  0.17376  1.0000
  C   C72       1.0  0.08986  0.50458  0.23241  1.0000
  C   C73       1.0  0.51273  0.45465  0.24144  1.0000
  C   C74       1.0  0.54968  0.06233  0.24125  1.0000
  C   C75       1.0  0.94413  0.48895  0.22485  1.0000
  C   C76       1.0  0.49323  0.55303  0.23036  1.0000
  C   C77       1.0  0.44933  0.94252  0.19671  1.0000
  C   C78       1.0  0.06271  0.50917  0.23124  1.0000
  C   C79       1.0  0.49938  0.35449  0.15911  1.0000
  C   C80       1.0  0.65067  0.13953  0.17171  1.0000
  C   C81       1.0  0.86368  0.49995  0.15862  1.0000
  C   C82       1.0  0.50850  0.64600  0.14824  1.0000
  C   C83       1.0  0.35474  0.85846  0.11207  1.0000
  C   C84       1.0  0.14534  0.49149  0.17744  1.0000
  C   C85       1.0  0.65800  0.52525  0.29492  1.0000
  C   C86       1.0  0.47742  0.14039  0.28638  1.0000
  C   C87       1.0  0.86926  0.34714  0.30073  1.0000
  C   C88       1.0  0.34440  0.48143  0.31120  1.0000
  C   C89       1.0  0.51457  0.86884  0.28018  1.0000
  C   C90       1.0  0.13609  0.65815  0.30470  1.0000
  C   C91       1.0  0.68624  0.52159  0.30461  1.0000
  C   C92       1.0  0.48082  0.17307  0.28923  1.0000
  C   C93       1.0  0.83680  0.31771  0.30904  1.0000
  C   C94       1.0  0.71850  0.54710  0.26624  1.0000
  C   C95       1.0  0.45483  0.17429  0.24643  1.0000
  C   C96       1.0  0.83498  0.28525  0.20882  1.0000
  C   C97       1.0  0.74651  0.54384  0.26120  1.0000
  C   C98       1.0  0.45746  0.20491  0.24294  1.0000
  C   C99       1.0  0.80430  0.25670  0.19993  1.0000
  C   C100      1.0  0.74345  0.51474  0.29049  1.0000
  C   C101      1.0  0.48642  0.23539  0.27961  1.0000
  C   C102      1.0  0.77441  0.25969  0.29091  1.0000
  C   C103      1.0  0.71104  0.48964  0.33432  1.0000
  C   C104      1.0  0.51224  0.23408  0.32420  1.0000
  C   C105      1.0  0.77639  0.29215  0.39528  1.0000
  C   C106      1.0  0.68299  0.49312  0.34235  1.0000
  C   C107      1.0  0.50946  0.20369  0.33080  1.0000
  C   C108      1.0  0.80704  0.32075  0.40532  1.0000
  C   C109      1.0  0.77368  0.51074  0.26723  1.0000
  C   C110      1.0  0.22917  0.48861  0.25799  1.0000
  C   C111      1.0  0.50992  0.74330  0.25816  1.0000
  C   C112      1.0  0.26189  0.77626  0.25469  1.0000
  C   C113      1.0  0.77448  0.47903  0.17833  1.0000
  C   C114      1.0  0.23185  0.51799  0.23336  1.0000
  C   C115      1.0  0.48312  0.71289  0.19150  1.0000
  C   C116      1.0  0.29085  0.77121  0.16347  1.0000
  C   C117      1.0  0.80376  0.47574  0.14297  1.0000
  C   C118      1.0  0.20441  0.51866  0.20807  1.0000
  C   C119      1.0  0.48327  0.68155  0.15248  1.0000
  C   C120      1.0  0.32065  0.79796  0.11544  1.0000
  C   C121      1.0  0.83326  0.50396  0.19626  1.0000
  C   C122      1.0  0.17317  0.49005  0.20870  1.0000
  C   C123      1.0  0.50955  0.67929  0.18461  1.0000
  C   C124      1.0  0.32277  0.83079  0.15889  1.0000
  C   C125      1.0  0.83241  0.53565  0.28833  1.0000
  C   C126      1.0  0.17001  0.46096  0.23904  1.0000
  C   C127      1.0  0.53607  0.70970  0.25570  1.0000
  C   C128      1.0  0.29414  0.83624  0.25512  1.0000
  C   C129      1.0  0.80325  0.53890  0.32244  1.0000
  C   C130      1.0  0.19750  0.46028  0.26252  1.0000
  C   C131      1.0  0.53642  0.74097  0.28820  1.0000
  C   C132      1.0  0.26436  0.80947  0.30128  1.0000
  C   C133      1.0  0.47999  0.48024  0.74434  1.0000
  C   C134      1.0  0.51552  0.99684  0.74727  1.0000
  C   C135      1.0  0.00264  0.51567  0.71278  1.0000
  C   C136      1.0  0.51190  0.50840  0.74071  1.0000
  C   C137      1.0  0.48733  0.99983  0.74372  1.0000
  C   C138      1.0  0.99900  0.48419  0.71549  1.0000
  C   C139      1.0  0.53964  0.50525  0.76339  1.0000
  C   C140      1.0  0.48939  0.03349  0.78264  1.0000
  C   C141      1.0  0.96588  0.45788  0.75533  1.0000
  C   C142      1.0  0.45042  0.48567  0.78346  1.0000
  C   C143      1.0  0.51083  0.96551  0.76992  1.0000
  C   C144      1.0  0.03395  0.54562  0.75007  1.0000
  C   C145      1.0  0.51502  0.53934  0.71913  1.0000
  C   C146      1.0  0.45719  0.96907  0.70097  1.0000
  C   C147      1.0  0.02847  0.47941  0.68859  1.0000
  C   C148      1.0  0.47743  0.44655  0.71134  1.0000
  C   C149      1.0  0.54822  0.02536  0.72572  1.0000
  C   C150      1.0  0.97406  0.51691  0.68859  1.0000
  C   C151      1.0  0.57060  0.53354  0.80135  1.0000
  C   C152      1.0  0.46046  0.03942  0.83851  1.0000
  C   C153      1.0  0.96043  0.43077  0.81702  1.0000
  C   C154      1.0  0.41800  0.46211  0.84635  1.0000
  C   C155      1.0  0.53534  0.96339  0.82379  1.0000
  C   C156      1.0  0.03743  0.57938  0.79915  1.0000
  C   C157      1.0  0.59621  0.53062  0.82933  1.0000
  C   C158      1.0  0.46212  0.07077  0.86355  1.0000
  C   C159      1.0  0.92912  0.40531  0.85503  1.0000
  C   C160      1.0  0.38943  0.46598  0.87536  1.0000
  C   C161      1.0  0.53106  0.93341  0.84221  1.0000
  C   C162      1.0  0.06662  0.60768  0.84203  1.0000
  C   C163      1.0  0.59287  0.49865  0.82257  1.0000
  C   C164      1.0  0.49364  0.09855  0.83608  1.0000
  C   C165      1.0  0.90074  0.40587  0.83643  1.0000
  C   C166      1.0  0.39205  0.49501  0.84660  1.0000
  C   C167      1.0  0.50100  0.90344  0.81262  1.0000
  C   C168      1.0  0.09458  0.60395  0.84160  1.0000
  C   C169      1.0  0.56166  0.47101  0.80222  1.0000
  C   C170      1.0  0.52235  0.09431  0.80726  1.0000
  C   C171      1.0  0.90540  0.43447  0.79749  1.0000
  C   C172      1.0  0.42401  0.52039  0.80830  1.0000
  C   C173      1.0  0.47551  0.90584  0.77602  1.0000
  C   C174      1.0  0.09035  0.57127  0.81693  1.0000
  C   C175      1.0  0.53525  0.47342  0.77142  1.0000
  C   C176      1.0  0.52102  0.06255  0.78230  1.0000
  C   C177      1.0  0.93708  0.46062  0.75757  1.0000
  C   C178      1.0  0.45327  0.51675  0.77714  1.0000
  C   C179      1.0  0.47957  0.93596  0.75372  1.0000
  C   C180      1.0  0.06110  0.54203  0.76863  1.0000
  C   C181      1.0  0.45005  0.41597  0.64486  1.0000
  C   C182      1.0  0.57848  0.02176  0.66403  1.0000
  C   C183      1.0  0.97682  0.54356  0.63288  1.0000
  C   C184      1.0  0.54603  0.56565  0.66621  1.0000
  C   C185      1.0  0.43206  0.96856  0.63804  1.0000
  C   C186      1.0  0.02885  0.44705  0.61701  1.0000
  C   C187      1.0  0.44677  0.38421  0.62911  1.0000
  C   C188      1.0  0.60949  0.04923  0.65156  1.0000
  C   C189      1.0  0.94943  0.54665  0.62948  1.0000
  C   C190      1.0  0.54928  0.59567  0.65518  1.0000
  C   C191      1.0  0.40176  0.94033  0.61772  1.0000
  C   C192      1.0  0.05653  0.44298  0.60620  1.0000
  C   C193      1.0  0.47111  0.38134  0.67973  1.0000
  C   C194      1.0  0.61214  0.08243  0.69890  1.0000
  C   C195      1.0  0.91686  0.52196  0.67660  1.0000
  C   C196      1.0  0.52092  0.60113  0.68904  1.0000
  C   C197      1.0  0.39562  0.91012  0.65079  1.0000
  C   C198      1.0  0.08532  0.47124  0.66994  1.0000
  C   C199      1.0  0.49957  0.41099  0.72802  1.0000
  C   C200      1.0  0.58270  0.08591  0.74201  1.0000
  C   C201      1.0  0.91366  0.49375  0.71385  1.0000
  C   C202      1.0  0.48982  0.57419  0.72240  1.0000
  C   C203      1.0  0.42187  0.90882  0.68774  1.0000
  C   C204      1.0  0.08602  0.50341  0.72719  1.0000
  C   C205      1.0  0.50407  0.44336  0.73702  1.0000
  C   C206      1.0  0.55097  0.05816  0.74948  1.0000
  C   C207      1.0  0.94128  0.49023  0.71754  1.0000
  C   C208      1.0  0.48617  0.54363  0.73728  1.0000
  C   C209      1.0  0.45269  0.93749  0.71210  1.0000
  C   C210      1.0  0.05888  0.50833  0.72885  1.0000
  C   C211      1.0  0.49056  0.34405  0.66862  1.0000
  C   C212      1.0  0.64958  0.13749  0.67373  1.0000
  C   C213      1.0  0.86144  0.50127  0.65486  1.0000
  C   C214      1.0  0.50444  0.63756  0.65264  1.0000
  C   C215      1.0  0.35823  0.85265  0.61720  1.0000
  C   C216      1.0  0.14138  0.48975  0.67091  1.0000
  C   C217      1.0  0.64898  0.51493  0.80133  1.0000
  C   C218      1.0  0.47582  0.13283  0.79441  1.0000
  C   C219      1.0  0.86462  0.34894  0.80412  1.0000
  C   C220      1.0  0.33791  0.47501  0.80554  1.0000
  C   C221      1.0  0.51991  0.86480  0.78294  1.0000
  C   C222      1.0  0.13510  0.65680  0.80568  1.0000
  C   C223      1.0  0.47840  0.16495  0.79421  1.0000
  C   C224      1.0  0.30922  0.47855  0.79987  1.0000
  C   C225      1.0  0.51700  0.83319  0.79242  1.0000
  C   C226      1.0  0.45219  0.16534  0.74935  1.0000
  C   C227      1.0  0.28165  0.44929  0.73095  1.0000
  C   C228      1.0  0.54517  0.82638  0.71984  1.0000
  C   C229      1.0  0.45370  0.19539  0.74609  1.0000
  C   C230      1.0  0.25422  0.45150  0.71737  1.0000
  C   C231      1.0  0.54335  0.79559  0.71351  1.0000
  C   C232      1.0  0.48194  0.22661  0.78664  1.0000
  C   C233      1.0  0.25314  0.48315  0.77234  1.0000
  C   C234      1.0  0.51303  0.77031  0.77636  1.0000
  C   C235      1.0  0.50819  0.22602  0.83107  1.0000
  C   C236      1.0  0.28083  0.51244  0.84136  1.0000
  C   C237      1.0  0.48522  0.77786  0.85649  1.0000
  C   C238      1.0  0.50656  0.19610  0.83606  1.0000
  C   C239      1.0  0.30827  0.51033  0.85527  1.0000
  C   C240      1.0  0.48713  0.80888  0.86640  1.0000
  C   C241      1.0  0.76816  0.50658  0.77476  1.0000
  C   C242      1.0  0.51047  0.73652  0.75180  1.0000
  C   C243      1.0  0.77034  0.47548  0.69179  1.0000
  C   C244      1.0  0.48306  0.70668  0.68567  1.0000
  C   C245      1.0  0.80081  0.47424  0.65285  1.0000
  C   C246      1.0  0.48164  0.67478  0.65097  1.0000
  C   C247      1.0  0.83012  0.50379  0.69638  1.0000
  C   C248      1.0  0.50705  0.67136  0.68423  1.0000
  C   C249      1.0  0.82787  0.53483  0.78407  1.0000
  C   C250      1.0  0.53431  0.70119  0.75331  1.0000
  C   C251      1.0  0.79753  0.53606  0.82176  1.0000
  C   C252      1.0  0.53604  0.73302  0.78421  1.0000
  N   N1        1.0  0.62709  0.50423  0.33554  1.0000
  N   N2        1.0  0.49945  0.13723  0.33167  1.0000
  N   N3        1.0  0.87279  0.37816  0.36111  1.0000
  N   N4        1.0  0.37164  0.50776  0.35477  1.0000
  N   N5        1.0  0.48911  0.87525  0.31775  1.0000
  N   N6        1.0  0.12860  0.63256  0.36218  1.0000
  N   N7        1.0  0.47424  0.36089  0.18723  1.0000
  N   N8        1.0  0.64257  0.11220  0.21391  1.0000
  N   N9        1.0  0.89146  0.52530  0.20103  1.0000
  N   N10       1.0  0.53003  0.64271  0.19584  1.0000
  N   N11       1.0  0.35929  0.88972  0.15695  1.0000
  N   N12       1.0  0.11531  0.46722  0.18681  1.0000
  N   N13       1.0  0.61828  0.49311  0.83949  1.0000
  N   N14       1.0  0.49824  0.13054  0.84122  1.0000
  N   N15       1.0  0.86821  0.37996  0.85953  1.0000
  N   N16       1.0  0.36513  0.50071  0.85474  1.0000
  N   N17       1.0  0.49479  0.87190  0.82604  1.0000
  N   N18       1.0  0.12634  0.63098  0.86473  1.0000
  N   N19       1.0  0.46524  0.34995  0.69330  1.0000
  N   N20       1.0  0.64353  0.11030  0.70969  1.0000
  N   N21       1.0  0.88925  0.52717  0.69301  1.0000
  N   N22       1.0  0.52551  0.63343  0.69921  1.0000
  N   N23       1.0  0.36317  0.88387  0.65936  1.0000
  N   N24       1.0  0.11120  0.46572  0.67991  1.0000
  C   C253      1.0  0.71629  0.17261  0.75023  1.0000
  C   C254      1.0  0.68600  0.16799  0.72667  1.0000
  C  Sn1       1.0  0.68301  0.19524  0.71579  1.0000
  C  Sn2       1.0  0.71091  0.22769  0.72874  1.0000
  C   C255      1.0  0.74111  0.23204  0.75218  1.0000
  C   C256      1.0  0.74383  0.20460  0.76295  1.0000
  H   H145      1.0  0.71840  0.15138  0.75847  1.0000
  O  Te1       1.0  0.65256  0.19019  0.69231  1.0000
  O  Te2       1.0  0.70861  0.25535  0.71824  1.0000
  H   H146      1.0  0.76729  0.20818  0.78107  1.0000
  Mg  Mg1       1.0  0.66181  0.23574  0.68583  1.0000
  C   C257      1.0  0.70748  0.22630  0.21722  1.0000
  C   C258      1.0  0.73460  0.23106  0.27702  1.0000
  C  Sn3       1.0  0.73575  0.20339  0.29577  1.0000
  C  Sn4       1.0  0.70923  0.17036  0.25371  1.0000
  C   C259      1.0  0.68222  0.16586  0.19386  1.0000
  C   C260      1.0  0.68131  0.19373  0.17564  1.0000
  H   H147      1.0  0.70678  0.24786  0.20302  1.0000
  O  Te3       1.0  0.76303  0.20860  0.35575  1.0000
  O  Te4       1.0  0.70975  0.14226  0.27118  1.0000
  H   H148      1.0  0.66032  0.19003  0.12923  1.0000
  Mg  Mg2       1.0  0.75233  0.16230  0.35791  1.0000
  C   C261      1.0  0.27217  0.81468  0.80331  1.0000
  C   C262      1.0  0.26336  0.77991  0.75993  1.0000
  C  Sn5       1.0  0.28752  0.76774  0.66852  1.0000
  C  Sn6       1.0  0.32110  0.79087  0.61986  1.0000
  C   C263      1.0  0.32967  0.82560  0.66400  1.0000
  C   C264      1.0  0.30530  0.83751  0.75544  1.0000
  H   H149      1.0  0.25332  0.82390  0.87415  1.0000
  O  Te5       1.0  0.27828  0.73293  0.62616  1.0000
  O  Te6       1.0  0.34575  0.77939  0.52851  1.0000
  H   H150      1.0  0.31213  0.86443  0.78911  1.0000
  Mg  Mg3       1.0  0.32086  0.72962  0.50062  1.0000
  C   C265      1.0  0.17595  0.72463  0.77976  1.0000
  C   C266      1.0  0.16796  0.69284  0.79651  1.0000
  C  Sn7       1.0  0.19230  0.68691  0.82148  1.0000
  C  Sn8       1.0  0.22522  0.71334  0.82982  1.0000
  C   C267      1.0  0.23296  0.74507  0.81304  1.0000
  C   C268      1.0  0.20842  0.75073  0.78805  1.0000
  H   H151      1.0  0.15696  0.72902  0.76052  1.0000
  O  Te7       1.0  0.18389  0.65499  0.83790  1.0000
  O  Te8       1.0  0.25003  0.70811  0.85473  1.0000
  H   H152      1.0  0.21461  0.77535  0.77520  1.0000
  Mg  Mg4       1.0  0.22636  0.66025  0.86997  1.0000
  C   C269      1.0  0.27937  0.44976  0.22482  1.0000
  C   C270      1.0  0.30896  0.47611  0.28371  1.0000
  C  Sn9       1.0  0.31286  0.50967  0.34951  1.0000
  C  Sn10      1.0  0.28661  0.51691  0.35635  1.0000
  C   C271      1.0  0.25710  0.49037  0.29724  1.0000
  C   C272      1.0  0.25346  0.45688  0.23159  1.0000
  H   H153      1.0  0.27655  0.42385  0.17412  1.0000
  O  Te9       1.0  0.34259  0.53569  0.40774  1.0000
  O  Te10      1.0  0.28985  0.55022  0.42156  1.0000
  H   H154      1.0  0.23055  0.43648  0.18611  1.0000
  Mg  Mg5       1.0  0.33512  0.57698  0.48538  1.0000
  C   C273      1.0  0.22452  0.51908  0.71207  1.0000
  C   C274      1.0  0.22515  0.49393  0.76058  1.0000
  C  Sn11      1.0  0.19624  0.46376  0.77513  1.0000
  C  Sn12      1.0  0.16618  0.45873  0.74034  1.0000
  C   C275      1.0  0.16582  0.48404  0.69177  1.0000
  C   C276      1.0  0.19489  0.51414  0.67767  1.0000
  H   H155      1.0  0.24702  0.54236  0.70106  1.0000
  O  Te11      1.0  0.19730  0.43891  0.82381  1.0000
  O  Te12      1.0  0.13693  0.42881  0.75383  1.0000
  H   H156      1.0  0.19440  0.53359  0.63999  1.0000
  Mg  Mg6       1.0  0.15095  0.40245  0.82451  1.0000
  C   C277      1.0  0.17448  0.72622  0.27873  1.0000
  C   C278      1.0  0.16786  0.69488  0.29539  1.0000
  C  Sn13      1.0  0.19308  0.69037  0.32133  1.0000
  C  Sn14      1.0  0.22548  0.71780  0.33077  1.0000
  C   C279      1.0  0.23184  0.74906  0.31408  1.0000
  C   C280      1.0  0.20643  0.75329  0.28809  1.0000
  H   H157      1.0  0.15482  0.72950  0.25872  1.0000
  O  Te13      1.0  0.18605  0.65889  0.33765  1.0000
  O  Te14      1.0  0.25114  0.71399  0.35668  1.0000
  H   H158      1.0  0.21155  0.77756  0.27532  1.0000
  Mg  Mg7       1.0  0.22928  0.66621  0.37133  1.0000
  C   C281      1.0  0.69574  0.47985  0.85981  1.0000
  C   C282      1.0  0.72904  0.50088  0.80198  1.0000
  C  Sn15      1.0  0.73704  0.52987  0.75317  1.0000
  C  Sn16      1.0  0.71119  0.53789  0.76261  1.0000
  C   C283      1.0  0.67796  0.51671  0.82076  1.0000
  C   C284      1.0  0.67022  0.48776  0.86923  1.0000
  H   H159      1.0  0.68976  0.45746  0.89741  1.0000
  O  Te15      1.0  0.77044  0.55059  0.69563  1.0000
  O  Te16      1.0  0.71849  0.56671  0.71469  1.0000
  H   H160      1.0  0.64444  0.47149  0.91410  1.0000
  Mg  Mg8       1.0  0.76780  0.58706  0.64464  1.0000
  C   C285      1.0  0.52869  0.31601  0.17768  1.0000
  C   C286      1.0  0.50348  0.32383  0.18169  1.0000
  C  Sn17      1.0  0.47001  0.30307  0.23811  1.0000
  C  Sn18      1.0  0.46169  0.27397  0.29148  1.0000
  C   C287      1.0  0.48710  0.26637  0.28711  1.0000
  C   C288      1.0  0.52051  0.28731  0.23036  1.0000
  H   H161      1.0  0.55454  0.33222  0.13387  1.0000
  O  Te17      1.0  0.44514  0.31125  0.24124  1.0000
  O  Te18      1.0  0.42844  0.25279  0.34852  1.0000
  H   H162      1.0  0.54002  0.28126  0.22738  1.0000
  Mg  Mg9       1.0  0.40346  0.27456  0.32933  1.0000
  C   C289      1.0  0.52049  0.29166  0.70215  1.0000
  C   C290      1.0  0.49281  0.26595  0.77545  1.0000
  C  Sn19      1.0  0.46097  0.26443  0.81251  1.0000
  C  Sn20      1.0  0.45685  0.28912  0.77531  1.0000
  C   C291      1.0  0.48470  0.31472  0.70186  1.0000
  C   C292      1.0  0.51645  0.31601  0.66535  1.0000
  H   H163      1.0  0.54505  0.29265  0.67380  1.0000
  O  Te19      1.0  0.43358  0.23858  0.88580  1.0000
  O  Te20      1.0  0.42531  0.28818  0.81098  1.0000
  H   H164      1.0  0.53787  0.33590  0.60849  1.0000
  Mg  Mg10      1.0  0.39565  0.24803  0.91091  1.0000
  C   C293      1.0  0.79281  0.31813  0.91384  1.0000
  C   C294      1.0  0.82524  0.32083  0.84462  1.0000
  C  Sn21      1.0  0.83035  0.29197  0.73919  1.0000
  C  Sn22      1.0  0.80242  0.25986  0.70258  1.0000
  C   C295      1.0  0.77008  0.25744  0.77235  1.0000
  C   C296      1.0  0.76526  0.28648  0.87774  1.0000
  H   H165      1.0  0.78907  0.34060  0.99530  1.0000
  O  Te21      1.0  0.86291  0.29511  0.67115  1.0000
  O  Te22      1.0  0.80681  0.23062  0.59755  1.0000
  H   H166      1.0  0.74015  0.28439  0.93122  1.0000
  Mg  Mg11      1.0  0.85605  0.24790  0.53514  1.0000
  C   C297      1.0  0.47906  0.78945  0.38647  1.0000
  C   C298      1.0  0.50320  0.77714  0.29931  1.0000
  C  Sn23      1.0  0.53420  0.79721  0.21187  1.0000
  C  Sn24      1.0  0.54108  0.83022  0.21197  1.0000
  C   C299      1.0  0.51677  0.84232  0.29967  1.0000
  C   C300      1.0  0.48583  0.82201  0.38669  1.0000
  H   H167      1.0  0.45513  0.77375  0.45389  1.0000
  O  Te23      1.0  0.55803  0.78451  0.12539  1.0000
  O  Te24      1.0  0.57185  0.85083  0.12568  1.0000
  H   H168      1.0  0.46715  0.83156  0.45426  1.0000
  Mg  Mg12      1.0  0.59625  0.82220  0.02643  1.0000
