data_image0
_chemical_formula_structural       H96C180N24C2Sn2C2HTe2HMgC2Sn2C2HTe2HMgC2Sn2C2HTe2HMgC2Sn2C2HTe2HMgC2Sn2C2HTe2HMgC2Sn2C2HTe2HMgC2Sn2C2HTe2HMgC2Sn2C2HTe2HMgC2Sn2C2HTe2HMgC2Sn2C2HTe2HMgC2Sn2C2HTe2HMgC2Sn2C2HTe2HMgC2Sn2C2HTe2HMgC2Sn2C2HTe2HMgC2Sn2C2HTe2HMgC2Sn2C2HTe2HMgC2Sn2C2HTe2HMgC2Sn2C2HTe2HMgC2Sn2C2HTe2HMgC2Sn2C2HTe2HMgC2Sn2C2HTe2HMgC2Sn2C2HTe2HMgC2Sn2C2HTe2HMgC2Sn2C2HTe2HMg
_chemical_formula_sum              "H144 C276 N24 Sn48 Te48 Mg24"
_cell_length_a       47.0845
_cell_length_b       47.1112
_cell_length_c       8.09474
_cell_angle_alpha    112.197
_cell_angle_beta     70.6771
_cell_angle_gamma    120.36

_symmetry_space_group_name_H-M    'P1'
_space_group_IT_number       1

loop_
  _space_group_symop_operation_xyz
  'x, y, z'

loop_
  _atom_site_type_symbol
  _atom_site_label
  _atom_site_symmetry_multiplicity
  _atom_site_fract_x
  _atom_site_fract_y
  _atom_site_fract_z
  _atom_site_occupancy
  H   H1        1.0  0.58334  0.56998  0.30845  1.0000
  H   H2        1.0  0.43551  0.02606  0.36582  1.0000
  H   H3        1.0  0.98657  0.42894  0.32983  1.0000
  H   H4        1.0  0.42519  0.45259  0.39652  1.0000
  H   H5        1.0  0.55169  0.98993  0.36832  1.0000
  H   H6        1.0  0.01767  0.58255  0.31586  1.0000
  H   H7        1.0  0.62887  0.56444  0.34165  1.0000
  H   H8        1.0  0.43995  0.08230  0.40658  1.0000
  H   H9        1.0  0.93144  0.38338  0.39573  1.0000
  H   H10       1.0  0.37391  0.45761  0.44180  1.0000
  H   H11       1.0  0.54254  0.93634  0.39905  1.0000
  H   H12       1.0  0.06912  0.63279  0.38245  1.0000
  H   H13       1.0  0.56716  0.45925  0.31822  1.0000
  H   H14       1.0  0.54626  0.12179  0.28445  1.0000
  H   H15       1.0  0.88640  0.43394  0.30735  1.0000
  H   H16       1.0  0.43091  0.55017  0.28274  1.0000
  H   H17       1.0  0.44766  0.88674  0.24065  1.0000
  H   H18       1.0  0.11518  0.57080  0.32569  1.0000
  H   H19       1.0  0.43943  0.42880  0.11278  1.0000
  H   H20       1.0  0.57345  0.99914  0.12914  1.0000
  H   H21       1.0  0.00351  0.56011  0.08655  1.0000
  H   H22       1.0  0.57584  0.57421  0.12689  1.0000
  H   H23       1.0  0.43322  0.99722  0.10304  1.0000
  H   H24       1.0  0.01236  0.42594  0.05588  1.0000
  H   H25       1.0  0.43426  0.37248  0.08345  1.0000
  H   H26       1.0  0.62899  0.04727  0.11708  1.0000
  H   H27       1.0  0.95375  0.56504  0.09056  1.0000
  H   H28       1.0  0.57973  0.62682  0.11774  1.0000
  H   H29       1.0  0.37854  0.94749  0.07503  1.0000
  H   H30       1.0  0.06192  0.41948  0.04666  1.0000
  H   H31       1.0  0.52747  0.41983  0.26418  1.0000
  H   H32       1.0  0.58470  0.11518  0.26997  1.0000
  H   H33       1.0  0.89122  0.47247  0.25398  1.0000
  H   H34       1.0  0.47376  0.58592  0.23473  1.0000
  H   H35       1.0  0.41354  0.89054  0.19362  1.0000
  H   H36       1.0  0.11167  0.52644  0.28394  1.0000
  H   H37       1.0  0.66486  0.54683  0.24366  1.0000
  H   H38       1.0  0.45493  0.11829  0.23871  1.0000
  H   H39       1.0  0.89090  0.34137  0.23027  1.0000
  H   H40       1.0  0.34240  0.45548  0.26465  1.0000
  H   H41       1.0  0.53968  0.88660  0.22872  1.0000
  H   H42       1.0  0.11873  0.65773  0.23928  1.0000
  H   H43       1.0  0.86165  0.47398  0.09173  1.0000
  H   H44       1.0  0.52507  0.37176  0.11031  1.0000
  H   H45       1.0  0.63433  0.14137  0.10931  1.0000
  H   H46       1.0  0.15154  0.51481  0.14419  1.0000
  H   H47       1.0  0.48825  0.62401  0.07856  1.0000
  H   H48       1.0  0.37557  0.85147  0.04076  1.0000
  H   H49       1.0  0.57383  0.55895  0.82066  1.0000
  H   H50       1.0  0.43626  0.01868  0.86561  1.0000
  H   H51       1.0  0.98142  0.43108  0.84561  1.0000
  H   H52       1.0  0.41576  0.44064  0.87770  1.0000
  H   H53       1.0  0.55747  0.98649  0.86128  1.0000
  H   H54       1.0  0.01601  0.58340  0.81146  1.0000
  H   H55       1.0  0.61868  0.55355  0.86507  1.0000
  H   H56       1.0  0.43931  0.07421  0.90838  1.0000
  H   H57       1.0  0.92590  0.38585  0.90972  1.0000
  H   H58       1.0  0.36518  0.44745  0.92590  1.0000
  H   H59       1.0  0.54981  0.93333  0.89207  1.0000
  H   H60       1.0  0.06785  0.63297  0.88061  1.0000
  H   H61       1.0  0.55861  0.44704  0.80896  1.0000
  H   H62       1.0  0.54585  0.11695  0.79985  1.0000
  H   H63       1.0  0.88305  0.43459  0.79009  1.0000
  H   H64       1.0  0.42502  0.54298  0.79663  1.0000
  H   H65       1.0  0.45193  0.88320  0.76498  1.0000
  H   H66       1.0  0.11128  0.56918  0.83126  1.0000
  H   H67       1.0  0.43151  0.41760  0.60123  1.0000
  H   H68       1.0  0.57733  0.99650  0.62052  1.0000
  H   H69       1.0  0.00139  0.56164  0.58549  1.0000
  H   H70       1.0  0.56817  0.56159  0.62421  1.0000
  H   H71       1.0  0.43726  0.99069  0.59967  1.0000
  H   H72       1.0  0.00699  0.42494  0.56703  1.0000
  H   H73       1.0  0.42579  0.36127  0.57616  1.0000
  H   H74       1.0  0.63223  0.04582  0.60419  1.0000
  H   H75       1.0  0.95242  0.56715  0.58394  1.0000
  H   H76       1.0  0.57370  0.61524  0.61586  1.0000
  H   H77       1.0  0.38279  0.94064  0.57098  1.0000
  H   H78       1.0  0.05671  0.41819  0.54969  1.0000
  H   H79       1.0  0.51805  0.40887  0.76871  1.0000
  H   H80       1.0  0.58446  0.11124  0.77564  1.0000
  H   H81       1.0  0.88855  0.47469  0.74827  1.0000
  H   H82       1.0  0.46779  0.57760  0.74213  1.0000
  H   H83       1.0  0.41712  0.88535  0.70984  1.0000
  H   H84       1.0  0.10803  0.52513  0.77614  1.0000
  H   H85       1.0  0.65514  0.53651  0.75195  1.0000
  H   H86       1.0  0.45361  0.11035  0.74706  1.0000
  H   H87       1.0  0.88626  0.34318  0.73603  1.0000
  H   H88       1.0  0.33545  0.44871  0.75652  1.0000
  H   H89       1.0  0.54502  0.88225  0.72962  1.0000
  H   H90       1.0  0.11856  0.65724  0.73824  1.0000
  H   H91       1.0  0.85983  0.47538  0.59035  1.0000
  H   H92       1.0  0.51597  0.36117  0.61592  1.0000
  H   H93       1.0  0.63205  0.13856  0.61678  1.0000
  H   H94       1.0  0.14804  0.51331  0.63833  1.0000
  H   H95       1.0  0.48343  0.61588  0.58748  1.0000
  H   H96       1.0  0.37894  0.84526  0.55187  1.0000
  C   C1        1.0  0.48842  0.49124  0.24800  1.0000
  C   C2        1.0  0.51248  0.00107  0.23707  1.0000
  C   C3        1.0  0.00556  0.51512  0.21751  1.0000
  C   C4        1.0  0.52030  0.51944  0.23920  1.0000
  C   C5        1.0  0.48481  0.00491  0.23334  1.0000
  C   C6        1.0  0.00258  0.48374  0.21699  1.0000
  C   C7        1.0  0.54832  0.51647  0.26012  1.0000
  C   C8        1.0  0.48812  0.03915  0.27410  1.0000
  C   C9        1.0  0.96977  0.45680  0.25566  1.0000
  C   C10       1.0  0.45854  0.49604  0.28736  1.0000
  C   C11       1.0  0.50685  0.96939  0.25965  1.0000
  C   C12       1.0  0.03662  0.54551  0.25414  1.0000
  C   C13       1.0  0.52260  0.54982  0.21490  1.0000
  C   C14       1.0  0.45411  0.97462  0.19133  1.0000
  C   C15       1.0  0.03263  0.47987  0.18793  1.0000
  C   C16       1.0  0.48589  0.45776  0.21805  1.0000
  C   C17       1.0  0.54567  0.02912  0.21992  1.0000
  C   C18       1.0  0.97666  0.51583  0.19395  1.0000
  C   C19       1.0  0.57985  0.54457  0.29063  1.0000
  C   C20       1.0  0.45981  0.04620  0.33381  1.0000
  C   C21       1.0  0.96511  0.42904  0.30895  1.0000
  C   C22       1.0  0.42667  0.47283  0.35744  1.0000
  C   C23       1.0  0.53008  0.96700  0.32296  1.0000
  C   C24       1.0  0.03941  0.57903  0.30287  1.0000
  C   C25       1.0  0.60581  0.54166  0.31498  1.0000
  C   C26       1.0  0.46230  0.07795  0.35866  1.0000
  C   C27       1.0  0.93405  0.40330  0.34699  1.0000
  C   C28       1.0  0.39763  0.47563  0.38411  1.0000
  C   C29       1.0  0.52495  0.93679  0.34201  1.0000
  C   C30       1.0  0.06847  0.60777  0.34387  1.0000
  C   C31       1.0  0.60196  0.51004  0.31743  1.0000
  C   C32       1.0  0.49414  0.10498  0.32680  1.0000
  C   C33       1.0  0.90517  0.40431  0.33788  1.0000
  C   C34       1.0  0.39927  0.50319  0.34561  1.0000
  C   C35       1.0  0.49547  0.90675  0.30284  1.0000
  C   C36       1.0  0.09708  0.60483  0.34075  1.0000
  C   C37       1.0  0.57040  0.48281  0.30459  1.0000
  C   C38       1.0  0.52237  0.09967  0.29483  1.0000
  C   C39       1.0  0.90906  0.43328  0.30637  1.0000
  C   C40       1.0  0.43080  0.52856  0.30016  1.0000
  C   C41       1.0  0.47092  0.90952  0.25896  1.0000
  C   C42       1.0  0.09363  0.57240  0.31545  1.0000
  C   C43       1.0  0.54394  0.48493  0.27279  1.0000
  C   C44       1.0  0.52028  0.06760  0.27140  1.0000
  C   C45       1.0  0.94054  0.45953  0.26419  1.0000
  C   C46       1.0  0.46060  0.52600  0.27234  1.0000
  C   C47       1.0  0.47569  0.94002  0.23770  1.0000
  C   C48       1.0  0.06440  0.54271  0.27070  1.0000
  C   C49       1.0  0.45823  0.42725  0.15402  1.0000
  C   C50       1.0  0.57538  0.02469  0.16707  1.0000
  C   C51       1.0  0.97912  0.54209  0.13663  1.0000
  C   C52       1.0  0.55312  0.57695  0.16448  1.0000
  C   C53       1.0  0.42833  0.97464  0.13608  1.0000
  C   C54       1.0  0.03367  0.44785  0.11228  1.0000
  C   C55       1.0  0.45523  0.39554  0.13561  1.0000
  C   C56       1.0  0.60678  0.05149  0.15739  1.0000
  C   C57       1.0  0.95132  0.54472  0.13503  1.0000
  C   C58       1.0  0.55556  0.60657  0.15284  1.0000
  C   C59       1.0  0.39781  0.94671  0.11693  1.0000
  C   C60       1.0  0.06127  0.44404  0.10533  1.0000
  C   C61       1.0  0.48000  0.39267  0.18146  1.0000
  C   C62       1.0  0.61071  0.08510  0.20027  1.0000
  C   C63       1.0  0.91897  0.51997  0.18419  1.0000
  C   C64       1.0  0.52664  0.61078  0.18330  1.0000
  C   C65       1.0  0.39171  0.91596  0.14411  1.0000
  C   C66       1.0  0.08943  0.47249  0.17482  1.0000
  C   C67       1.0  0.50853  0.42228  0.22963  1.0000
  C   C68       1.0  0.58193  0.08951  0.23713  1.0000
  C   C69       1.0  0.91611  0.49189  0.22093  1.0000
  C   C70       1.0  0.49612  0.58314  0.21437  1.0000
  C   C71       1.0  0.41829  0.91420  0.17376  1.0000
  C   C72       1.0  0.08986  0.50458  0.23241  1.0000
  C   C73       1.0  0.51273  0.45465  0.24144  1.0000
  C   C74       1.0  0.54968  0.06233  0.24125  1.0000
  C   C75       1.0  0.94413  0.48895  0.22485  1.0000
  C   C76       1.0  0.49323  0.55303  0.23036  1.0000
  C   C77       1.0  0.44933  0.94252  0.19671  1.0000
  C   C78       1.0  0.06271  0.50917  0.23124  1.0000
  C   C79       1.0  0.49938  0.35449  0.15911  1.0000
  C   C80       1.0  0.65067  0.13953  0.17171  1.0000
  C   C81       1.0  0.86368  0.49995  0.15862  1.0000
  C   C82       1.0  0.50850  0.64600  0.14824  1.0000
  C   C83       1.0  0.35474  0.85846  0.11207  1.0000
  C   C84       1.0  0.14534  0.49149  0.17744  1.0000
  C   C85       1.0  0.65800  0.52525  0.29492  1.0000
  C   C86       1.0  0.47742  0.14039  0.28638  1.0000
  C   C87       1.0  0.86926  0.34714  0.30073  1.0000
  C   C88       1.0  0.34440  0.48143  0.31120  1.0000
  C   C89       1.0  0.51457  0.86884  0.28018  1.0000
  C   C90       1.0  0.13609  0.65815  0.30470  1.0000
  C   C91       1.0  0.47999  0.48024  0.74434  1.0000
  C   C92       1.0  0.51552  0.99684  0.74727  1.0000
  C   C93       1.0  0.00264  0.51567  0.71278  1.0000
  C   C94       1.0  0.51190  0.50840  0.74071  1.0000
  C   C95       1.0  0.48733  0.99983  0.74372  1.0000
  C   C96       1.0  0.99900  0.48419  0.71549  1.0000
  C   C97       1.0  0.53964  0.50525  0.76339  1.0000
  C   C98       1.0  0.48939  0.03349  0.78264  1.0000
  C   C99       1.0  0.96588  0.45788  0.75533  1.0000
  C   C100      1.0  0.45042  0.48567  0.78346  1.0000
  C   C101      1.0  0.51083  0.96551  0.76992  1.0000
  C   C102      1.0  0.03395  0.54562  0.75007  1.0000
  C   C103      1.0  0.51502  0.53934  0.71913  1.0000
  C   C104      1.0  0.45719  0.96907  0.70097  1.0000
  C   C105      1.0  0.02847  0.47941  0.68859  1.0000
  C   C106      1.0  0.47743  0.44655  0.71134  1.0000
  C   C107      1.0  0.54822  0.02536  0.72572  1.0000
  C   C108      1.0  0.97406  0.51691  0.68859  1.0000
  C   C109      1.0  0.57060  0.53354  0.80135  1.0000
  C   C110      1.0  0.46046  0.03942  0.83851  1.0000
  C   C111      1.0  0.96043  0.43077  0.81702  1.0000
  C   C112      1.0  0.41800  0.46211  0.84635  1.0000
  C   C113      1.0  0.53534  0.96339  0.82379  1.0000
  C   C114      1.0  0.03743  0.57938  0.79915  1.0000
  C   C115      1.0  0.59621  0.53062  0.82933  1.0000
  C   C116      1.0  0.46212  0.07077  0.86355  1.0000
  C   C117      1.0  0.92912  0.40531  0.85503  1.0000
  C   C118      1.0  0.38943  0.46598  0.87536  1.0000
  C   C119      1.0  0.53106  0.93341  0.84221  1.0000
  C   C120      1.0  0.06662  0.60768  0.84203  1.0000
  C   C121      1.0  0.59287  0.49865  0.82257  1.0000
  C   C122      1.0  0.49364  0.09855  0.83608  1.0000
  C   C123      1.0  0.90074  0.40587  0.83643  1.0000
  C   C124      1.0  0.39205  0.49501  0.84660  1.0000
  C   C125      1.0  0.50100  0.90344  0.81262  1.0000
  C   C126      1.0  0.09458  0.60395  0.84160  1.0000
  C   C127      1.0  0.56166  0.47101  0.80222  1.0000
  C   C128      1.0  0.52235  0.09431  0.80726  1.0000
  C   C129      1.0  0.90540  0.43447  0.79749  1.0000
  C   C130      1.0  0.42401  0.52039  0.80830  1.0000
  C   C131      1.0  0.47551  0.90584  0.77602  1.0000
  C   C132      1.0  0.09035  0.57127  0.81693  1.0000
  C   C133      1.0  0.53525  0.47342  0.77142  1.0000
  C   C134      1.0  0.52102  0.06255  0.78230  1.0000
  C   C135      1.0  0.93708  0.46062  0.75757  1.0000
  C   C136      1.0  0.45327  0.51675  0.77714  1.0000
  C   C137      1.0  0.47957  0.93596  0.75372  1.0000
  C   C138      1.0  0.06110  0.54203  0.76863  1.0000
  C   C139      1.0  0.45005  0.41597  0.64486  1.0000
  C   C140      1.0  0.57848  0.02176  0.66403  1.0000
  C   C141      1.0  0.97682  0.54356  0.63288  1.0000
  C   C142      1.0  0.54603  0.56565  0.66621  1.0000
  C   C143      1.0  0.43206  0.96856  0.63804  1.0000
  C   C144      1.0  0.02885  0.44705  0.61701  1.0000
  C   C145      1.0  0.44677  0.38421  0.62911  1.0000
  C   C146      1.0  0.60949  0.04923  0.65156  1.0000
  C   C147      1.0  0.94943  0.54665  0.62948  1.0000
  C   C148      1.0  0.54928  0.59567  0.65518  1.0000
  C   C149      1.0  0.40176  0.94033  0.61772  1.0000
  C   C150      1.0  0.05653  0.44298  0.60620  1.0000
  C   C151      1.0  0.47111  0.38134  0.67973  1.0000
  C   C152      1.0  0.61214  0.08243  0.69890  1.0000
  C   C153      1.0  0.91686  0.52196  0.67660  1.0000
  C   C154      1.0  0.52092  0.60113  0.68904  1.0000
  C   C155      1.0  0.39562  0.91012  0.65079  1.0000
  C   C156      1.0  0.08532  0.47124  0.66994  1.0000
  C   C157      1.0  0.49957  0.41099  0.72802  1.0000
  C   C158      1.0  0.58270  0.08591  0.74201  1.0000
  C   C159      1.0  0.91366  0.49375  0.71385  1.0000
  C   C160      1.0  0.48982  0.57419  0.72240  1.0000
  C   C161      1.0  0.42187  0.90882  0.68774  1.0000
  C   C162      1.0  0.08602  0.50341  0.72719  1.0000
  C   C163      1.0  0.50407  0.44336  0.73702  1.0000
  C   C164      1.0  0.55097  0.05816  0.74948  1.0000
  C   C165      1.0  0.94128  0.49023  0.71754  1.0000
  C   C166      1.0  0.48617  0.54363  0.73728  1.0000
  C   C167      1.0  0.45269  0.93749  0.71210  1.0000
  C   C168      1.0  0.05888  0.50833  0.72885  1.0000
  C   C169      1.0  0.49056  0.34405  0.66862  1.0000
  C   C170      1.0  0.64958  0.13749  0.67373  1.0000
  C   C171      1.0  0.86144  0.50127  0.65486  1.0000
  C   C172      1.0  0.50444  0.63756  0.65264  1.0000
  C   C173      1.0  0.35823  0.85265  0.61720  1.0000
  C   C174      1.0  0.14138  0.48975  0.67091  1.0000
  C   C175      1.0  0.64898  0.51493  0.80133  1.0000
  C   C176      1.0  0.47582  0.13283  0.79441  1.0000
  C   C177      1.0  0.86462  0.34894  0.80412  1.0000
  C   C178      1.0  0.33791  0.47501  0.80554  1.0000
  C   C179      1.0  0.51991  0.86480  0.78294  1.0000
  C   C180      1.0  0.13510  0.65680  0.80568  1.0000
  N   N1        1.0  0.62709  0.50423  0.33554  1.0000
  N   N2        1.0  0.49945  0.13723  0.33167  1.0000
  N   N3        1.0  0.87279  0.37816  0.36111  1.0000
  N   N4        1.0  0.37164  0.50776  0.35477  1.0000
  N   N5        1.0  0.48911  0.87525  0.31775  1.0000
  N   N6        1.0  0.12860  0.63256  0.36218  1.0000
  N   N7        1.0  0.47424  0.36089  0.18723  1.0000
  N   N8        1.0  0.64257  0.11220  0.21391  1.0000
  N   N9        1.0  0.89146  0.52530  0.20103  1.0000
  N   N10       1.0  0.53003  0.64271  0.19584  1.0000
  N   N11       1.0  0.35929  0.88972  0.15695  1.0000
  N   N12       1.0  0.11531  0.46722  0.18681  1.0000
  N   N13       1.0  0.61828  0.49311  0.83949  1.0000
  N   N14       1.0  0.49824  0.13054  0.84122  1.0000
  N   N15       1.0  0.86821  0.37996  0.85953  1.0000
  N   N16       1.0  0.36513  0.50071  0.85474  1.0000
  N   N17       1.0  0.49479  0.87190  0.82604  1.0000
  N   N18       1.0  0.12634  0.63098  0.86473  1.0000
  N   N19       1.0  0.46524  0.34995  0.69330  1.0000
  N   N20       1.0  0.64353  0.11030  0.70969  1.0000
  N   N21       1.0  0.88925  0.52717  0.69301  1.0000
  N   N22       1.0  0.52551  0.63343  0.69921  1.0000
  N   N23       1.0  0.36317  0.88387  0.65936  1.0000
  N   N24       1.0  0.11120  0.46572  0.67991  1.0000
  C   C181      1.0  0.70175  0.48650  0.34688  1.0000
  C   C182      1.0  0.73546  0.50709  0.29373  1.0000
  C  Sn1       1.0  0.74488  0.53713  0.25120  1.0000
  C  Sn2       1.0  0.72002  0.54669  0.26226  1.0000
  C   C183      1.0  0.68636  0.52593  0.31569  1.0000
  C   C184      1.0  0.67721  0.49591  0.35789  1.0000
  H   H97       1.0  0.69467  0.46328  0.37963  1.0000
  O  Te1       1.0  0.77868  0.55740  0.19827  1.0000
  O  Te2       1.0  0.72874  0.57660  0.22058  1.0000
  H   H98       1.0  0.65111  0.47999  0.39915  1.0000
  Mg  Mg1       1.0  0.77809  0.59576  0.15513  1.0000
  C   C185      1.0  0.45076  0.17904  0.24270  1.0000
  C   C186      1.0  0.47419  0.17236  0.27193  1.0000
  C  Sn3       1.0  0.50483  0.19896  0.31570  1.0000
  C  Sn4       1.0  0.51206  0.23285  0.33042  1.0000
  C   C187      1.0  0.48844  0.23928  0.30104  1.0000
  C   C188      1.0  0.45787  0.21247  0.25726  1.0000
  H   H99       1.0  0.42709  0.15831  0.20892  1.0000
  O  Te3       1.0  0.52796  0.19183  0.34440  1.0000
  O  Te4       1.0  0.54248  0.25991  0.37405  1.0000
  H   H100      1.0  0.43972  0.21765  0.23475  1.0000
  Mg  Mg2       1.0  0.56593  0.23730  0.40066  1.0000
  C   C189      1.0  0.79771  0.31725  0.41551  1.0000
  C   C190      1.0  0.82980  0.31910  0.34359  1.0000
  C  Sn5       1.0  0.83404  0.28994  0.23439  1.0000
  C  Sn6       1.0  0.80559  0.25838  0.19669  1.0000
  C   C191      1.0  0.77359  0.25680  0.26918  1.0000
  C   C192      1.0  0.76962  0.28613  0.37833  1.0000
  H   H101      1.0  0.79464  0.33995  0.49988  1.0000
  O  Te5       1.0  0.86629  0.29223  0.16369  1.0000
  O  Te6       1.0  0.80911  0.22884  0.08791  1.0000
  H   H102      1.0  0.74477  0.28470  0.43390  1.0000
  Mg  Mg3       1.0  0.85821  0.24491  0.02292  1.0000
  C   C193      1.0  0.26506  0.45079  0.20887  1.0000
  C   C194      1.0  0.25769  0.47872  0.26950  1.0000
  C  Sn7       1.0  0.28071  0.51095  0.34861  1.0000
  C  Sn8       1.0  0.31168  0.51523  0.36714  1.0000
  C   C195      1.0  0.31882  0.48714  0.30593  1.0000
  C   C196      1.0  0.29560  0.45500  0.22703  1.0000
  H   H103      1.0  0.24710  0.42593  0.14773  1.0000
  O  Te7       1.0  0.27294  0.53857  0.40852  1.0000
  O  Te8       1.0  0.33515  0.54717  0.44564  1.0000
  H   H104      1.0  0.30132  0.43339  0.17999  1.0000
  Mg  Mg4       1.0  0.31304  0.57702  0.50649  1.0000
  C   C197      1.0  0.47875  0.80510  0.38213  1.0000
  C   C198      1.0  0.50555  0.83325  0.32467  1.0000
  C  Sn9       1.0  0.53622  0.83233  0.23705  1.0000
  C  Sn10      1.0  0.54005  0.80265  0.20655  1.0000
  C   C199      1.0  0.51308  0.77462  0.26444  1.0000
  C   C200      1.0  0.48250  0.77581  0.35203  1.0000
  H   H105      1.0  0.45509  0.80601  0.44982  1.0000
  O  Te9       1.0  0.56274  0.86068  0.18058  1.0000
  O  Te10      1.0  0.57042  0.80105  0.11924  1.0000
  H   H106      1.0  0.46175  0.75401  0.39640  1.0000
  Mg  Mg5       1.0  0.59921  0.84620  0.06751  1.0000
  C   C201      1.0  0.20615  0.69415  0.33415  1.0000
  C   C202      1.0  0.17436  0.68897  0.33096  1.0000
  C  Sn11      1.0  0.17035  0.71364  0.29757  1.0000
  C  Sn12      1.0  0.19875  0.74402  0.26680  1.0000
  C   C203      1.0  0.23045  0.74895  0.27015  1.0000
  C   C204      1.0  0.23418  0.72411  0.30375  1.0000
  H   H107      1.0  0.20904  0.67492  0.36005  1.0000
  O  Te11      1.0  0.13840  0.70806  0.29493  1.0000
  O  Te12      1.0  0.19545  0.76909  0.23304  1.0000
  H   H108      1.0  0.25880  0.72812  0.30609  1.0000
  Mg  Mg6       1.0  0.14672  0.74975  0.24315  1.0000
  C   C205      1.0  0.81199  0.54274  0.33057  1.0000
  C   C206      1.0  0.78140  0.51884  0.27488  1.0000
  C  Sn13      1.0  0.77627  0.48535  0.18175  1.0000
  C  Sn14      1.0  0.80229  0.47569  0.14392  1.0000
  C   C207      1.0  0.83280  0.49978  0.20033  1.0000
  C   C208      1.0  0.83767  0.53322  0.29338  1.0000
  H   H109      1.0  0.81576  0.56861  0.40265  1.0000
  O  Te13      1.0  0.74555  0.46180  0.12702  1.0000
  O  Te14      1.0  0.79783  0.44239  0.05113  1.0000
  H   H110      1.0  0.86136  0.55172  0.33658  1.0000
  Mg  Mg7       1.0  0.75153  0.41950  0.00444  1.0000
  C   C209      1.0  0.52696  0.29978  0.18719  1.0000
  C   C210      1.0  0.49867  0.27441  0.25990  1.0000
  C  Sn15      1.0  0.46728  0.27389  0.29650  1.0000
  C  Sn16      1.0  0.46424  0.29927  0.25942  1.0000
  C   C211      1.0  0.49269  0.32453  0.18655  1.0000
  C   C212      1.0  0.52398  0.32481  0.15051  1.0000
  H   H111      1.0  0.55117  0.29999  0.15920  1.0000
  O  Te15      1.0  0.43927  0.24837  0.36921  1.0000
  O  Te16      1.0  0.43316  0.29935  0.29462  1.0000
  H   H112      1.0  0.54588  0.34445  0.09410  1.0000
  Mg  Mg8       1.0  0.40234  0.25927  0.39384  1.0000
  C   C213      1.0  0.69078  0.21061  0.20746  1.0000
  C   C214      1.0  0.68289  0.17705  0.19420  1.0000
  C  Sn17      1.0  0.70507  0.16979  0.23192  1.0000
  C  Sn18      1.0  0.73570  0.19668  0.28389  1.0000
  C   C215      1.0  0.74335  0.23016  0.29689  1.0000
  C   C216      1.0  0.72098  0.23714  0.25878  1.0000
  H   H113      1.0  0.67347  0.21601  0.17807  1.0000
  O  Te17      1.0  0.69680  0.13612  0.21794  1.0000
  O  Te18      1.0  0.75832  0.19014  0.32243  1.0000
  H   H114      1.0  0.72709  0.26313  0.26917  1.0000
  Mg  Mg9       1.0  0.73579  0.14008  0.28422  1.0000
  C   C217      1.0  0.17368  0.45585  0.24287  1.0000
  C   C218      1.0  0.17114  0.48282  0.22514  1.0000
  C  Sn19      1.0  0.19940  0.51374  0.21701  1.0000
  C  Sn20      1.0  0.23077  0.51764  0.22679  1.0000
  C   C219      1.0  0.23306  0.49050  0.24440  1.0000
  C   C220      1.0  0.20461  0.45967  0.25246  1.0000
  H   H115      1.0  0.15168  0.43199  0.24902  1.0000
  O  Te19      1.0  0.19641  0.54043  0.19934  1.0000
  O  Te20      1.0  0.25943  0.54826  0.21892  1.0000
  H   H116      1.0  0.20660  0.43879  0.26608  1.0000
  Mg  Mg10      1.0  0.24263  0.57721  0.19454  1.0000
  C   C221      1.0  0.47857  0.68638  0.15761  1.0000
  C   C222      1.0  0.50346  0.67924  0.16527  1.0000
  C  Sn21      1.0  0.53233  0.70554  0.23199  1.0000
  C  Sn22      1.0  0.53627  0.73958  0.29211  1.0000
  C   C223      1.0  0.51121  0.74646  0.28401  1.0000
  C   C224      1.0  0.48243  0.71995  0.21695  1.0000
  H   H117      1.0  0.45629  0.66587  0.10582  1.0000
  O  Te21      1.0  0.55696  0.69796  0.23863  1.0000
  O  Te22      1.0  0.56487  0.76635  0.35948  1.0000
  H   H118      1.0  0.46315  0.72549  0.21115  1.0000
  Mg  Mg11      1.0  0.59144  0.74316  0.34145  1.0000
  C   C225      1.0  0.28495  0.83305  0.27309  1.0000
  C   C226      1.0  0.31632  0.83342  0.19244  1.0000
  C  Sn23      1.0  0.32005  0.80335  0.13426  1.0000
  C  Sn24      1.0  0.29180  0.77238  0.15739  1.0000
  C   C227      1.0  0.26052  0.77227  0.23810  1.0000
  C   C228      1.0  0.25707  0.80251  0.29588  1.0000
  H   H119      1.0  0.28227  0.85644  0.31770  1.0000
  O  Te23      1.0  0.35158  0.80418  0.05402  1.0000
  O  Te24      1.0  0.29483  0.74195  0.10042  1.0000
  H   H120      1.0  0.23277  0.80221  0.35821  1.0000
  Mg  Mg12      1.0  0.31070  0.80468  0.99858  1.0000
  C   C229      1.0  0.73460  0.54081  0.75222  1.0000
  C   C230      1.0  0.73791  0.51762  0.80392  1.0000
  C  Sn25      1.0  0.70957  0.48983  0.85614  1.0000
  C  Sn26      1.0  0.67736  0.48523  0.85642  1.0000
  C   C231      1.0  0.67432  0.50855  0.80434  1.0000
  C   C232      1.0  0.70284  0.53628  0.75239  1.0000
  H   H121      1.0  0.75667  0.56225  0.71193  1.0000
  O  Te25      1.0  0.71332  0.46692  0.90747  1.0000
  O  Te26      1.0  0.64862  0.45767  0.90793  1.0000
  H   H122      1.0  0.70027  0.55421  0.71225  1.0000
  Mg  Mg13      1.0  0.66664  0.43336  0.96671  1.0000
  C   C233      1.0  0.51173  0.22175  0.84390  1.0000
  C   C234      1.0  0.48990  0.22673  0.78766  1.0000
  C  Sn27      1.0  0.45998  0.19935  0.73860  1.0000
  C  Sn28      1.0  0.45184  0.16642  0.74616  1.0000
  C   C235      1.0  0.47383  0.16171  0.80273  1.0000
  C   C236      1.0  0.50371  0.18928  0.85147  1.0000
  H   H123      1.0  0.53484  0.24308  0.88171  1.0000
  O  Te27      1.0  0.43846  0.20477  0.68266  1.0000
  O  Te28      1.0  0.42209  0.13861  0.69795  1.0000
  H   H124      1.0  0.52060  0.18542  0.89512  1.0000
  Mg  Mg14      1.0  0.40088  0.15885  0.63054  1.0000
  C   C237      1.0  0.77652  0.30205  0.91515  1.0000
  C   C238      1.0  0.77016  0.26861  0.81385  1.0000
  C  Sn29      1.0  0.79660  0.26026  0.71288  1.0000
  C  Sn30      1.0  0.83001  0.28591  0.71366  1.0000
  C   C239      1.0  0.83610  0.31928  0.81556  1.0000
  C   C240      1.0  0.80945  0.32736  0.91605  1.0000
  H   H125      1.0  0.75590  0.30830  0.99299  1.0000
  O  Te29      1.0  0.78981  0.22673  0.61236  1.0000
  O  Te30      1.0  0.85690  0.27826  0.61402  1.0000
  H   H126      1.0  0.81438  0.35324  0.99457  1.0000
  Mg  Mg15      1.0  0.83489  0.22889  0.49838  1.0000
  C   C241      1.0  0.27292  0.44481  0.72151  1.0000
  C   C242      1.0  0.30304  0.47079  0.77567  1.0000
  C  Sn31      1.0  0.30784  0.50465  0.83816  1.0000
  C  Sn32      1.0  0.28197  0.51255  0.84648  1.0000
  C   C243      1.0  0.25192  0.48637  0.79211  1.0000
  C   C244      1.0  0.24738  0.45258  0.72974  1.0000
  H   H127      1.0  0.26940  0.41866  0.67334  1.0000
  O  Te31      1.0  0.33810  0.53030  0.89168  1.0000
  O  Te32      1.0  0.28610  0.54616  0.90846  1.0000
  H   H128      1.0  0.22405  0.43246  0.68792  1.0000
  Mg  Mg16      1.0  0.33182  0.57222  0.96625  1.0000
  C   C245      1.0  0.48170  0.80002  0.87192  1.0000
  C   C246      1.0  0.50966  0.82854  0.82446  1.0000
  C  Sn33      1.0  0.54031  0.82720  0.74322  1.0000
  C  Sn34      1.0  0.54294  0.79670  0.70897  1.0000
  C   C247      1.0  0.51483  0.76830  0.75684  1.0000
  C   C248      1.0  0.48428  0.76993  0.83813  1.0000
  H   H129      1.0  0.45806  0.80127  0.93472  1.0000
  O  Te33      1.0  0.56799  0.85593  0.69672  1.0000
  O  Te34      1.0  0.57327  0.79466  0.62787  1.0000
  H   H130      1.0  0.46263  0.74783  0.87475  1.0000
  Mg  Mg17      1.0  0.60390  0.84060  0.58917  1.0000
  C   C249      1.0  0.19294  0.73925  0.76579  1.0000
  C   C250      1.0  0.22306  0.74535  0.79947  1.0000
  C  Sn35      1.0  0.22562  0.72007  0.83580  1.0000
  C  Sn36      1.0  0.19745  0.68811  0.83830  1.0000
  C   C251      1.0  0.16743  0.68224  0.80430  1.0000
  C   C252      1.0  0.16515  0.70772  0.76816  1.0000
  H   H131      1.0  0.19118  0.75895  0.73773  1.0000
  O  Te35      1.0  0.25590  0.72660  0.86923  1.0000
  O  Te36      1.0  0.19931  0.66239  0.87416  1.0000
  H   H132      1.0  0.14183  0.70298  0.74196  1.0000
  Mg  Mg18      1.0  0.24603  0.68349  0.91147  1.0000
  C   C253      1.0  0.77524  0.47036  0.66817  1.0000
  C   C254      1.0  0.76764  0.49803  0.76372  1.0000
  C  Sn37      1.0  0.79287  0.53024  0.82371  1.0000
  C  Sn38      1.0  0.82631  0.53474  0.78711  1.0000
  C   C255      1.0  0.83366  0.50689  0.69130  1.0000
  C   C256      1.0  0.80822  0.47478  0.63196  1.0000
  H   H133      1.0  0.75556  0.44551  0.62216  1.0000
  O  Te37      1.0  0.78484  0.55761  0.91904  1.0000
  O  Te38      1.0  0.85202  0.56665  0.84543  1.0000
  H   H134      1.0  0.81411  0.45336  0.55788  1.0000
  Mg  Mg19      1.0  0.82856  0.59612  0.97039  1.0000
  C   C257      1.0  0.45097  0.26761  0.80669  1.0000
  C   C258      1.0  0.47632  0.25792  0.77387  1.0000
  C  Sn39      1.0  0.50945  0.27905  0.71439  1.0000
  C  Sn40      1.0  0.51728  0.31047  0.68743  1.0000
  C   C259      1.0  0.49175  0.31995  0.72077  1.0000
  C   C260      1.0  0.45867  0.29860  0.78020  1.0000
  H   H135      1.0  0.42538  0.25111  0.85276  1.0000
  O  Te39      1.0  0.53446  0.26897  0.68218  1.0000
  O  Te40      1.0  0.55019  0.33208  0.62813  1.0000
  H   H136      1.0  0.43906  0.30612  0.80571  1.0000
  Mg  Mg20      1.0  0.57554  0.30713  0.60263  1.0000
  C   C261      1.0  0.68725  0.20892  0.71125  1.0000
  C   C262      1.0  0.68079  0.17567  0.69492  1.0000
  C  Sn41      1.0  0.70420  0.16946  0.72795  1.0000
  C  Sn42      1.0  0.73461  0.19711  0.77830  1.0000
  C   C263      1.0  0.74083  0.23029  0.79440  1.0000
  C   C264      1.0  0.71723  0.23621  0.76097  1.0000
  H   H137      1.0  0.66898  0.21351  0.68549  1.0000
  O  Te41      1.0  0.69735  0.13608  0.71095  1.0000
  O  Te42      1.0  0.75844  0.19163  0.81217  1.0000
  H   H138      1.0  0.72223  0.26196  0.77374  1.0000
  Mg  Mg21      1.0  0.73763  0.14157  0.77119  1.0000
  C   C265      1.0  0.20943  0.52040  0.70683  1.0000
  C   C266      1.0  0.17685  0.49488  0.69529  1.0000
  C  Sn43      1.0  0.16701  0.46362  0.72558  1.0000
  C  Sn44      1.0  0.19028  0.45788  0.76823  1.0000
  C   C267      1.0  0.22281  0.48358  0.77958  1.0000
  C   C268      1.0  0.23239  0.51476  0.74896  1.0000
  H   H139      1.0  0.21684  0.54453  0.68324  1.0000
  O  Te43      1.0  0.13437  0.43840  0.71345  1.0000
  O  Te44      1.0  0.18111  0.42687  0.79921  1.0000
  H   H140      1.0  0.25761  0.53452  0.75801  1.0000
  Mg  Mg22      1.0  0.13377  0.40039  0.76710  1.0000
  C   C269      1.0  0.53940  0.72781  0.79000  1.0000
  C   C270      1.0  0.51849  0.73643  0.75002  1.0000
  C  Sn45      1.0  0.48961  0.71096  0.68050  1.0000
  C  Sn46      1.0  0.48158  0.67625  0.65063  1.0000
  C   C271      1.0  0.50265  0.66789  0.69118  1.0000
  C   C272      1.0  0.53149  0.69357  0.76065  1.0000
  H   H141      1.0  0.56170  0.74768  0.84384  1.0000
  O  Te45      1.0  0.46901  0.72002  0.64124  1.0000
  O  Te46      1.0  0.45287  0.65028  0.58133  1.0000
  H   H142      1.0  0.54766  0.68689  0.79170  1.0000
  Mg  Mg23      1.0  0.43266  0.67546  0.54899  1.0000
  C   C273      1.0  0.27217  0.81468  0.80331  1.0000
  C   C274      1.0  0.26336  0.77991  0.75993  1.0000
  C  Sn47      1.0  0.28752  0.76774  0.66852  1.0000
  C  Sn48      1.0  0.32110  0.79087  0.61986  1.0000
  C   C275      1.0  0.32967  0.82560  0.66400  1.0000
  C   C276      1.0  0.30530  0.83751  0.75544  1.0000
  H   H143      1.0  0.25332  0.82390  0.87415  1.0000
  O  Te47      1.0  0.27828  0.73293  0.62616  1.0000
  O  Te48      1.0  0.34575  0.77939  0.52851  1.0000
  H   H144      1.0  0.31213  0.86443  0.78911  1.0000
  Mg  Mg24      1.0  0.32086  0.72962  0.50062  1.0000
