data_image0
_chemical_formula_structural       H68C104N16SnCSn2CSnTe4Mg2SnCSn2CSnTe4Mg2SnCSn2CSnTe4Mg2SnCSn2CSnTe4Mg2
_chemical_formula_sum              "H68 C112 N16 Sn16 Te16 Mg8"
_cell_length_a       25.5389
_cell_length_b       25.5658
_cell_length_c       8.19918
_cell_angle_alpha    92.2492
_cell_angle_beta     87.436
_cell_angle_gamma    90.8293

_symmetry_space_group_name_H-M    'P1'
_space_group_IT_number       1

loop_
  _space_group_symop_operation_xyz
  'x, y, z'

loop_
  _atom_site_type_symbol
  _atom_site_label
  _atom_site_symmetry_multiplicity
  _atom_site_fract_x
  _atom_site_fract_y
  _atom_site_fract_z
  _atom_site_occupancy
  H   H1        1.0  0.17349  0.10221  0.35820  1.0000
  H   H2        1.0  0.82461  0.89425  0.39519  1.0000
  H   H3        1.0  0.10090  0.83111  0.10853  1.0000
  H   H4        1.0  0.89681  0.17399  0.12567  1.0000
  H   H5        1.0  0.19979  0.07508  0.13403  1.0000
  H   H6        1.0  0.29667  0.07409  0.13757  1.0000
  H   H7        1.0  0.36950  0.08514  0.47583  1.0000
  H   H8        1.0  0.63049  0.91335  0.53142  1.0000
  H   H9        1.0  0.08092  0.63853  0.02968  1.0000
  H   H10       1.0  0.91773  0.36655  0.02056  1.0000
  H   H11       1.0  0.46409  0.08538  0.49546  1.0000
  H   H12       1.0  0.53538  0.91263  0.53344  1.0000
  H   H13       1.0  0.08415  0.54343  0.03800  1.0000
  H   H14       1.0  0.91474  0.46096  0.00459  1.0000
  H   H15       1.0  0.09830  0.17466  0.36931  1.0000
  H   H16       1.0  0.89845  0.82075  0.38818  1.0000
  H   H17       1.0  0.17433  0.90747  0.10396  1.0000
  H   H18       1.0  0.82359  0.09794  0.13004  1.0000
  H   H19       1.0  0.45472  0.91826  0.04959  1.0000
  H   H20       1.0  0.54183  0.08465  0.00309  1.0000
  H   H21       1.0  0.92048  0.53547  0.45507  1.0000
  H   H22       1.0  0.08972  0.45963  0.50607  1.0000
  H   H23       1.0  0.35996  0.92291  0.02514  1.0000
  H   H24       1.0  0.63649  0.07919  0.01117  1.0000
  H   H25       1.0  0.92290  0.63031  0.44791  1.0000
  H   H26       1.0  0.08564  0.36481  0.51955  1.0000
  H   H27       1.0  0.29979  0.93336  0.33554  1.0000
  H   H28       1.0  0.93200  0.70446  0.15149  1.0000
  H   H29       1.0  0.07059  0.29955  0.14734  1.0000
  H   H30       1.0  0.20347  0.93271  0.33075  1.0000
  H   H31       1.0  0.93268  0.80138  0.15220  1.0000
  H   H32       1.0  0.06951  0.20383  0.13633  1.0000
  H   H33       1.0  0.03098  0.97099  0.96853  1.0000
  H   H34       1.0  0.17387  0.10294  0.85725  1.0000
  H   H35       1.0  0.82726  0.89563  0.88186  1.0000
  H   H36       1.0  0.09879  0.82875  0.60553  1.0000
  H   H37       1.0  0.89749  0.17252  0.62676  1.0000
  H   H38       1.0  0.19832  0.07537  0.62309  1.0000
  H   H39       1.0  0.06993  0.79928  0.83190  1.0000
  H   H40       1.0  0.92935  0.20227  0.86605  1.0000
  H   H41       1.0  0.29475  0.07639  0.63117  1.0000
  H   H42       1.0  0.06943  0.70227  0.82850  1.0000
  H   H43       1.0  0.93004  0.29830  0.87316  1.0000
  H   H44       1.0  0.36791  0.08440  0.95639  1.0000
  H   H45       1.0  0.62945  0.91528  0.03261  1.0000
  H   H46       1.0  0.08628  0.63482  0.48746  1.0000
  H   H47       1.0  0.92128  0.36394  0.53399  1.0000
  H   H48       1.0  0.46291  0.08638  0.97634  1.0000
  H   H49       1.0  0.53462  0.91461  0.03019  1.0000
  H   H50       1.0  0.09015  0.53998  0.49622  1.0000
  H   H51       1.0  0.91864  0.45859  0.52047  1.0000
  H   H52       1.0  0.09910  0.17598  0.86433  1.0000
  H   H53       1.0  0.90269  0.82329  0.87513  1.0000
  H   H54       1.0  0.17289  0.90454  0.59706  1.0000
  H   H55       1.0  0.82354  0.09631  0.63103  1.0000
  H   H56       1.0  0.45477  0.91560  0.53153  1.0000
  H   H57       1.0  0.54275  0.08300  0.51184  1.0000
  H   H58       1.0  0.91650  0.53941  0.95316  1.0000
  H   H59       1.0  0.08548  0.46343  0.01042  1.0000
  H   H60       1.0  0.36044  0.92194  0.51466  1.0000
  H   H61       1.0  0.63755  0.07702  0.51220  1.0000
  H   H62       1.0  0.92001  0.63485  0.94911  1.0000
  H   H63       1.0  0.08223  0.36919  0.02556  1.0000
  H   H64       1.0  0.29844  0.93626  0.81886  1.0000
  H   H65       1.0  0.20128  0.93742  0.81948  1.0000
  H   H66       1.0  0.02957  0.96820  0.46189  1.0000
  H   H67       1.0  0.96887  0.03112  0.97231  1.0000
  H   H68       1.0  0.96889  0.02943  0.47225  1.0000
  C   C1        1.0  0.04669  0.10829  0.46118  1.0000
  C   C2        1.0  0.95081  0.88807  0.47368  1.0000
  C   C3        1.0  0.11049  0.95669  0.01784  1.0000
  C   C4        1.0  0.88835  0.04638  0.03317  1.0000
  C   C5        1.0  0.09466  0.13415  0.40227  1.0000
  C   C6        1.0  0.90276  0.86175  0.42336  1.0000
  C   C7        1.0  0.13394  0.91010  0.07106  1.0000
  C   C8        1.0  0.86441  0.09417  0.09135  1.0000
  C   C9        1.0  0.22150  0.04510  0.06340  1.0000
  C   C10       1.0  0.27597  0.04487  0.06409  1.0000
  C   C11       1.0  0.39048  0.04923  0.49149  1.0000
  C   C12       1.0  0.60870  0.94938  0.52925  1.0000
  C   C13       1.0  0.04650  0.61415  0.00974  1.0000
  C   C14       1.0  0.95343  0.38984  0.01029  1.0000
  C   C15       1.0  0.44335  0.04803  0.50069  1.0000
  C   C16       1.0  0.55560  0.95026  0.52844  1.0000
  C   C17       1.0  0.04709  0.56117  0.01309  1.0000
  C   C18       1.0  0.95295  0.44270  0.00307  1.0000
  C   C19       1.0  0.13518  0.00488  0.98364  1.0000
  C   C20       1.0  0.86364  0.99706  0.00506  1.0000
  C   C21       1.0  0.99887  0.86266  0.49466  1.0000
  C   C22       1.0  0.99900  0.13470  0.49821  1.0000
  C   C23       1.0  0.19326  0.00588  0.97874  1.0000
  C   C24       1.0  0.30407  0.00480  0.97931  1.0000
  C   C25       1.0  0.47132  0.00154  0.00837  1.0000
  C   C26       1.0  0.52587  0.00002  0.01498  1.0000
  C   C27       1.0  0.00482  0.52561  0.48890  1.0000
  C   C28       1.0  0.00439  0.47131  0.50275  1.0000
  C   C29       1.0  0.43796  0.95558  0.02257  1.0000
  C   C30       1.0  0.55906  0.04617  0.00827  1.0000
  C   C31       1.0  0.95780  0.55542  0.47176  1.0000
  C   C32       1.0  0.05135  0.44068  0.51032  1.0000
  C   C33       1.0  0.38526  0.95698  0.00958  1.0000
  C   C34       1.0  0.61202  0.04425  0.01070  1.0000
  C   C35       1.0  0.95796  0.60833  0.46713  1.0000
  C   C36       1.0  0.05032  0.38779  0.51883  1.0000
  C   C37       1.0  0.27767  0.96388  0.40247  1.0000
  C   C38       1.0  0.96126  0.72510  0.07708  1.0000
  C   C39       1.0  0.04009  0.27885  0.08153  1.0000
  C   C40       1.0  0.22331  0.96375  0.39918  1.0000
  C   C41       1.0  0.96182  0.77954  0.07815  1.0000
  C   C42       1.0  0.03930  0.22445  0.07626  1.0000
  C   C43       1.0  0.89044  0.94790  0.48025  1.0000
  C   C44       1.0  0.10782  0.04908  0.45203  1.0000
  C   C45       1.0  0.95061  0.11097  0.02903  1.0000
  C   C46       1.0  0.04835  0.89224  0.02176  1.0000
  C   C47       1.0  0.86513  0.89907  0.42707  1.0000
  C   C48       1.0  0.13274  0.09728  0.39663  1.0000
  C   C49       1.0  0.90211  0.13330  0.08880  1.0000
  C   C50       1.0  0.09630  0.87101  0.07321  1.0000
  C   C51       1.0  0.04696  0.11067  0.96131  1.0000
  C   C52       1.0  0.95300  0.89109  0.96670  1.0000
  C   C53       1.0  0.10951  0.95398  0.51004  1.0000
  C   C54       1.0  0.88843  0.04466  0.53646  1.0000
  C   C55       1.0  0.09510  0.13581  0.90011  1.0000
  C   C56       1.0  0.90579  0.86423  0.91237  1.0000
  C   C57       1.0  0.13256  0.90743  0.56438  1.0000
  C   C58       1.0  0.86446  0.09273  0.59305  1.0000
  C   C59       1.0  0.22065  0.04477  0.55730  1.0000
  C   C60       1.0  0.04010  0.77860  0.90380  1.0000
  C   C61       1.0  0.95961  0.22354  0.93141  1.0000
  C   C62       1.0  0.27509  0.04561  0.56086  1.0000
  C   C63       1.0  0.04017  0.72411  0.90235  1.0000
  C   C64       1.0  0.95969  0.27793  0.93638  1.0000
  C   C65       1.0  0.38970  0.04924  0.97607  1.0000
  C   C66       1.0  0.60792  0.95143  0.03044  1.0000
  C   C67       1.0  0.05108  0.61069  0.48279  1.0000
  C   C68       1.0  0.95692  0.38719  0.52024  1.0000
  C   C69       1.0  0.44253  0.04898  0.98689  1.0000
  C   C70       1.0  0.55488  0.95227  0.02740  1.0000
  C   C71       1.0  0.05195  0.55775  0.48900  1.0000
  C   C72       1.0  0.95673  0.44006  0.51331  1.0000
  C   C73       1.0  0.13496  0.00238  0.47874  1.0000
  C   C74       1.0  0.86362  0.99552  0.51142  1.0000
  C   C75       1.0  0.00074  0.86567  0.99284  1.0000
  C   C76       1.0  0.99902  0.13712  0.99627  1.0000
  C   C77       1.0  0.19297  0.00376  0.47774  1.0000
  C   C78       1.0  0.00102  0.80768  0.99147  1.0000
  C   C79       1.0  0.99918  0.19493  0.00141  1.0000
  C   C80       1.0  0.30453  0.00468  0.48471  1.0000
  C   C81       1.0  0.00054  0.69685  0.98882  1.0000
  C   C82       1.0  0.99997  0.30678  0.01231  1.0000
  C   C83       1.0  0.47196  0.99999  0.51339  1.0000
  C   C84       1.0  0.52653  0.99817  0.51885  1.0000
  C   C85       1.0  0.00037  0.52909  0.99513  1.0000
  C   C86       1.0  0.00019  0.47454  0.00127  1.0000
  C   C87       1.0  0.43835  0.95404  0.51745  1.0000
  C   C88       1.0  0.55980  0.04436  0.51342  1.0000
  C   C89       1.0  0.95379  0.55911  0.97283  1.0000
  C   C90       1.0  0.04721  0.44429  0.01237  1.0000
  C   C91       1.0  0.38561  0.95631  0.50711  1.0000
  C   C92       1.0  0.61278  0.04224  0.51247  1.0000
  C   C93       1.0  0.95444  0.61216  0.97050  1.0000
  C   C94       1.0  0.04662  0.39147  0.02106  1.0000
  C   C95       1.0  0.27672  0.96581  0.89169  1.0000
  C   C96       1.0  0.22226  0.96669  0.89166  1.0000
  C   C97       1.0  0.89148  0.94992  0.97302  1.0000
  C   C98       1.0  0.10792  0.05126  0.95528  1.0000
  C   C99       1.0  0.95067  0.10902  0.53076  1.0000
  C   C100      1.0  0.04686  0.88980  0.51761  1.0000
  C   C101      1.0  0.86748  0.90088  0.91628  1.0000
  C   C102      1.0  0.13308  0.09880  0.89664  1.0000
  C   C103      1.0  0.90222  0.13170  0.59032  1.0000
  C   C104      1.0  0.09463  0.86860  0.56902  1.0000
  N   N1        1.0  0.05509  0.05621  0.48370  1.0000
  N   N2        1.0  0.94272  0.94065  0.50192  1.0000
  N   N3        1.0  0.05849  0.94446  0.99551  1.0000
  N   N4        1.0  0.94062  0.05821  0.00119  1.0000
  N   N5        1.0  0.35936  0.00346  0.98347  1.0000
  N   N6        1.0  0.63881  0.99707  0.02057  1.0000
  N   N7        1.0  0.00422  0.63819  0.47606  1.0000
  N   N8        1.0  0.00335  0.35892  0.51983  1.0000
  N   N9        1.0  0.05528  0.05880  0.98771  1.0000
  N   N10       1.0  0.94386  0.94344  0.99683  1.0000
  N   N11       1.0  0.05736  0.94177  0.48749  1.0000
  N   N12       1.0  0.94066  0.05627  0.50388  1.0000
  N   N13       1.0  0.35949  0.00360  0.49306  1.0000
  N   N14       1.0  0.63935  0.99499  0.51963  1.0000
  N   N15       1.0  0.00051  0.64148  0.98874  1.0000
  N   N16       1.0  0.00003  0.36179  0.01697  1.0000
  C  Sn1       1.0  0.73236  0.96262  0.13641  1.0000
  C   C105      1.0  0.69942  0.99654  0.06091  1.0000
  C  Sn2       1.0  0.69071  0.04111  0.93851  1.0000
  C  Sn3       1.0  0.74472  0.03934  0.89047  1.0000
  C   C106      1.0  0.79212  0.00543  0.96593  1.0000
  C  Sn4       1.0  0.78637  0.96084  0.08837  1.0000
  O  Te1       1.0  0.71156  0.93078  0.25849  1.0000
  O  Te2       1.0  0.65701  0.07472  0.86485  1.0000
  O  Te3       1.0  0.76551  0.07121  0.76829  1.0000
  O  Te4       1.0  0.82004  0.92725  0.16199  1.0000
  Mg  Mg1       1.0  0.70388  0.11043  0.70437  1.0000
  Mg  Mg2       1.0  0.77321  0.89150  0.32241  1.0000
  C  Sn5       1.0  0.96925  0.23271  0.38106  1.0000
  C   C107      1.0  0.00142  0.19863  0.45894  1.0000
  C  Sn6       1.0  0.03288  0.21732  0.58413  1.0000
  C  Sn7       1.0  0.03214  0.27118  0.63257  1.0000
  C   C108      1.0  0.99999  0.30523  0.55473  1.0000
  C  Sn8       1.0  0.96852  0.28658  0.42950  1.0000
  O  Te5       1.0  0.93813  0.21318  0.25621  1.0000
  O  Te6       1.0  0.06472  0.18250  0.66014  1.0000
  O  Te7       1.0  0.06331  0.29070  0.75753  1.0000
  O  Te8       1.0  0.93668  0.32136  0.35354  1.0000
  Mg  Mg3       1.0  0.10007  0.22786  0.82396  1.0000
  Mg  Mg4       1.0  0.90130  0.27604  0.18977  1.0000
  C  Sn9       1.0  0.96613  0.76328  0.61532  1.0000
  C   C109      1.0  0.00079  0.79838  0.53890  1.0000
  C  Sn10      1.0  0.03580  0.78086  0.41345  1.0000
  C  Sn11      1.0  0.03616  0.72714  0.36324  1.0000
  C   C110      1.0  0.00151  0.69207  0.43962  1.0000
  C  Sn12      1.0  0.96649  0.70955  0.56511  1.0000
  O  Te9       1.0  0.93147  0.78166  0.74047  1.0000
  O  Te10      1.0  0.07009  0.81670  0.33893  1.0000
  O  Te11      1.0  0.07086  0.70878  0.23799  1.0000
  O  Te12      1.0  0.93221  0.67376  0.63959  1.0000
  Mg  Mg5       1.0  0.10996  0.77272  0.17401  1.0000
  Mg  Mg6       1.0  0.89231  0.71769  0.80446  1.0000
  C  Sn13      1.0  0.76639  0.04443  0.46227  1.0000
  C   C111      1.0  0.79918  0.01086  0.53981  1.0000
  C  Sn14      1.0  0.79408  0.96373  0.59982  1.0000
  C  Sn15      1.0  0.74062  0.94984  0.58187  1.0000
  C   C112      1.0  0.70787  0.98339  0.50435  1.0000
  C  Sn16      1.0  0.71293  0.03054  0.44432  1.0000
  O  Te13      1.0  0.78681  0.09135  0.40320  1.0000
  O  Te14      1.0  0.82761  0.93082  0.67695  1.0000
  O  Te15      1.0  0.72022  0.90287  0.64102  1.0000
  O  Te16      1.0  0.67944  0.06344  0.36721  1.0000
  Mg  Mg7       1.0  0.78142  0.87110  0.73693  1.0000
  Mg  Mg8       1.0  0.72559  0.12315  0.30710  1.0000
