data_image0
_chemical_formula_structural       H52C80N16SnCSn2CSnTe4Mg2SnCSn2CSnTe4Mg2SnCSn2CSnTe4Mg2SnCSn2CSnTe4Mg2SnCSn2CSnTe4Mg2SnCSn2CSnTe4Mg2SnCSn2CSnTe4Mg2SnCSn2CSnTe4Mg2
_chemical_formula_sum              "H52 C96 N16 Sn32 Te32 Mg16"
_cell_length_a       25.5389
_cell_length_b       25.5658
_cell_length_c       8.19918
_cell_angle_alpha    92.2492
_cell_angle_beta     87.436
_cell_angle_gamma    90.8293

_symmetry_space_group_name_H-M    'P1'
_space_group_IT_number       1

loop_
  _space_group_symop_operation_xyz
  'x, y, z'

loop_
  _atom_site_type_symbol
  _atom_site_label
  _atom_site_symmetry_multiplicity
  _atom_site_fract_x
  _atom_site_fract_y
  _atom_site_fract_z
  _atom_site_occupancy
  H   H1        1.0  0.17349  0.10221  0.35820  1.0000
  H   H2        1.0  0.82461  0.89425  0.39519  1.0000
  H   H3        1.0  0.10090  0.83111  0.10853  1.0000
  H   H4        1.0  0.89681  0.17399  0.12567  1.0000
  H   H5        1.0  0.36950  0.08514  0.47583  1.0000
  H   H6        1.0  0.63049  0.91335  0.53142  1.0000
  H   H7        1.0  0.08092  0.63853  0.02968  1.0000
  H   H8        1.0  0.91773  0.36655  0.02056  1.0000
  H   H9        1.0  0.46409  0.08538  0.49546  1.0000
  H   H10       1.0  0.53538  0.91263  0.53344  1.0000
  H   H11       1.0  0.08415  0.54343  0.03800  1.0000
  H   H12       1.0  0.91474  0.46096  0.00459  1.0000
  H   H13       1.0  0.09830  0.17466  0.36931  1.0000
  H   H14       1.0  0.89845  0.82075  0.38818  1.0000
  H   H15       1.0  0.17433  0.90747  0.10396  1.0000
  H   H16       1.0  0.82359  0.09794  0.13004  1.0000
  H   H17       1.0  0.45472  0.91826  0.04959  1.0000
  H   H18       1.0  0.54183  0.08465  0.00309  1.0000
  H   H19       1.0  0.92048  0.53547  0.45507  1.0000
  H   H20       1.0  0.08972  0.45963  0.50607  1.0000
  H   H21       1.0  0.35996  0.92291  0.02514  1.0000
  H   H22       1.0  0.63649  0.07919  0.01117  1.0000
  H   H23       1.0  0.92290  0.63031  0.44791  1.0000
  H   H24       1.0  0.08564  0.36481  0.51955  1.0000
  H   H25       1.0  0.03098  0.97099  0.96853  1.0000
  H   H26       1.0  0.17387  0.10294  0.85725  1.0000
  H   H27       1.0  0.82726  0.89563  0.88186  1.0000
  H   H28       1.0  0.09879  0.82875  0.60553  1.0000
  H   H29       1.0  0.89749  0.17252  0.62676  1.0000
  H   H30       1.0  0.36791  0.08440  0.95639  1.0000
  H   H31       1.0  0.62945  0.91528  0.03261  1.0000
  H   H32       1.0  0.08628  0.63482  0.48746  1.0000
  H   H33       1.0  0.92128  0.36394  0.53399  1.0000
  H   H34       1.0  0.46291  0.08638  0.97634  1.0000
  H   H35       1.0  0.53462  0.91461  0.03019  1.0000
  H   H36       1.0  0.09015  0.53998  0.49622  1.0000
  H   H37       1.0  0.91864  0.45859  0.52047  1.0000
  H   H38       1.0  0.09910  0.17598  0.86433  1.0000
  H   H39       1.0  0.90269  0.82329  0.87513  1.0000
  H   H40       1.0  0.17289  0.90454  0.59706  1.0000
  H   H41       1.0  0.82354  0.09631  0.63103  1.0000
  H   H42       1.0  0.45477  0.91560  0.53153  1.0000
  H   H43       1.0  0.54275  0.08300  0.51184  1.0000
  H   H44       1.0  0.91650  0.53941  0.95316  1.0000
  H   H45       1.0  0.08548  0.46343  0.01042  1.0000
  H   H46       1.0  0.36044  0.92194  0.51466  1.0000
  H   H47       1.0  0.63755  0.07702  0.51220  1.0000
  H   H48       1.0  0.92001  0.63485  0.94911  1.0000
  H   H49       1.0  0.08223  0.36919  0.02556  1.0000
  H   H50       1.0  0.02957  0.96820  0.46189  1.0000
  H   H51       1.0  0.96887  0.03112  0.97231  1.0000
  H   H52       1.0  0.96889  0.02943  0.47225  1.0000
  C   C1        1.0  0.04669  0.10829  0.46118  1.0000
  C   C2        1.0  0.95081  0.88807  0.47368  1.0000
  C   C3        1.0  0.11049  0.95669  0.01784  1.0000
  C   C4        1.0  0.88835  0.04638  0.03317  1.0000
  C   C5        1.0  0.09466  0.13415  0.40227  1.0000
  C   C6        1.0  0.90276  0.86175  0.42336  1.0000
  C   C7        1.0  0.13394  0.91010  0.07106  1.0000
  C   C8        1.0  0.86441  0.09417  0.09135  1.0000
  C   C9        1.0  0.39048  0.04923  0.49149  1.0000
  C   C10       1.0  0.60870  0.94938  0.52925  1.0000
  C   C11       1.0  0.04650  0.61415  0.00974  1.0000
  C   C12       1.0  0.95343  0.38984  0.01029  1.0000
  C   C13       1.0  0.44335  0.04803  0.50069  1.0000
  C   C14       1.0  0.55560  0.95026  0.52844  1.0000
  C   C15       1.0  0.04709  0.56117  0.01309  1.0000
  C   C16       1.0  0.95295  0.44270  0.00307  1.0000
  C   C17       1.0  0.13518  0.00488  0.98364  1.0000
  C   C18       1.0  0.86364  0.99706  0.00506  1.0000
  C   C19       1.0  0.99887  0.86266  0.49466  1.0000
  C   C20       1.0  0.99900  0.13470  0.49821  1.0000
  C   C21       1.0  0.47132  0.00154  0.00837  1.0000
  C   C22       1.0  0.52587  0.00002  0.01498  1.0000
  C   C23       1.0  0.00482  0.52561  0.48890  1.0000
  C   C24       1.0  0.00439  0.47131  0.50275  1.0000
  C   C25       1.0  0.43796  0.95558  0.02257  1.0000
  C   C26       1.0  0.55906  0.04617  0.00827  1.0000
  C   C27       1.0  0.95780  0.55542  0.47176  1.0000
  C   C28       1.0  0.05135  0.44068  0.51032  1.0000
  C   C29       1.0  0.38526  0.95698  0.00958  1.0000
  C   C30       1.0  0.61202  0.04425  0.01070  1.0000
  C   C31       1.0  0.95796  0.60833  0.46713  1.0000
  C   C32       1.0  0.05032  0.38779  0.51883  1.0000
  C   C33       1.0  0.89044  0.94790  0.48025  1.0000
  C   C34       1.0  0.10782  0.04908  0.45203  1.0000
  C   C35       1.0  0.95061  0.11097  0.02903  1.0000
  C   C36       1.0  0.04835  0.89224  0.02176  1.0000
  C   C37       1.0  0.86513  0.89907  0.42707  1.0000
  C   C38       1.0  0.13274  0.09728  0.39663  1.0000
  C   C39       1.0  0.90211  0.13330  0.08880  1.0000
  C   C40       1.0  0.09630  0.87101  0.07321  1.0000
  C   C41       1.0  0.04696  0.11067  0.96131  1.0000
  C   C42       1.0  0.95300  0.89109  0.96670  1.0000
  C   C43       1.0  0.10951  0.95398  0.51004  1.0000
  C   C44       1.0  0.88843  0.04466  0.53646  1.0000
  C   C45       1.0  0.09510  0.13581  0.90011  1.0000
  C   C46       1.0  0.90579  0.86423  0.91237  1.0000
  C   C47       1.0  0.13256  0.90743  0.56438  1.0000
  C   C48       1.0  0.86446  0.09273  0.59305  1.0000
  C   C49       1.0  0.38970  0.04924  0.97607  1.0000
  C   C50       1.0  0.60792  0.95143  0.03044  1.0000
  C   C51       1.0  0.05108  0.61069  0.48279  1.0000
  C   C52       1.0  0.95692  0.38719  0.52024  1.0000
  C   C53       1.0  0.44253  0.04898  0.98689  1.0000
  C   C54       1.0  0.55488  0.95227  0.02740  1.0000
  C   C55       1.0  0.05195  0.55775  0.48900  1.0000
  C   C56       1.0  0.95673  0.44006  0.51331  1.0000
  C   C57       1.0  0.13496  0.00238  0.47874  1.0000
  C   C58       1.0  0.86362  0.99552  0.51142  1.0000
  C   C59       1.0  0.00074  0.86567  0.99284  1.0000
  C   C60       1.0  0.99902  0.13712  0.99627  1.0000
  C   C61       1.0  0.47196  0.99999  0.51339  1.0000
  C   C62       1.0  0.52653  0.99817  0.51885  1.0000
  C   C63       1.0  0.00037  0.52909  0.99513  1.0000
  C   C64       1.0  0.00019  0.47454  0.00127  1.0000
  C   C65       1.0  0.43835  0.95404  0.51745  1.0000
  C   C66       1.0  0.55980  0.04436  0.51342  1.0000
  C   C67       1.0  0.95379  0.55911  0.97283  1.0000
  C   C68       1.0  0.04721  0.44429  0.01237  1.0000
  C   C69       1.0  0.38561  0.95631  0.50711  1.0000
  C   C70       1.0  0.61278  0.04224  0.51247  1.0000
  C   C71       1.0  0.95444  0.61216  0.97050  1.0000
  C   C72       1.0  0.04662  0.39147  0.02106  1.0000
  C   C73       1.0  0.89148  0.94992  0.97302  1.0000
  C   C74       1.0  0.10792  0.05126  0.95528  1.0000
  C   C75       1.0  0.95067  0.10902  0.53076  1.0000
  C   C76       1.0  0.04686  0.88980  0.51761  1.0000
  C   C77       1.0  0.86748  0.90088  0.91628  1.0000
  C   C78       1.0  0.13308  0.09880  0.89664  1.0000
  C   C79       1.0  0.90222  0.13170  0.59032  1.0000
  C   C80       1.0  0.09463  0.86860  0.56902  1.0000
  N   N1        1.0  0.05509  0.05621  0.48370  1.0000
  N   N2        1.0  0.94272  0.94065  0.50192  1.0000
  N   N3        1.0  0.05849  0.94446  0.99551  1.0000
  N   N4        1.0  0.94062  0.05821  0.00119  1.0000
  N   N5        1.0  0.35936  0.00346  0.98347  1.0000
  N   N6        1.0  0.63881  0.99707  0.02057  1.0000
  N   N7        1.0  0.00422  0.63819  0.47606  1.0000
  N   N8        1.0  0.00335  0.35892  0.51983  1.0000
  N   N9        1.0  0.05528  0.05880  0.98771  1.0000
  N   N10       1.0  0.94386  0.94344  0.99683  1.0000
  N   N11       1.0  0.05736  0.94177  0.48749  1.0000
  N   N12       1.0  0.94066  0.05627  0.50388  1.0000
  N   N13       1.0  0.35949  0.00360  0.49306  1.0000
  N   N14       1.0  0.63935  0.99499  0.51963  1.0000
  N   N15       1.0  0.00051  0.64148  0.98874  1.0000
  N   N16       1.0  0.00003  0.36179  0.01697  1.0000
  C  Sn1       1.0  0.26600  0.97183  0.84497  1.0000
  C   C81       1.0  0.29928  0.00611  0.92937  1.0000
  C  Sn2       1.0  0.27901  0.02671  0.05638  1.0000
  C  Sn3       1.0  0.22466  0.02537  0.10004  1.0000
  C   C82       1.0  0.20590  0.99110  0.01569  1.0000
  C  Sn4       1.0  0.21164  0.97049  0.88863  1.0000
  O  Te1       1.0  0.28681  0.93921  0.71841  1.0000
  O  Te2       1.0  0.31306  0.06066  0.13893  1.0000
  O  Te3       1.0  0.20386  0.05803  0.22672  1.0000
  O  Te4       1.0  0.17763  0.93655  0.80612  1.0000
  Mg  Mg1       1.0  0.26603  0.09747  0.30268  1.0000
  Mg  Mg2       1.0  0.22462  0.89971  0.64242  1.0000
  C  Sn5       1.0  0.73549  0.02878  0.88631  1.0000
  C   C83       1.0  0.71482  0.99467  0.96503  1.0000
  C  Sn6       1.0  0.74594  0.95020  0.08568  1.0000
  C  Sn7       1.0  0.79914  0.95226  0.12863  1.0000
  C   C84       1.0  0.83427  0.98635  0.04995  1.0000
  C  Sn8       1.0  0.78869  0.03084  0.92925  1.0000
  O  Te5       1.0  0.71769  0.06050  0.76606  1.0000
  O  Te6       1.0  0.71006  0.91640  0.16264  1.0000
  O  Te7       1.0  0.81692  0.92049  0.24899  1.0000
  O  Te8       1.0  0.82453  0.06462  0.85234  1.0000
  Mg  Mg3       1.0  0.75315  0.88093  0.31885  1.0000
  Mg  Mg4       1.0  0.78148  0.10013  0.69619  1.0000
  C  Sn9       1.0  0.05445  0.73497  0.43658  1.0000
  C   C85       1.0  0.01854  0.69980  0.50704  1.0000
  C  Sn10      1.0  0.96882  0.71651  0.56262  1.0000
  C  Sn11      1.0  0.95469  0.76949  0.54736  1.0000
  C   C86       1.0  0.99058  0.80462  0.47691  1.0000
  C  Sn12      1.0  0.04032  0.78794  0.42132  1.0000
  O  Te9       1.0  0.10394  0.71739  0.38185  1.0000
  O  Te10      1.0  0.93360  0.68063  0.63269  1.0000
  O  Te11      1.0  0.90515  0.78704  0.60216  1.0000
  O  Te12      1.0  0.07553  0.82379  0.35126  1.0000
  Mg  Mg5       1.0  0.87083  0.72336  0.68885  1.0000
  Mg  Mg6       1.0  0.13829  0.78110  0.29498  1.0000
  C  Sn13      1.0  0.95028  0.26469  0.46551  1.0000
  C   C87       1.0  0.98628  0.29835  0.54076  1.0000
  C  Sn14      1.0  0.03350  0.27918  0.59228  1.0000
  C  Sn15      1.0  0.04497  0.22525  0.56798  1.0000
  C   C88       1.0  0.00898  0.19163  0.49274  1.0000
  C  Sn16      1.0  0.96175  0.21076  0.44121  1.0000
  O  Te13      1.0  0.90332  0.28471  0.41497  1.0000
  O  Te14      1.0  0.06887  0.31358  0.66727  1.0000
  O  Te15      1.0  0.09197  0.20525  0.61859  1.0000
  O  Te16      1.0  0.92639  0.17639  0.36623  1.0000
  Mg  Mg7       1.0  0.12760  0.26764  0.71477  1.0000
  Mg  Mg8       1.0  0.86767  0.22230  0.31861  1.0000
  C  Sn17      1.0  0.23411  0.95227  0.43420  1.0000
  C   C89       1.0  0.19900  0.98910  0.50391  1.0000
  C  Sn18      1.0  0.20239  0.03856  0.55641  1.0000
  C  Sn19      1.0  0.25649  0.05151  0.53877  1.0000
  C   C90       1.0  0.29156  0.01471  0.46907  1.0000
  C  Sn20      1.0  0.28820  0.96522  0.41656  1.0000
  O  Te17      1.0  0.21536  0.90306  0.38256  1.0000
  O  Te18      1.0  0.16655  0.07471  0.62578  1.0000
  O  Te19      1.0  0.27521  0.10077  0.59048  1.0000
  O  Te20      1.0  0.32401  0.92909  0.34720  1.0000
  Mg  Mg9       1.0  0.21110  0.13666  0.67738  1.0000
  Mg  Mg10      1.0  0.27950  0.86715  0.29549  1.0000
  C  Sn21      1.0  0.76434  0.94402  0.56841  1.0000
  C   C91       1.0  0.79947  0.97800  0.48907  1.0000
  C  Sn22      1.0  0.76753  0.02491  0.43004  1.0000
  C  Sn23      1.0  0.71384  0.03814  0.45083  1.0000
  C   C92       1.0  0.69323  0.00417  0.53015  1.0000
  C  Sn24      1.0  0.71064  0.95725  0.58920  1.0000
  O  Te21      1.0  0.78265  0.89733  0.62645  1.0000
  O  Te22      1.0  0.80339  0.05825  0.35108  1.0000
  O  Te23      1.0  0.69554  0.08486  0.39270  1.0000
  O  Te24      1.0  0.67482  0.92392  0.66814  1.0000
  Mg  Mg11      1.0  0.75951  0.11741  0.29348  1.0000
  Mg  Mg12      1.0  0.71866  0.86476  0.72586  1.0000
  C  Sn25      1.0  0.96788  0.76858  0.12432  1.0000
  C   C93       1.0  0.00232  0.80172  0.03879  1.0000
  C  Sn26      1.0  0.02050  0.79421  0.90984  1.0000
  C  Sn27      1.0  0.01837  0.74008  0.86536  1.0000
  C   C94       1.0  0.98395  0.70697  0.95084  1.0000
  C  Sn28      1.0  0.96576  0.71444  0.07984  1.0000
  O  Te25      1.0  0.93588  0.78931  0.25282  1.0000
  O  Te26      1.0  0.05462  0.82811  0.82619  1.0000
  O  Te27      1.0  0.05041  0.71936  0.73675  1.0000
  O  Te28      1.0  0.93165  0.68057  0.16344  1.0000
  Mg  Mg13      1.0  0.09037  0.78127  0.65987  1.0000
  Mg  Mg14      1.0  0.89586  0.72738  0.32971  1.0000
  C  Sn29      1.0  0.94767  0.26648  0.97187  1.0000
  C   C95       1.0  0.99872  0.28848  0.03973  1.0000
  C  Sn30      1.0  0.04748  0.27026  0.08134  1.0000
  C  Sn31      1.0  0.05967  0.21658  0.05446  1.0000
  C   C96       1.0  0.00863  0.19462  0.98661  1.0000
  C  Sn32      1.0  0.95985  0.21280  0.94499  1.0000
  O  Te29      1.0  0.89917  0.28555  0.93119  1.0000
  O  Te30      1.0  0.08370  0.30537  0.14908  1.0000
  O  Te31      1.0  0.10821  0.19753  0.09521  1.0000
  O  Te32      1.0  0.92366  0.17773  0.87727  1.0000
  Mg  Mg15      1.0  0.14450  0.26062  0.18417  1.0000
  Mg  Mg16      1.0  0.86286  0.22243  0.84205  1.0000
