data_image0
_chemical_formula_structural       H144C144N12O12C2Sn2C2HTe2HMgC2Sn2C2HTe2HMgC2Sn2C2HTe2HMgC2Sn2C2HTe2HMgC2Sn2C2HTe2HMgC2Sn2C2HTe2HMg
_chemical_formula_sum              "H156 C168 N12 O12 Sn12 Te12 Mg6"
_cell_length_a       36.9215
_cell_length_b       37.5568
_cell_length_c       8.0539
_cell_angle_alpha    86.1042
_cell_angle_beta     98.5531
_cell_angle_gamma    121.387

_symmetry_space_group_name_H-M    'P1'
_space_group_IT_number       1

loop_
  _space_group_symop_operation_xyz
  'x, y, z'

loop_
  _atom_site_type_symbol
  _atom_site_label
  _atom_site_symmetry_multiplicity
  _atom_site_fract_x
  _atom_site_fract_y
  _atom_site_fract_z
  _atom_site_occupancy
  H   H1        1.0  0.04890  0.57190  0.26577  1.0000
  H   H2        1.0  0.11002  0.53380  0.05285  1.0000
  H   H3        1.0  0.16847  0.54412  0.99236  1.0000
  H   H4        1.0  0.29568  0.59389  0.28303  1.0000
  H   H5        1.0  0.41647  0.70179  0.20041  1.0000
  H   H6        1.0  0.31063  0.71556  0.25767  1.0000
  H   H7        1.0  0.44789  0.76565  0.37457  1.0000
  H   H8        1.0  0.49363  0.84218  0.33542  1.0000
  H   H9        1.0  0.39103  0.84051  0.99791  1.0000
  H   H10       1.0  0.34598  0.76392  0.03223  1.0000
  H   H11       1.0  0.46645  0.61348  0.35063  1.0000
  H   H12       1.0  0.43725  0.65936  0.37096  1.0000
  H   H13       1.0  0.47887  0.58434  0.11178  1.0000
  H   H14       1.0  0.43161  0.47685  0.29302  1.0000
  H   H15       1.0  0.56858  0.52907  0.06621  1.0000
  H   H16       1.0  0.53033  0.43234  0.32527  1.0000
  H   H17       1.0  0.58681  0.29911  0.17557  1.0000
  H   H18       1.0  0.70173  0.29501  0.30762  1.0000
  H   H19       1.0  0.70767  0.41235  0.29804  1.0000
  H   H20       1.0  0.75595  0.32995  0.51877  1.0000
  H   H21       1.0  0.84829  0.46837  0.27645  1.0000
  H   H22       1.0  0.77019  0.43244  0.20342  1.0000
  H   H23       1.0  0.57515  0.10433  0.02464  1.0000
  H   H24       1.0  0.47889  0.04495  0.24737  1.0000
  H   H25       1.0  0.08152  0.44212  0.11795  1.0000
  H   H26       1.0  0.07728  0.46478  0.42698  1.0000
  H   H27       1.0  0.00158  0.41110  0.37432  1.0000
  H   H28       1.0  0.00285  0.38536  0.09268  1.0000
  H   H29       1.0  0.05102  0.36755  0.51904  1.0000
  H   H30       1.0  0.00475  0.34618  0.36720  1.0000
  H   H31       1.0  0.05366  0.38916  0.31564  1.0000
  H   H32       1.0  0.42347  0.89923  0.20604  1.0000
  H   H33       1.0  0.52709  0.95892  0.02261  1.0000
  H   H34       1.0  0.36511  0.93354  0.26523  1.0000
  H   H35       1.0  0.38782  0.95767  0.07972  1.0000
  H   H36       1.0  0.41469  0.02802  0.20463  1.0000
  H   H37       1.0  0.39664  0.00474  0.39572  1.0000
  H   H38       1.0  0.31963  0.96606  0.24617  1.0000
  H   H39       1.0  0.34354  0.02071  0.22537  1.0000
  H   H40       1.0  0.33875  0.99025  0.05591  1.0000
  H   H41       1.0  0.90366  0.46931  0.24973  1.0000
  H   H42       1.0  0.96171  0.43559  0.07596  1.0000
  H   H43       1.0  0.93179  0.53531  0.41326  1.0000
  H   H44       1.0  0.92057  0.55527  0.21836  1.0000
  H   H45       1.0  0.99706  0.61889  0.27448  1.0000
  H   H46       1.0  0.00544  0.59677  0.95898  1.0000
  H   H47       1.0  0.93414  0.60005  0.52747  1.0000
  H   H48       1.0  0.97999  0.64984  0.50931  1.0000
  H   H49       1.0  0.93866  0.62773  0.33759  1.0000
  H   H50       1.0  0.54316  0.61489  0.23251  1.0000
  H   H51       1.0  0.57382  0.64369  0.06763  1.0000
  H   H52       1.0  0.59315  0.58846  0.31604  1.0000
  H   H53       1.0  0.61514  0.64178  0.35160  1.0000
  H   H54       1.0  0.44134  0.36548  0.32498  1.0000
  H   H55       1.0  0.45662  0.39351  0.13513  1.0000
  H   H56       1.0  0.39289  0.39969  0.09198  1.0000
  H   H57       1.0  0.37891  0.37829  0.29027  1.0000
  H   H58       1.0  0.36470  0.30895  0.19789  1.0000
  H   H59       1.0  0.33428  0.32451  0.05507  1.0000
  H   H60       1.0  0.38098  0.32870  0.47916  1.0000
  H   H61       1.0  0.67299  0.02812  0.25396  1.0000
  H   H62       1.0  0.67063  0.99456  0.10283  1.0000
  H   H63       1.0  0.67985  0.03768  0.54531  1.0000
  H   H64       1.0  0.61510  0.05269  0.19738  1.0000
  H   H65       1.0  0.63135  0.06617  0.52782  1.0000
  H   H66       1.0  0.60454  0.99769  0.38289  1.0000
  H   H67       1.0  0.59704  0.98255  0.10646  1.0000
  H   H68       1.0  0.34656  0.52154  0.08295  1.0000
  H   H69       1.0  0.31793  0.56827  0.09488  1.0000
  H   H70       1.0  0.62980  0.60740  0.04709  1.0000
  H   H71       1.0  0.66654  0.62732  0.23288  1.0000
  H   H72       1.0  0.65441  0.66063  0.10202  1.0000
  H   H73       1.0  0.04336  0.56680  0.76543  1.0000
  H   H74       1.0  0.11600  0.53754  0.54441  1.0000
  H   H75       1.0  0.24501  0.57875  0.96462  1.0000
  H   H76       1.0  0.23642  0.67226  0.65191  1.0000
  H   H77       1.0  0.15952  0.63822  0.68606  1.0000
  H   H78       1.0  0.28897  0.58770  0.78375  1.0000
  H   H79       1.0  0.40922  0.69488  0.69086  1.0000
  H   H80       1.0  0.30515  0.70982  0.76695  1.0000
  H   H81       1.0  0.44357  0.75903  0.85191  1.0000
  H   H82       1.0  0.48805  0.83582  0.81730  1.0000
  H   H83       1.0  0.38137  0.83456  0.51360  1.0000
  H   H84       1.0  0.33742  0.75764  0.54319  1.0000
  H   H85       1.0  0.45899  0.60675  0.85285  1.0000
  H   H86       1.0  0.42955  0.65223  0.87283  1.0000
  H   H87       1.0  0.47253  0.57688  0.61776  1.0000
  H   H88       1.0  0.42535  0.46970  0.80703  1.0000
  H   H89       1.0  0.56102  0.52157  0.56914  1.0000
  H   H90       1.0  0.52381  0.42490  0.83195  1.0000
  H   H91       1.0  0.58068  0.29249  0.69017  1.0000
  H   H92       1.0  0.69517  0.28743  0.81398  1.0000
  H   H93       1.0  0.70186  0.40518  0.81301  1.0000
  H   H94       1.0  0.83507  0.36568  0.58777  1.0000
  H   H95       1.0  0.56547  0.09682  0.53100  1.0000
  H   H96       1.0  0.47000  0.03849  0.75821  1.0000
  H   H97       1.0  0.08367  0.44303  0.62521  1.0000
  H   H98       1.0  0.07060  0.46148  0.92031  1.0000
  H   H99       1.0  0.99496  0.40380  0.89138  1.0000
  H   H100      1.0  0.00213  0.39165  0.57965  1.0000
  H   H101      1.0  0.05549  0.36993  0.99682  1.0000
  H   H102      1.0  0.00549  0.34316  0.86750  1.0000
  H   H103      1.0  0.04866  0.38902  0.79475  1.0000
  H   H104      1.0  0.41528  0.89204  0.72280  1.0000
  H   H105      1.0  0.51821  0.95182  0.54057  1.0000
  H   H106      1.0  0.35486  0.93039  0.76134  1.0000
  H   H107      1.0  0.38010  0.95296  0.57940  1.0000
  H   H108      1.0  0.40837  0.02421  0.69167  1.0000
  H   H109      1.0  0.39079  0.00360  0.88615  1.0000
  H   H110      1.0  0.31348  0.96729  0.74515  1.0000
  H   H111      1.0  0.34006  0.02175  0.70980  1.0000
  H   H112      1.0  0.33155  0.98743  0.54910  1.0000
  H   H113      1.0  0.89772  0.46768  0.76131  1.0000
  H   H114      1.0  0.96773  0.44028  0.57389  1.0000
  H   H115      1.0  0.93150  0.53726  0.92171  1.0000
  H   H116      1.0  0.91975  0.55661  0.72629  1.0000
  H   H117      1.0  0.99816  0.61551  0.75735  1.0000
  H   H118      1.0  0.00173  0.59855  0.47515  1.0000
  H   H119      1.0  0.94786  0.60819  0.04482  1.0000
  H   H120      1.0  0.99301  0.65504  0.99040  1.0000
  H   H121      1.0  0.94520  0.63074  0.84639  1.0000
  H   H122      1.0  0.54148  0.60934  0.72818  1.0000
  H   H123      1.0  0.56045  0.63433  0.53745  1.0000
  H   H124      1.0  0.61240  0.60558  0.59451  1.0000
  H   H125      1.0  0.59896  0.59631  0.80046  1.0000
  H   H126      1.0  0.43592  0.35819  0.81886  1.0000
  H   H127      1.0  0.45239  0.38869  0.63581  1.0000
  H   H128      1.0  0.38751  0.39412  0.59692  1.0000
  H   H129      1.0  0.37177  0.36736  0.78550  1.0000
  H   H130      1.0  0.36222  0.30235  0.66671  1.0000
  H   H131      1.0  0.33172  0.31910  0.53036  1.0000
  H   H132      1.0  0.38155  0.32983  0.00100  1.0000
  H   H133      1.0  0.65958  0.00971  0.72818  1.0000
  H   H134      1.0  0.65855  0.98320  0.55201  1.0000
  H   H135      1.0  0.69055  0.04794  0.05686  1.0000
  H   H136      1.0  0.60611  0.03838  0.70418  1.0000
  H   H137      1.0  0.64003  0.07533  0.01410  1.0000
  H   H138      1.0  0.61462  0.00225  0.91172  1.0000
  H   H139      1.0  0.58494  0.97108  0.56707  1.0000
  H   H140      1.0  0.34049  0.51610  0.57172  1.0000
  H   H141      1.0  0.31198  0.56293  0.58154  1.0000
  H   H142      1.0  0.63863  0.68133  0.62016  1.0000
  H   H143      1.0  0.66523  0.66729  0.78986  1.0000
  H   H144      1.0  0.62290  0.67414  0.82287  1.0000
  C   C1        1.0  0.02396  0.48483  0.02393  1.0000
  C   C2        1.0  0.05354  0.52678  0.43355  1.0000
  C   C3        1.0  0.03109  0.54318  0.33345  1.0000
  C   C4        1.0  0.09992  0.54746  0.44315  1.0000
  C   C5        1.0  0.29753  0.65236  0.27268  1.0000
  C   C6        1.0  0.31542  0.62744  0.26792  1.0000
  C   C7        1.0  0.35820  0.64466  0.24324  1.0000
  C   C8        1.0  0.38362  0.68802  0.22526  1.0000
  C   C9        1.0  0.36662  0.71377  0.22841  1.0000
  C   C10       1.0  0.32356  0.69553  0.25113  1.0000
  C   C11       1.0  0.39353  0.75929  0.20685  1.0000
  C   C12       1.0  0.37564  0.61744  0.23261  1.0000
  C   C13       1.0  0.43569  0.78193  0.28957  1.0000
  C   C14       1.0  0.46134  0.82475  0.26883  1.0000
  C   C15       1.0  0.44509  0.84669  0.16817  1.0000
  C   C16       1.0  0.40306  0.82419  0.08353  1.0000
  C   C17       1.0  0.37788  0.78118  0.10263  1.0000
  C   C18       1.0  0.35029  0.57803  0.15343  1.0000
  C   C19       1.0  0.40863  0.56485  0.21190  1.0000
  C   C20       1.0  0.43421  0.60416  0.29182  1.0000
  C   C21       1.0  0.41774  0.62978  0.30302  1.0000
  C   C22       1.0  0.46098  0.55244  0.15862  1.0000
  C   C23       1.0  0.48088  0.52742  0.16691  1.0000
  C   C24       1.0  0.46139  0.48799  0.24220  1.0000
  C   C25       1.0  0.48030  0.46410  0.25684  1.0000
  C   C26       1.0  0.51923  0.47846  0.19247  1.0000
  C   C27       1.0  0.53849  0.51763  0.11496  1.0000
  C   C28       1.0  0.52024  0.54221  0.10526  1.0000
  C   C29       1.0  0.53946  0.45366  0.21860  1.0000
  C   C30       1.0  0.64469  0.35859  0.23359  1.0000
  C   C31       1.0  0.62108  0.31497  0.21682  1.0000
  C   C32       1.0  0.64115  0.29157  0.24350  1.0000
  C   C33       1.0  0.68575  0.31273  0.28719  1.0000
  C   C34       1.0  0.71026  0.35629  0.30555  1.0000
  C   C35       1.0  0.68921  0.37872  0.27859  1.0000
  C   C36       1.0  0.75710  0.37793  0.35225  1.0000
  C   C37       1.0  0.77622  0.35966  0.46112  1.0000
  C   C38       1.0  0.82047  0.37965  0.50151  1.0000
  C   C39       1.0  0.84742  0.41853  0.43191  1.0000
  C   C40       1.0  0.82833  0.43771  0.32796  1.0000
  C   C41       1.0  0.78411  0.41764  0.28857  1.0000
  C   C42       1.0  0.55047  0.09100  0.10870  1.0000
  C   C43       1.0  0.52551  0.04559  0.11644  1.0000
  C   C44       1.0  0.48798  0.02546  0.19346  1.0000
  C   C45       1.0  0.53938  0.02102  0.05352  1.0000
  C   C46       1.0  0.05659  0.44408  0.03198  1.0000
  C   C47       1.0  0.01856  0.40066  0.98142  1.0000
  C   C48       1.0  0.03334  0.37549  0.41627  1.0000
  C   C49       1.0  0.45555  0.91281  0.16967  1.0000
  C   C50       1.0  0.47936  0.95791  0.14924  1.0000
  C   C51       1.0  0.51682  0.97800  0.07188  1.0000
  C   C52       1.0  0.46489  0.98237  0.20858  1.0000
  C   C53       1.0  0.39135  0.96184  0.21627  1.0000
  C   C54       1.0  0.38954  0.99988  0.25879  1.0000
  C   C55       1.0  0.34551  0.99389  0.19314  1.0000
  C   C56       1.0  0.91657  0.46287  0.37202  1.0000
  C   C57       1.0  0.96312  0.48507  0.40413  1.0000
  C   C58       1.0  0.98552  0.46930  0.50786  1.0000
  C   C59       1.0  0.98690  0.52293  0.31948  1.0000
  C   C60       1.0  0.94635  0.55611  0.30919  1.0000
  C   C61       1.0  0.97882  0.60022  0.37581  1.0000
  C   C62       1.0  0.95679  0.62057  0.44108  1.0000
  C   C63       1.0  0.56472  0.61631  0.14810  1.0000
  C   C64       1.0  0.60389  0.61834  0.25164  1.0000
  C   C65       1.0  0.64064  0.62903  0.15318  1.0000
  C   C66       1.0  0.43954  0.38919  0.24245  1.0000
  C   C67       1.0  0.39315  0.37662  0.18277  1.0000
  C   C68       1.0  0.36705  0.33268  0.10508  1.0000
  C   C69       1.0  0.60501  0.03644  0.56778  1.0000
  C   C70       1.0  0.60990  0.00064  0.52045  1.0000
  C   C71       1.0  0.66624  0.02082  0.11908  1.0000
  C   C72       1.0  0.36608  0.55181  0.14544  1.0000
  C   C73       1.0  0.02989  0.48954  0.52179  1.0000
  C   C74       1.0  0.04761  0.52216  0.93616  1.0000
  C   C75       1.0  0.02524  0.53828  0.83387  1.0000
  C   C76       1.0  0.09407  0.54316  0.94890  1.0000
  C   C77       1.0  0.15854  0.58931  0.84205  1.0000
  C   C78       1.0  0.18319  0.57248  0.91937  1.0000
  C   C79       1.0  0.22630  0.59172  0.90184  1.0000
  C   C80       1.0  0.24664  0.62809  0.80640  1.0000
  C   C81       1.0  0.22207  0.64509  0.73167  1.0000
  C   C82       1.0  0.17895  0.62603  0.74884  1.0000
  C   C83       1.0  0.29149  0.64652  0.77756  1.0000
  C   C84       1.0  0.30884  0.62125  0.76865  1.0000
  C   C85       1.0  0.35129  0.63826  0.73952  1.0000
  C   C86       1.0  0.37674  0.68152  0.71967  1.0000
  C   C87       1.0  0.36022  0.70752  0.72628  1.0000
  C   C88       1.0  0.31764  0.68962  0.75536  1.0000
  C   C89       1.0  0.38698  0.75291  0.70266  1.0000
  C   C90       1.0  0.36875  0.61116  0.72717  1.0000
  C   C91       1.0  0.43007  0.77547  0.77568  1.0000
  C   C92       1.0  0.45510  0.81841  0.75701  1.0000
  C   C93       1.0  0.43736  0.84051  0.66788  1.0000
  C   C94       1.0  0.39458  0.81802  0.59082  1.0000
  C   C95       1.0  0.36999  0.77491  0.60774  1.0000
  C   C96       1.0  0.34399  0.57232  0.64353  1.0000
  C   C97       1.0  0.40183  0.55848  0.70937  1.0000
  C   C98       1.0  0.42705  0.59762  0.79082  1.0000
  C   C99       1.0  0.41051  0.62318  0.80117  1.0000
  C   C100      1.0  0.45424  0.54520  0.66604  1.0000
  C   C101      1.0  0.47419  0.52015  0.67888  1.0000
  C   C102      1.0  0.45521  0.48097  0.75665  1.0000
  C   C103      1.0  0.47432  0.45726  0.76953  1.0000
  C   C104      1.0  0.51324  0.47180  0.70411  1.0000
  C   C105      1.0  0.53164  0.51050  0.62296  1.0000
  C   C106      1.0  0.51279  0.53457  0.61202  1.0000
  C   C107      1.0  0.53361  0.44707  0.72837  1.0000
  C   C108      1.0  0.63890  0.35183  0.74676  1.0000
  C   C109      1.0  0.61501  0.30823  0.72981  1.0000
  C   C110      1.0  0.63488  0.28465  0.75461  1.0000
  C   C111      1.0  0.67952  0.30548  0.79657  1.0000
  C   C112      1.0  0.70428  0.34903  0.81672  1.0000
  C   C113      1.0  0.68335  0.37162  0.79188  1.0000
  C   C114      1.0  0.54126  0.08403  0.61696  1.0000
  C   C115      1.0  0.51643  0.03875  0.62804  1.0000
  C   C116      1.0  0.47897  0.01880  0.70522  1.0000
  C   C117      1.0  0.53072  0.01429  0.56727  1.0000
  C   C118      1.0  0.06093  0.44729  0.53451  1.0000
  C   C119      1.0  0.02134  0.40544  0.47573  1.0000
  C   C120      1.0  0.03278  0.37425  0.90609  1.0000
  C   C121      1.0  0.44694  0.90617  0.68145  1.0000
  C   C122      1.0  0.47037  0.95131  0.66310  1.0000
  C   C123      1.0  0.50816  0.97134  0.58756  1.0000
  C   C124      1.0  0.45561  0.97573  0.72037  1.0000
  C   C125      1.0  0.38263  0.95764  0.71500  1.0000
  C   C126      1.0  0.38290  0.99731  0.75013  1.0000
  C   C127      1.0  0.33965  0.99313  0.68518  1.0000
  C   C128      1.0  0.91075  0.45901  0.87747  1.0000
  C   C129      1.0  0.95726  0.48061  0.90668  1.0000
  C   C130      1.0  0.97959  0.46459  0.00987  1.0000
  C   C131      1.0  0.98103  0.51817  0.82021  1.0000
  C   C132      1.0  0.94542  0.55589  0.81210  1.0000
  C   C133      1.0  0.98197  0.59961  0.86687  1.0000
  C   C134      1.0  0.96613  0.62476  0.94075  1.0000
  C   C135      1.0  0.55762  0.60937  0.62384  1.0000
  C   C136      1.0  0.60169  0.61603  0.69043  1.0000
  C   C137      1.0  0.63390  0.66217  0.73348  1.0000
  C   C138      1.0  0.43427  0.38269  0.74155  1.0000
  C   C139      1.0  0.38792  0.36955  0.67788  1.0000
  C   C140      1.0  0.36443  0.32767  0.58362  1.0000
  C   C141      1.0  0.61447  0.04674  0.06469  1.0000
  C   C142      1.0  0.62098  0.01030  0.04590  1.0000
  C   C143      1.0  0.65430  0.00816  0.59035  1.0000
  C   C144      1.0  0.35981  0.54606  0.63664  1.0000
  N   N1        1.0  0.11994  0.57571  0.33513  1.0000
  N   N2        1.0  0.42357  0.53772  0.20359  1.0000
  N   N3        1.0  0.56708  0.45758  0.12585  1.0000
  N   N4        1.0  0.54339  0.11339  0.19949  1.0000
  N   N5        1.0  0.47165  0.89002  0.15327  1.0000
  N   N6        1.0  0.89192  0.43671  0.47570  1.0000
  N   N7        1.0  0.11441  0.57118  0.84096  1.0000
  N   N8        1.0  0.41653  0.53090  0.70708  1.0000
  N   N9        1.0  0.56149  0.45115  0.63665  1.0000
  N   N10       1.0  0.53449  0.10686  0.70634  1.0000
  N   N11       1.0  0.46311  0.88392  0.65620  1.0000
  N   N12       1.0  0.88642  0.43086  0.97713  1.0000
  O   O1        1.0  0.04519  0.46795  0.12461  1.0000
  O   O2        1.0  0.42945  0.96212  0.29373  1.0000
  O   O3        1.0  0.96584  0.53979  0.21795  1.0000
  O   O4        1.0  0.56642  0.03439  0.48347  1.0000
  O   O5        1.0  0.54101  0.58118  0.03079  1.0000
  O   O6        1.0  0.46186  0.42700  0.34388  1.0000
  O   O7        1.0  0.05086  0.47264  0.62422  1.0000
  O   O8        1.0  0.41906  0.95582  0.80017  1.0000
  O   O9        1.0  0.95975  0.53481  0.71832  1.0000
  O   O10       1.0  0.57513  0.04064  0.96901  1.0000
  O   O11       1.0  0.53045  0.57165  0.52381  1.0000
  O   O12       1.0  0.45534  0.41918  0.85082  1.0000
  C   C145      1.0  0.62447  0.20693  0.65793  1.0000
  C   C146      1.0  0.61291  0.23396  0.71026  1.0000
  C  Sn1       1.0  0.57404  0.21805  0.77290  1.0000
  C  Sn2       1.0  0.54631  0.17426  0.78324  1.0000
  C   C147      1.0  0.55818  0.14748  0.73067  1.0000
  C   C148      1.0  0.59714  0.16373  0.66814  1.0000
  H   H145      1.0  0.65462  0.21950  0.60964  1.0000
  O  Te1       1.0  0.56298  0.24549  0.82458  1.0000
  O  Te2       1.0  0.50728  0.15752  0.84540  1.0000
  H   H146      1.0  0.60609  0.14280  0.62774  1.0000
  Mg  Mg1       1.0  0.50641  0.20764  0.90023  1.0000
  C   C149      1.0  0.62803  0.43844  0.61030  1.0000
  C   C150      1.0  0.58757  0.42820  0.64298  1.0000
  C  Sn3       1.0  0.56192  0.39095  0.72335  1.0000
  C  Sn4       1.0  0.57715  0.36352  0.77178  1.0000
  C   C151      1.0  0.61768  0.37407  0.73862  1.0000
  C   C152      1.0  0.64308  0.41141  0.65808  1.0000
  H   H147      1.0  0.64769  0.46735  0.54807  1.0000
  O  Te3       1.0  0.52158  0.38119  0.75499  1.0000
  O  Te4       1.0  0.55218  0.32610  0.85233  1.0000
  H   H148      1.0  0.67441  0.41935  0.63288  1.0000
  Mg  Mg2       1.0  0.49943  0.32658  0.86797  1.0000
  C   C153      1.0  0.22283  0.58864  0.41388  1.0000
  C   C154      1.0  0.24728  0.62285  0.31604  1.0000
  C  Sn5       1.0  0.22923  0.64428  0.22606  1.0000
  C  Sn6       1.0  0.18589  0.63113  0.23446  1.0000
  C   C155      1.0  0.16171  0.59688  0.33279  1.0000
  C   C156      1.0  0.18009  0.57566  0.42229  1.0000
  H   H149      1.0  0.23705  0.57223  0.48320  1.0000
  O  Te5       1.0  0.25411  0.67839  0.12887  1.0000
  O  Te6       1.0  0.16706  0.65198  0.14584  1.0000
  H   H150      1.0  0.16115  0.54918  0.49811  1.0000
  Mg  Mg3       1.0  0.21404  0.69670  0.03078  1.0000
  C   C157      1.0  0.81232  0.43203  0.81944  1.0000
  C   C158      1.0  0.83754  0.41996  0.92553  1.0000
  C  Sn7       1.0  0.81876  0.38049  0.99811  1.0000
  C  Sn8       1.0  0.77389  0.35265  0.96358  1.0000
  C   C159      1.0  0.74894  0.36501  0.85718  1.0000
  C   C160      1.0  0.76807  0.40458  0.78526  1.0000
  H   H151      1.0  0.82711  0.46264  0.76372  1.0000
  O  Te7       1.0  0.81050  0.36614  0.10385  1.0000
  O  Te8       1.0  0.72037  0.31022  0.03440  1.0000
  H   H152      1.0  0.74853  0.41391  0.70305  1.0000
  Mg  Mg4       1.0  0.76891  0.30883  0.17040  1.0000
  C   C161      1.0  0.56473  0.21205  0.27958  1.0000
  C   C162      1.0  0.60641  0.24042  0.24601  1.0000
  C  Sn9       1.0  0.62972  0.22650  0.17882  1.0000
  C  Sn10      1.0  0.61086  0.18337  0.14470  1.0000
  C   C163      1.0  0.56913  0.15525  0.17862  1.0000
  C   C164      1.0  0.54610  0.16951  0.24590  1.0000
  H   H153      1.0  0.54690  0.22309  0.33155  1.0000
  O  Te9       1.0  0.67133  0.25526  0.14609  1.0000
  O  Te10      1.0  0.63343  0.16862  0.07749  1.0000
  H   H154      1.0  0.51383  0.14754  0.27177  1.0000
  Mg  Mg5       1.0  0.68918  0.21997  0.05452  1.0000
  C   C165      1.0  0.63430  0.44571  0.10361  1.0000
  C   C166      1.0  0.59344  0.43504  0.13243  1.0000
  C  Sn11      1.0  0.56716  0.39715  0.20757  1.0000
  C  Sn12      1.0  0.58217  0.36950  0.25465  1.0000
  C   C167      1.0  0.62312  0.38047  0.22539  1.0000
  C   C168      1.0  0.64914  0.41846  0.15007  1.0000
  H   H155      1.0  0.65445  0.47511  0.04542  1.0000
  O  Te11      1.0  0.52641  0.38698  0.23539  1.0000
  O  Te12      1.0  0.55658  0.33144  0.33001  1.0000
  H   H156      1.0  0.68079  0.42672  0.12788  1.0000
  Mg  Mg6       1.0  0.50345  0.33154  0.34183  1.0000
