data_image0
_chemical_formula_structural       H44C88N28C2Sn2C2HTe2HMgC2Sn2C2HTe2HMgC2Sn2C2HTe2HMgC2Sn2C2HTe2HMgC2Sn2C2HTe2HMgC2Sn2C2HTe2HMgC2Sn2C2HTe2HMgC2Sn2C2HTe2HMgC2Sn2C2HTe2HMgC2Sn2C2HTe2HMgC2Sn2C2HTe2HMgC2Sn2C2HTe2HMgC2Sn2C2HTe2HMgC2Sn2C2HTe2HMgC2Sn2C2HTe2HMgC2Sn2C2HTe2HMgC2Sn2C2HTe2HMgC2Sn2C2HTe2HMgC2Sn2C2HTe2HMgC2Sn2C2HTe2HMgC2Sn2C2HTe2HMgC2Sn2C2HTe2HMgC2Sn2C2HTe2HMgC2Sn2C2HTe2HMgC2Sn2C2HTe2HMgC2Sn2C2HTe2HMgC2Sn2C2HTe2HMgC2Sn2C2HTe2HMg
_chemical_formula_sum              "H100 C200 N28 Sn56 Te56 Mg28"
_cell_length_a       51.6654
_cell_length_b       25.4348
_cell_length_c       8.02119
_cell_angle_alpha    79.6947
_cell_angle_beta     71.2068
_cell_angle_gamma    90.8038

_symmetry_space_group_name_H-M    'P1'
_space_group_IT_number       1

loop_
  _space_group_symop_operation_xyz
  'x, y, z'

loop_
  _atom_site_type_symbol
  _atom_site_label
  _atom_site_symmetry_multiplicity
  _atom_site_fract_x
  _atom_site_fract_y
  _atom_site_fract_z
  _atom_site_occupancy
  H   H1        1.0  0.17928  0.76517  0.34441  1.0000
  H   H2        1.0  0.35600  0.41809  0.10735  1.0000
  H   H3        1.0  0.12293  0.25884  0.42454  1.0000
  H   H4        1.0  0.47510  0.59134  0.49361  1.0000
  H   H5        1.0  0.46110  0.40044  0.15635  1.0000
  H   H6        1.0  0.48930  0.32922  0.22153  1.0000
  H   H7        1.0  0.59325  0.51395  0.10359  1.0000
  H   H8        1.0  0.56538  0.58527  0.03257  1.0000
  H   H9        1.0  0.57907  0.32105  0.26749  1.0000
  H   H10       1.0  0.52460  0.09341  0.30902  1.0000
  H   H11       1.0  0.49621  0.10065  0.47358  1.0000
  H   H12       1.0  0.55756  0.80593  0.19377  1.0000
  H   H13       1.0  0.53233  0.81851  0.36935  1.0000
  H   H14       1.0  0.12070  0.96886  0.45650  1.0000
  H   H15       1.0  0.05160  0.07486  0.24484  1.0000
  H   H16       1.0  0.00161  0.06890  0.33565  1.0000
  H   H17       1.0  0.00355  0.84143  0.00338  1.0000
  H   H18       1.0  0.05245  0.84689  0.41705  1.0000
  H   H19       1.0  0.93320  0.94603  0.30223  1.0000
  H   H20       1.0  0.87407  0.15008  0.40411  1.0000
  H   H21       1.0  0.69459  0.50107  0.21617  1.0000
  H   H22       1.0  0.92581  0.65754  0.39729  1.0000
  H   H23       1.0  0.17933  0.76397  0.83312  1.0000
  H   H24       1.0  0.35470  0.41669  0.61679  1.0000
  H   H25       1.0  0.12978  0.25649  0.86968  1.0000
  H   H26       1.0  0.47547  0.59352  0.98951  1.0000
  H   H27       1.0  0.45991  0.39828  0.65871  1.0000
  H   H28       1.0  0.48766  0.32646  0.72512  1.0000
  H   H29       1.0  0.59202  0.50986  0.61278  1.0000
  H   H30       1.0  0.56397  0.58160  0.54952  1.0000
  H   H31       1.0  0.57852  0.31675  0.75550  1.0000
  H   H32       1.0  0.52199  0.08880  0.84258  1.0000
  H   H33       1.0  0.49385  0.09862  0.00411  1.0000
  H   H34       1.0  0.55883  0.81373  0.75791  1.0000
  H   H35       1.0  0.53045  0.82218  0.92009  1.0000
  H   H36       1.0  0.12197  0.96875  0.95100  1.0000
  H   H37       1.0  0.05021  0.07527  0.74514  1.0000
  H   H38       1.0  0.00018  0.06909  0.83538  1.0000
  H   H39       1.0  0.00244  0.84045  0.50915  1.0000
  H   H40       1.0  0.05362  0.84756  0.91186  1.0000
  H   H41       1.0  0.93190  0.94533  0.80654  1.0000
  H   H42       1.0  0.87363  0.15090  0.89553  1.0000
  H   H43       1.0  0.69367  0.49528  0.70464  1.0000
  H   H44       1.0  0.92378  0.65844  0.89522  1.0000
  C   C1        1.0  0.20875  0.43802  0.41465  1.0000
  C   C2        1.0  0.24656  0.47722  0.44496  1.0000
  C   C3        1.0  0.21493  0.52916  0.36953  1.0000
  C   C4        1.0  0.16746  0.73142  0.32682  1.0000
  C   C5        1.0  0.34971  0.45908  0.08100  1.0000
  C   C6        1.0  0.14172  0.25029  0.45743  1.0000
  C   C7        1.0  0.47558  0.50850  0.06895  1.0000
  C   C8        1.0  0.49163  0.46597  0.10922  1.0000
  C   C9        1.0  0.51883  0.47847  0.11023  1.0000
  C   C10       1.0  0.52987  0.53316  0.06684  1.0000
  C   C11       1.0  0.51368  0.57487  0.02496  1.0000
  C   C12       1.0  0.48730  0.56131  0.02750  1.0000
  C   C13       1.0  0.48168  0.41082  0.15371  1.0000
  C   C14       1.0  0.49739  0.37071  0.19217  1.0000
  C   C15       1.0  0.52427  0.38160  0.19647  1.0000
  C   C16       1.0  0.53504  0.43637  0.15657  1.0000
  C   C17       1.0  0.56223  0.44880  0.15770  1.0000
  C   C18       1.0  0.57247  0.50381  0.10938  1.0000
  C   C19       1.0  0.55693  0.54390  0.06818  1.0000
  C   C20       1.0  0.54072  0.33995  0.23483  1.0000
  C   C21       1.0  0.56703  0.35346  0.23375  1.0000
  C   C22       1.0  0.57839  0.40635  0.19739  1.0000
  C   C23       1.0  0.08592  0.00997  0.05213  1.0000
  C   C24       1.0  0.05672  0.00549  0.11707  1.0000
  C   C25       1.0  0.04229  0.95987  0.09751  1.0000
  C   C26       1.0  0.05708  0.91779  0.02365  1.0000
  C   C27       1.0  0.08490  0.91983  0.48499  1.0000
  C   C28       1.0  0.09969  0.96627  0.99217  1.0000
  C   C29       1.0  0.04099  0.04353  0.21005  1.0000
  C   C30       1.0  0.01300  0.04011  0.26145  1.0000
  C   C31       1.0  0.99808  0.99822  0.22566  1.0000
  C   C32       1.0  0.01294  0.95613  0.15221  1.0000
  C   C33       1.0  0.99854  0.91036  0.13317  1.0000
  C   C34       1.0  0.01421  0.87257  0.03872  1.0000
  C   C35       1.0  0.04103  0.87576  0.49056  1.0000
  C   C36       1.0  0.96909  0.99585  0.26759  1.0000
  C   C37       1.0  0.95550  0.94882  0.26018  1.0000
  C   C38       1.0  0.96936  0.90523  0.20061  1.0000
  C   C39       1.0  0.84615  0.47817  0.33383  1.0000
  C   C40       1.0  0.80854  0.44074  0.29599  1.0000
  C   C41       1.0  0.83996  0.38747  0.36863  1.0000
  C   C42       1.0  0.88612  0.18398  0.41878  1.0000
  C   C43       1.0  0.70303  0.46184  0.20520  1.0000
  C   C44       1.0  0.91123  0.66464  0.32297  1.0000
  C   C45       1.0  0.20894  0.43721  0.92260  1.0000
  C   C46       1.0  0.24717  0.47687  0.94558  1.0000
  C   C47       1.0  0.21543  0.52829  0.86926  1.0000
  C   C48       1.0  0.16711  0.72944  0.82385  1.0000
  C   C49       1.0  0.34879  0.45775  0.58514  1.0000
  C   C50       1.0  0.14485  0.24885  0.94001  1.0000
  C   C51       1.0  0.47483  0.50611  0.57252  1.0000
  C   C52       1.0  0.49069  0.46321  0.61268  1.0000
  C   C53       1.0  0.51786  0.47512  0.61489  1.0000
  C   C54       1.0  0.52894  0.52966  0.57396  1.0000
  C   C55       1.0  0.51306  0.57165  0.53070  1.0000
  C   C56       1.0  0.48670  0.55875  0.53204  1.0000
  C   C57       1.0  0.48051  0.40822  0.65665  1.0000
  C   C58       1.0  0.49606  0.36776  0.69511  1.0000
  C   C59       1.0  0.52311  0.37804  0.69765  1.0000
  C   C60       1.0  0.53405  0.43267  0.65851  1.0000
  C   C61       1.0  0.56136  0.44478  0.65800  1.0000
  C   C62       1.0  0.57138  0.49981  0.61621  1.0000
  C   C63       1.0  0.55578  0.54019  0.57892  1.0000
  C   C64       1.0  0.53966  0.33607  0.73210  1.0000
  C   C65       1.0  0.56626  0.34928  0.72608  1.0000
  C   C66       1.0  0.57769  0.40203  0.69138  1.0000
  C   C67       1.0  0.08465  0.01026  0.55447  1.0000
  C   C68       1.0  0.05544  0.00569  0.61843  1.0000
  C   C69       1.0  0.04106  0.95987  0.59933  1.0000
  C   C70       1.0  0.05593  0.91775  0.52591  1.0000
  C   C71       1.0  0.08603  0.91966  0.98250  1.0000
  C   C72       1.0  0.09843  0.96645  0.49582  1.0000
  C   C73       1.0  0.03964  0.04379  0.71064  1.0000
  C   C74       1.0  0.01165  0.04019  0.76211  1.0000
  C   C75       1.0  0.99676  0.99797  0.72780  1.0000
  C   C76       1.0  0.01168  0.95592  0.65437  1.0000
  C   C77       1.0  0.99731  0.90997  0.63618  1.0000
  C   C78       1.0  0.01305  0.87204  0.54283  1.0000
  C   C79       1.0  0.04218  0.87610  0.98691  1.0000
  C   C80       1.0  0.96773  0.99538  0.77147  1.0000
  C   C81       1.0  0.95420  0.94830  0.76405  1.0000
  C   C82       1.0  0.96812  0.90487  0.70343  1.0000
  C   C83       1.0  0.84475  0.47850  0.83176  1.0000
  C   C84       1.0  0.80739  0.44033  0.79365  1.0000
  C   C85       1.0  0.83916  0.38775  0.86382  1.0000
  C   C86       1.0  0.88526  0.18439  0.91591  1.0000
  C   C87       1.0  0.70218  0.45600  0.69757  1.0000
  C   C88       1.0  0.90954  0.66547  0.81839  1.0000
  N   N1        1.0  0.19942  0.48604  0.37025  1.0000
  N   N2        1.0  0.23200  0.43159  0.45527  1.0000
  N   N3        1.0  0.23884  0.52696  0.40334  1.0000
  N   N4        1.0  0.14230  0.73460  0.33327  1.0000
  N   N5        1.0  0.14847  0.20137  0.01503  1.0000
  N   N6        1.0  0.36457  0.50075  0.07796  1.0000
  N   N7        1.0  0.50854  0.11636  0.34618  1.0000
  N   N8        1.0  0.54811  0.79515  0.32915  1.0000
  N   N9        1.0  0.85542  0.42985  0.37374  1.0000
  N   N10       1.0  0.82299  0.48568  0.29273  1.0000
  N   N11       1.0  0.81631  0.39064  0.33157  1.0000
  N   N12       1.0  0.90798  0.71174  0.24287  1.0000
  N   N13       1.0  0.68981  0.42188  0.18112  1.0000
  N   N14       1.0  0.91135  0.18090  0.41070  1.0000
  N   N15       1.0  0.19965  0.48495  0.87532  1.0000
  N   N16       1.0  0.23220  0.43111  0.96326  1.0000
  N   N17       1.0  0.23967  0.52648  0.89864  1.0000
  N   N18       1.0  0.14159  0.73198  0.83842  1.0000
  N   N19       1.0  0.14829  0.20213  0.50209  1.0000
  N   N20       1.0  0.36413  0.49942  0.57593  1.0000
  N   N21       1.0  0.50602  0.11227  0.87476  1.0000
  N   N22       1.0  0.54657  0.79914  0.88641  1.0000
  N   N23       1.0  0.85437  0.43038  0.86973  1.0000
  N   N24       1.0  0.82131  0.48552  0.79380  1.0000
  N   N25       1.0  0.81563  0.39053  0.82565  1.0000
  N   N26       1.0  0.90668  0.71249  0.73594  1.0000
  N   N27       1.0  0.68906  0.41542  0.67609  1.0000
  N   N28       1.0  0.91020  0.18096  0.91424  1.0000
  C   C89       1.0  0.09073  0.80651  0.05252  1.0000
  C   C90       1.0  0.04844  0.80234  0.97161  1.0000
  C  Sn1       1.0  0.07219  0.81582  0.82233  1.0000
  C  Sn2       1.0  0.08806  0.77471  0.75305  1.0000
  C   C91       1.0  0.07976  0.72112  0.83488  1.0000
  C   C92       1.0  0.05595  0.70808  0.98423  1.0000
  H   H45       1.0  0.07231  0.79642  0.16802  1.0000
  O  Te1       1.0  0.08002  0.86966  0.74317  1.0000
  O  Te2       1.0  0.11189  0.78706  0.60396  1.0000
  H   H46       1.0  0.10008  0.72437  0.04677  1.0000
  Mg  Mg1       1.0  0.11411  0.86631  0.54271  1.0000
  C   C93       1.0  0.09024  0.80664  0.54727  1.0000
  C   C94       1.0  0.09831  0.86075  0.47332  1.0000
  C  Sn3       1.0  0.12256  0.87562  0.32866  1.0000
  C  Sn4       1.0  0.13899  0.83548  0.25698  1.0000
  C   C95       1.0  0.13072  0.78145  0.33184  1.0000
  C   C96       1.0  0.10642  0.76701  0.47661  1.0000
  H   H47       1.0  0.07143  0.79546  0.65922  1.0000
  O  Te3       1.0  0.13033  0.92988  0.25643  1.0000
  O  Te4       1.0  0.16331  0.84922  0.11240  1.0000
  H   H48       1.0  0.10016  0.72511  0.53376  1.0000
  Mg  Mg2       1.0  0.16523  0.92854  0.06011  1.0000
  C   C97       1.0  0.30993  0.52340  0.98126  1.0000
  C   C98       1.0  0.37144  0.53534  0.04574  1.0000
  C  Sn5       1.0  0.35833  0.48470  0.07113  1.0000
  C  Sn6       1.0  0.33367  0.48006  0.03106  1.0000
  C   C99       1.0  0.27234  0.46838  0.96650  1.0000
  C   C100      1.0  0.28562  0.51886  0.94164  1.0000
  H   H49       1.0  0.32021  0.56246  0.96193  1.0000
  O  Te5       1.0  0.36968  0.43924  0.13572  1.0000
  O  Te6       1.0  0.32016  0.42994  0.05514  1.0000
  H   H50       1.0  0.27704  0.55440  0.89161  1.0000
  Mg  Mg3       1.0  0.34367  0.37978  0.14631  1.0000
  C   C101      1.0  0.16798  0.62182  0.27953  1.0000
  C   C102      1.0  0.17654  0.67002  0.31331  1.0000
  C  Sn7       1.0  0.20098  0.67456  0.35087  1.0000
  C  Sn8       1.0  0.21711  0.62995  0.35455  1.0000
  C   C103      1.0  0.20838  0.58191  0.32045  1.0000
  C   C104      1.0  0.18389  0.57780  0.28306  1.0000
  H   H51       1.0  0.14904  0.61865  0.25051  1.0000
  O  Te7       1.0  0.20923  0.72300  0.38438  1.0000
  O  Te8       1.0  0.24163  0.63339  0.39166  1.0000
  H   H52       1.0  0.17727  0.54049  0.25680  1.0000
  Mg  Mg4       1.0  0.24422  0.70794  0.42856  1.0000
  C   C105      1.0  0.19054  0.29837  0.48489  1.0000
  C   C106      1.0  0.16473  0.29507  0.46469  1.0000
  C  Sn9       1.0  0.15289  0.34162  0.41365  1.0000
  C  Sn10      1.0  0.16721  0.39236  0.38229  1.0000
  C   C107      1.0  0.19303  0.39523  0.40274  1.0000
  C   C108      1.0  0.20468  0.34840  0.45392  1.0000
  H   H53       1.0  0.19957  0.26214  0.52439  1.0000
  O  Te9       1.0  0.12707  0.33761  0.39414  1.0000
  O  Te10      1.0  0.15585  0.43952  0.33109  1.0000
  H   H54       1.0  0.22468  0.35096  0.46944  1.0000
  Mg  Mg5       1.0  0.12015  0.41330  0.32211  1.0000
  C   C109      1.0  0.13212  0.06549  0.09218  1.0000
  C   C110      1.0  0.10734  0.05810  0.06106  1.0000
  C  Sn11      1.0  0.04465  0.04426  0.99597  1.0000
  C  Sn12      1.0  0.05748  0.09660  0.96148  1.0000
  C   C111      1.0  0.08228  0.10357  0.99294  1.0000
  C   C112      1.0  0.14479  0.11710  0.05814  1.0000
  H   H55       1.0  0.14149  0.03120  0.14253  1.0000
  O  Te11      1.0  0.01989  0.03616  0.96567  1.0000
  O  Te12      1.0  0.04567  0.14129  0.89633  1.0000
  H   H56       1.0  0.16399  0.12283  0.08211  1.0000
  Mg  Mg6       1.0  0.01180  0.10971  0.87631  1.0000
  C   C113      1.0  0.13861  0.09215  0.59086  1.0000
  C   C114      1.0  0.13503  0.14445  0.51668  1.0000
  C  Sn13      1.0  0.11259  0.15502  0.45803  1.0000
  C  Sn14      1.0  0.09342  0.11235  0.47418  1.0000
  C   C115      1.0  0.09717  0.06016  0.54870  1.0000
  C   C116      1.0  0.11970  0.05004  0.60690  1.0000
  H   H57       1.0  0.15603  0.08431  0.63599  1.0000
  O  Te13      1.0  0.10933  0.20751  0.38417  1.0000
  O  Te14      1.0  0.07080  0.12178  0.41670  1.0000
  H   H58       1.0  0.12246  0.00954  0.66445  1.0000
  Mg  Mg7       1.0  0.07523  0.20015  0.32509  1.0000
  C   C117      1.0  0.63720  0.46587  0.26296  1.0000
  C   C118      1.0  0.65838  0.43298  0.20457  1.0000
  C  Sn15      1.0  0.65423  0.38997  0.12703  1.0000
  C  Sn16      1.0  0.62838  0.37982  0.10772  1.0000
  C   C119      1.0  0.60732  0.41299  0.16644  1.0000
  C   C120      1.0  0.61169  0.45590  0.24390  1.0000
  H   H59       1.0  0.64058  0.49909  0.32280  1.0000
  O  Te15      1.0  0.67562  0.35749  0.06948  1.0000
  O  Te16      1.0  0.62368  0.33712  0.03063  1.0000
  H   H60       1.0  0.59529  0.48138  0.28899  1.0000
  Mg  Mg8       1.0  0.60879  0.24634  0.97289  1.0000
  C   C121      1.0  0.55259  0.65943  0.31317  1.0000
  C   C122      1.0  0.53041  0.63244  0.45649  1.0000
  C  Sn17      1.0  0.51151  0.66118  0.56565  1.0000
  C  Sn18      1.0  0.51494  0.71798  0.53030  1.0000
  C   C123      1.0  0.53718  0.74461  0.38652  1.0000
  C   C124      1.0  0.55598  0.71546  0.27818  1.0000
  H   H61       1.0  0.56712  0.63689  0.22928  1.0000
  O  Te17      1.0  0.48947  0.63358  0.70831  1.0000
  O  Te18      1.0  0.49635  0.74769  0.63723  1.0000
  H   H62       1.0  0.57314  0.73637  0.16715  1.0000
  Mg  Mg9       1.0  0.46962  0.69184  0.81592  1.0000
  C   C125      1.0  0.50499  0.68066  0.09735  1.0000
  C   C126      1.0  0.51756  0.64124  0.00475  1.0000
  C  Sn19      1.0  0.49190  0.59604  0.86312  1.0000
  C  Sn20      1.0  0.50426  0.64919  0.81360  1.0000
  C   C127      1.0  0.49153  0.68834  0.90716  1.0000
  C   C128      1.0  0.51717  0.73309  0.04864  1.0000
  H   H63       1.0  0.48582  0.67053  0.20688  1.0000
  O  Te19      1.0  0.50418  0.55617  0.77199  1.0000
  O  Te20      1.0  0.52901  0.66293  0.67261  1.0000
  H   H64       1.0  0.50745  0.76362  0.12039  1.0000
  Mg  Mg10      1.0  0.53782  0.59457  0.58917  1.0000
  C   C129      1.0  0.41576  0.45366  0.00214  1.0000
  C   C130      1.0  0.39438  0.48341  0.08342  1.0000
  C  Sn21      1.0  0.39952  0.52564  0.16119  1.0000
  C  Sn22      1.0  0.42658  0.53824  0.15727  1.0000
  C   C131      1.0  0.44782  0.50826  0.07552  1.0000
  C   C132      1.0  0.39203  0.40822  0.99815  1.0000
  H   H65       1.0  0.36119  0.36318  0.94219  1.0000
  O  Te21      1.0  0.37793  0.55494  0.24190  1.0000
  O  Te22      1.0  0.43228  0.58026  0.23393  1.0000
  H   H66       1.0  0.40859  0.38521  0.93513  1.0000
  Mg  Mg11      1.0  0.39600  0.60849  0.32819  1.0000
  C   C133      1.0  0.50214  0.24710  0.42447  1.0000
  C   C134      1.0  0.52601  0.27689  0.30700  1.0000
  C  Sn23      1.0  0.54567  0.25285  0.18516  1.0000
  C  Sn24      1.0  0.54128  0.19797  0.18112  1.0000
  C   C135      1.0  0.51732  0.16852  0.29911  1.0000
  C   C136      1.0  0.49779  0.19297  0.42053  1.0000
  H   H67       1.0  0.48702  0.26601  0.51836  1.0000
  O  Te23      1.0  0.56941  0.28320  0.06879  1.0000
  O  Te24      1.0  0.56059  0.17295  0.06065  1.0000
  H   H68       1.0  0.47930  0.16990  0.51138  1.0000
  Mg  Mg12      1.0  0.53927  0.17327  0.92894  1.0000
  C   C137      1.0  0.91495  0.82217  0.17589  1.0000
  C   C138      1.0  0.92160  0.76955  0.21890  1.0000
  C  Sn25      1.0  0.94476  0.75946  0.26998  1.0000
  C  Sn26      1.0  0.96152  0.80296  0.27808  1.0000
  C   C139      1.0  0.95468  0.85546  0.23491  1.0000
  C   C140      1.0  0.93146  0.86509  0.18391  1.0000
  H   H69       1.0  0.89698  0.82963  0.13652  1.0000
  O  Te25      1.0  0.95111  0.70664  0.31245  1.0000
  O  Te26      1.0  0.98478  0.79402  0.32878  1.0000
  H   H70       1.0  0.92631  0.90584  0.15073  1.0000
  Mg  Mg13      1.0  0.98493  0.71492  0.37399  1.0000
  C   C141      1.0  0.74903  0.40000  0.20658  1.0000
  C   C142      1.0  0.73276  0.44348  0.22230  1.0000
  C  Sn27      1.0  0.74258  0.49124  0.25187  1.0000
  C  Sn28      1.0  0.76918  0.49543  0.26586  1.0000
  C   C143      1.0  0.78531  0.45172  0.24981  1.0000
  C   C144      1.0  0.77528  0.40411  0.22029  1.0000
  H   H71       1.0  0.74128  0.36318  0.18363  1.0000
  O  Te27      1.0  0.72605  0.53428  0.26732  1.0000
  O  Te28      1.0  0.77950  0.54269  0.29533  1.0000
  H   H72       1.0  0.78789  0.37047  0.20800  1.0000
  Mg  Mg14      1.0  0.74921  0.59026  0.30713  1.0000
  C   C145      1.0  0.83613  0.27403  0.38019  1.0000
  C   C146      1.0  0.84526  0.32249  0.40919  1.0000
  C  Sn29      1.0  0.86987  0.32677  0.44484  1.0000
  C  Sn30      1.0  0.88559  0.28163  0.45143  1.0000
  C   C147      1.0  0.87629  0.23333  0.42210  1.0000
  C   C148      1.0  0.85163  0.22949  0.38660  1.0000
  H   H73       1.0  0.81705  0.27106  0.35262  1.0000
  O  Te29      1.0  0.87868  0.37548  0.47357  1.0000
  O  Te30      1.0  0.91027  0.28480  0.48672  1.0000
  H   H74       1.0  0.84458  0.19197  0.36403  1.0000
  Mg  Mg15      1.0  0.91368  0.35989  0.51690  1.0000
  C   C149      1.0  0.89978  0.55102  0.40199  1.0000
  C   C150      1.0  0.89785  0.60470  0.33235  1.0000
  C  Sn31      1.0  0.87658  0.61928  0.26550  1.0000
  C  Sn32      1.0  0.85692  0.57929  0.26865  1.0000
  C   C151      1.0  0.85902  0.52570  0.33872  1.0000
  C   C152      1.0  0.88039  0.51156  0.40521  1.0000
  H   H75       1.0  0.91631  0.54008  0.45352  1.0000
  O  Te31      1.0  0.87496  0.67309  0.19634  1.0000
  O  Te32      1.0  0.83545  0.59274  0.20277  1.0000
  H   H76       1.0  0.88187  0.47000  0.45923  1.0000
  Mg  Mg16      1.0  0.84197  0.67149  0.12208  1.0000
  C   C153      1.0  0.96304  0.10858  0.19632  1.0000
  C   C154      1.0  0.95704  0.05542  0.28838  1.0000
  C  Sn33      1.0  0.93288  0.04071  0.43385  1.0000
  C  Sn34      1.0  0.91442  0.08002  0.48781  1.0000
  C   C155      1.0  0.92059  0.13309  0.39476  1.0000
  C   C156      1.0  0.94483  0.14738  0.24941  1.0000
  H   H77       1.0  0.98178  0.11964  0.08380  1.0000
  O  Te33      1.0  0.92721  0.98742  0.52438  1.0000
  O  Te34      1.0  0.89012  0.06641  0.63270  1.0000
  H   H78       1.0  0.94946  0.18853  0.17809  1.0000
  Mg  Mg17      1.0  0.89148  0.98856  0.71356  1.0000
  C   C157      1.0  0.30934  0.52276  0.48413  1.0000
  C   C158      1.0  0.32009  0.47658  0.55003  1.0000
  C  Sn35      1.0  0.30668  0.42619  0.57600  1.0000
  C  Sn36      1.0  0.28207  0.42208  0.53507  1.0000
  C   C159      1.0  0.27149  0.46852  0.46909  1.0000
  C   C160      1.0  0.28507  0.51874  0.44367  1.0000
  H   H79       1.0  0.31984  0.56161  0.46436  1.0000
  O  Te35      1.0  0.31770  0.38046  0.64200  1.0000
  O  Te36      1.0  0.26827  0.37222  0.55970  1.0000
  H   H80       1.0  0.27675  0.55449  0.39254  1.0000
  Mg  Mg18      1.0  0.29138  0.32153  0.65286  1.0000
  C   C161      1.0  0.16747  0.61902  0.78466  1.0000
  C   C162      1.0  0.17621  0.66792  0.81286  1.0000
  C  Sn37      1.0  0.20109  0.67354  0.84422  1.0000
  C  Sn38      1.0  0.21748  0.62931  0.84728  1.0000
  C   C163      1.0  0.20856  0.58057  0.81879  1.0000
  C   C164      1.0  0.18363  0.57539  0.78759  1.0000
  H   H81       1.0  0.14818  0.61502  0.76042  1.0000
  O  Te37      1.0  0.20952  0.72267  0.87221  1.0000
  O  Te38      1.0  0.24244  0.63382  0.87826  1.0000
  H   H82       1.0  0.17687  0.53753  0.76565  1.0000
  Mg  Mg19      1.0  0.24512  0.70900  0.90909  1.0000
  C   C165      1.0  0.18994  0.29774  0.00824  1.0000
  C   C166      1.0  0.11523  0.23620  0.96836  1.0000
  C  Sn39      1.0  0.10487  0.28234  0.89863  1.0000
  C  Sn40      1.0  0.11916  0.33306  0.86837  1.0000
  C   C167      1.0  0.14346  0.33631  0.90859  1.0000
  C   C168      1.0  0.15363  0.28989  0.97837  1.0000
  H   H83       1.0  0.19782  0.26182  0.06214  1.0000
  O  Te39      1.0  0.08057  0.27794  0.85960  1.0000
  O  Te40      1.0  0.10927  0.37981  0.79874  1.0000
  H   H84       1.0  0.22287  0.35060  0.00913  1.0000
  Mg  Mg20      1.0  0.07531  0.35317  0.76690  1.0000
  C   C169      1.0  0.63234  0.36842  0.59606  1.0000
  C   C170      1.0  0.61046  0.39743  0.67499  1.0000
  C  Sn41      1.0  0.61470  0.43954  0.75606  1.0000
  C  Sn42      1.0  0.64137  0.45276  0.75787  1.0000
  C   C171      1.0  0.66313  0.42351  0.67842  1.0000
  C   C172      1.0  0.65865  0.38144  0.59772  1.0000
  H   H85       1.0  0.62888  0.33589  0.53353  1.0000
  O  Te41      1.0  0.59261  0.46810  0.83436  1.0000
  O  Te42      1.0  0.64618  0.49466  0.83791  1.0000
  H   H86       1.0  0.67560  0.35901  0.53651  1.0000
  Mg  Mg21      1.0  0.60949  0.52177  0.92697  1.0000
  C   C173      1.0  0.40628  0.54140  0.66691  1.0000
  C   C174      1.0  0.39343  0.50937  0.58750  1.0000
  C  Sn43      1.0  0.40728  0.46916  0.50522  1.0000
  C  Sn44      1.0  0.43450  0.46093  0.50264  1.0000
  C   C175      1.0  0.44717  0.49316  0.58256  1.0000
  C   C176      1.0  0.43312  0.53330  0.66448  1.0000
  H   H87       1.0  0.39541  0.57244  0.73038  1.0000
  O  Te43      1.0  0.39414  0.43754  0.42647  1.0000
  O  Te44      1.0  0.44882  0.42101  0.42137  1.0000
  H   H88       1.0  0.44307  0.55806  0.72605  1.0000
  Mg  Mg22      1.0  0.42215  0.38826  0.33212  1.0000
  C   C177      1.0  0.54854  0.22974  0.66321  1.0000
  C   C178      1.0  0.53428  0.27073  0.73840  1.0000
  C  Sn45      1.0  0.50943  0.25866  0.87951  1.0000
  C  Sn46      1.0  0.49871  0.20453  0.94632  1.0000
  C   C179      1.0  0.51314  0.16382  0.87026  1.0000
  C   C180      1.0  0.53798  0.17634  0.72907  1.0000
  H   H89       1.0  0.56777  0.23942  0.55403  1.0000
  O  Te45      1.0  0.49545  0.30010  0.95304  1.0000
  O  Te46      1.0  0.52434  0.24920  0.08728  1.0000
  H   H90       1.0  0.54902  0.14460  0.67095  1.0000
  Mg  Mg23      1.0  0.51287  0.31978  0.14313  1.0000
  C   C181      1.0  0.95243  0.76398  0.78895  1.0000
  C   C182      1.0  0.92783  0.75626  0.75582  1.0000
  C  Sn47      1.0  0.91539  0.80013  0.69153  1.0000
  C  Sn48      1.0  0.92786  0.85265  0.65992  1.0000
  C   C183      1.0  0.95247  0.85995  0.69336  1.0000
  C   C184      1.0  0.96474  0.81577  0.75774  1.0000
  H   H91       1.0  0.96193  0.72980  0.83867  1.0000
  O  Te47      1.0  0.89082  0.79170  0.65921  1.0000
  O  Te48      1.0  0.91587  0.89721  0.59563  1.0000
  H   H92       1.0  0.98379  0.82176  0.78327  1.0000
  Mg  Mg24      1.0  0.88237  0.86517  0.57206  1.0000
  C   C185      1.0  0.76208  0.39378  0.72253  1.0000
  C   C186      1.0  0.77898  0.43391  0.74244  1.0000
  C  Sn49      1.0  0.76993  0.48502  0.75478  1.0000
  C  Sn50      1.0  0.74345  0.49604  0.74704  1.0000
  C   C187      1.0  0.72669  0.45560  0.72723  1.0000
  C   C188      1.0  0.73596  0.40460  0.71496  1.0000
  H   H93       1.0  0.76925  0.35431  0.71314  1.0000
  O  Te49      1.0  0.78708  0.52466  0.77457  1.0000
  O  Te50      1.0  0.73388  0.54677  0.75910  1.0000
  H   H94       1.0  0.72286  0.37353  0.69966  1.0000
  Mg  Mg25      1.0  0.76483  0.58753  0.78506  1.0000
  C   C189      1.0  0.88587  0.29463  0.95124  1.0000
  C   C190      1.0  0.87484  0.24469  0.94621  1.0000
  C  Sn51      1.0  0.85036  0.24054  0.90885  1.0000
  C  Sn52      1.0  0.83672  0.28733  0.87593  1.0000
  C   C191      1.0  0.84794  0.33711  0.88114  1.0000
  C   C192      1.0  0.87244  0.34081  0.91871  1.0000
  H   H95       1.0  0.90483  0.29750  0.98021  1.0000
  O  Te51      1.0  0.83962  0.19033  0.90441  1.0000
  O  Te52      1.0  0.81224  0.28433  0.83819  1.0000
  H   H96       1.0  0.88098  0.37948  0.92248  1.0000
  Mg  Mg26      1.0  0.80572  0.20681  0.84717  1.0000
  C   C193      1.0  0.85494  0.59296  0.76229  1.0000
  C   C194      1.0  0.85926  0.53896  0.80830  1.0000
  C  Sn53      1.0  0.88111  0.52456  0.86943  1.0000
  C  Sn54      1.0  0.89891  0.56506  0.88467  1.0000
  C   C195      1.0  0.89440  0.61896  0.83843  1.0000
  C   C196      1.0  0.87248  0.63293  0.77735  1.0000
  H   H97       1.0  0.83797  0.60376  0.71513  1.0000
  O  Te53      1.0  0.88514  0.47042  0.91476  1.0000
  O  Te54      1.0  0.92089  0.55178  0.94546  1.0000
  H   H98       1.0  0.86913  0.67474  0.74185  1.0000
  Mg  Mg27      1.0  0.91794  0.47245  0.99092  1.0000
  C   C197      1.0  0.95461  0.13270  0.72177  1.0000
  C   C198      1.0  0.92920  0.13602  0.85001  1.0000
  C  Sn55      1.0  0.91525  0.09023  0.97252  1.0000
  C  Sn56      1.0  0.92701  0.04025  0.96621  1.0000
  C   C199      1.0  0.95245  0.03735  0.83748  1.0000
  C   C200      1.0  0.96623  0.08341  0.71550  1.0000
  H   H99       1.0  0.96528  0.16834  0.62744  1.0000
  O  Te55      1.0  0.94029  0.15212  0.09973  1.0000
  O  Te56      1.0  0.96393  0.05171  0.08708  1.0000
  H   H100      1.0  0.98591  0.08083  0.61629  1.0000
  Mg  Mg28      1.0  0.92982  0.07762  0.23564  1.0000
