data_image0
_chemical_formula_structural       H72C128N24SnCSn2CSnTe4Mg2SnCSn2CSnTe4Mg2SnCSn2CSnTe4Mg2SnCSn2CSnTe4Mg2SnCSn2CSnTe4Mg2SnCSn2CSnTe4Mg2SnCSn2CSnTe4Mg2SnCSn2CSnTe4Mg2SnCSn2CSnTe4Mg2SnCSn2CSnTe4Mg2SnCSn2CSnTe4Mg2SnCSn2CSnTe4Mg2
_chemical_formula_sum              "H72 C152 N24 Sn48 Te48 Mg24"
_cell_length_a       45.2809
_cell_length_b       25.4887
_cell_length_c       8.03158
_cell_angle_alpha    63.4426
_cell_angle_beta     98.3691
_cell_angle_gamma    90.575

_symmetry_space_group_name_H-M    'P1'
_space_group_IT_number       1

loop_
  _space_group_symop_operation_xyz
  'x, y, z'

loop_
  _atom_site_type_symbol
  _atom_site_label
  _atom_site_symmetry_multiplicity
  _atom_site_fract_x
  _atom_site_fract_y
  _atom_site_fract_z
  _atom_site_occupancy
  H   H1        1.0  0.19505  0.75806  0.19042  1.0000
  H   H2        1.0  0.40850  0.41731  0.12660  1.0000
  H   H3        1.0  0.12821  0.27540  0.06322  1.0000
  H   H4        1.0  0.54356  0.39282  0.12330  1.0000
  H   H5        1.0  0.59782  0.38945  0.10118  1.0000
  H   H6        1.0  0.60080  0.57112  0.98104  1.0000
  H   H7        1.0  0.54677  0.57540  0.99670  1.0000
  H   H8        1.0  0.50004  0.57097  0.34023  1.0000
  H   H9        1.0  0.44601  0.57467  0.36251  1.0000
  H   H10       1.0  0.45630  0.41424  0.34051  1.0000
  H   H11       1.0  0.51046  0.40728  0.32693  1.0000
  H   H12       1.0  0.12789  0.97984  0.12896  1.0000
  H   H13       1.0  0.05508  0.11124  0.14289  1.0000
  H   H14       1.0  0.00066  0.11430  0.12892  1.0000
  H   H15       1.0  0.99584  0.86325  0.03124  1.0000
  H   H16       1.0  0.05027  0.86013  0.04697  1.0000
  H   H17       1.0  0.92322  0.99162  0.06398  1.0000
  H   H18       1.0  0.91040  0.94267  0.36482  1.0000
  H   H19       1.0  0.87967  0.86023  0.37743  1.0000
  H   H20       1.0  0.74750  0.57114  0.11822  1.0000
  H   H21       1.0  0.69263  0.57707  0.12551  1.0000
  H   H22       1.0  0.68298  0.42017  0.05314  1.0000
  H   H23       1.0  0.73837  0.41350  0.05385  1.0000
  H   H24       1.0  0.79094  0.34811  0.05433  1.0000
  H   H25       1.0  0.81368  0.26286  0.03124  1.0000
  H   H26       1.0  0.90004  0.33279  0.52856  1.0000
  H   H27       1.0  0.87606  0.42354  0.03768  1.0000
  H   H28       1.0  0.88402  0.52509  0.11006  1.0000
  H   H29       1.0  0.91744  0.60218  0.12803  1.0000
  H   H30       1.0  0.84092  0.70373  0.11014  1.0000
  H   H31       1.0  0.80767  0.62547  0.09739  1.0000
  H   H32       1.0  0.85592  0.21049  0.01658  1.0000
  H   H33       1.0  0.64516  0.53269  0.14952  1.0000
  H   H34       1.0  0.92465  0.69430  0.13889  1.0000
  H   H35       1.0  0.97093  0.15184  0.33924  1.0000
  H   H36       1.0  0.94244  0.23915  0.30916  1.0000
  H   H37       1.0  0.16900  0.43974  0.61116  1.0000
  H   H38       1.0  0.13553  0.36453  0.58004  1.0000
  H   H39       1.0  0.21220  0.26262  0.60150  1.0000
  H   H40       1.0  0.24559  0.33876  0.62891  1.0000
  H   H41       1.0  0.19806  0.75761  0.69093  1.0000
  H   H42       1.0  0.40949  0.40991  0.64269  1.0000
  H   H43       1.0  0.12821  0.27362  0.56411  1.0000
  H   H44       1.0  0.49973  0.56997  0.81750  1.0000
  H   H45       1.0  0.44559  0.57732  0.83300  1.0000
  H   H46       1.0  0.45806  0.40424  0.84097  1.0000
  H   H47       1.0  0.51216  0.40081  0.82050  1.0000
  H   H48       1.0  0.12898  0.97815  0.63305  1.0000
  H   H49       1.0  0.05543  0.10897  0.64566  1.0000
  H   H50       1.0  0.00117  0.11115  0.63190  1.0000
  H   H51       1.0  0.99754  0.85906  0.54007  1.0000
  H   H52       1.0  0.05160  0.85707  0.55135  1.0000
  H   H53       1.0  0.92421  0.98834  0.56293  1.0000
  H   H54       1.0  0.94434  0.73793  0.82869  1.0000
  H   H55       1.0  0.97469  0.82001  0.82015  1.0000
  H   H56       1.0  0.74942  0.57320  0.60813  1.0000
  H   H57       1.0  0.69501  0.58068  0.61991  1.0000
  H   H58       1.0  0.68306  0.42284  0.55551  1.0000
  H   H59       1.0  0.73823  0.41386  0.55361  1.0000
  H   H60       1.0  0.79107  0.34677  0.54307  1.0000
  H   H61       1.0  0.81375  0.26108  0.52345  1.0000
  H   H62       1.0  0.89911  0.33830  0.01280  1.0000
  H   H63       1.0  0.87704  0.41817  0.55046  1.0000
  H   H64       1.0  0.88555  0.52222  0.60714  1.0000
  H   H65       1.0  0.91906  0.59789  0.63126  1.0000
  H   H66       1.0  0.84313  0.69810  0.62757  1.0000
  H   H67       1.0  0.80950  0.62104  0.60706  1.0000
  H   H68       1.0  0.85651  0.20697  0.51765  1.0000
  H   H69       1.0  0.64700  0.53656  0.65051  1.0000
  H   H70       1.0  0.92663  0.68945  0.64685  1.0000
  H   H71       1.0  0.88639  0.12582  0.69281  1.0000
  H   H72       1.0  0.91488  0.03926  0.72471  1.0000
  C   C1        1.0  0.22867  0.43981  0.14067  1.0000
  C   C2        1.0  0.27488  0.47509  0.16033  1.0000
  C   C3        1.0  0.23385  0.52551  0.16378  1.0000
  C   C4        1.0  0.17975  0.72431  0.18962  1.0000
  C   C5        1.0  0.40005  0.45859  0.12074  1.0000
  C   C6        1.0  0.15242  0.26498  0.08335  1.0000
  C   C7        1.0  0.50898  0.48770  0.07003  1.0000
  C   C8        1.0  0.54117  0.48440  0.06207  1.0000
  C   C9        1.0  0.55609  0.43186  0.09347  1.0000
  C   C10       1.0  0.58632  0.42955  0.08149  1.0000
  C   C11       1.0  0.60309  0.47917  0.04601  1.0000
  C   C12       1.0  0.58830  0.53195  0.01381  1.0000
  C   C13       1.0  0.55787  0.53443  0.02036  1.0000
  C   C14       1.0  0.49099  0.53472  0.45168  1.0000
  C   C15       1.0  0.46073  0.53690  0.46248  1.0000
  C   C16       1.0  0.44715  0.49550  0.08444  1.0000
  C   C17       1.0  0.46573  0.44721  0.22272  1.0000
  C   C18       1.0  0.49613  0.44358  0.21500  1.0000
  C   C19       1.0  0.08932  0.03169  0.10550  1.0000
  C   C20       1.0  0.05788  0.03283  0.10412  1.0000
  C   C21       1.0  0.04145  0.98534  0.09750  1.0000
  C   C22       1.0  0.05675  0.93600  0.10013  1.0000
  C   C23       1.0  0.08857  0.93276  0.12223  1.0000
  C   C24       1.0  0.10369  0.98129  0.11937  1.0000
  C   C25       1.0  0.04219  0.07835  0.11928  1.0000
  C   C26       1.0  0.01183  0.08006  0.11125  1.0000
  C   C27       1.0  0.99427  0.03644  0.08651  1.0000
  C   C28       1.0  0.00959  0.98717  0.08881  1.0000
  C   C29       1.0  0.99313  0.93993  0.08023  1.0000
  C   C30       1.0  0.00874  0.89520  0.06038  1.0000
  C   C31       1.0  0.03912  0.89337  0.06960  1.0000
  C   C32       1.0  0.96247  0.03908  0.06830  1.0000
  C   C33       1.0  0.94740  0.99043  0.07182  1.0000
  C   C34       1.0  0.96175  0.94070  0.08097  1.0000
  C   C35       1.0  0.91784  0.89795  0.46803  1.0000
  C   C36       1.0  0.90050  0.85209  0.47397  1.0000
  C   C37       1.0  0.82433  0.52623  0.08535  1.0000
  C   C38       1.0  0.77846  0.48862  0.08128  1.0000
  C   C39       1.0  0.81903  0.44046  0.06322  1.0000
  C   C40       1.0  0.83222  0.39061  0.04744  1.0000
  C   C41       1.0  0.84390  0.57104  0.10066  1.0000
  C   C42       1.0  0.74610  0.49218  0.08512  1.0000
  C   C43       1.0  0.73309  0.53862  0.10359  1.0000
  C   C44       1.0  0.70254  0.54177  0.10654  1.0000
  C   C45       1.0  0.68418  0.49934  0.08700  1.0000
  C   C46       1.0  0.69731  0.45286  0.06773  1.0000
  C   C47       1.0  0.72787  0.44910  0.06827  1.0000
  C   C48       1.0  0.81455  0.34524  0.04540  1.0000
  C   C49       1.0  0.82737  0.29791  0.03401  1.0000
  C   C50       1.0  0.85795  0.29528  0.02111  1.0000
  C   C51       1.0  0.87554  0.34101  0.02275  1.0000
  C   C52       1.0  0.86286  0.38795  0.03561  1.0000
  C   C53       1.0  0.87501  0.56423  0.11145  1.0000
  C   C54       1.0  0.89335  0.60728  0.12063  1.0000
  C   C55       1.0  0.88107  0.65836  0.11664  1.0000
  C   C56       1.0  0.84996  0.66444  0.10971  1.0000
  C   C57       1.0  0.83169  0.62128  0.10252  1.0000
  C   C58       1.0  0.87092  0.24560  0.00752  1.0000
  C   C59       1.0  0.65226  0.50349  0.09305  1.0000
  C   C60       1.0  0.90038  0.70444  0.11727  1.0000
  C   C61       1.0  0.95283  0.14598  0.42012  1.0000
  C   C62       1.0  0.93675  0.19505  0.40092  1.0000
  C   C63       1.0  0.22894  0.43797  0.63944  1.0000
  C   C64       1.0  0.27543  0.47227  0.65632  1.0000
  C   C65       1.0  0.23498  0.52378  0.66104  1.0000
  C   C66       1.0  0.20923  0.39373  0.62154  1.0000
  C   C67       1.0  0.17808  0.40106  0.60737  1.0000
  C   C68       1.0  0.15968  0.35901  0.59109  1.0000
  C   C69       1.0  0.17194  0.30860  0.59077  1.0000
  C   C70       1.0  0.20314  0.30161  0.60375  1.0000
  C   C71       1.0  0.22148  0.34366  0.61858  1.0000
  C   C72       1.0  0.18272  0.72416  0.68787  1.0000
  C   C73       1.0  0.40102  0.45155  0.63403  1.0000
  C   C74       1.0  0.15243  0.26382  0.58139  1.0000
  C   C75       1.0  0.51009  0.48556  0.57914  1.0000
  C   C76       1.0  0.49026  0.53603  0.93304  1.0000
  C   C77       1.0  0.45998  0.54033  0.94083  1.0000
  C   C78       1.0  0.44821  0.48920  0.59909  1.0000
  C   C79       1.0  0.46713  0.43983  0.72748  1.0000
  C   C80       1.0  0.49754  0.43823  0.71663  1.0000
  C   C81       1.0  0.09017  0.02967  0.60818  1.0000
  C   C82       1.0  0.05871  0.03069  0.60544  1.0000
  C   C83       1.0  0.04250  0.98302  0.59828  1.0000
  C   C84       1.0  0.05801  0.93386  0.60066  1.0000
  C   C85       1.0  0.08985  0.93108  0.62189  1.0000
  C   C86       1.0  0.10474  0.97955  0.62143  1.0000
  C   C87       1.0  0.04282  0.07595  0.62110  1.0000
  C   C88       1.0  0.01245  0.07735  0.61239  1.0000
  C   C89       1.0  0.99509  0.03378  0.58590  1.0000
  C   C90       1.0  0.01062  0.98451  0.58942  1.0000
  C   C91       1.0  0.99436  0.93680  0.58309  1.0000
  C   C92       1.0  0.01019  0.89188  0.56555  1.0000
  C   C93       1.0  0.04053  0.89061  0.57297  1.0000
  C   C94       1.0  0.96329  0.03627  0.56585  1.0000
  C   C95       1.0  0.94839  0.98728  0.57101  1.0000
  C   C96       1.0  0.96295  0.93732  0.58315  1.0000
  C   C97       1.0  0.94520  0.88774  0.58928  1.0000
  C   C98       1.0  0.91013  0.79348  0.60038  1.0000
  C   C99       1.0  0.93723  0.78275  0.72446  1.0000
  C   C100      1.0  0.95426  0.82908  0.71944  1.0000
  C   C101      1.0  0.82569  0.52342  0.58459  1.0000
  C   C102      1.0  0.77939  0.48774  0.57632  1.0000
  C   C103      1.0  0.81959  0.43807  0.56034  1.0000
  C   C104      1.0  0.83270  0.38759  0.54718  1.0000
  C   C105      1.0  0.84546  0.56763  0.60232  1.0000
  C   C106      1.0  0.74713  0.49300  0.58018  1.0000
  C   C107      1.0  0.73478  0.54049  0.59677  1.0000
  C   C108      1.0  0.70435  0.54467  0.60199  1.0000
  C   C109      1.0  0.68543  0.50255  0.58529  1.0000
  C   C110      1.0  0.69787  0.45529  0.56725  1.0000
  C   C111      1.0  0.72831  0.45031  0.56634  1.0000
  C   C112      1.0  0.81485  0.34303  0.53989  1.0000
  C   C113      1.0  0.82766  0.29550  0.52933  1.0000
  C   C114      1.0  0.85844  0.29178  0.52238  1.0000
  C   C115      1.0  0.87622  0.33653  0.53042  1.0000
  C   C116      1.0  0.86355  0.38359  0.54269  1.0000
  C   C117      1.0  0.87650  0.56081  0.61146  1.0000
  C   C118      1.0  0.89501  0.60319  0.62420  1.0000
  C   C119      1.0  0.88295  0.65356  0.62571  1.0000
  C   C120      1.0  0.85191  0.65956  0.62125  1.0000
  C   C121      1.0  0.83348  0.61712  0.61004  1.0000
  C   C122      1.0  0.87152  0.24198  0.50958  1.0000
  C   C123      1.0  0.65358  0.50759  0.59194  1.0000
  C   C124      1.0  0.90238  0.69937  0.62725  1.0000
  C   C125      1.0  0.94569  0.08855  0.53944  1.0000
  C   C126      1.0  0.91230  0.18897  0.49672  1.0000
  C   C127      1.0  0.90422  0.13174  0.60979  1.0000
  C   C128      1.0  0.92058  0.08291  0.62938  1.0000
  N   N1        1.0  0.21542  0.48561  0.14816  1.0000
  N   N2        1.0  0.25831  0.43231  0.14790  1.0000
  N   N3        1.0  0.26378  0.52231  0.17022  1.0000
  N   N4        1.0  0.15164  0.72860  0.19785  1.0000
  N   N5        1.0  0.16295  0.21491  0.10643  1.0000
  N   N6        1.0  0.41676  0.50222  0.09110  1.0000
  N   N7        1.0  0.83734  0.48162  0.07015  1.0000
  N   N8        1.0  0.79486  0.53242  0.08773  1.0000
  N   N9        1.0  0.78955  0.44154  0.07106  1.0000
  N   N10       1.0  0.88946  0.75497  0.08798  1.0000
  N   N11       1.0  0.63358  0.47313  0.04027  1.0000
  N   N12       1.0  0.89848  0.24326  0.98492  1.0000
  N   N13       1.0  0.21616  0.48416  0.64703  1.0000
  N   N14       1.0  0.25852  0.42965  0.64595  1.0000
  N   N15       1.0  0.26480  0.52004  0.66493  1.0000
  N   N16       1.0  0.15450  0.72881  0.69281  1.0000
  N   N17       1.0  0.16317  0.21428  0.60139  1.0000
  N   N18       1.0  0.41779  0.49503  0.60591  1.0000
  N   N19       1.0  0.83829  0.47859  0.56870  1.0000
  N   N20       1.0  0.79631  0.53038  0.58660  1.0000
  N   N21       1.0  0.78998  0.44053  0.56431  1.0000
  N   N22       1.0  0.89146  0.74992  0.59779  1.0000
  N   N23       1.0  0.63459  0.47841  0.53587  1.0000
  N   N24       1.0  0.89915  0.23960  0.48807  1.0000
  C  Sn1       1.0  0.57888  0.43664  0.51448  1.0000
  C   C129      1.0  0.59829  0.48149  0.49185  1.0000
  C  Sn2       1.0  0.59041  0.52805  0.52687  1.0000
  C  Sn3       1.0  0.56255  0.52981  0.58586  1.0000
  C   C130      1.0  0.54316  0.48497  0.60849  1.0000
  C  Sn4       1.0  0.55102  0.43839  0.57347  1.0000
  O  Te1       1.0  0.58722  0.39051  0.47869  1.0000
  O  Te2       1.0  0.61018  0.57240  0.50321  1.0000
  O  Te3       1.0  0.55422  0.57599  0.62164  1.0000
  O  Te4       1.0  0.53127  0.39407  0.59713  1.0000
  Mg  Mg1       1.0  0.58875  0.62600  0.56948  1.0000
  Mg  Mg2       1.0  0.55269  0.34042  0.53100  1.0000
  C  Sn5       1.0  0.17323  0.38709  0.16126  1.0000
  C   C131      1.0  0.20430  0.38760  0.17121  1.0000
  C  Sn6       1.0  0.21971  0.35058  0.12263  1.0000
  C  Sn7       1.0  0.20374  0.31229  0.06272  1.0000
  C   C132      1.0  0.17270  0.31180  0.05276  1.0000
  C  Sn8       1.0  0.15726  0.34879  0.10136  1.0000
  O  Te5       1.0  0.15828  0.42447  0.21051  1.0000
  O  Te6       1.0  0.25077  0.35186  0.13376  1.0000
  O  Te7       1.0  0.21872  0.27489  0.01347  1.0000
  O  Te8       1.0  0.12622  0.34754  0.09021  1.0000
  Mg  Mg3       1.0  0.26110  0.29270  0.05169  1.0000
  Mg  Mg4       1.0  0.11587  0.40670  0.17216  1.0000
  C  Sn9       1.0  0.23160  0.66516  0.64698  1.0000
  C   C133      1.0  0.20130  0.67935  0.63268  1.0000
  C  Sn10      1.0  0.18028  0.63724  0.65367  1.0000
  C  Sn11      1.0  0.18973  0.57973  0.68985  1.0000
  C   C134      1.0  0.22002  0.56557  0.70417  1.0000
  C  Sn12      1.0  0.24106  0.60766  0.68316  1.0000
  O  Te9       1.0  0.25223  0.70796  0.62551  1.0000
  O  Te10      1.0  0.15011  0.65246  0.63871  1.0000
  O  Te11      1.0  0.16907  0.53693  0.71131  1.0000
  O  Te12      1.0  0.27121  0.59246  0.69813  1.0000
  Mg  Mg5       1.0  0.13050  0.57888  0.67884  1.0000
  Mg  Mg6       1.0  0.29084  0.66600  0.65813  1.0000
  C  Sn13      1.0  0.10575  0.78122  0.73367  1.0000
  C   C135      1.0  0.13103  0.78012  0.65377  1.0000
  C  Sn14      1.0  0.14759  0.82979  0.58210  1.0000
  C  Sn15      1.0  0.13871  0.88164  0.59055  1.0000
  C   C136      1.0  0.11345  0.88272  0.67044  1.0000
  C  Sn16      1.0  0.09688  0.83307  0.74213  1.0000
  O  Te13      1.0  0.08954  0.73105  0.80447  1.0000
  O  Te14      1.0  0.17277  0.82764  0.50283  1.0000
  O  Te15      1.0  0.14930  0.93183  0.51967  1.0000
  O  Te16      1.0  0.07171  0.83521  0.82138  1.0000
  Mg  Mg7       1.0  0.18758  0.90725  0.42536  1.0000
  Mg  Mg8       1.0  0.05690  0.75562  0.89898  1.0000
  C  Sn17      1.0  0.91081  0.12246  0.16350  1.0000
  C   C137      1.0  0.91493  0.18164  0.05060  1.0000
  C  Sn18      1.0  0.95751  0.05720  0.90797  1.0000
  C  Sn19      1.0  0.97122  0.01313  0.87746  1.0000
  C   C138      1.0  0.96710  0.95399  0.99030  1.0000
  C  Sn20      1.0  0.92452  0.07838  0.13299  1.0000
  O  Te17      1.0  0.89317  0.10747  0.30527  1.0000
  O  Te18      1.0  0.96131  0.11665  0.79695  1.0000
  O  Te19      1.0  0.98888  0.02816  0.73556  1.0000
  O  Te20      1.0  0.92072  0.01897  0.24395  1.0000
  Mg  Mg9       1.0  0.98737  0.11504  0.62138  1.0000
  Mg  Mg10      1.0  0.89465  0.02054  0.41948  1.0000
  C  Sn21      1.0  0.93588  0.79506  0.26555  1.0000
  C   C139      1.0  0.90926  0.79829  0.14800  1.0000
  C  Sn22      1.0  0.92536  0.70895  0.98083  1.0000
  C  Sn23      1.0  0.94344  0.75784  0.93000  1.0000
  C   C140      1.0  0.94503  0.89503  0.04748  1.0000
  C  Sn24      1.0  0.95396  0.84395  0.21472  1.0000
  O  Te21      1.0  0.94437  0.74354  0.43200  1.0000
  O  Te22      1.0  0.89864  0.71114  0.86563  1.0000
  O  Te23      1.0  0.93493  0.80939  0.76339  1.0000
  O  Te24      1.0  0.98067  0.84175  0.32986  1.0000
  Mg  Mg11      1.0  0.89664  0.79104  0.65310  1.0000
  Mg  Mg12      1.0  0.98270  0.76186  0.54236  1.0000
  C  Sn25      1.0  0.10528  0.80929  0.31783  1.0000
  C   C141      1.0  0.11031  0.86850  0.21240  1.0000
  C  Sn26      1.0  0.12851  0.88521  0.07288  1.0000
  C  Sn27      1.0  0.14195  0.84184  0.03791  1.0000
  C   C142      1.0  0.13691  0.78268  0.14329  1.0000
  C  Sn28      1.0  0.11871  0.76592  0.28287  1.0000
  O  Te25      1.0  0.08700  0.79359  0.45661  1.0000
  O  Te26      1.0  0.15825  0.80424  0.96934  1.0000
  O  Te27      1.0  0.18526  0.71716  0.89901  1.0000
  O  Te28      1.0  0.11400  0.70651  0.38634  1.0000
  Mg  Mg13      1.0  0.18492  0.80374  0.79530  1.0000
  Mg  Mg14      1.0  0.08732  0.70695  0.56034  1.0000
  C  Sn29      1.0  0.13630  0.07625  0.77278  1.0000
  C   C143      1.0  0.10930  0.07984  0.65784  1.0000
  C  Sn30      1.0  0.10045  0.13067  0.48970  1.0000
  C  Sn31      1.0  0.11897  0.17891  0.43522  1.0000
  C   C144      1.0  0.14595  0.17530  0.55010  1.0000
  C  Sn32      1.0  0.15482  0.12449  0.71830  1.0000
  O  Te29      1.0  0.14471  0.02501  0.94026  1.0000
  O  Te30      1.0  0.07336  0.13324  0.37716  1.0000
  O  Te31      1.0  0.11054  0.23018  0.26758  1.0000
  O  Te32      1.0  0.18190  0.12190  0.83078  1.0000
  Mg  Mg15      1.0  0.07163  0.21254  0.16190  1.0000
  Mg  Mg16      1.0  0.15864  0.18305  0.04601  1.0000
  C  Sn33      1.0  0.32731  0.40884  0.19234  1.0000
  C   C145      1.0  0.31164  0.45278  0.20900  1.0000
  C  Sn34      1.0  0.32437  0.50603  0.17573  1.0000
  C  Sn35      1.0  0.35336  0.51559  0.12462  1.0000
  C   C146      1.0  0.36900  0.47168  0.10795  1.0000
  C  Sn36      1.0  0.35629  0.41839  0.14123  1.0000
  O  Te33      1.0  0.31414  0.35593  0.22625  1.0000
  O  Te34      1.0  0.30828  0.54930  0.19332  1.0000
  O  Te35      1.0  0.36651  0.56855  0.09071  1.0000
  O  Te36      1.0  0.37236  0.37515  0.12362  1.0000
  Mg  Mg17      1.0  0.33573  0.61402  0.13257  1.0000
  Mg  Mg18      1.0  0.34494  0.31043  0.18424  1.0000
  C  Sn37      1.0  0.22865  0.66744  0.14356  1.0000
  C   C147      1.0  0.19826  0.68003  0.13271  1.0000
  C  Sn38      1.0  0.17787  0.63659  0.15858  1.0000
  C  Sn39      1.0  0.18806  0.57936  0.19621  1.0000
  C   C148      1.0  0.21844  0.56678  0.20708  1.0000
  C  Sn40      1.0  0.23884  0.61020  0.18119  1.0000
  O  Te37      1.0  0.24864  0.71154  0.11724  1.0000
  O  Te38      1.0  0.14760  0.65024  0.14701  1.0000
  O  Te39      1.0  0.16805  0.53524  0.22254  1.0000
  O  Te40      1.0  0.26910  0.59657  0.19278  1.0000
  Mg  Mg19      1.0  0.12903  0.57527  0.19332  1.0000
  Mg  Mg20      1.0  0.28768  0.67150  0.14660  1.0000
  C  Sn41      1.0  0.34236  0.41813  0.58861  1.0000
  C   C149      1.0  0.36427  0.45616  0.59785  1.0000
  C  Sn42      1.0  0.35845  0.49860  0.65598  1.0000
  C  Sn43      1.0  0.33014  0.50312  0.70605  1.0000
  C   C150      1.0  0.30826  0.46510  0.69683  1.0000
  C  Sn44      1.0  0.31405  0.42264  0.63867  1.0000
  O  Te41      1.0  0.34866  0.37602  0.53011  1.0000
  O  Te42      1.0  0.38070  0.53614  0.66403  1.0000
  O  Te43      1.0  0.32385  0.54527  0.76457  1.0000
  O  Te44      1.0  0.29182  0.38511  0.63064  1.0000
  Mg  Mg21      1.0  0.36141  0.58632  0.75252  1.0000
  Mg  Mg22      1.0  0.31109  0.33490  0.54227  1.0000
  C  Sn45      1.0  0.15468  0.09895  0.19960  1.0000
  C   C151      1.0  0.14972  0.15917  0.08059  1.0000
  C  Sn46      1.0  0.14648  0.04206  0.97615  1.0000
  C  Sn47      1.0  0.12268  0.00440  0.99105  1.0000
  C   C152      1.0  0.10262  0.08465  0.11003  1.0000
  C  Sn48      1.0  0.13087  0.06129  0.21450  1.0000
  O  Te45      1.0  0.18311  0.07660  0.30270  1.0000
  O  Te46      1.0  0.14207  0.10241  0.85806  1.0000
  O  Te47      1.0  0.09423  0.02681  0.88781  1.0000
  O  Te48      1.0  0.13529  0.00098  0.33255  1.0000
  Mg  Mg23      1.0  0.09932  0.11198  0.74630  1.0000
  Mg  Mg24      1.0  0.17802  0.99137  0.44445  1.0000
