data_image0
_chemical_formula_structural       H100C172N28SnCSn2CSnTe4Mg2SnCSn2CSnTe4Mg2SnCSn2CSnTe4Mg2SnCSn2CSnTe4Mg2SnCSn2CSnTe4Mg2SnCSn2CSnTe4Mg2SnCSn2CSnTe4Mg2SnCSn2CSnTe4Mg2SnCSn2CSnTe4Mg2SnCSn2CSnTe4Mg2SnCSn2CSnTe4Mg2SnCSn2CSnTe4Mg2SnCSn2CSnTe4Mg2SnCSn2CSnTe4Mg2
_chemical_formula_sum              "H100 C200 N28 Sn56 Te56 Mg28"
_cell_length_a       51.6654
_cell_length_b       25.4348
_cell_length_c       8.02119
_cell_angle_alpha    79.6947
_cell_angle_beta     71.2068
_cell_angle_gamma    90.8038

_symmetry_space_group_name_H-M    'P1'
_space_group_IT_number       1

loop_
  _space_group_symop_operation_xyz
  'x, y, z'

loop_
  _atom_site_type_symbol
  _atom_site_label
  _atom_site_symmetry_multiplicity
  _atom_site_fract_x
  _atom_site_fract_y
  _atom_site_fract_z
  _atom_site_occupancy
  H   H1        1.0  0.07218  0.81812  0.15820  1.0000
  H   H2        1.0  0.09629  0.73683  0.09104  1.0000
  H   H3        1.0  0.23682  0.62406  0.38570  1.0000
  H   H4        1.0  0.21614  0.71209  0.36548  1.0000
  H   H5        1.0  0.14869  0.63983  0.26076  1.0000
  H   H6        1.0  0.16974  0.55166  0.27972  1.0000
  H   H7        1.0  0.16142  0.43430  0.34505  1.0000
  H   H8        1.0  0.13213  0.35290  0.36562  1.0000
  H   H9        1.0  0.17928  0.76517  0.34441  1.0000
  H   H10       1.0  0.35600  0.41809  0.10735  1.0000
  H   H11       1.0  0.12293  0.25884  0.42454  1.0000
  H   H12       1.0  0.10129  0.19520  0.40472  1.0000
  H   H13       1.0  0.07469  0.11150  0.43633  1.0000
  H   H14       1.0  0.47510  0.59134  0.49361  1.0000
  H   H15       1.0  0.46110  0.40044  0.15635  1.0000
  H   H16       1.0  0.48930  0.32922  0.22153  1.0000
  H   H17       1.0  0.59325  0.51395  0.10359  1.0000
  H   H18       1.0  0.56538  0.58527  0.03257  1.0000
  H   H19       1.0  0.57907  0.32105  0.26749  1.0000
  H   H20       1.0  0.61959  0.34681  0.06199  1.0000
  H   H21       1.0  0.66768  0.35489  0.05740  1.0000
  H   H22       1.0  0.65013  0.49026  0.31726  1.0000
  H   H23       1.0  0.60245  0.48113  0.32813  1.0000
  H   H24       1.0  0.40148  0.42850  0.45007  1.0000
  H   H25       1.0  0.44935  0.43278  0.44243  1.0000
  H   H26       1.0  0.49458  0.28295  0.48866  1.0000
  H   H27       1.0  0.55409  0.17000  0.10261  1.0000
  H   H28       1.0  0.56718  0.26651  0.05746  1.0000
  H   H29       1.0  0.52460  0.09341  0.30902  1.0000
  H   H30       1.0  0.49621  0.10065  0.47358  1.0000
  H   H31       1.0  0.55756  0.80593  0.19377  1.0000
  H   H32       1.0  0.53233  0.81851  0.36935  1.0000
  H   H33       1.0  0.12070  0.96886  0.45650  1.0000
  H   H34       1.0  0.05160  0.07486  0.24484  1.0000
  H   H35       1.0  0.00161  0.06890  0.33565  1.0000
  H   H36       1.0  0.00355  0.84143  0.00338  1.0000
  H   H37       1.0  0.05245  0.84689  0.41705  1.0000
  H   H38       1.0  0.93320  0.94603  0.30223  1.0000
  H   H39       1.0  0.78096  0.52920  0.28997  1.0000
  H   H40       1.0  0.73466  0.53821  0.25657  1.0000
  H   H41       1.0  0.73223  0.37527  0.18354  1.0000
  H   H42       1.0  0.77823  0.36578  0.22491  1.0000
  H   H43       1.0  0.87407  0.15008  0.40411  1.0000
  H   H44       1.0  0.69459  0.50107  0.21617  1.0000
  H   H45       1.0  0.92581  0.65754  0.39729  1.0000
  H   H46       1.0  0.98286  0.09830  0.09858  1.0000
  H   H47       1.0  0.95772  0.17845  0.16792  1.0000
  H   H48       1.0  0.89378  0.07908  0.10716  1.0000
  H   H49       1.0  0.91944  0.99899  0.04650  1.0000
  H   H50       1.0  0.15820  0.83339  0.64166  1.0000
  H   H51       1.0  0.13360  0.91448  0.70478  1.0000
  H   H52       1.0  0.23759  0.62426  0.87403  1.0000
  H   H53       1.0  0.21643  0.71194  0.85216  1.0000
  H   H54       1.0  0.14784  0.63634  0.76912  1.0000
  H   H55       1.0  0.16941  0.54869  0.78912  1.0000
  H   H56       1.0  0.18962  0.25263  0.52475  1.0000
  H   H57       1.0  0.21894  0.33468  0.50480  1.0000
  H   H58       1.0  0.17933  0.76397  0.83312  1.0000
  H   H59       1.0  0.35470  0.41669  0.61679  1.0000
  H   H60       1.0  0.12978  0.25649  0.86968  1.0000
  H   H61       1.0  0.13131  0.02142  0.64183  1.0000
  H   H62       1.0  0.15806  0.10670  0.61381  1.0000
  H   H63       1.0  0.47547  0.59352  0.98951  1.0000
  H   H64       1.0  0.45991  0.39828  0.65871  1.0000
  H   H65       1.0  0.48766  0.32646  0.72512  1.0000
  H   H66       1.0  0.59202  0.50986  0.61278  1.0000
  H   H67       1.0  0.56397  0.58160  0.54952  1.0000
  H   H68       1.0  0.57852  0.31675  0.75550  1.0000
  H   H69       1.0  0.61869  0.34243  0.55179  1.0000
  H   H70       1.0  0.66665  0.34883  0.54966  1.0000
  H   H71       1.0  0.64979  0.48375  0.81220  1.0000
  H   H72       1.0  0.60210  0.47570  0.82363  1.0000
  H   H73       1.0  0.43509  0.56735  0.70859  1.0000
  H   H74       1.0  0.38720  0.56482  0.70727  1.0000
  H   H75       1.0  0.48154  0.18630  0.53782  1.0000
  H   H76       1.0  0.52199  0.08880  0.84258  1.0000
  H   H77       1.0  0.49385  0.09862  0.00411  1.0000
  H   H78       1.0  0.55883  0.81373  0.75791  1.0000
  H   H79       1.0  0.53045  0.82218  0.92009  1.0000
  H   H80       1.0  0.12197  0.96875  0.95100  1.0000
  H   H81       1.0  0.05021  0.07527  0.74514  1.0000
  H   H82       1.0  0.00018  0.06909  0.83538  1.0000
  H   H83       1.0  0.00244  0.84045  0.50915  1.0000
  H   H84       1.0  0.05362  0.84756  0.91186  1.0000
  H   H85       1.0  0.93190  0.94533  0.80654  1.0000
  H   H86       1.0  0.81685  0.29338  0.84708  1.0000
  H   H87       1.0  0.83677  0.20452  0.87298  1.0000
  H   H88       1.0  0.90394  0.27536  0.98447  1.0000
  H   H89       1.0  0.88379  0.36440  0.95748  1.0000
  H   H90       1.0  0.88992  0.48141  0.92817  1.0000
  H   H91       1.0  0.91763  0.56268  0.92765  1.0000
  H   H92       1.0  0.86518  0.66316  0.71293  1.0000
  H   H93       1.0  0.83615  0.58124  0.72672  1.0000
  H   H94       1.0  0.87363  0.15090  0.89553  1.0000
  H   H95       1.0  0.69367  0.49528  0.70464  1.0000
  H   H96       1.0  0.92378  0.65844  0.89522  1.0000
  H   H97       1.0  0.98091  0.09715  0.59796  1.0000
  H   H98       1.0  0.95600  0.17761  0.66477  1.0000
  H   H99       1.0  0.89429  0.07816  0.59716  1.0000
  H   H100      1.0  0.92027  0.99852  0.53537  1.0000
  C   C1        1.0  0.09085  0.82149  0.04351  1.0000
  C   C2        1.0  0.20875  0.43802  0.41465  1.0000
  C   C3        1.0  0.24656  0.47722  0.44496  1.0000
  C   C4        1.0  0.21493  0.52916  0.36953  1.0000
  C   C5        1.0  0.20436  0.58234  0.33655  1.0000
  C   C6        1.0  0.19203  0.38957  0.42223  1.0000
  C   C7        1.0  0.21782  0.62816  0.35544  1.0000
  C   C8        1.0  0.20621  0.67714  0.34357  1.0000
  C   C9        1.0  0.18090  0.68144  0.31366  1.0000
  C   C10       1.0  0.16805  0.63596  0.28671  1.0000
  C   C11       1.0  0.17968  0.58717  0.29767  1.0000
  C   C12       1.0  0.16737  0.39438  0.38425  1.0000
  C   C13       1.0  0.15110  0.34885  0.39682  1.0000
  C   C14       1.0  0.15904  0.29729  0.44726  1.0000
  C   C15       1.0  0.18384  0.29265  0.48463  1.0000
  C   C16       1.0  0.20005  0.33800  0.47278  1.0000
  C   C17       1.0  0.16746  0.73142  0.32682  1.0000
  C   C18       1.0  0.34971  0.45908  0.08100  1.0000
  C   C19       1.0  0.14172  0.25029  0.45743  1.0000
  C   C20       1.0  0.10778  0.15767  0.46140  1.0000
  C   C21       1.0  0.09264  0.11028  0.47922  1.0000
  C   C22       1.0  0.47558  0.50850  0.06895  1.0000
  C   C23       1.0  0.49163  0.46597  0.10922  1.0000
  C   C24       1.0  0.51883  0.47847  0.11023  1.0000
  C   C25       1.0  0.52987  0.53316  0.06684  1.0000
  C   C26       1.0  0.51368  0.57487  0.02496  1.0000
  C   C27       1.0  0.48730  0.56131  0.02750  1.0000
  C   C28       1.0  0.48168  0.41082  0.15371  1.0000
  C   C29       1.0  0.49739  0.37071  0.19217  1.0000
  C   C30       1.0  0.52427  0.38160  0.19647  1.0000
  C   C31       1.0  0.53504  0.43637  0.15657  1.0000
  C   C32       1.0  0.56223  0.44880  0.15770  1.0000
  C   C33       1.0  0.57247  0.50381  0.10938  1.0000
  C   C34       1.0  0.55693  0.54390  0.06818  1.0000
  C   C35       1.0  0.54072  0.33995  0.23483  1.0000
  C   C36       1.0  0.56703  0.35346  0.23375  1.0000
  C   C37       1.0  0.57839  0.40635  0.19739  1.0000
  C   C38       1.0  0.60705  0.41394  0.19334  1.0000
  C   C39       1.0  0.53174  0.28237  0.26754  1.0000
  C   C40       1.0  0.62606  0.37788  0.12056  1.0000
  C   C41       1.0  0.65311  0.38245  0.11569  1.0000
  C   C42       1.0  0.66282  0.42374  0.18106  1.0000
  C   C43       1.0  0.64403  0.46010  0.25373  1.0000
  C   C44       1.0  0.61684  0.45485  0.26029  1.0000
  C   C45       1.0  0.50746  0.25855  0.40160  1.0000
  C   C46       1.0  0.50009  0.20394  0.42972  1.0000
  C   C47       1.0  0.51681  0.17110  0.32372  1.0000
  C   C48       1.0  0.54116  0.19437  0.18976  1.0000
  C   C49       1.0  0.54844  0.24891  0.16369  1.0000
  C   C50       1.0  0.08592  0.00997  0.05213  1.0000
  C   C51       1.0  0.05672  0.00549  0.11707  1.0000
  C   C52       1.0  0.04229  0.95987  0.09751  1.0000
  C   C53       1.0  0.05708  0.91779  0.02365  1.0000
  C   C54       1.0  0.08490  0.91983  0.48499  1.0000
  C   C55       1.0  0.09969  0.96627  0.99217  1.0000
  C   C56       1.0  0.04099  0.04353  0.21005  1.0000
  C   C57       1.0  0.01300  0.04011  0.26145  1.0000
  C   C58       1.0  0.99808  0.99822  0.22566  1.0000
  C   C59       1.0  0.01294  0.95613  0.15221  1.0000
  C   C60       1.0  0.99854  0.91036  0.13317  1.0000
  C   C61       1.0  0.01421  0.87257  0.03872  1.0000
  C   C62       1.0  0.04103  0.87576  0.49056  1.0000
  C   C63       1.0  0.96909  0.99585  0.26759  1.0000
  C   C64       1.0  0.95550  0.94882  0.26018  1.0000
  C   C65       1.0  0.96936  0.90523  0.20061  1.0000
  C   C66       1.0  0.84615  0.47817  0.33383  1.0000
  C   C67       1.0  0.80854  0.44074  0.29599  1.0000
  C   C68       1.0  0.83996  0.38747  0.36863  1.0000
  C   C69       1.0  0.78224  0.44682  0.26189  1.0000
  C   C70       1.0  0.77008  0.49586  0.26676  1.0000
  C   C71       1.0  0.74433  0.50055  0.24784  1.0000
  C   C72       1.0  0.73034  0.45688  0.21979  1.0000
  C   C73       1.0  0.74304  0.40831  0.20908  1.0000
  C   C74       1.0  0.76845  0.40325  0.23135  1.0000
  C   C75       1.0  0.88612  0.18398  0.41878  1.0000
  C   C76       1.0  0.70303  0.46184  0.20520  1.0000
  C   C77       1.0  0.91123  0.66464  0.32297  1.0000
  C   C78       1.0  0.95353  0.04241  0.31253  1.0000
  C   C79       1.0  0.96372  0.09394  0.21001  1.0000
  C   C80       1.0  0.94975  0.13880  0.24738  1.0000
  C   C81       1.0  0.92418  0.13358  0.38402  1.0000
  C   C82       1.0  0.91349  0.08234  0.48601  1.0000
  C   C83       1.0  0.92818  0.03764  0.45098  1.0000
  C   C84       1.0  0.10112  0.87251  0.93684  1.0000
  C   C85       1.0  0.10419  0.77588  0.00677  1.0000
  C   C86       1.0  0.12910  0.77973  0.86488  1.0000
  C   C87       1.0  0.13966  0.83035  0.75727  1.0000
  C   C88       1.0  0.12572  0.87588  0.79296  1.0000
  C   C89       1.0  0.20894  0.43721  0.92260  1.0000
  C   C90       1.0  0.24717  0.47687  0.94558  1.0000
  C   C91       1.0  0.21543  0.52829  0.86926  1.0000
  C   C92       1.0  0.20465  0.58114  0.83502  1.0000
  C   C93       1.0  0.21826  0.62764  0.84779  1.0000
  C   C94       1.0  0.20636  0.67630  0.83539  1.0000
  C   C95       1.0  0.18059  0.67950  0.81154  1.0000
  C   C96       1.0  0.16755  0.63327  0.79078  1.0000
  C   C97       1.0  0.17947  0.58482  0.80210  1.0000
  C   C98       1.0  0.16711  0.72944  0.82385  1.0000
  C   C99       1.0  0.34879  0.45775  0.58514  1.0000
  C   C100      1.0  0.14485  0.24885  0.94001  1.0000
  C   C101      1.0  0.10057  0.05996  0.54489  1.0000
  C   C102      1.0  0.12479  0.05947  0.58914  1.0000
  C   C103      1.0  0.13986  0.10696  0.57358  1.0000
  C   C104      1.0  0.13166  0.15708  0.51029  1.0000
  C   C105      1.0  0.47483  0.50611  0.57252  1.0000
  C   C106      1.0  0.49069  0.46321  0.61268  1.0000
  C   C107      1.0  0.51786  0.47512  0.61489  1.0000
  C   C108      1.0  0.52894  0.52966  0.57396  1.0000
  C   C109      1.0  0.51306  0.57165  0.53070  1.0000
  C   C110      1.0  0.48670  0.55875  0.53204  1.0000
  C   C111      1.0  0.48051  0.40822  0.65665  1.0000
  C   C112      1.0  0.49606  0.36776  0.69511  1.0000
  C   C113      1.0  0.52311  0.37804  0.69765  1.0000
  C   C114      1.0  0.53405  0.43267  0.65851  1.0000
  C   C115      1.0  0.56136  0.44478  0.65800  1.0000
  C   C116      1.0  0.57138  0.49981  0.61621  1.0000
  C   C117      1.0  0.55578  0.54019  0.57892  1.0000
  C   C118      1.0  0.53966  0.33607  0.73210  1.0000
  C   C119      1.0  0.56626  0.34928  0.72608  1.0000
  C   C120      1.0  0.57769  0.40203  0.69138  1.0000
  C   C121      1.0  0.44609  0.49986  0.57718  1.0000
  C   C122      1.0  0.60640  0.40906  0.68616  1.0000
  C   C123      1.0  0.62523  0.37283  0.61248  1.0000
  C   C124      1.0  0.65225  0.37654  0.60867  1.0000
  C   C125      1.0  0.66212  0.41739  0.67500  1.0000
  C   C126      1.0  0.64350  0.45389  0.74839  1.0000
  C   C127      1.0  0.61632  0.44938  0.75468  1.0000
  C   C128      1.0  0.42790  0.53736  0.64911  1.0000
  C   C129      1.0  0.40100  0.53588  0.65047  1.0000
  C   C130      1.0  0.39055  0.49550  0.58501  1.0000
  C   C131      1.0  0.40836  0.45738  0.51499  1.0000
  C   C132      1.0  0.43557  0.46002  0.51009  1.0000
  C   C133      1.0  0.08465  0.01026  0.55447  1.0000
  C   C134      1.0  0.05544  0.00569  0.61843  1.0000
  C   C135      1.0  0.04106  0.95987  0.59933  1.0000
  C   C136      1.0  0.05593  0.91775  0.52591  1.0000
  C   C137      1.0  0.08603  0.91966  0.98250  1.0000
  C   C138      1.0  0.09843  0.96645  0.49582  1.0000
  C   C139      1.0  0.03964  0.04379  0.71064  1.0000
  C   C140      1.0  0.01165  0.04019  0.76211  1.0000
  C   C141      1.0  0.99676  0.99797  0.72780  1.0000
  C   C142      1.0  0.01168  0.95592  0.65437  1.0000
  C   C143      1.0  0.99731  0.90997  0.63618  1.0000
  C   C144      1.0  0.01305  0.87204  0.54283  1.0000
  C   C145      1.0  0.04218  0.87610  0.98691  1.0000
  C   C146      1.0  0.96773  0.99538  0.77147  1.0000
  C   C147      1.0  0.95420  0.94830  0.76405  1.0000
  C   C148      1.0  0.96812  0.90487  0.70343  1.0000
  C   C149      1.0  0.84475  0.47850  0.83176  1.0000
  C   C150      1.0  0.80739  0.44033  0.79365  1.0000
  C   C151      1.0  0.83916  0.38775  0.86382  1.0000
  C   C152      1.0  0.84944  0.33437  0.89684  1.0000
  C   C153      1.0  0.86125  0.52651  0.82926  1.0000
  C   C154      1.0  0.83573  0.28879  0.87860  1.0000
  C   C155      1.0  0.84692  0.23942  0.89368  1.0000
  C   C156      1.0  0.87201  0.23463  0.92645  1.0000
  C   C157      1.0  0.88494  0.27983  0.95422  1.0000
  C   C158      1.0  0.87381  0.32903  0.93905  1.0000
  C   C159      1.0  0.88461  0.52135  0.88244  1.0000
  C   C160      1.0  0.90015  0.56677  0.87979  1.0000
  C   C161      1.0  0.89327  0.61826  0.81776  1.0000
  C   C162      1.0  0.87009  0.62316  0.76176  1.0000
  C   C163      1.0  0.85410  0.57799  0.76939  1.0000
  C   C164      1.0  0.88526  0.18439  0.91591  1.0000
  C   C165      1.0  0.70218  0.45600  0.69757  1.0000
  C   C166      1.0  0.90954  0.66547  0.81839  1.0000
  C   C167      1.0  0.95216  0.04197  0.81735  1.0000
  C   C168      1.0  0.96207  0.09323  0.71160  1.0000
  C   C169      1.0  0.94824  0.13832  0.74788  1.0000
  C   C170      1.0  0.92304  0.13360  0.88771  1.0000
  C   C171      1.0  0.91265  0.08270  0.99352  1.0000
  C   C172      1.0  0.92720  0.03773  0.95896  1.0000
  N   N1        1.0  0.19942  0.48604  0.37025  1.0000
  N   N2        1.0  0.23200  0.43159  0.45527  1.0000
  N   N3        1.0  0.23884  0.52696  0.40334  1.0000
  N   N4        1.0  0.14230  0.73460  0.33327  1.0000
  N   N5        1.0  0.14847  0.20137  0.01503  1.0000
  N   N6        1.0  0.36457  0.50075  0.07796  1.0000
  N   N7        1.0  0.50854  0.11636  0.34618  1.0000
  N   N8        1.0  0.54811  0.79515  0.32915  1.0000
  N   N9        1.0  0.85542  0.42985  0.37374  1.0000
  N   N10       1.0  0.82299  0.48568  0.29273  1.0000
  N   N11       1.0  0.81631  0.39064  0.33157  1.0000
  N   N12       1.0  0.90798  0.71174  0.24287  1.0000
  N   N13       1.0  0.68981  0.42188  0.18112  1.0000
  N   N14       1.0  0.91135  0.18090  0.41070  1.0000
  N   N15       1.0  0.19965  0.48495  0.87532  1.0000
  N   N16       1.0  0.23220  0.43111  0.96326  1.0000
  N   N17       1.0  0.23967  0.52648  0.89864  1.0000
  N   N18       1.0  0.14159  0.73198  0.83842  1.0000
  N   N19       1.0  0.14829  0.20213  0.50209  1.0000
  N   N20       1.0  0.36413  0.49942  0.57593  1.0000
  N   N21       1.0  0.50602  0.11227  0.87476  1.0000
  N   N22       1.0  0.54657  0.79914  0.88641  1.0000
  N   N23       1.0  0.85437  0.43038  0.86973  1.0000
  N   N24       1.0  0.82131  0.48552  0.79380  1.0000
  N   N25       1.0  0.81563  0.39053  0.82565  1.0000
  N   N26       1.0  0.90668  0.71249  0.73594  1.0000
  N   N27       1.0  0.68906  0.41542  0.67609  1.0000
  N   N28       1.0  0.91020  0.18096  0.91424  1.0000
  C  Sn1       1.0  0.86309  0.58846  0.21353  1.0000
  C   C173      1.0  0.86608  0.53488  0.27791  1.0000
  C  Sn2       1.0  0.88261  0.52187  0.38475  1.0000
  C  Sn3       1.0  0.89643  0.56327  0.42826  1.0000
  C   C174      1.0  0.89343  0.61681  0.36392  1.0000
  C  Sn4       1.0  0.87691  0.62986  0.25703  1.0000
  O  Te1       1.0  0.84646  0.60053  0.10693  1.0000
  O  Te2       1.0  0.88528  0.46801  0.44749  1.0000
  O  Te3       1.0  0.91307  0.55115  0.53494  1.0000
  O  Te4       1.0  0.87423  0.68368  0.19433  1.0000
  Mg  Mg1       1.0  0.91023  0.47183  0.58830  1.0000
  Mg  Mg2       1.0  0.84928  0.67991  0.05360  1.0000
  C  Sn5       1.0  0.12611  0.86854  0.24591  1.0000
  C   C175      1.0  0.10131  0.87068  0.38158  1.0000
  C  Sn6       1.0  0.09120  0.82767  0.52590  1.0000
  C  Sn7       1.0  0.10619  0.78155  0.53489  1.0000
  C   C176      1.0  0.13097  0.77943  0.39930  1.0000
  C  Sn8       1.0  0.14109  0.82243  0.25489  1.0000
  O  Te5       1.0  0.13583  0.91201  0.10288  1.0000
  O  Te6       1.0  0.06636  0.83073  0.65990  1.0000
  O  Te7       1.0  0.09645  0.73807  0.67807  1.0000
  O  Te8       1.0  0.16592  0.81938  0.12098  1.0000
  Mg  Mg3       1.0  0.06162  0.76125  0.82772  1.0000
  Mg  Mg4       1.0  0.12027  0.83100  0.95315  1.0000
  C  Sn9       1.0  0.40938  0.55100  0.10679  1.0000
  C   C177      1.0  0.39597  0.51437  0.04568  1.0000
  C  Sn10      1.0  0.40728  0.46624  0.01158  1.0000
  C  Sn11      1.0  0.43251  0.45447  0.03924  1.0000
  C   C178      1.0  0.44590  0.49108  0.10033  1.0000
  C  Sn12      1.0  0.43462  0.53923  0.13444  1.0000
  O  Te9       1.0  0.39771  0.59887  0.14002  1.0000
  O  Te10      1.0  0.34307  0.37240  0.95051  1.0000
  O  Te11      1.0  0.44418  0.40655  0.00594  1.0000
  O  Te12      1.0  0.44838  0.57520  0.19551  1.0000
  Mg  Mg5       1.0  0.36722  0.31250  0.92429  1.0000
  Mg  Mg6       1.0  0.42426  0.63510  0.22186  1.0000
  C  Sn13      1.0  0.50685  0.24263  0.95819  1.0000
  C   C179      1.0  0.52979  0.27098  0.82478  1.0000
  C  Sn14      1.0  0.54476  0.24798  0.68090  1.0000
  C  Sn15      1.0  0.53661  0.19556  0.67006  1.0000
  C   C180      1.0  0.51368  0.16724  0.80339  1.0000
  C  Sn16      1.0  0.49870  0.19021  0.94735  1.0000
  O  Te13      1.0  0.54260  0.32426  0.10082  1.0000
  O  Te14      1.0  0.56763  0.27711  0.54919  1.0000
  O  Te15      1.0  0.55130  0.17180  0.52728  1.0000
  O  Te16      1.0  0.52626  0.21897  0.07899  1.0000
  Mg  Mg7       1.0  0.58095  0.22751  0.38103  1.0000
  Mg  Mg8       1.0  0.51291  0.26854  0.24714  1.0000
  C  Sn17      1.0  0.14990  0.20793  0.01576  1.0000
  C   C181      1.0  0.17402  0.21439  0.05578  1.0000
  C  Sn18      1.0  0.18969  0.17090  0.07618  1.0000
  C  Sn19      1.0  0.18108  0.11990  0.05605  1.0000
  C   C182      1.0  0.15699  0.11346  0.01602  1.0000
  C  Sn20      1.0  0.09089  0.09907  0.99563  1.0000
  O  Te17      1.0  0.08415  0.19411  0.99594  1.0000
  O  Te18      1.0  0.21371  0.17834  0.11625  1.0000
  O  Te19      1.0  0.19645  0.07585  0.07591  1.0000
  O  Te20      1.0  0.06688  0.09166  0.95555  1.0000
  Mg  Mg9       1.0  0.22764  0.10612  0.13030  1.0000
  Mg  Mg10      1.0  0.05294  0.16385  0.94138  1.0000
  C  Sn21      1.0  0.28322  0.41721  0.09415  1.0000
  C   C183      1.0  0.27180  0.46392  0.03928  1.0000
  C  Sn22      1.0  0.23745  0.45465  0.97134  1.0000
  C  Sn23      1.0  0.26552  0.45658  0.95784  1.0000
  C   C184      1.0  0.32734  0.46774  0.01265  1.0000
  C  Sn24      1.0  0.31129  0.41914  0.08065  1.0000
  O  Te21      1.0  0.26678  0.36909  0.16165  1.0000
  O  Te22      1.0  0.22557  0.50082  0.91741  1.0000
  O  Te23      1.0  0.28195  0.50476  0.89028  1.0000
  O  Te24      1.0  0.32315  0.37299  0.13453  1.0000
  Mg  Mg11      1.0  0.25639  0.55680  0.83420  1.0000
  Mg  Mg12      1.0  0.29236  0.31699  0.21767  1.0000
  C  Sn25      1.0  0.84781  0.25102  0.34193  1.0000
  C   C185      1.0  0.87184  0.23875  0.38006  1.0000
  C  Sn26      1.0  0.88440  0.27432  0.44983  1.0000
  C  Sn27      1.0  0.87269  0.32315  0.48228  1.0000
  C   C186      1.0  0.84868  0.33540  0.44419  1.0000
  C  Sn28      1.0  0.83611  0.29986  0.37438  1.0000
  O  Te25      1.0  0.83560  0.21487  0.27225  1.0000
  O  Te26      1.0  0.90841  0.26118  0.48683  1.0000
  O  Te27      1.0  0.88492  0.35931  0.55202  1.0000
  O  Te28      1.0  0.81211  0.31297  0.33742  1.0000
  Mg  Mg13      1.0  0.91740  0.32343  0.58062  1.0000
  Mg  Mg14      1.0  0.80309  0.25074  0.24372  1.0000
  C  Sn29      1.0  0.55086  0.70038  0.77772  1.0000
  C   C187      1.0  0.53723  0.73953  0.86728  1.0000
  C  Sn30      1.0  0.56714  0.78266  0.03420  1.0000
  C  Sn31      1.0  0.56010  0.72766  0.11333  1.0000
  C   C188      1.0  0.57373  0.68854  0.02380  1.0000
  C  Sn32      1.0  0.54382  0.64537  0.85685  1.0000
  O  Te29      1.0  0.57130  0.71601  0.61096  1.0000
  O  Te30      1.0  0.55380  0.82253  0.12113  1.0000
  O  Te31      1.0  0.53964  0.71205  0.28021  1.0000
  O  Te32      1.0  0.55716  0.60554  0.76995  1.0000
  Mg  Mg15      1.0  0.52738  0.78115  0.34606  1.0000
  Mg  Mg16      1.0  0.58359  0.64687  0.54507  1.0000
  C  Sn33      1.0  0.51638  0.70837  0.57960  1.0000
  C   C189      1.0  0.53939  0.73422  0.44032  1.0000
  C  Sn34      1.0  0.55405  0.70751  0.30570  1.0000
  C  Sn35      1.0  0.54554  0.65386  0.31031  1.0000
  C   C190      1.0  0.52254  0.62805  0.44949  1.0000
  C  Sn36      1.0  0.50786  0.65472  0.58420  1.0000
  O  Te33      1.0  0.50202  0.73584  0.71276  1.0000
  O  Te34      1.0  0.57700  0.73418  0.16787  1.0000
  O  Te35      1.0  0.55991  0.62640  0.17699  1.0000
  O  Te36      1.0  0.48493  0.62809  0.72195  1.0000
  Mg  Mg17      1.0  0.58981  0.67981  0.01715  1.0000
  Mg  Mg18      1.0  0.47209  0.68242  0.87268  1.0000
  C  Sn37      1.0  0.18318  0.30043  0.05758  1.0000
  C   C191      1.0  0.11013  0.23959  0.99941  1.0000
  C  Sn38      1.0  0.10459  0.28349  0.88739  1.0000
  C  Sn39      1.0  0.12206  0.33136  0.83224  1.0000
  C   C192      1.0  0.14468  0.33432  0.89037  1.0000
  C  Sn40      1.0  0.20064  0.34830  0.00243  1.0000
  O  Te37      1.0  0.18832  0.25605  0.16952  1.0000
  O  Te38      1.0  0.08183  0.27955  0.83103  1.0000
  O  Te39      1.0  0.11690  0.37575  0.72021  1.0000
  O  Te40      1.0  0.22339  0.35222  0.05874  1.0000
  Mg  Mg19      1.0  0.08339  0.35082  0.67913  1.0000
  Mg  Mg20      1.0  0.22186  0.28096  0.21057  1.0000
  C  Sn41      1.0  0.92038  0.84737  0.22048  1.0000
  C   C193      1.0  0.94497  0.85465  0.25402  1.0000
  C  Sn42      1.0  0.96128  0.81184  0.26820  1.0000
  C  Sn43      1.0  0.95283  0.76069  0.24833  1.0000
  C   C194      1.0  0.92825  0.75342  0.21478  1.0000
  C  Sn44      1.0  0.91193  0.79621  0.20061  1.0000
  O  Te41      1.0  0.90440  0.89073  0.20681  1.0000
  O  Te42      1.0  0.98578  0.82010  0.30184  1.0000
  O  Te43      1.0  0.96883  0.71731  0.26203  1.0000
  O  Te44      1.0  0.88745  0.78798  0.16695  1.0000
  Mg  Mg21      1.0  0.00049  0.74858  0.30895  1.0000
  Mg  Mg22      1.0  0.87272  0.85947  0.15973  1.0000
  C  Sn45      1.0  0.92052  0.81937  0.61696  1.0000
  C   C195      1.0  0.92564  0.76704  0.67994  1.0000
  C  Sn46      1.0  0.94322  0.75768  0.78109  1.0000
  C  Sn47      1.0  0.95593  0.80155  0.82020  1.0000
  C   C196      1.0  0.95079  0.85385  0.75727  1.0000
  C  Sn48      1.0  0.93322  0.86324  0.65608  1.0000
  O  Te45      1.0  0.90287  0.82779  0.51610  1.0000
  O  Te46      1.0  0.94804  0.70500  0.84253  1.0000
  O  Te47      1.0  0.97358  0.79309  0.92115  1.0000
  O  Te48      1.0  0.92840  0.91588  0.59468  1.0000
  Mg  Mg23      1.0  0.97368  0.71406  0.97490  1.0000
  Mg  Mg24      1.0  0.90276  0.90687  0.46238  1.0000
  C  Sn49      1.0  0.75171  0.50462  0.69544  1.0000
  C   C197      1.0  0.73560  0.46429  0.66936  1.0000
  C  Sn50      1.0  0.74144  0.41074  0.70291  1.0000
  C  Sn51      1.0  0.76383  0.39720  0.76389  1.0000
  C   C198      1.0  0.77992  0.43751  0.78997  1.0000
  C  Sn52      1.0  0.77410  0.49108  0.75643  1.0000
  O  Te49      1.0  0.74550  0.55789  0.66107  1.0000
  O  Te50      1.0  0.72505  0.37113  0.67580  1.0000
  O  Te51      1.0  0.77003  0.34388  0.79826  1.0000
  O  Te52      1.0  0.79047  0.53067  0.78353  1.0000
  Mg  Mg25      1.0  0.74170  0.30429  0.74128  1.0000
  Mg  Mg26      1.0  0.77382  0.59752  0.71818  1.0000
  C  Sn53      1.0  0.30509  0.51934  0.54426  1.0000
  C   C199      1.0  0.31679  0.47226  0.59230  1.0000
  C  Sn54      1.0  0.30722  0.42315  0.57055  1.0000
  C  Sn55      1.0  0.28551  0.42105  0.49918  1.0000
  C   C200      1.0  0.27382  0.46811  0.45115  1.0000
  C  Sn56      1.0  0.28338  0.51723  0.47289  1.0000
  O  Te53      1.0  0.31498  0.56799  0.56716  1.0000
  O  Te54      1.0  0.31924  0.37663  0.61960  1.0000
  O  Te55      1.0  0.27562  0.37235  0.47631  1.0000
  O  Te56      1.0  0.27137  0.56374  0.42385  1.0000
  Mg  Mg27      1.0  0.29865  0.31997  0.56284  1.0000
  Mg  Mg28      1.0  0.29196  0.62042  0.48046  1.0000
