data_image0
_chemical_formula_structural       H124C208N28SnCSn2CSnTe4Mg2SnCSn2CSnTe4Mg2SnCSn2CSnTe4Mg2SnCSn2CSnTe4Mg2SnCSn2CSnTe4Mg2SnCSn2CSnTe4Mg2SnCSn2CSnTe4Mg2SnCSn2CSnTe4Mg2
_chemical_formula_sum              "H124 C224 N28 Sn32 Te32 Mg16"
_cell_length_a       52.2192
_cell_length_b       25.6141
_cell_length_c       7.99264
_cell_angle_alpha    70.086
_cell_angle_beta     99.6229
_cell_angle_gamma    90.4614

_symmetry_space_group_name_H-M    'P1'
_space_group_IT_number       1

loop_
  _space_group_symop_operation_xyz
  'x, y, z'

loop_
  _atom_site_type_symbol
  _atom_site_label
  _atom_site_symmetry_multiplicity
  _atom_site_fract_x
  _atom_site_fract_y
  _atom_site_fract_z
  _atom_site_occupancy
  H   H1        1.0  0.07744  0.83312  0.29270  1.0000
  H   H2        1.0  0.10528  0.75145  0.31919  1.0000
  H   H3        1.0  0.15260  0.86101  0.47424  1.0000
  H   H4        1.0  0.12507  0.94199  0.44505  1.0000
  H   H5        1.0  0.27205  0.38321  0.43373  1.0000
  H   H6        1.0  0.32044  0.36758  0.48215  1.0000
  H   H7        1.0  0.27967  0.53690  0.00801  1.0000
  H   H8        1.0  0.22536  0.64669  0.46872  1.0000
  H   H9        1.0  0.20466  0.73624  0.45263  1.0000
  H   H10       1.0  0.16402  0.56167  0.24294  1.0000
  H   H11       1.0  0.15489  0.45975  0.36662  1.0000
  H   H12       1.0  0.12870  0.38162  0.32340  1.0000
  H   H13       1.0  0.20234  0.33653  0.31470  1.0000
  H   H14       1.0  0.16899  0.78450  0.98249  1.0000
  H   H15       1.0  0.36239  0.40172  0.41527  1.0000
  H   H16       1.0  0.12835  0.27789  0.38252  1.0000
  H   H17       1.0  0.46920  0.33611  0.18857  1.0000
  H   H18       1.0  0.46712  0.52324  0.18898  1.0000
  H   H19       1.0  0.49702  0.59879  0.13061  1.0000
  H   H20       1.0  0.58539  0.43500  0.47989  1.0000
  H   H21       1.0  0.55541  0.35964  0.53803  1.0000
  H   H22       1.0  0.58292  0.62283  0.47482  1.0000
  H   H23       1.0  0.61190  0.44887  0.24173  1.0000
  H   H24       1.0  0.65956  0.43960  0.24675  1.0000
  H   H25       1.0  0.49984  0.66163  0.33104  1.0000
  H   H26       1.0  0.48696  0.75704  0.30381  1.0000
  H   H27       1.0  0.55997  0.76471  0.12305  1.0000
  H   H28       1.0  0.57188  0.66835  0.15389  1.0000
  H   H29       1.0  0.49571  0.83118  0.42584  1.0000
  H   H30       1.0  0.52318  0.83285  0.56341  1.0000
  H   H31       1.0  0.52898  0.12558  0.10250  1.0000
  H   H32       1.0  0.55678  0.12733  0.23673  1.0000
  H   H33       1.0  0.11540  0.99176  0.11169  1.0000
  H   H34       1.0  0.05015  0.10764  0.18364  1.0000
  H   H35       1.0  0.00320  0.10426  0.17881  1.0000
  H   H36       1.0  0.00369  0.86460  0.50996  1.0000
  H   H37       1.0  0.05053  0.86861  0.51194  1.0000
  H   H38       1.0  0.93835  0.97919  0.08040  1.0000
  H   H39       1.0  0.78066  0.58475  0.25132  1.0000
  H   H40       1.0  0.73214  0.59698  0.20339  1.0000
  H   H41       1.0  0.77451  0.43045  0.20260  1.0000
  H   H42       1.0  0.82956  0.32594  0.23337  1.0000
  H   H43       1.0  0.85027  0.23619  0.25067  1.0000
  H   H44       1.0  0.88997  0.40845  0.45895  1.0000
  H   H45       1.0  0.89880  0.51381  0.32868  1.0000
  H   H46       1.0  0.92486  0.59216  0.37112  1.0000
  H   H47       1.0  0.85118  0.63628  0.38447  1.0000
  H   H48       1.0  0.88583  0.18593  0.21501  1.0000
  H   H49       1.0  0.69063  0.55738  0.27057  1.0000
  H   H50       1.0  0.92492  0.69584  0.31037  1.0000
  H   H51       1.0  0.97588  0.13889  0.40156  1.0000
  H   H52       1.0  0.94815  0.22032  0.37845  1.0000
  H   H53       1.0  0.90177  0.11118  0.22333  1.0000
  H   H54       1.0  0.92910  0.03065  0.24830  1.0000
  H   H55       1.0  0.16884  0.50912  0.06656  1.0000
  H   H56       1.0  0.23358  0.39338  0.16655  1.0000
  H   H57       1.0  0.24710  0.55788  0.17856  1.0000
  H   H58       1.0  0.88517  0.46275  0.12654  1.0000
  H   H59       1.0  0.81970  0.57613  0.03018  1.0000
  H   H60       1.0  0.80733  0.40988  0.03118  1.0000
  H   H61       1.0  0.07748  0.83590  0.79638  1.0000
  H   H62       1.0  0.10522  0.75376  0.82419  1.0000
  H   H63       1.0  0.15351  0.85996  0.97926  1.0000
  H   H64       1.0  0.12578  0.94039  0.94979  1.0000
  H   H65       1.0  0.27290  0.38942  0.93431  1.0000
  H   H66       1.0  0.32123  0.37336  0.98103  1.0000
  H   H67       1.0  0.27992  0.53759  0.48576  1.0000
  H   H68       1.0  0.22588  0.64334  0.97577  1.0000
  H   H69       1.0  0.20526  0.73357  0.95603  1.0000
  H   H70       1.0  0.16473  0.56326  0.74628  1.0000
  H   H71       1.0  0.15455  0.45830  0.86009  1.0000
  H   H72       1.0  0.12813  0.38047  0.81712  1.0000
  H   H73       1.0  0.20383  0.33812  0.81434  1.0000
  H   H74       1.0  0.16909  0.78638  0.48799  1.0000
  H   H75       1.0  0.36292  0.40587  0.90740  1.0000
  H   H76       1.0  0.12689  0.27695  0.87986  1.0000
  H   H77       1.0  0.47025  0.33835  0.69301  1.0000
  H   H78       1.0  0.46810  0.52561  0.69149  1.0000
  H   H79       1.0  0.49814  0.60085  0.63443  1.0000
  H   H80       1.0  0.58513  0.43165  0.98992  1.0000
  H   H81       1.0  0.55500  0.35664  0.04363  1.0000
  H   H82       1.0  0.58216  0.62002  0.97621  1.0000
  H   H83       1.0  0.65385  0.59052  0.78844  1.0000
  H   H84       1.0  0.60697  0.59996  0.78423  1.0000
  H   H85       1.0  0.55325  0.29836  0.84134  1.0000
  H   H86       1.0  0.56582  0.20279  0.86789  1.0000
  H   H87       1.0  0.49332  0.19533  0.53229  1.0000
  H   H88       1.0  0.48115  0.29119  0.50395  1.0000
  H   H89       1.0  0.49871  0.65987  0.83006  1.0000
  H   H90       1.0  0.48647  0.75572  0.80061  1.0000
  H   H91       1.0  0.55975  0.76626  0.63361  1.0000
  H   H92       1.0  0.57222  0.67036  0.66284  1.0000
  H   H93       1.0  0.49603  0.83047  0.92225  1.0000
  H   H94       1.0  0.52408  0.83202  0.05413  1.0000
  H   H95       1.0  0.52921  0.12713  0.60943  1.0000
  H   H96       1.0  0.55690  0.12885  0.74496  1.0000
  H   H97       1.0  0.11531  0.99393  0.61083  1.0000
  H   H98       1.0  0.04990  0.11090  0.67996  1.0000
  H   H99       1.0  0.00316  0.10675  0.67934  1.0000
  H   H100      1.0  0.00378  0.86165  0.01255  1.0000
  H   H101      1.0  0.05054  0.86566  0.01385  1.0000
  H   H102      1.0  0.93847  0.97984  0.58670  1.0000
  H   H103      1.0  0.78118  0.58468  0.77613  1.0000
  H   H104      1.0  0.73276  0.59914  0.73007  1.0000
  H   H105      1.0  0.77553  0.43679  0.70494  1.0000
  H   H106      1.0  0.82787  0.32786  0.72583  1.0000
  H   H107      1.0  0.84811  0.23732  0.74526  1.0000
  H   H108      1.0  0.89034  0.40898  0.95647  1.0000
  H   H109      1.0  0.90022  0.51238  0.82545  1.0000
  H   H110      1.0  0.92726  0.58927  0.86891  1.0000
  H   H111      1.0  0.85043  0.63474  0.87500  1.0000
  H   H112      1.0  0.88435  0.18562  0.71608  1.0000
  H   H113      1.0  0.69157  0.56449  0.79103  1.0000
  H   H114      1.0  0.92843  0.69256  0.81549  1.0000
  H   H115      1.0  0.97601  0.13713  0.89250  1.0000
  H   H116      1.0  0.94844  0.21932  0.86911  1.0000
  H   H117      1.0  0.89999  0.11096  0.71692  1.0000
  H   H118      1.0  0.92801  0.03084  0.74583  1.0000
  H   H119      1.0  0.16924  0.51038  0.57161  1.0000
  H   H120      1.0  0.23434  0.39622  0.66471  1.0000
  H   H121      1.0  0.24737  0.56168  0.66881  1.0000
  H   H122      1.0  0.88511  0.46222  0.62900  1.0000
  H   H123      1.0  0.82045  0.57861  0.52504  1.0000
  H   H124      1.0  0.80679  0.41337  0.52121  1.0000
  C   C1        1.0  0.09878  0.89314  0.11280  1.0000
  C   C2        1.0  0.09356  0.83901  0.21896  1.0000
  C   C3        1.0  0.10920  0.79319  0.23626  1.0000
  C   C4        1.0  0.13081  0.79910  0.14833  1.0000
  C   C5        1.0  0.13692  0.85344  0.04888  1.0000
  C   C6        1.0  0.12121  0.89910  0.03230  1.0000
  C   C7        1.0  0.18970  0.49912  0.09941  1.0000
  C   C8        1.0  0.19908  0.44612  0.11600  1.0000
  C   C9        1.0  0.22606  0.43386  0.15822  1.0000
  C   C10       1.0  0.24350  0.47413  0.17786  1.0000
  C   C11       1.0  0.23364  0.52703  0.15837  1.0000
  C   C12       1.0  0.20674  0.53982  0.12256  1.0000
  C   C13       1.0  0.19650  0.59452  0.11112  1.0000
  C   C14       1.0  0.18138  0.40365  0.08783  1.0000
  C   C15       1.0  0.27181  0.46146  0.21480  1.0000
  C   C16       1.0  0.28370  0.41281  0.34872  1.0000
  C   C17       1.0  0.31057  0.40414  0.37560  1.0000
  C   C18       1.0  0.32508  0.44320  0.26383  1.0000
  C   C19       1.0  0.28822  0.49862  0.11391  1.0000
  C   C20       1.0  0.20843  0.64410  0.03294  1.0000
  C   C21       1.0  0.19691  0.69429  0.02121  1.0000
  C   C22       1.0  0.17390  0.69441  0.09069  1.0000
  C   C23       1.0  0.17358  0.59937  0.17746  1.0000
  C   C24       1.0  0.15999  0.41710  0.45609  1.0000
  C   C25       1.0  0.14538  0.37365  0.43222  1.0000
  C   C26       1.0  0.15166  0.31768  0.04405  1.0000
  C   C27       1.0  0.18625  0.34752  0.20046  1.0000
  C   C28       1.0  0.16169  0.74745  0.07593  1.0000
  C   C29       1.0  0.35320  0.43211  0.28487  1.0000
  C   C30       1.0  0.13687  0.27106  0.01802  1.0000
  C   C31       1.0  0.47372  0.42205  0.15563  1.0000
  C   C32       1.0  0.49150  0.46534  0.13238  1.0000
  C   C33       1.0  0.51706  0.45564  0.10239  1.0000
  C   C34       1.0  0.52512  0.40185  0.10605  1.0000
  C   C35       1.0  0.50791  0.35762  0.14715  1.0000
  C   C36       1.0  0.48266  0.36945  0.16615  1.0000
  C   C37       1.0  0.48531  0.51776  0.14649  1.0000
  C   C38       1.0  0.50200  0.56003  0.11352  1.0000
  C   C39       1.0  0.52654  0.55387  0.06374  1.0000
  C   C40       1.0  0.53461  0.50001  0.06805  1.0000
  C   C41       1.0  0.56027  0.49018  0.04005  1.0000
  C   C42       1.0  0.56717  0.44064  0.52200  1.0000
  C   C43       1.0  0.54985  0.39552  0.05914  1.0000
  C   C44       1.0  0.54359  0.59828  0.01978  1.0000
  C   C45       1.0  0.56961  0.58921  0.49983  1.0000
  C   C46       1.0  0.57861  0.53659  0.51108  1.0000
  C   C47       1.0  0.53600  0.65587  0.99894  1.0000
  C   C48       1.0  0.62098  0.47933  0.14026  1.0000
  C   C49       1.0  0.64759  0.47404  0.14469  1.0000
  C   C50       1.0  0.51285  0.68405  0.40037  1.0000
  C   C51       1.0  0.50568  0.73812  0.38349  1.0000
  C   C52       1.0  0.52231  0.76836  0.46874  1.0000
  C   C53       1.0  0.54657  0.74182  0.05797  1.0000
  C   C54       1.0  0.55320  0.68754  0.07502  1.0000
  C   C55       1.0  0.08090  0.03656  0.10912  1.0000
  C   C56       1.0  0.05384  0.03362  0.11480  1.0000
  C   C57       1.0  0.04062  0.98624  0.09599  1.0000
  C   C58       1.0  0.05485  0.94080  0.08190  1.0000
  C   C59       1.0  0.08244  0.94181  0.09758  1.0000
  C   C60       1.0  0.09444  0.99026  0.10534  1.0000
  C   C61       1.0  0.03957  0.07494  0.14953  1.0000
  C   C62       1.0  0.01334  0.07310  0.14621  1.0000
  C   C63       1.0  0.99894  0.02968  0.10761  1.0000
  C   C64       1.0  0.01311  0.98416  0.09350  1.0000
  C   C65       1.0  0.99983  0.93670  0.07596  1.0000
  C   C66       1.0  0.01420  0.89503  0.04341  1.0000
  C   C67       1.0  0.04043  0.89708  0.04537  1.0000
  C   C68       1.0  0.97140  0.02894  0.09225  1.0000
  C   C69       1.0  0.95929  0.98058  0.08546  1.0000
  C   C70       1.0  0.97274  0.93413  0.08188  1.0000
  C   C71       1.0  0.86425  0.47180  0.09591  1.0000
  C   C72       1.0  0.85445  0.52468  0.07693  1.0000
  C   C73       1.0  0.82742  0.53573  0.03931  1.0000
  C   C74       1.0  0.81027  0.49431  0.02635  1.0000
  C   C75       1.0  0.82054  0.44161  0.04697  1.0000
  C   C76       1.0  0.84753  0.42999  0.07880  1.0000
  C   C77       1.0  0.85819  0.37549  0.09154  1.0000
  C   C78       1.0  0.87188  0.56796  0.10108  1.0000
  C   C79       1.0  0.78190  0.50592  0.99328  1.0000
  C   C80       1.0  0.76952  0.55570  0.34215  1.0000
  C   C81       1.0  0.74253  0.56238  0.31512  1.0000
  C   C82       1.0  0.72861  0.52361  0.43257  1.0000
  C   C83       1.0  0.76573  0.46823  0.09516  1.0000
  C   C84       1.0  0.84673  0.32558  0.17295  1.0000
  C   C85       1.0  0.85834  0.27564  0.18362  1.0000
  C   C86       1.0  0.88105  0.27599  0.11057  1.0000
  C   C87       1.0  0.88099  0.37110  0.02316  1.0000
  C   C88       1.0  0.89387  0.55631  0.23742  1.0000
  C   C89       1.0  0.90836  0.59988  0.26117  1.0000
  C   C90       1.0  0.90105  0.65450  0.14418  1.0000
  C   C91       1.0  0.86667  0.62396  0.98820  1.0000
  C   C92       1.0  0.89315  0.22316  0.12257  1.0000
  C   C93       1.0  0.70019  0.53131  0.40677  1.0000
  C   C94       1.0  0.91550  0.70138  0.17118  1.0000
  C   C95       1.0  0.95530  0.07775  0.07834  1.0000
  C   C96       1.0  0.95994  0.13289  0.47687  1.0000
  C   C97       1.0  0.94428  0.17851  0.46113  1.0000
  C   C98       1.0  0.92376  0.17180  0.04716  1.0000
  C   C99       1.0  0.91791  0.11758  0.14950  1.0000
  C   C100      1.0  0.93338  0.07188  0.16369  1.0000
  C   C101      1.0  0.09853  0.89524  0.61271  1.0000
  C   C102      1.0  0.09342  0.84132  0.72112  1.0000
  C   C103      1.0  0.10898  0.79531  0.73888  1.0000
  C   C104      1.0  0.13034  0.80083  0.64864  1.0000
  C   C105      1.0  0.13626  0.85497  0.54607  1.0000
  C   C106      1.0  0.12069  0.90084  0.52962  1.0000
  C   C107      1.0  0.19014  0.50107  0.60051  1.0000
  C   C108      1.0  0.19971  0.44823  0.61691  1.0000
  C   C109      1.0  0.22672  0.43670  0.65556  1.0000
  C   C110      1.0  0.24404  0.47759  0.67089  1.0000
  C   C111      1.0  0.23401  0.53037  0.65137  1.0000
  C   C112      1.0  0.20705  0.54242  0.61960  1.0000
  C   C113      1.0  0.19661  0.59693  0.60891  1.0000
  C   C114      1.0  0.18219  0.40524  0.59092  1.0000
  C   C115      1.0  0.27236  0.46511  0.70504  1.0000
  C   C116      1.0  0.28440  0.41773  0.84432  1.0000
  C   C117      1.0  0.31123  0.40876  0.87025  1.0000
  C   C118      1.0  0.32558  0.44622  0.75258  1.0000
  C   C119      1.0  0.28858  0.50058  0.59706  1.0000
  C   C120      1.0  0.20814  0.64689  0.52872  1.0000
  C   C121      1.0  0.19654  0.69679  0.51892  1.0000
  C   C122      1.0  0.17380  0.69635  0.59197  1.0000
  C   C123      1.0  0.17394  0.60123  0.67877  1.0000
  C   C124      1.0  0.15940  0.41572  0.95106  1.0000
  C   C125      1.0  0.14465  0.37245  0.92706  1.0000
  C   C126      1.0  0.15271  0.31885  0.54792  1.0000
  C   C127      1.0  0.18746  0.34906  0.70194  1.0000
  C   C128      1.0  0.16150  0.74917  0.57874  1.0000
  C   C129      1.0  0.35372  0.43517  0.77500  1.0000
  C   C130      1.0  0.13802  0.27210  0.52134  1.0000
  C   C131      1.0  0.47462  0.42449  0.65669  1.0000
  C   C132      1.0  0.49240  0.46781  0.63340  1.0000
  C   C133      1.0  0.51791  0.45821  0.60230  1.0000
  C   C134      1.0  0.52590  0.40453  0.60478  1.0000
  C   C135      1.0  0.50878  0.36021  0.64785  1.0000
  C   C136      1.0  0.48362  0.37185  0.66837  1.0000
  C   C137      1.0  0.48625  0.52010  0.64846  1.0000
  C   C138      1.0  0.50303  0.56219  0.61649  1.0000
  C   C139      1.0  0.52749  0.55618  0.56553  1.0000
  C   C140      1.0  0.53547  0.50256  0.56756  1.0000
  C   C141      1.0  0.56096  0.49307  0.53590  1.0000
  C   C142      1.0  0.56669  0.43754  0.02866  1.0000
  C   C143      1.0  0.55043  0.39845  0.55473  1.0000
  C   C144      1.0  0.54451  0.60063  0.52191  1.0000
  C   C145      1.0  0.56883  0.58647  0.00104  1.0000
  C   C146      1.0  0.57796  0.53359  0.01609  1.0000
  C   C147      1.0  0.51640  0.30276  0.66731  1.0000
  C   C148      1.0  0.60574  0.52509  0.01168  1.0000
  C   C149      1.0  0.53680  0.65798  0.50277  1.0000
  C   C150      1.0  0.66012  0.51360  0.01911  1.0000
  C   C151      1.0  0.64497  0.55943  0.88951  1.0000
  C   C152      1.0  0.61846  0.56495  0.88746  1.0000
  C   C153      1.0  0.54023  0.27630  0.77073  1.0000
  C   C154      1.0  0.54720  0.22211  0.78757  1.0000
  C   C155      1.0  0.53052  0.19214  0.70166  1.0000
  C   C156      1.0  0.50633  0.21750  0.60272  1.0000
  C   C157      1.0  0.49956  0.27162  0.58674  1.0000
  C   C158      1.0  0.51201  0.68217  0.89809  1.0000
  C   C159      1.0  0.50516  0.73654  0.88008  1.0000
  C   C160      1.0  0.52214  0.76684  0.96282  1.0000
  C   C161      1.0  0.54669  0.74353  0.56574  1.0000
  C   C162      1.0  0.55363  0.68949  0.58185  1.0000
  C   C163      1.0  0.08088  0.03888  0.60921  1.0000
  C   C164      1.0  0.05381  0.03609  0.61525  1.0000
  C   C165      1.0  0.04058  0.98856  0.59779  1.0000
  C   C166      1.0  0.05478  0.94317  0.58302  1.0000
  C   C167      1.0  0.08233  0.94409  0.59793  1.0000
  C   C168      1.0  0.09437  0.99249  0.60538  1.0000
  C   C169      1.0  0.03945  0.07764  0.64847  1.0000
  C   C170      1.0  0.01325  0.07541  0.64728  1.0000
  C   C171      1.0  0.99886  0.03157  0.61126  1.0000
  C   C172      1.0  0.01310  0.98624  0.59643  1.0000
  C   C173      1.0  0.99992  0.93871  0.57855  1.0000
  C   C174      1.0  0.01420  0.89749  0.54336  1.0000
  C   C175      1.0  0.04040  0.89963  0.54522  1.0000
  C   C176      1.0  0.97130  0.03026  0.59729  1.0000
  C   C177      1.0  0.95936  0.98166  0.59062  1.0000
  C   C178      1.0  0.97290  0.93552  0.58590  1.0000
  C   C179      1.0  0.86426  0.47225  0.59676  1.0000
  C   C180      1.0  0.85493  0.52555  0.57765  1.0000
  C   C181      1.0  0.82794  0.53791  0.53532  1.0000
  C   C182      1.0  0.81049  0.49740  0.51834  1.0000
  C   C183      1.0  0.82032  0.44426  0.54002  1.0000
  C   C184      1.0  0.84720  0.43125  0.57663  1.0000
  C   C185      1.0  0.85740  0.37622  0.59068  1.0000
  C   C186      1.0  0.87271  0.56800  0.60501  1.0000
  C   C187      1.0  0.78212  0.50932  0.48287  1.0000
  C   C188      1.0  0.76970  0.55453  0.86084  1.0000
  C   C189      1.0  0.74281  0.56237  0.83454  1.0000
  C   C190      1.0  0.72846  0.52213  0.94364  1.0000
  C   C191      1.0  0.76634  0.47285  0.59201  1.0000
  C   C192      1.0  0.84535  0.32682  0.66916  1.0000
  C   C193      1.0  0.85668  0.27642  0.68096  1.0000
  C   C194      1.0  0.87967  0.27592  0.61172  1.0000
  C   C195      1.0  0.88031  0.37095  0.52482  1.0000
  C   C196      1.0  0.89515  0.55529  0.73816  1.0000
  C   C197      1.0  0.91020  0.59811  0.76261  1.0000
  C   C198      1.0  0.90288  0.65330  0.65062  1.0000
  C   C199      1.0  0.86762  0.62450  0.49640  1.0000
  C   C200      1.0  0.89176  0.22296  0.62469  1.0000
  C   C201      1.0  0.70018  0.53163  0.91781  1.0000
  C   C202      1.0  0.91776  0.69964  0.67823  1.0000
  C   C203      1.0  0.95490  0.07866  0.58318  1.0000
  C   C204      1.0  0.96030  0.13171  0.96973  1.0000
  C   C205      1.0  0.94485  0.17762  0.95433  1.0000
  C   C206      1.0  0.92274  0.17215  0.54999  1.0000
  C   C207      1.0  0.91665  0.11766  0.64799  1.0000
  C   C208      1.0  0.93248  0.07227  0.66392  1.0000
  N   N1        1.0  0.31385  0.49016  0.13357  1.0000
  N   N2        1.0  0.16253  0.64681  0.17060  1.0000
  N   N3        1.0  0.17210  0.30569  0.18179  1.0000
  N   N4        1.0  0.14361  0.74923  0.16633  1.0000
  N   N5        1.0  0.13654  0.22558  0.15186  1.0000
  N   N6        1.0  0.36563  0.45631  0.15506  1.0000
  N   N7        1.0  0.51527  0.82288  0.45338  1.0000
  N   N8        1.0  0.53722  0.13549  0.21200  1.0000
  N   N9        1.0  0.74000  0.47551  0.07411  1.0000
  N   N10       1.0  0.89218  0.32383  0.02969  1.0000
  N   N11       1.0  0.88062  0.66612  0.00648  1.0000
  N   N12       1.0  0.91619  0.74658  0.03720  1.0000
  N   N13       1.0  0.68778  0.50862  0.53775  1.0000
  N   N14       1.0  0.91111  0.22166  0.03089  1.0000
  N   N15       1.0  0.31419  0.49175  0.61624  1.0000
  N   N16       1.0  0.16277  0.64841  0.67326  1.0000
  N   N17       1.0  0.17338  0.30703  0.68400  1.0000
  N   N18       1.0  0.14314  0.75085  0.66712  1.0000
  N   N19       1.0  0.13735  0.22678  0.65508  1.0000
  N   N20       1.0  0.36621  0.45842  0.64476  1.0000
  N   N21       1.0  0.51554  0.82176  0.94599  1.0000
  N   N22       1.0  0.53735  0.13734  0.71851  1.0000
  N   N23       1.0  0.74058  0.47938  0.57131  1.0000
  N   N24       1.0  0.89122  0.32331  0.53240  1.0000
  N   N25       1.0  0.88196  0.66596  0.51620  1.0000
  N   N26       1.0  0.91734  0.74604  0.54680  1.0000
  N   N27       1.0  0.68700  0.50370  0.03882  1.0000
  N   N28       1.0  0.90991  0.22171  0.53421  1.0000
  C  Sn1       1.0  0.54344  0.22510  0.33412  1.0000
  C   C209      1.0  0.52983  0.19036  0.25244  1.0000
  C  Sn2       1.0  0.50896  0.21192  0.11033  1.0000
  C  Sn3       1.0  0.50155  0.26941  0.04848  1.0000
  C   C210      1.0  0.51515  0.30411  0.13012  1.0000
  C  Sn4       1.0  0.53602  0.28258  0.27227  1.0000
  O  Te1       1.0  0.56424  0.20264  0.47598  1.0000
  O  Te2       1.0  0.49565  0.17637  0.03085  1.0000
  O  Te3       1.0  0.50589  0.18597  0.90651  1.0000
  O  Te4       1.0  0.54934  0.31810  0.35172  1.0000
  Mg  Mg1       1.0  0.49382  0.12076  0.84181  1.0000
  Mg  Mg2       1.0  0.57635  0.26790  0.54069  1.0000
  C  Sn5       1.0  0.95527  0.79379  0.73977  1.0000
  C   C211      1.0  0.93216  0.79129  0.62658  1.0000
  C  Sn6       1.0  0.92261  0.83712  0.47348  1.0000
  C  Sn7       1.0  0.93646  0.88649  0.43259  1.0000
  C   C212      1.0  0.95956  0.88897  0.54572  1.0000
  C  Sn8       1.0  0.96913  0.84315  0.69888  1.0000
  O  Te5       1.0  0.96446  0.74746  0.89210  1.0000
  O  Te6       1.0  0.89945  0.83363  0.36238  1.0000
  O  Te7       1.0  0.92725  0.93283  0.28011  1.0000
  O  Te8       1.0  0.99227  0.84663  0.80991  1.0000
  Mg  Mg3       1.0  0.89483  0.90778  0.17028  1.0000
  Mg  Mg4       1.0  0.97175  0.87837  0.00199  1.0000
  C  Sn9       1.0  0.64137  0.46622  0.61364  1.0000
  C   C213      1.0  0.65679  0.50297  0.50507  1.0000
  C  Sn10      1.0  0.64728  0.55710  0.40045  1.0000
  C  Sn11      1.0  0.62181  0.57490  0.40451  1.0000
  C   C214      1.0  0.60640  0.53817  0.51305  1.0000
  C  Sn12      1.0  0.61590  0.48402  0.61770  1.0000
  O  Te9       1.0  0.65128  0.41230  0.71712  1.0000
  O  Te10      1.0  0.66306  0.59308  0.29293  1.0000
  O  Te11      1.0  0.61190  0.62888  0.30090  1.0000
  O  Te12      1.0  0.60013  0.44806  0.72519  1.0000
  Mg  Mg5       1.0  0.64084  0.66249  0.17610  1.0000
  Mg  Mg6       1.0  0.62234  0.37865  0.84214  1.0000
  C  Sn13      1.0  0.97007  0.81725  0.16016  1.0000
  C   C215      1.0  0.96316  0.87326  0.06131  1.0000
  C  Sn14      1.0  0.96297  0.78374  0.96794  1.0000
  C  Sn15      1.0  0.94412  0.74328  0.97357  1.0000
  C   C216      1.0  0.92586  0.79319  0.07240  1.0000
  C  Sn16      1.0  0.95121  0.77680  0.16579  1.0000
  O  Te13      1.0  0.99553  0.80185  0.25249  1.0000
  O  Te14      1.0  0.95653  0.83997  0.86998  1.0000
  O  Te15      1.0  0.91864  0.75874  0.88113  1.0000
  O  Te16      1.0  0.95766  0.72061  0.26372  1.0000
  Mg  Mg7       1.0  0.91930  0.84038  0.76662  1.0000
  Mg  Mg8       1.0  0.99488  0.72015  0.36721  1.0000
  C  Sn17      1.0  0.43360  0.37227  0.99645  1.0000
  C   C217      1.0  0.39350  0.44355  0.11481  1.0000
  C  Sn18      1.0  0.40553  0.40314  0.27555  1.0000
  C  Sn19      1.0  0.43306  0.39720  0.31896  1.0000
  C   C218      1.0  0.44798  0.43179  0.20066  1.0000
  C  Sn20      1.0  0.43597  0.47221  0.03986  1.0000
  O  Te17      1.0  0.42117  0.41239  0.83650  1.0000
  O  Te18      1.0  0.39018  0.36903  0.39171  1.0000
  O  Te19      1.0  0.44549  0.35704  0.47906  1.0000
  O  Te20      1.0  0.47647  0.40044  0.92376  1.0000
  Mg  Mg9       1.0  0.41618  0.32053  0.59360  1.0000
  Mg  Mg10      1.0  0.45049  0.44897  0.72189  1.0000
  C  Sn21      1.0  0.42792  0.49326  0.56441  1.0000
  C   C219      1.0  0.44523  0.44893  0.67501  1.0000
  C  Sn22      1.0  0.43591  0.39850  0.77361  1.0000
  C  Sn23      1.0  0.40872  0.39223  0.76133  1.0000
  C   C220      1.0  0.39143  0.43653  0.65076  1.0000
  C  Sn24      1.0  0.40074  0.48698  0.55213  1.0000
  O  Te21      1.0  0.43768  0.54330  0.46704  1.0000
  O  Te22      1.0  0.45359  0.35479  0.88331  1.0000
  O  Te23      1.0  0.39898  0.34213  0.85883  1.0000
  O  Te24      1.0  0.38307  0.53067  0.44246  1.0000
  Mg  Mg11      1.0  0.43082  0.29474  0.98963  1.0000
  Mg  Mg12      1.0  0.40582  0.59073  0.33602  1.0000
  C  Sn25      1.0  0.11603  0.04552  0.95596  1.0000
  C   C221      1.0  0.09746  0.09571  0.06091  1.0000
  C  Sn26      1.0  0.11604  0.08186  0.21881  1.0000
  C  Sn27      1.0  0.12827  0.12457  0.27304  1.0000
  C   C222      1.0  0.12167  0.18022  0.16815  1.0000
  C  Sn28      1.0  0.10310  0.19410  0.01019  1.0000
  O  Te25      1.0  0.09740  0.05840  0.79862  1.0000
  O  Te26      1.0  0.12232  0.02589  0.32147  1.0000
  O  Te27      1.0  0.14692  0.11164  0.43052  1.0000
  O  Te28      1.0  0.12198  0.14416  0.90758  1.0000
  Mg  Mg13      1.0  0.14888  0.02934  0.52501  1.0000
  Mg  Mg14      1.0  0.09542  0.14076  0.70408  1.0000
  C  Sn29      1.0  0.09158  0.15336  0.45623  1.0000
  C   C223      1.0  0.09778  0.09760  0.56209  1.0000
  C  Sn30      1.0  0.11605  0.08348  0.72158  1.0000
  C  Sn31      1.0  0.12838  0.12598  0.77650  1.0000
  C   C224      1.0  0.12218  0.18170  0.67069  1.0000
  C  Sn32      1.0  0.10391  0.19586  0.51115  1.0000
  O  Te29      1.0  0.07325  0.16651  0.29730  1.0000
  O  Te30      1.0  0.12193  0.02745  0.82513  1.0000
  O  Te31      1.0  0.14672  0.11278  0.93557  1.0000
  O  Te32      1.0  0.09802  0.25185  0.40765  1.0000
  Mg  Mg15      1.0  0.12302  0.13636  0.03077  1.0000
  Mg  Mg16      1.0  0.07176  0.24886  0.20204  1.0000
