data_image0
_chemical_formula_structural       H92C160N28SnCSn2CSnTe4Mg2SnCSn2CSnTe4Mg2SnCSn2CSnTe4Mg2SnCSn2CSnTe4Mg2SnCSn2CSnTe4Mg2SnCSn2CSnTe4Mg2SnCSn2CSnTe4Mg2SnCSn2CSnTe4Mg2SnCSn2CSnTe4Mg2SnCSn2CSnTe4Mg2SnCSn2CSnTe4Mg2SnCSn2CSnTe4Mg2SnCSn2CSnTe4Mg2SnCSn2CSnTe4Mg2SnCSn2CSnTe4Mg2SnCSn2CSnTe4Mg2
_chemical_formula_sum              "H92 C192 N28 Sn64 Te64 Mg32"
_cell_length_a       52.2192
_cell_length_b       25.6141
_cell_length_c       7.99264
_cell_angle_alpha    70.086
_cell_angle_beta     99.6229
_cell_angle_gamma    90.4614

_symmetry_space_group_name_H-M    'P1'
_space_group_IT_number       1

loop_
  _space_group_symop_operation_xyz
  'x, y, z'

loop_
  _atom_site_type_symbol
  _atom_site_label
  _atom_site_symmetry_multiplicity
  _atom_site_fract_x
  _atom_site_fract_y
  _atom_site_fract_z
  _atom_site_occupancy
  H   H1        1.0  0.27205  0.38321  0.43373  1.0000
  H   H2        1.0  0.32044  0.36758  0.48215  1.0000
  H   H3        1.0  0.27967  0.53690  0.00801  1.0000
  H   H4        1.0  0.22536  0.64669  0.46872  1.0000
  H   H5        1.0  0.20466  0.73624  0.45263  1.0000
  H   H6        1.0  0.16402  0.56167  0.24294  1.0000
  H   H7        1.0  0.15489  0.45975  0.36662  1.0000
  H   H8        1.0  0.12870  0.38162  0.32340  1.0000
  H   H9        1.0  0.20234  0.33653  0.31470  1.0000
  H   H10       1.0  0.16899  0.78450  0.98249  1.0000
  H   H11       1.0  0.36239  0.40172  0.41527  1.0000
  H   H12       1.0  0.12835  0.27789  0.38252  1.0000
  H   H13       1.0  0.46920  0.33611  0.18857  1.0000
  H   H14       1.0  0.46712  0.52324  0.18898  1.0000
  H   H15       1.0  0.49702  0.59879  0.13061  1.0000
  H   H16       1.0  0.58539  0.43500  0.47989  1.0000
  H   H17       1.0  0.55541  0.35964  0.53803  1.0000
  H   H18       1.0  0.58292  0.62283  0.47482  1.0000
  H   H19       1.0  0.49571  0.83118  0.42584  1.0000
  H   H20       1.0  0.52318  0.83285  0.56341  1.0000
  H   H21       1.0  0.52898  0.12558  0.10250  1.0000
  H   H22       1.0  0.55678  0.12733  0.23673  1.0000
  H   H23       1.0  0.11540  0.99176  0.11169  1.0000
  H   H24       1.0  0.05015  0.10764  0.18364  1.0000
  H   H25       1.0  0.00320  0.10426  0.17881  1.0000
  H   H26       1.0  0.00369  0.86460  0.50996  1.0000
  H   H27       1.0  0.05053  0.86861  0.51194  1.0000
  H   H28       1.0  0.93835  0.97919  0.08040  1.0000
  H   H29       1.0  0.78066  0.58475  0.25132  1.0000
  H   H30       1.0  0.73214  0.59698  0.20339  1.0000
  H   H31       1.0  0.77451  0.43045  0.20260  1.0000
  H   H32       1.0  0.82956  0.32594  0.23337  1.0000
  H   H33       1.0  0.85027  0.23619  0.25067  1.0000
  H   H34       1.0  0.88997  0.40845  0.45895  1.0000
  H   H35       1.0  0.89880  0.51381  0.32868  1.0000
  H   H36       1.0  0.92486  0.59216  0.37112  1.0000
  H   H37       1.0  0.85118  0.63628  0.38447  1.0000
  H   H38       1.0  0.88583  0.18593  0.21501  1.0000
  H   H39       1.0  0.69063  0.55738  0.27057  1.0000
  H   H40       1.0  0.92492  0.69584  0.31037  1.0000
  H   H41       1.0  0.16884  0.50912  0.06656  1.0000
  H   H42       1.0  0.23358  0.39338  0.16655  1.0000
  H   H43       1.0  0.24710  0.55788  0.17856  1.0000
  H   H44       1.0  0.88517  0.46275  0.12654  1.0000
  H   H45       1.0  0.81970  0.57613  0.03018  1.0000
  H   H46       1.0  0.80733  0.40988  0.03118  1.0000
  H   H47       1.0  0.27290  0.38942  0.93431  1.0000
  H   H48       1.0  0.32123  0.37336  0.98103  1.0000
  H   H49       1.0  0.27992  0.53759  0.48576  1.0000
  H   H50       1.0  0.22588  0.64334  0.97577  1.0000
  H   H51       1.0  0.20526  0.73357  0.95603  1.0000
  H   H52       1.0  0.16473  0.56326  0.74628  1.0000
  H   H53       1.0  0.15455  0.45830  0.86009  1.0000
  H   H54       1.0  0.12813  0.38047  0.81712  1.0000
  H   H55       1.0  0.20383  0.33812  0.81434  1.0000
  H   H56       1.0  0.16909  0.78638  0.48799  1.0000
  H   H57       1.0  0.36292  0.40587  0.90740  1.0000
  H   H58       1.0  0.12689  0.27695  0.87986  1.0000
  H   H59       1.0  0.47025  0.33835  0.69301  1.0000
  H   H60       1.0  0.46810  0.52561  0.69149  1.0000
  H   H61       1.0  0.49814  0.60085  0.63443  1.0000
  H   H62       1.0  0.58513  0.43165  0.98992  1.0000
  H   H63       1.0  0.55500  0.35664  0.04363  1.0000
  H   H64       1.0  0.58216  0.62002  0.97621  1.0000
  H   H65       1.0  0.49603  0.83047  0.92225  1.0000
  H   H66       1.0  0.52408  0.83202  0.05413  1.0000
  H   H67       1.0  0.52921  0.12713  0.60943  1.0000
  H   H68       1.0  0.55690  0.12885  0.74496  1.0000
  H   H69       1.0  0.11531  0.99393  0.61083  1.0000
  H   H70       1.0  0.04990  0.11090  0.67996  1.0000
  H   H71       1.0  0.00316  0.10675  0.67934  1.0000
  H   H72       1.0  0.00378  0.86165  0.01255  1.0000
  H   H73       1.0  0.05054  0.86566  0.01385  1.0000
  H   H74       1.0  0.93847  0.97984  0.58670  1.0000
  H   H75       1.0  0.78118  0.58468  0.77613  1.0000
  H   H76       1.0  0.73276  0.59914  0.73007  1.0000
  H   H77       1.0  0.77553  0.43679  0.70494  1.0000
  H   H78       1.0  0.82787  0.32786  0.72583  1.0000
  H   H79       1.0  0.84811  0.23732  0.74526  1.0000
  H   H80       1.0  0.89034  0.40898  0.95647  1.0000
  H   H81       1.0  0.90022  0.51238  0.82545  1.0000
  H   H82       1.0  0.92726  0.58927  0.86891  1.0000
  H   H83       1.0  0.85043  0.63474  0.87500  1.0000
  H   H84       1.0  0.88435  0.18562  0.71608  1.0000
  H   H85       1.0  0.69157  0.56449  0.79103  1.0000
  H   H86       1.0  0.92843  0.69256  0.81549  1.0000
  H   H87       1.0  0.16924  0.51038  0.57161  1.0000
  H   H88       1.0  0.23434  0.39622  0.66471  1.0000
  H   H89       1.0  0.24737  0.56168  0.66881  1.0000
  H   H90       1.0  0.88511  0.46222  0.62900  1.0000
  H   H91       1.0  0.82045  0.57861  0.52504  1.0000
  H   H92       1.0  0.80679  0.41337  0.52121  1.0000
  C   C1        1.0  0.18970  0.49912  0.09941  1.0000
  C   C2        1.0  0.19908  0.44612  0.11600  1.0000
  C   C3        1.0  0.22606  0.43386  0.15822  1.0000
  C   C4        1.0  0.24350  0.47413  0.17786  1.0000
  C   C5        1.0  0.23364  0.52703  0.15837  1.0000
  C   C6        1.0  0.20674  0.53982  0.12256  1.0000
  C   C7        1.0  0.19650  0.59452  0.11112  1.0000
  C   C8        1.0  0.18138  0.40365  0.08783  1.0000
  C   C9        1.0  0.27181  0.46146  0.21480  1.0000
  C   C10       1.0  0.28370  0.41281  0.34872  1.0000
  C   C11       1.0  0.31057  0.40414  0.37560  1.0000
  C   C12       1.0  0.32508  0.44320  0.26383  1.0000
  C   C13       1.0  0.28822  0.49862  0.11391  1.0000
  C   C14       1.0  0.20843  0.64410  0.03294  1.0000
  C   C15       1.0  0.19691  0.69429  0.02121  1.0000
  C   C16       1.0  0.17390  0.69441  0.09069  1.0000
  C   C17       1.0  0.17358  0.59937  0.17746  1.0000
  C   C18       1.0  0.15999  0.41710  0.45609  1.0000
  C   C19       1.0  0.14538  0.37365  0.43222  1.0000
  C   C20       1.0  0.15166  0.31768  0.04405  1.0000
  C   C21       1.0  0.18625  0.34752  0.20046  1.0000
  C   C22       1.0  0.16169  0.74745  0.07593  1.0000
  C   C23       1.0  0.35320  0.43211  0.28487  1.0000
  C   C24       1.0  0.13687  0.27106  0.01802  1.0000
  C   C25       1.0  0.47372  0.42205  0.15563  1.0000
  C   C26       1.0  0.49150  0.46534  0.13238  1.0000
  C   C27       1.0  0.51706  0.45564  0.10239  1.0000
  C   C28       1.0  0.52512  0.40185  0.10605  1.0000
  C   C29       1.0  0.50791  0.35762  0.14715  1.0000
  C   C30       1.0  0.48266  0.36945  0.16615  1.0000
  C   C31       1.0  0.48531  0.51776  0.14649  1.0000
  C   C32       1.0  0.50200  0.56003  0.11352  1.0000
  C   C33       1.0  0.52654  0.55387  0.06374  1.0000
  C   C34       1.0  0.53461  0.50001  0.06805  1.0000
  C   C35       1.0  0.56027  0.49018  0.04005  1.0000
  C   C36       1.0  0.56717  0.44064  0.52200  1.0000
  C   C37       1.0  0.54985  0.39552  0.05914  1.0000
  C   C38       1.0  0.54359  0.59828  0.01978  1.0000
  C   C39       1.0  0.56961  0.58921  0.49983  1.0000
  C   C40       1.0  0.57861  0.53659  0.51108  1.0000
  C   C41       1.0  0.08090  0.03656  0.10912  1.0000
  C   C42       1.0  0.05384  0.03362  0.11480  1.0000
  C   C43       1.0  0.04062  0.98624  0.09599  1.0000
  C   C44       1.0  0.05485  0.94080  0.08190  1.0000
  C   C45       1.0  0.08244  0.94181  0.09758  1.0000
  C   C46       1.0  0.09444  0.99026  0.10534  1.0000
  C   C47       1.0  0.03957  0.07494  0.14953  1.0000
  C   C48       1.0  0.01334  0.07310  0.14621  1.0000
  C   C49       1.0  0.99894  0.02968  0.10761  1.0000
  C   C50       1.0  0.01311  0.98416  0.09350  1.0000
  C   C51       1.0  0.99983  0.93670  0.07596  1.0000
  C   C52       1.0  0.01420  0.89503  0.04341  1.0000
  C   C53       1.0  0.04043  0.89708  0.04537  1.0000
  C   C54       1.0  0.97140  0.02894  0.09225  1.0000
  C   C55       1.0  0.95929  0.98058  0.08546  1.0000
  C   C56       1.0  0.97274  0.93413  0.08188  1.0000
  C   C57       1.0  0.86425  0.47180  0.09591  1.0000
  C   C58       1.0  0.85445  0.52468  0.07693  1.0000
  C   C59       1.0  0.82742  0.53573  0.03931  1.0000
  C   C60       1.0  0.81027  0.49431  0.02635  1.0000
  C   C61       1.0  0.82054  0.44161  0.04697  1.0000
  C   C62       1.0  0.84753  0.42999  0.07880  1.0000
  C   C63       1.0  0.85819  0.37549  0.09154  1.0000
  C   C64       1.0  0.87188  0.56796  0.10108  1.0000
  C   C65       1.0  0.78190  0.50592  0.99328  1.0000
  C   C66       1.0  0.76952  0.55570  0.34215  1.0000
  C   C67       1.0  0.74253  0.56238  0.31512  1.0000
  C   C68       1.0  0.72861  0.52361  0.43257  1.0000
  C   C69       1.0  0.76573  0.46823  0.09516  1.0000
  C   C70       1.0  0.84673  0.32558  0.17295  1.0000
  C   C71       1.0  0.85834  0.27564  0.18362  1.0000
  C   C72       1.0  0.88105  0.27599  0.11057  1.0000
  C   C73       1.0  0.88099  0.37110  0.02316  1.0000
  C   C74       1.0  0.89387  0.55631  0.23742  1.0000
  C   C75       1.0  0.90836  0.59988  0.26117  1.0000
  C   C76       1.0  0.90105  0.65450  0.14418  1.0000
  C   C77       1.0  0.86667  0.62396  0.98820  1.0000
  C   C78       1.0  0.89315  0.22316  0.12257  1.0000
  C   C79       1.0  0.70019  0.53131  0.40677  1.0000
  C   C80       1.0  0.91550  0.70138  0.17118  1.0000
  C   C81       1.0  0.19014  0.50107  0.60051  1.0000
  C   C82       1.0  0.19971  0.44823  0.61691  1.0000
  C   C83       1.0  0.22672  0.43670  0.65556  1.0000
  C   C84       1.0  0.24404  0.47759  0.67089  1.0000
  C   C85       1.0  0.23401  0.53037  0.65137  1.0000
  C   C86       1.0  0.20705  0.54242  0.61960  1.0000
  C   C87       1.0  0.19661  0.59693  0.60891  1.0000
  C   C88       1.0  0.18219  0.40524  0.59092  1.0000
  C   C89       1.0  0.27236  0.46511  0.70504  1.0000
  C   C90       1.0  0.28440  0.41773  0.84432  1.0000
  C   C91       1.0  0.31123  0.40876  0.87025  1.0000
  C   C92       1.0  0.32558  0.44622  0.75258  1.0000
  C   C93       1.0  0.28858  0.50058  0.59706  1.0000
  C   C94       1.0  0.20814  0.64689  0.52872  1.0000
  C   C95       1.0  0.19654  0.69679  0.51892  1.0000
  C   C96       1.0  0.17380  0.69635  0.59197  1.0000
  C   C97       1.0  0.17394  0.60123  0.67877  1.0000
  C   C98       1.0  0.15940  0.41572  0.95106  1.0000
  C   C99       1.0  0.14465  0.37245  0.92706  1.0000
  C   C100      1.0  0.15271  0.31885  0.54792  1.0000
  C   C101      1.0  0.18746  0.34906  0.70194  1.0000
  C   C102      1.0  0.16150  0.74917  0.57874  1.0000
  C   C103      1.0  0.35372  0.43517  0.77500  1.0000
  C   C104      1.0  0.13802  0.27210  0.52134  1.0000
  C   C105      1.0  0.47462  0.42449  0.65669  1.0000
  C   C106      1.0  0.49240  0.46781  0.63340  1.0000
  C   C107      1.0  0.51791  0.45821  0.60230  1.0000
  C   C108      1.0  0.52590  0.40453  0.60478  1.0000
  C   C109      1.0  0.50878  0.36021  0.64785  1.0000
  C   C110      1.0  0.48362  0.37185  0.66837  1.0000
  C   C111      1.0  0.48625  0.52010  0.64846  1.0000
  C   C112      1.0  0.50303  0.56219  0.61649  1.0000
  C   C113      1.0  0.52749  0.55618  0.56553  1.0000
  C   C114      1.0  0.53547  0.50256  0.56756  1.0000
  C   C115      1.0  0.56096  0.49307  0.53590  1.0000
  C   C116      1.0  0.56669  0.43754  0.02866  1.0000
  C   C117      1.0  0.55043  0.39845  0.55473  1.0000
  C   C118      1.0  0.54451  0.60063  0.52191  1.0000
  C   C119      1.0  0.56883  0.58647  0.00104  1.0000
  C   C120      1.0  0.57796  0.53359  0.01609  1.0000
  C   C121      1.0  0.08088  0.03888  0.60921  1.0000
  C   C122      1.0  0.05381  0.03609  0.61525  1.0000
  C   C123      1.0  0.04058  0.98856  0.59779  1.0000
  C   C124      1.0  0.05478  0.94317  0.58302  1.0000
  C   C125      1.0  0.08233  0.94409  0.59793  1.0000
  C   C126      1.0  0.09437  0.99249  0.60538  1.0000
  C   C127      1.0  0.03945  0.07764  0.64847  1.0000
  C   C128      1.0  0.01325  0.07541  0.64728  1.0000
  C   C129      1.0  0.99886  0.03157  0.61126  1.0000
  C   C130      1.0  0.01310  0.98624  0.59643  1.0000
  C   C131      1.0  0.99992  0.93871  0.57855  1.0000
  C   C132      1.0  0.01420  0.89749  0.54336  1.0000
  C   C133      1.0  0.04040  0.89963  0.54522  1.0000
  C   C134      1.0  0.97130  0.03026  0.59729  1.0000
  C   C135      1.0  0.95936  0.98166  0.59062  1.0000
  C   C136      1.0  0.97290  0.93552  0.58590  1.0000
  C   C137      1.0  0.86426  0.47225  0.59676  1.0000
  C   C138      1.0  0.85493  0.52555  0.57765  1.0000
  C   C139      1.0  0.82794  0.53791  0.53532  1.0000
  C   C140      1.0  0.81049  0.49740  0.51834  1.0000
  C   C141      1.0  0.82032  0.44426  0.54002  1.0000
  C   C142      1.0  0.84720  0.43125  0.57663  1.0000
  C   C143      1.0  0.85740  0.37622  0.59068  1.0000
  C   C144      1.0  0.87271  0.56800  0.60501  1.0000
  C   C145      1.0  0.78212  0.50932  0.48287  1.0000
  C   C146      1.0  0.76970  0.55453  0.86084  1.0000
  C   C147      1.0  0.74281  0.56237  0.83454  1.0000
  C   C148      1.0  0.72846  0.52213  0.94364  1.0000
  C   C149      1.0  0.76634  0.47285  0.59201  1.0000
  C   C150      1.0  0.84535  0.32682  0.66916  1.0000
  C   C151      1.0  0.85668  0.27642  0.68096  1.0000
  C   C152      1.0  0.87967  0.27592  0.61172  1.0000
  C   C153      1.0  0.88031  0.37095  0.52482  1.0000
  C   C154      1.0  0.89515  0.55529  0.73816  1.0000
  C   C155      1.0  0.91020  0.59811  0.76261  1.0000
  C   C156      1.0  0.90288  0.65330  0.65062  1.0000
  C   C157      1.0  0.86762  0.62450  0.49640  1.0000
  C   C158      1.0  0.89176  0.22296  0.62469  1.0000
  C   C159      1.0  0.70018  0.53163  0.91781  1.0000
  C   C160      1.0  0.91776  0.69964  0.67823  1.0000
  N   N1        1.0  0.31385  0.49016  0.13357  1.0000
  N   N2        1.0  0.16253  0.64681  0.17060  1.0000
  N   N3        1.0  0.17210  0.30569  0.18179  1.0000
  N   N4        1.0  0.14361  0.74923  0.16633  1.0000
  N   N5        1.0  0.13654  0.22558  0.15186  1.0000
  N   N6        1.0  0.36563  0.45631  0.15506  1.0000
  N   N7        1.0  0.51527  0.82288  0.45338  1.0000
  N   N8        1.0  0.53722  0.13549  0.21200  1.0000
  N   N9        1.0  0.74000  0.47551  0.07411  1.0000
  N   N10       1.0  0.89218  0.32383  0.02969  1.0000
  N   N11       1.0  0.88062  0.66612  0.00648  1.0000
  N   N12       1.0  0.91619  0.74658  0.03720  1.0000
  N   N13       1.0  0.68778  0.50862  0.53775  1.0000
  N   N14       1.0  0.91111  0.22166  0.03089  1.0000
  N   N15       1.0  0.31419  0.49175  0.61624  1.0000
  N   N16       1.0  0.16277  0.64841  0.67326  1.0000
  N   N17       1.0  0.17338  0.30703  0.68400  1.0000
  N   N18       1.0  0.14314  0.75085  0.66712  1.0000
  N   N19       1.0  0.13735  0.22678  0.65508  1.0000
  N   N20       1.0  0.36621  0.45842  0.64476  1.0000
  N   N21       1.0  0.51554  0.82176  0.94599  1.0000
  N   N22       1.0  0.53735  0.13734  0.71851  1.0000
  N   N23       1.0  0.74058  0.47938  0.57131  1.0000
  N   N24       1.0  0.89122  0.32331  0.53240  1.0000
  N   N25       1.0  0.88196  0.66596  0.51620  1.0000
  N   N26       1.0  0.91734  0.74604  0.54680  1.0000
  N   N27       1.0  0.68700  0.50370  0.03882  1.0000
  N   N28       1.0  0.90991  0.22171  0.53421  1.0000
  C  Sn1       1.0  0.13920  0.86730  0.08157  1.0000
  C   C161      1.0  0.13631  0.81117  0.17567  1.0000
  C  Sn2       1.0  0.11285  0.79359  0.23283  1.0000
  C  Sn3       1.0  0.09182  0.83292  0.19507  1.0000
  C   C162      1.0  0.09471  0.88901  0.10100  1.0000
  C  Sn4       1.0  0.11817  0.90663  0.04380  1.0000
  O  Te1       1.0  0.16283  0.88395  0.02571  1.0000
  O  Te2       1.0  0.11043  0.73726  0.32675  1.0000
  O  Te3       1.0  0.06817  0.81622  0.25103  1.0000
  O  Te4       1.0  0.14576  0.85705  0.94992  1.0000
  Mg  Mg1       1.0  0.07437  0.73494  0.37461  1.0000
  Mg  Mg2       1.0  0.18180  0.85941  0.90192  1.0000
  C  Sn5       1.0  0.09065  0.18034  0.03569  1.0000
  C   C163      1.0  0.11446  0.18236  0.14256  1.0000
  C  Sn6       1.0  0.13084  0.13452  0.22813  1.0000
  C  Sn7       1.0  0.12327  0.08359  0.20635  1.0000
  C   C164      1.0  0.09946  0.08159  0.09952  1.0000
  C  Sn8       1.0  0.08307  0.12941  0.01392  1.0000
  O  Te5       1.0  0.09975  0.12281  0.95140  1.0000
  O  Te6       1.0  0.15455  0.13757  0.33434  1.0000
  O  Te7       1.0  0.13936  0.03524  0.29076  1.0000
  O  Te8       1.0  0.08454  0.02051  0.90774  1.0000
  Mg  Mg3       1.0  0.16974  0.06045  0.42160  1.0000
  Mg  Mg4       1.0  0.06934  0.09761  0.82034  1.0000
  C  Sn9       1.0  0.62256  0.55830  0.84410  1.0000
  C   C165      1.0  0.60758  0.52391  0.96256  1.0000
  C  Sn10      1.0  0.59437  0.59118  0.12744  1.0000
  C  Sn11      1.0  0.62187  0.58689  0.17498  1.0000
  C   C166      1.0  0.63684  0.62126  0.05658  1.0000
  C  Sn12      1.0  0.65007  0.55400  0.89164  1.0000
  O  Te9       1.0  0.61019  0.59659  0.67998  1.0000
  O  Te10      1.0  0.57897  0.55724  0.24361  1.0000
  O  Te11      1.0  0.63424  0.54855  0.33926  1.0000
  O  Te12      1.0  0.66545  0.58793  0.77553  1.0000
  Mg  Mg5       1.0  0.60488  0.51154  0.45205  1.0000
  Mg  Mg6       1.0  0.63956  0.63367  0.56710  1.0000
  C  Sn13      1.0  0.64137  0.46622  0.61364  1.0000
  C   C167      1.0  0.65679  0.50297  0.50507  1.0000
  C  Sn14      1.0  0.64728  0.55710  0.40045  1.0000
  C  Sn15      1.0  0.62181  0.57490  0.40451  1.0000
  C   C168      1.0  0.60640  0.53817  0.51305  1.0000
  C  Sn16      1.0  0.61590  0.48402  0.61770  1.0000
  O  Te13      1.0  0.65128  0.41230  0.71712  1.0000
  O  Te14      1.0  0.66306  0.59308  0.29293  1.0000
  O  Te15      1.0  0.61190  0.62888  0.30090  1.0000
  O  Te16      1.0  0.60013  0.44806  0.72519  1.0000
  Mg  Mg7       1.0  0.64084  0.66249  0.17610  1.0000
  Mg  Mg8       1.0  0.62234  0.37865  0.84214  1.0000
  C  Sn17      1.0  0.54598  0.26895  0.23501  1.0000
  C   C169      1.0  0.52266  0.29963  0.14564  1.0000
  C  Sn18      1.0  0.50096  0.27339  0.09059  1.0000
  C  Sn19      1.0  0.50260  0.21528  0.12570  1.0000
  C   C170      1.0  0.52591  0.18463  0.21505  1.0000
  C  Sn20      1.0  0.54762  0.21084  0.27012  1.0000
  O  Te17      1.0  0.56743  0.29605  0.28884  1.0000
  O  Te18      1.0  0.47786  0.30494  0.00140  1.0000
  O  Te19      1.0  0.48114  0.18820  0.07178  1.0000
  O  Te20      1.0  0.57071  0.17932  0.35929  1.0000
  Mg  Mg9       1.0  0.47915  0.14323  0.95475  1.0000
  Mg  Mg10      1.0  0.59460  0.23511  0.40608  1.0000
  C  Sn21      1.0  0.42709  0.49096  0.06676  1.0000
  C   C171      1.0  0.44453  0.44674  0.17635  1.0000
  C  Sn22      1.0  0.43537  0.39650  0.27780  1.0000
  C  Sn23      1.0  0.40822  0.39031  0.26947  1.0000
  C   C172      1.0  0.39080  0.43451  0.15991  1.0000
  C  Sn24      1.0  0.39994  0.48477  0.05842  1.0000
  O  Te21      1.0  0.46185  0.43494  0.96648  1.0000
  O  Te22      1.0  0.45317  0.35289  0.38643  1.0000
  O  Te23      1.0  0.39864  0.34040  0.36987  1.0000
  O  Te24      1.0  0.40732  0.42249  0.94983  1.0000
  Mg  Mg11      1.0  0.43060  0.29310  0.49775  1.0000
  Mg  Mg12      1.0  0.42987  0.48229  0.83838  1.0000
  C  Sn25      1.0  0.50228  0.72037  0.42397  1.0000
  C   C173      1.0  0.51659  0.75660  0.49542  1.0000
  C  Sn26      1.0  0.54327  0.74601  0.55982  1.0000
  C  Sn27      1.0  0.55592  0.69822  0.55255  1.0000
  C   C174      1.0  0.54161  0.66203  0.48111  1.0000
  C  Sn28      1.0  0.51492  0.67259  0.41670  1.0000
  O  Te25      1.0  0.47562  0.73179  0.36036  1.0000
  O  Te26      1.0  0.55717  0.78282  0.63070  1.0000
  O  Te27      1.0  0.58260  0.68683  0.61625  1.0000
  O  Te28      1.0  0.50103  0.63582  0.34583  1.0000
  Mg  Mg13      1.0  0.59312  0.74937  0.70045  1.0000
  Mg  Mg14      1.0  0.46508  0.66923  0.27596  1.0000
  C  Sn29      1.0  0.55289  0.73627  0.02384  1.0000
  C   C175      1.0  0.55484  0.66146  0.93405  1.0000
  C  Sn30      1.0  0.53280  0.63533  0.88366  1.0000
  C  Sn31      1.0  0.53397  0.57693  0.92396  1.0000
  C   C176      1.0  0.53201  0.65177  0.01373  1.0000
  C  Sn32      1.0  0.55406  0.67787  0.06414  1.0000
  O  Te29      1.0  0.57468  0.76327  0.07294  1.0000
  O  Te30      1.0  0.50981  0.66726  0.79395  1.0000
  O  Te31      1.0  0.51215  0.54995  0.87477  1.0000
  O  Te32      1.0  0.57704  0.64598  0.15382  1.0000
  Mg  Mg15      1.0  0.48533  0.61140  0.75493  1.0000
  Mg  Mg16      1.0  0.60153  0.70178  0.19299  1.0000
  C  Sn33      1.0  0.95527  0.79379  0.73977  1.0000
  C   C177      1.0  0.93216  0.79129  0.62658  1.0000
  C  Sn34      1.0  0.92261  0.83712  0.47348  1.0000
  C  Sn35      1.0  0.93646  0.88649  0.43259  1.0000
  C   C178      1.0  0.95956  0.88897  0.54572  1.0000
  C  Sn36      1.0  0.96913  0.84315  0.69888  1.0000
  O  Te33      1.0  0.96446  0.74746  0.89210  1.0000
  O  Te34      1.0  0.89945  0.83363  0.36238  1.0000
  O  Te35      1.0  0.92725  0.93283  0.28011  1.0000
  O  Te36      1.0  0.99227  0.84663  0.80991  1.0000
  Mg  Mg17      1.0  0.89483  0.90778  0.17028  1.0000
  Mg  Mg18      1.0  0.97175  0.87837  0.00199  1.0000
  C  Sn37      1.0  0.92610  0.88424  0.98626  1.0000
  C   C179      1.0  0.92051  0.99154  0.09706  1.0000
  C  Sn38      1.0  0.94063  0.94343  0.18381  1.0000
  C  Sn39      1.0  0.93313  0.89282  0.15922  1.0000
  C   C180      1.0  0.90961  0.89141  0.04846  1.0000
  C  Sn40      1.0  0.91860  0.83363  0.96167  1.0000
  O  Te37      1.0  0.90629  0.93285  0.90085  1.0000
  O  Te38      1.0  0.96406  0.94589  0.29397  1.0000
  O  Te39      1.0  0.94901  0.84420  0.24475  1.0000
  O  Te40      1.0  0.89519  0.83119  0.85155  1.0000
  Mg  Mg19      1.0  0.97904  0.86859  0.38132  1.0000
  Mg  Mg20      1.0  0.88020  0.90846  0.76407  1.0000
  C  Sn41      1.0  0.96232  0.14637  0.51089  1.0000
  C   C181      1.0  0.95922  0.09009  0.60143  1.0000
  C  Sn42      1.0  0.93572  0.07253  0.65812  1.0000
  C  Sn43      1.0  0.91488  0.11204  0.62350  1.0000
  C   C182      1.0  0.91799  0.16829  0.53299  1.0000
  C  Sn44      1.0  0.94148  0.18589  0.47627  1.0000
  O  Te41      1.0  0.98598  0.16299  0.45543  1.0000
  O  Te42      1.0  0.93309  0.01604  0.74845  1.0000
  O  Te43      1.0  0.89121  0.09538  0.67906  1.0000
  O  Te44      1.0  0.94412  0.24234  0.38597  1.0000
  Mg  Mg21      1.0  0.89708  0.01384  0.79719  1.0000
  Mg  Mg22      1.0  0.98012  0.24458  0.33709  1.0000
  C  Sn45      1.0  0.92489  0.10728  0.20363  1.0000
  C   C183      1.0  0.92676  0.16300  0.09984  1.0000
  C  Sn46      1.0  0.96688  0.07138  0.96279  1.0000
  C  Sn47      1.0  0.98022  0.02906  0.92869  1.0000
  C   C184      1.0  0.95317  0.07925  0.03242  1.0000
  C  Sn48      1.0  0.93823  0.06496  0.16953  1.0000
  O  Te45      1.0  0.90983  0.09399  0.33994  1.0000
  O  Te46      1.0  0.96846  0.12738  0.86086  1.0000
  O  Te47      1.0  0.99528  0.04240  0.79225  1.0000
  O  Te48      1.0  0.93663  0.00901  0.27140  1.0000
  Mg  Mg23      1.0  0.99140  0.12456  0.69001  1.0000
  Mg  Mg24      1.0  0.91369  0.01177  0.44221  1.0000
  C  Sn49      1.0  0.10030  0.83093  0.77581  1.0000
  C   C185      1.0  0.10242  0.88662  0.67276  1.0000
  C  Sn50      1.0  0.11770  0.90072  0.53764  1.0000
  C  Sn51      1.0  0.13113  0.85827  0.50475  1.0000
  C   C186      1.0  0.12900  0.80262  0.60774  1.0000
  C  Sn52      1.0  0.11372  0.78848  0.74292  1.0000
  O  Te49      1.0  0.08491  0.81779  0.91017  1.0000
  O  Te50      1.0  0.11558  0.95668  0.43642  1.0000
  O  Te51      1.0  0.14653  0.87145  0.37026  1.0000
  O  Te52      1.0  0.11189  0.73255  0.84407  1.0000
  Mg  Mg25      1.0  0.14289  0.95364  0.26832  1.0000
  Mg  Mg26      1.0  0.06336  0.84142  0.01214  1.0000
  C  Sn53      1.0  0.09136  0.18245  0.53544  1.0000
  C   C187      1.0  0.11508  0.18397  0.64415  1.0000
  C  Sn54      1.0  0.13118  0.13577  0.73119  1.0000
  C  Sn55      1.0  0.12342  0.08499  0.70905  1.0000
  C   C188      1.0  0.09972  0.08348  0.60037  1.0000
  C  Sn56      1.0  0.08360  0.13167  0.51329  1.0000
  O  Te53      1.0  0.07558  0.23114  0.44969  1.0000
  O  Te54      1.0  0.15480  0.13832  0.83923  1.0000
  O  Te55      1.0  0.13923  0.03627  0.79491  1.0000
  O  Te56      1.0  0.06000  0.12914  0.40529  1.0000
  Mg  Mg27      1.0  0.16959  0.06085  0.92801  1.0000
  Mg  Mg28      1.0  0.04520  0.20658  0.31637  1.0000
  C  Sn57      1.0  0.54670  0.27115  0.73686  1.0000
  C   C189      1.0  0.52353  0.30220  0.64600  1.0000
  C  Sn58      1.0  0.50173  0.27625  0.59089  1.0000
  C  Sn59      1.0  0.50312  0.21804  0.62744  1.0000
  C   C190      1.0  0.52628  0.18702  0.71828  1.0000
  C  Sn60      1.0  0.54809  0.21294  0.77342  1.0000
  O  Te57      1.0  0.56825  0.29796  0.79073  1.0000
  O  Te58      1.0  0.47877  0.30817  0.50020  1.0000
  O  Te59      1.0  0.48154  0.19124  0.57349  1.0000
  O  Te60      1.0  0.57103  0.18105  0.86409  1.0000
  Mg  Mg29      1.0  0.45466  0.25260  0.45412  1.0000
  Mg  Mg30      1.0  0.59515  0.23656  0.91030  1.0000
  C  Sn61      1.0  0.40951  0.48066  0.49109  1.0000
  C   C191      1.0  0.39422  0.44574  0.60590  1.0000
  C  Sn62      1.0  0.40588  0.40492  0.76689  1.0000
  C  Sn63      1.0  0.43338  0.39889  0.81419  1.0000
  C   C192      1.0  0.44865  0.43379  0.69943  1.0000
  C  Sn64      1.0  0.43701  0.47462  0.53838  1.0000
  O  Te61      1.0  0.39744  0.52119  0.33082  1.0000
  O  Te62      1.0  0.39019  0.37050  0.87946  1.0000
  O  Te63      1.0  0.44544  0.35831  0.97461  1.0000
  O  Te64      1.0  0.45268  0.50904  0.42587  1.0000
  Mg  Mg31      1.0  0.39058  0.42735  0.08339  1.0000
  Mg  Mg32      1.0  0.42714  0.55808  0.22197  1.0000
