data_image0
_chemical_formula_structural       H72C128N24C2Sn2C2HTe2HMgC2Sn2C2HTe2HMgC2Sn2C2HTe2HMgC2Sn2C2HTe2HMgC2Sn2C2HTe2HMgC2Sn2C2HTe2HMgC2Sn2C2HTe2HMgC2Sn2C2HTe2HMgC2Sn2C2HTe2HMgC2Sn2C2HTe2HMgC2Sn2C2HTe2HMgC2Sn2C2HTe2HMg
_chemical_formula_sum              "H96 C176 N24 Sn24 Te24 Mg12"
_cell_length_a       45.2809
_cell_length_b       25.4887
_cell_length_c       8.03158
_cell_angle_alpha    63.4426
_cell_angle_beta     98.3691
_cell_angle_gamma    90.575

_symmetry_space_group_name_H-M    'P1'
_space_group_IT_number       1

loop_
  _space_group_symop_operation_xyz
  'x, y, z'

loop_
  _atom_site_type_symbol
  _atom_site_label
  _atom_site_symmetry_multiplicity
  _atom_site_fract_x
  _atom_site_fract_y
  _atom_site_fract_z
  _atom_site_occupancy
  H   H1        1.0  0.07902  0.81737  0.33581  1.0000
  H   H2        1.0  0.10695  0.72975  0.36397  1.0000
  H   H3        1.0  0.16869  0.84307  0.50329  1.0000
  H   H4        1.0  0.14007  0.92886  0.47415  1.0000
  H   H5        1.0  0.30461  0.39071  0.12705  1.0000
  H   H6        1.0  0.35887  0.38296  0.11158  1.0000
  H   H7        1.0  0.37147  0.54080  0.17551  1.0000
  H   H8        1.0  0.31676  0.54805  0.19187  1.0000
  H   H9        1.0  0.26192  0.61314  0.21055  1.0000
  H   H10       1.0  0.23817  0.69976  0.21899  1.0000
  H   H11       1.0  0.15129  0.63646  0.14723  1.0000
  H   H12       1.0  0.17539  0.54957  0.13753  1.0000
  H   H13       1.0  0.19505  0.75806  0.19042  1.0000
  H   H14       1.0  0.40850  0.41731  0.12660  1.0000
  H   H15       1.0  0.12821  0.27540  0.06322  1.0000
  H   H16       1.0  0.54356  0.39282  0.12330  1.0000
  H   H17       1.0  0.59782  0.38945  0.10118  1.0000
  H   H18       1.0  0.60080  0.57112  0.98104  1.0000
  H   H19       1.0  0.54677  0.57540  0.99670  1.0000
  H   H20       1.0  0.12789  0.97984  0.12896  1.0000
  H   H21       1.0  0.05508  0.11124  0.14289  1.0000
  H   H22       1.0  0.00066  0.11430  0.12892  1.0000
  H   H23       1.0  0.99584  0.86325  0.03124  1.0000
  H   H24       1.0  0.05027  0.86013  0.04697  1.0000
  H   H25       1.0  0.92322  0.99162  0.06398  1.0000
  H   H26       1.0  0.79094  0.34811  0.05433  1.0000
  H   H27       1.0  0.81368  0.26286  0.03124  1.0000
  H   H28       1.0  0.90004  0.33279  0.52856  1.0000
  H   H29       1.0  0.87606  0.42354  0.03768  1.0000
  H   H30       1.0  0.88402  0.52509  0.11006  1.0000
  H   H31       1.0  0.91744  0.60218  0.12803  1.0000
  H   H32       1.0  0.84092  0.70373  0.11014  1.0000
  H   H33       1.0  0.80767  0.62547  0.09739  1.0000
  H   H34       1.0  0.85592  0.21049  0.01658  1.0000
  H   H35       1.0  0.64516  0.53269  0.14952  1.0000
  H   H36       1.0  0.92465  0.69430  0.13889  1.0000
  H   H37       1.0  0.97093  0.15184  0.33924  1.0000
  H   H38       1.0  0.94244  0.23915  0.30916  1.0000
  H   H39       1.0  0.08138  0.81493  0.83599  1.0000
  H   H40       1.0  0.10967  0.72845  0.85966  1.0000
  H   H41       1.0  0.16642  0.84197  0.00606  1.0000
  H   H42       1.0  0.13843  0.92890  0.97416  1.0000
  H   H43       1.0  0.26420  0.60897  0.71630  1.0000
  H   H44       1.0  0.24145  0.69632  0.72611  1.0000
  H   H45       1.0  0.15369  0.63849  0.63776  1.0000
  H   H46       1.0  0.17679  0.55091  0.62821  1.0000
  H   H47       1.0  0.19806  0.75761  0.69093  1.0000
  H   H48       1.0  0.40949  0.40991  0.64269  1.0000
  H   H49       1.0  0.12821  0.27362  0.56411  1.0000
  H   H50       1.0  0.12898  0.97815  0.63305  1.0000
  H   H51       1.0  0.05543  0.10897  0.64566  1.0000
  H   H52       1.0  0.00117  0.11115  0.63190  1.0000
  H   H53       1.0  0.99754  0.85906  0.54007  1.0000
  H   H54       1.0  0.05160  0.85707  0.55135  1.0000
  H   H55       1.0  0.92421  0.98834  0.56293  1.0000
  H   H56       1.0  0.74942  0.57320  0.60813  1.0000
  H   H57       1.0  0.69501  0.58068  0.61991  1.0000
  H   H58       1.0  0.68306  0.42284  0.55551  1.0000
  H   H59       1.0  0.73823  0.41386  0.55361  1.0000
  H   H60       1.0  0.79107  0.34677  0.54307  1.0000
  H   H61       1.0  0.81375  0.26108  0.52345  1.0000
  H   H62       1.0  0.89911  0.33830  0.01280  1.0000
  H   H63       1.0  0.87704  0.41817  0.55046  1.0000
  H   H64       1.0  0.88555  0.52222  0.60714  1.0000
  H   H65       1.0  0.91906  0.59789  0.63126  1.0000
  H   H66       1.0  0.84313  0.69810  0.62757  1.0000
  H   H67       1.0  0.80950  0.62104  0.60706  1.0000
  H   H68       1.0  0.85651  0.20697  0.51765  1.0000
  H   H69       1.0  0.64700  0.53656  0.65051  1.0000
  H   H70       1.0  0.92663  0.68945  0.64685  1.0000
  H   H71       1.0  0.88639  0.12582  0.69281  1.0000
  H   H72       1.0  0.91488  0.03926  0.72471  1.0000
  C   C1        1.0  0.10595  0.88032  0.14800  1.0000
  C   C2        1.0  0.09784  0.82300  0.26057  1.0000
  C   C3        1.0  0.11350  0.77376  0.27820  1.0000
  C   C4        1.0  0.13866  0.77944  0.18873  1.0000
  C   C5        1.0  0.14781  0.83638  0.08306  1.0000
  C   C6        1.0  0.13172  0.88547  0.06393  1.0000
  C   C7        1.0  0.22867  0.43981  0.14067  1.0000
  C   C8        1.0  0.27488  0.47509  0.16033  1.0000
  C   C9        1.0  0.23385  0.52551  0.16378  1.0000
  C   C10       1.0  0.22008  0.57634  0.17222  1.0000
  C   C11       1.0  0.30729  0.47010  0.15816  1.0000
  C   C12       1.0  0.31947  0.42304  0.13886  1.0000
  C   C13       1.0  0.34978  0.41892  0.13079  1.0000
  C   C14       1.0  0.36863  0.46207  0.14019  1.0000
  C   C15       1.0  0.35651  0.50859  0.16342  1.0000
  C   C16       1.0  0.32627  0.51254  0.17259  1.0000
  C   C17       1.0  0.23777  0.61885  0.19558  1.0000
  C   C18       1.0  0.22440  0.66704  0.19958  1.0000
  C   C19       1.0  0.19312  0.67368  0.18285  1.0000
  C   C20       1.0  0.17544  0.63069  0.16094  1.0000
  C   C21       1.0  0.18873  0.58282  0.15585  1.0000
  C   C22       1.0  0.17975  0.72431  0.18962  1.0000
  C   C23       1.0  0.40005  0.45859  0.12074  1.0000
  C   C24       1.0  0.15242  0.26498  0.08335  1.0000
  C   C25       1.0  0.54117  0.48440  0.06207  1.0000
  C   C26       1.0  0.55609  0.43186  0.09347  1.0000
  C   C27       1.0  0.58632  0.42955  0.08149  1.0000
  C   C28       1.0  0.60309  0.47917  0.04601  1.0000
  C   C29       1.0  0.58830  0.53195  0.01381  1.0000
  C   C30       1.0  0.55787  0.53443  0.02036  1.0000
  C   C31       1.0  0.08932  0.03169  0.10550  1.0000
  C   C32       1.0  0.05788  0.03283  0.10412  1.0000
  C   C33       1.0  0.04145  0.98534  0.09750  1.0000
  C   C34       1.0  0.05675  0.93600  0.10013  1.0000
  C   C35       1.0  0.08857  0.93276  0.12223  1.0000
  C   C36       1.0  0.10369  0.98129  0.11937  1.0000
  C   C37       1.0  0.04219  0.07835  0.11928  1.0000
  C   C38       1.0  0.01183  0.08006  0.11125  1.0000
  C   C39       1.0  0.99427  0.03644  0.08651  1.0000
  C   C40       1.0  0.00959  0.98717  0.08881  1.0000
  C   C41       1.0  0.99313  0.93993  0.08023  1.0000
  C   C42       1.0  0.00874  0.89520  0.06038  1.0000
  C   C43       1.0  0.03912  0.89337  0.06960  1.0000
  C   C44       1.0  0.96247  0.03908  0.06830  1.0000
  C   C45       1.0  0.94740  0.99043  0.07182  1.0000
  C   C46       1.0  0.96175  0.94070  0.08097  1.0000
  C   C47       1.0  0.82433  0.52623  0.08535  1.0000
  C   C48       1.0  0.77846  0.48862  0.08128  1.0000
  C   C49       1.0  0.81903  0.44046  0.06322  1.0000
  C   C50       1.0  0.83222  0.39061  0.04744  1.0000
  C   C51       1.0  0.84390  0.57104  0.10066  1.0000
  C   C52       1.0  0.81455  0.34524  0.04540  1.0000
  C   C53       1.0  0.82737  0.29791  0.03401  1.0000
  C   C54       1.0  0.85795  0.29528  0.02111  1.0000
  C   C55       1.0  0.87554  0.34101  0.02275  1.0000
  C   C56       1.0  0.86286  0.38795  0.03561  1.0000
  C   C57       1.0  0.87501  0.56423  0.11145  1.0000
  C   C58       1.0  0.89335  0.60728  0.12063  1.0000
  C   C59       1.0  0.88107  0.65836  0.11664  1.0000
  C   C60       1.0  0.84996  0.66444  0.10971  1.0000
  C   C61       1.0  0.83169  0.62128  0.10252  1.0000
  C   C62       1.0  0.87092  0.24560  0.00752  1.0000
  C   C63       1.0  0.65226  0.50349  0.09305  1.0000
  C   C64       1.0  0.90038  0.70444  0.11727  1.0000
  C   C65       1.0  0.95283  0.14598  0.42012  1.0000
  C   C66       1.0  0.93675  0.19505  0.40092  1.0000
  C   C67       1.0  0.10758  0.87915  0.64584  1.0000
  C   C68       1.0  0.09993  0.82140  0.75814  1.0000
  C   C69       1.0  0.11594  0.77271  0.77409  1.0000
  C   C70       1.0  0.14116  0.77928  0.68427  1.0000
  C   C71       1.0  0.14998  0.83661  0.58010  1.0000
  C   C72       1.0  0.13346  0.88515  0.56208  1.0000
  C   C73       1.0  0.22894  0.43797  0.63944  1.0000
  C   C74       1.0  0.27543  0.47227  0.65632  1.0000
  C   C75       1.0  0.23498  0.52378  0.66104  1.0000
  C   C76       1.0  0.22185  0.57487  0.67092  1.0000
  C   C77       1.0  0.24009  0.61611  0.69848  1.0000
  C   C78       1.0  0.22724  0.66480  0.70261  1.0000
  C   C79       1.0  0.19595  0.67314  0.68181  1.0000
  C   C80       1.0  0.17782  0.63133  0.65585  1.0000
  C   C81       1.0  0.19055  0.58303  0.65063  1.0000
  C   C82       1.0  0.18272  0.72416  0.68787  1.0000
  C   C83       1.0  0.40102  0.45155  0.63403  1.0000
  C   C84       1.0  0.15243  0.26382  0.58139  1.0000
  C   C85       1.0  0.09017  0.02967  0.60818  1.0000
  C   C86       1.0  0.05871  0.03069  0.60544  1.0000
  C   C87       1.0  0.04250  0.98302  0.59828  1.0000
  C   C88       1.0  0.05801  0.93386  0.60066  1.0000
  C   C89       1.0  0.08985  0.93108  0.62189  1.0000
  C   C90       1.0  0.10474  0.97955  0.62143  1.0000
  C   C91       1.0  0.04282  0.07595  0.62110  1.0000
  C   C92       1.0  0.01245  0.07735  0.61239  1.0000
  C   C93       1.0  0.99509  0.03378  0.58590  1.0000
  C   C94       1.0  0.01062  0.98451  0.58942  1.0000
  C   C95       1.0  0.99436  0.93680  0.58309  1.0000
  C   C96       1.0  0.01019  0.89188  0.56555  1.0000
  C   C97       1.0  0.04053  0.89061  0.57297  1.0000
  C   C98       1.0  0.96329  0.03627  0.56585  1.0000
  C   C99       1.0  0.94839  0.98728  0.57101  1.0000
  C   C100      1.0  0.96295  0.93732  0.58315  1.0000
  C   C101      1.0  0.82569  0.52342  0.58459  1.0000
  C   C102      1.0  0.77939  0.48774  0.57632  1.0000
  C   C103      1.0  0.81959  0.43807  0.56034  1.0000
  C   C104      1.0  0.83270  0.38759  0.54718  1.0000
  C   C105      1.0  0.84546  0.56763  0.60232  1.0000
  C   C106      1.0  0.74713  0.49300  0.58018  1.0000
  C   C107      1.0  0.73478  0.54049  0.59677  1.0000
  C   C108      1.0  0.70435  0.54467  0.60199  1.0000
  C   C109      1.0  0.68543  0.50255  0.58529  1.0000
  C   C110      1.0  0.69787  0.45529  0.56725  1.0000
  C   C111      1.0  0.72831  0.45031  0.56634  1.0000
  C   C112      1.0  0.81485  0.34303  0.53989  1.0000
  C   C113      1.0  0.82766  0.29550  0.52933  1.0000
  C   C114      1.0  0.85844  0.29178  0.52238  1.0000
  C   C115      1.0  0.87622  0.33653  0.53042  1.0000
  C   C116      1.0  0.86355  0.38359  0.54269  1.0000
  C   C117      1.0  0.87650  0.56081  0.61146  1.0000
  C   C118      1.0  0.89501  0.60319  0.62420  1.0000
  C   C119      1.0  0.88295  0.65356  0.62571  1.0000
  C   C120      1.0  0.85191  0.65956  0.62125  1.0000
  C   C121      1.0  0.83348  0.61712  0.61004  1.0000
  C   C122      1.0  0.87152  0.24198  0.50958  1.0000
  C   C123      1.0  0.65358  0.50759  0.59194  1.0000
  C   C124      1.0  0.90238  0.69937  0.62725  1.0000
  C   C125      1.0  0.94569  0.08855  0.53944  1.0000
  C   C126      1.0  0.91230  0.18897  0.49672  1.0000
  C   C127      1.0  0.90422  0.13174  0.60979  1.0000
  C   C128      1.0  0.92058  0.08291  0.62938  1.0000
  N   N1        1.0  0.21542  0.48561  0.14816  1.0000
  N   N2        1.0  0.25831  0.43231  0.14790  1.0000
  N   N3        1.0  0.26378  0.52231  0.17022  1.0000
  N   N4        1.0  0.15164  0.72860  0.19785  1.0000
  N   N5        1.0  0.16295  0.21491  0.10643  1.0000
  N   N6        1.0  0.41676  0.50222  0.09110  1.0000
  N   N7        1.0  0.83734  0.48162  0.07015  1.0000
  N   N8        1.0  0.79486  0.53242  0.08773  1.0000
  N   N9        1.0  0.78955  0.44154  0.07106  1.0000
  N   N10       1.0  0.88946  0.75497  0.08798  1.0000
  N   N11       1.0  0.63358  0.47313  0.04027  1.0000
  N   N12       1.0  0.89848  0.24326  0.98492  1.0000
  N   N13       1.0  0.21616  0.48416  0.64703  1.0000
  N   N14       1.0  0.25852  0.42965  0.64595  1.0000
  N   N15       1.0  0.26480  0.52004  0.66493  1.0000
  N   N16       1.0  0.15450  0.72881  0.69281  1.0000
  N   N17       1.0  0.16317  0.21428  0.60139  1.0000
  N   N18       1.0  0.41779  0.49503  0.60591  1.0000
  N   N19       1.0  0.83829  0.47859  0.56870  1.0000
  N   N20       1.0  0.79631  0.53038  0.58660  1.0000
  N   N21       1.0  0.78998  0.44053  0.56431  1.0000
  N   N22       1.0  0.89146  0.74992  0.59779  1.0000
  N   N23       1.0  0.63459  0.47841  0.53587  1.0000
  N   N24       1.0  0.89915  0.23960  0.48807  1.0000
  C   C129      1.0  0.94444  0.78761  0.74067  1.0000
  C   C130      1.0  0.91633  0.78942  0.63916  1.0000
  C  Sn1       1.0  0.90257  0.84299  0.49985  1.0000
  C  Sn2       1.0  0.91729  0.89564  0.46174  1.0000
  C   C131      1.0  0.94543  0.89335  0.56398  1.0000
  C   C132      1.0  0.95898  0.83952  0.70312  1.0000
  H   H73       1.0  0.95494  0.74596  0.84826  1.0000
  O  Te1       1.0  0.87447  0.84401  0.39981  1.0000
  O  Te2       1.0  0.90406  0.94976  0.32322  1.0000
  H   H74       1.0  0.98076  0.83813  0.78160  1.0000
  Mg  Mg1       1.0  0.86556  0.92851  0.22475  1.0000
  C   C133      1.0  0.17028  0.39702  0.59746  1.0000
  C   C134      1.0  0.20151  0.39531  0.62822  1.0000
  C  Sn3       1.0  0.21825  0.34921  0.63028  1.0000
  C  Sn4       1.0  0.20339  0.30408  0.60093  1.0000
  C   C135      1.0  0.17213  0.30622  0.57015  1.0000
  C   C136      1.0  0.15560  0.35253  0.56842  1.0000
  H   H75       1.0  0.15748  0.43287  0.59602  1.0000
  O  Te3       1.0  0.24944  0.34816  0.66128  1.0000
  O  Te4       1.0  0.21957  0.25751  0.60221  1.0000
  H   H76       1.0  0.13141  0.35387  0.54449  1.0000
  Mg  Mg2       1.0  0.26167  0.27552  0.65030  1.0000
  C   C137      1.0  0.11079  0.18012  0.94473  1.0000
  C   C138      1.0  0.11108  0.31797  0.07121  1.0000
  C  Sn5       1.0  0.12345  0.26382  0.21465  1.0000
  C  Sn6       1.0  0.11020  0.21136  0.23139  1.0000
  C   C139      1.0  0.08489  0.21441  0.10407  1.0000
  C   C140      1.0  0.09770  0.12839  0.96110  1.0000
  H   H77       1.0  0.10135  0.22222  0.83404  1.0000
  O  Te5       1.0  0.14874  0.26204  0.33986  1.0000
  O  Te6       1.0  0.12212  0.15665  0.37340  1.0000
  H   H78       1.0  0.07812  0.13037  0.86311  1.0000
  Mg  Mg3       1.0  0.15676  0.17695  0.50989  1.0000
  C   C141      1.0  0.95089  0.16504  0.89839  1.0000
  C   C142      1.0  0.92290  0.24608  0.01529  1.0000
  C  Sn7       1.0  0.89996  0.22915  0.12448  1.0000
  C  Sn8       1.0  0.87964  0.27258  0.11613  1.0000
  C   C143      1.0  0.90780  0.19145  0.99863  1.0000
  C   C144      1.0  0.93084  0.20790  0.89002  1.0000
  H   H79       1.0  0.96870  0.17777  0.81427  1.0000
  O  Te7       1.0  0.89733  0.16962  0.24057  1.0000
  O  Te8       1.0  0.85650  0.25688  0.22370  1.0000
  H   H80       1.0  0.93312  0.25389  0.79943  1.0000
  Mg  Mg4       1.0  0.86214  0.17011  0.36043  1.0000
  C   C145      1.0  0.10032  0.15388  0.45550  1.0000
  C   C146      1.0  0.10648  0.09325  0.56112  1.0000
  C  Sn9       1.0  0.13215  0.07116  0.69686  1.0000
  C  Sn10      1.0  0.15198  0.11060  0.72713  1.0000
  C   C147      1.0  0.14561  0.17118  0.62083  1.0000
  C   C148      1.0  0.11986  0.19281  0.48532  1.0000
  H   H81       1.0  0.08040  0.17062  0.35072  1.0000
  O  Te9       1.0  0.13796  0.01046  0.80110  1.0000
  O  Te10      1.0  0.17779  0.08971  0.86194  1.0000
  H   H82       1.0  0.11509  0.23976  0.40365  1.0000
  Mg  Mg5       1.0  0.17602  0.00331  0.96856  1.0000
  C   C149      1.0  0.48271  0.54361  0.90919  1.0000
  C   C150      1.0  0.48000  0.64269  0.03923  1.0000
  C  Sn11      1.0  0.47265  0.59470  0.19786  1.0000
  C  Sn12      1.0  0.44237  0.58811  0.22642  1.0000
  C   C151      1.0  0.42020  0.62970  0.09542  1.0000
  C   C152      1.0  0.45283  0.53713  0.93721  1.0000
  H   H83       1.0  0.48859  0.58063  0.78672  1.0000
  O  Te11      1.0  0.49522  0.55381  0.32642  1.0000
  O  Te12      1.0  0.43439  0.54055  0.38371  1.0000
  H   H84       1.0  0.43555  0.56912  0.83648  1.0000
  Mg  Mg6       1.0  0.47318  0.49647  0.51900  1.0000
  C   C153      1.0  0.72059  0.44194  0.06987  1.0000
  C   C154      1.0  0.74192  0.48154  0.07387  1.0000
  C  Sn13      1.0  0.73385  0.53090  0.09408  1.0000
  C  Sn14      1.0  0.70386  0.54068  0.11062  1.0000
  C   C155      1.0  0.68269  0.50078  0.10659  1.0000
  C   C156      1.0  0.69100  0.45154  0.08625  1.0000
  H   H85       1.0  0.72702  0.40382  0.05424  1.0000
  O  Te13      1.0  0.75544  0.57003  0.09773  1.0000
  O  Te14      1.0  0.69519  0.58964  0.13104  1.0000
  H   H86       1.0  0.67448  0.42087  0.08328  1.0000
  Mg  Mg7       1.0  0.73272  0.63036  0.12814  1.0000
  C   C157      1.0  0.47444  0.43098  0.74367  1.0000
  C   C158      1.0  0.45265  0.47691  0.63904  1.0000
  C  Sn15      1.0  0.45966  0.52830  0.48974  1.0000
  C  Sn16      1.0  0.48905  0.53365  0.44466  1.0000
  C   C159      1.0  0.51069  0.48742  0.55011  1.0000
  C   C160      1.0  0.50343  0.43621  0.69925  1.0000
  H   H87       1.0  0.46883  0.39134  0.85900  1.0000
  O  Te15      1.0  0.43762  0.57378  0.38670  1.0000
  O  Te16      1.0  0.49666  0.58451  0.29612  1.0000
  H   H88       1.0  0.52030  0.40063  0.78016  1.0000
  Mg  Mg8       1.0  0.45887  0.63439  0.19718  1.0000
  C   C161      1.0  0.89384  0.87323  0.95020  1.0000
  C   C162      1.0  0.88057  0.95309  0.05788  1.0000
  C  Sn17      1.0  0.90631  0.93129  0.19309  1.0000
  C  Sn18      1.0  0.92062  0.97097  0.22073  1.0000
  C   C163      1.0  0.91431  0.03149  0.11238  1.0000
  C   C164      1.0  0.91351  0.91240  0.97742  1.0000
  H   H89       1.0  0.87385  0.88975  0.84585  1.0000
  O  Te17      1.0  0.91207  0.87065  0.29941  1.0000
  O  Te18      1.0  0.94651  0.95037  0.35496  1.0000
  H   H90       1.0  0.90878  0.95930  0.89416  1.0000
  Mg  Mg9       1.0  0.95027  0.86392  0.46508  1.0000
  C   C165      1.0  0.35048  0.51464  0.65307  1.0000
  C   C166      1.0  0.36705  0.46788  0.65795  1.0000
  C  Sn19      1.0  0.35272  0.41960  0.65371  1.0000
  C  Sn20      1.0  0.32120  0.41823  0.64436  1.0000
  C   C167      1.0  0.30482  0.46525  0.63941  1.0000
  C   C168      1.0  0.31939  0.51334  0.64377  1.0000
  H   H91       1.0  0.36175  0.55187  0.65634  1.0000
  O  Te19      1.0  0.36962  0.37324  0.65876  1.0000
  O  Te20      1.0  0.30631  0.37053  0.63989  1.0000
  H   H92       1.0  0.30655  0.54956  0.63987  1.0000
  Mg  Mg10      1.0  0.33911  0.31794  0.64970  1.0000
  C   C169      1.0  0.56595  0.54155  0.54122  1.0000
  C   C170      1.0  0.54564  0.49913  0.54944  1.0000
  C  Sn21      1.0  0.55551  0.44562  0.56137  1.0000
  C  Sn22      1.0  0.58630  0.43449  0.56516  1.0000
  C   C171      1.0  0.60645  0.47719  0.55699  1.0000
  C   C172      1.0  0.59633  0.53059  0.54502  1.0000
  H   H93       1.0  0.55813  0.58285  0.53206  1.0000
  O  Te21      1.0  0.53491  0.40374  0.56940  1.0000
  O  Te22      1.0  0.59677  0.38138  0.57709  1.0000
  H   H94       1.0  0.61206  0.56341  0.53878  1.0000
  Mg  Mg11      1.0  0.56003  0.33809  0.58465  1.0000
  C   C173      1.0  0.21090  0.30871  0.10391  1.0000
  C   C174      1.0  0.18012  0.30537  0.10580  1.0000
  C  Sn23      1.0  0.16339  0.35089  0.10720  1.0000
  C  Sn24      1.0  0.17781  0.40064  0.10664  1.0000
  C   C175      1.0  0.20861  0.40358  0.10461  1.0000
  C   C176      1.0  0.22513  0.35777  0.10328  1.0000
  H   H95       1.0  0.22368  0.27328  0.10277  1.0000
  O  Te23      1.0  0.13266  0.34683  0.10916  1.0000
  O  Te24      1.0  0.16163  0.44677  0.10794  1.0000
  H   H96       1.0  0.24896  0.36039  0.10169  1.0000
  Mg  Mg12      1.0  0.12024  0.42092  0.11047  1.0000
