data_image0
_chemical_formula_structural       H24C56N24C2Sn2C2HTe2HMgC2Sn2C2HTe2HMgC2Sn2C2HTe2HMgC2Sn2C2HTe2HMgC2Sn2C2HTe2HMgC2Sn2C2HTe2HMgC2Sn2C2HTe2HMgC2Sn2C2HTe2HMgC2Sn2C2HTe2HMgC2Sn2C2HTe2HMgC2Sn2C2HTe2HMgC2Sn2C2HTe2HMgC2Sn2C2HTe2HMgC2Sn2C2HTe2HMgC2Sn2C2HTe2HMgC2Sn2C2HTe2HMgC2Sn2C2HTe2HMgC2Sn2C2HTe2HMgC2Sn2C2HTe2HMgC2Sn2C2HTe2HMgC2Sn2C2HTe2HMgC2Sn2C2HTe2HMgC2Sn2C2HTe2HMgC2Sn2C2HTe2HMg
_chemical_formula_sum              "H72 C152 N24 Sn48 Te48 Mg24"
_cell_length_a       45.2809
_cell_length_b       25.4887
_cell_length_c       8.03158
_cell_angle_alpha    63.4426
_cell_angle_beta     98.3691
_cell_angle_gamma    90.575

_symmetry_space_group_name_H-M    'P1'
_space_group_IT_number       1

loop_
  _space_group_symop_operation_xyz
  'x, y, z'

loop_
  _atom_site_type_symbol
  _atom_site_label
  _atom_site_symmetry_multiplicity
  _atom_site_fract_x
  _atom_site_fract_y
  _atom_site_fract_z
  _atom_site_occupancy
  H   H1        1.0  0.19505  0.75806  0.19042  1.0000
  H   H2        1.0  0.40850  0.41731  0.12660  1.0000
  H   H3        1.0  0.12821  0.27540  0.06322  1.0000
  H   H4        1.0  0.12789  0.97984  0.12896  1.0000
  H   H5        1.0  0.05508  0.11124  0.14289  1.0000
  H   H6        1.0  0.00066  0.11430  0.12892  1.0000
  H   H7        1.0  0.99584  0.86325  0.03124  1.0000
  H   H8        1.0  0.05027  0.86013  0.04697  1.0000
  H   H9        1.0  0.92322  0.99162  0.06398  1.0000
  H   H10       1.0  0.85592  0.21049  0.01658  1.0000
  H   H11       1.0  0.64516  0.53269  0.14952  1.0000
  H   H12       1.0  0.92465  0.69430  0.13889  1.0000
  H   H13       1.0  0.19806  0.75761  0.69093  1.0000
  H   H14       1.0  0.40949  0.40991  0.64269  1.0000
  H   H15       1.0  0.12821  0.27362  0.56411  1.0000
  H   H16       1.0  0.12898  0.97815  0.63305  1.0000
  H   H17       1.0  0.05543  0.10897  0.64566  1.0000
  H   H18       1.0  0.00117  0.11115  0.63190  1.0000
  H   H19       1.0  0.99754  0.85906  0.54007  1.0000
  H   H20       1.0  0.05160  0.85707  0.55135  1.0000
  H   H21       1.0  0.92421  0.98834  0.56293  1.0000
  H   H22       1.0  0.85651  0.20697  0.51765  1.0000
  H   H23       1.0  0.64700  0.53656  0.65051  1.0000
  H   H24       1.0  0.92663  0.68945  0.64685  1.0000
  C   C1        1.0  0.22867  0.43981  0.14067  1.0000
  C   C2        1.0  0.27488  0.47509  0.16033  1.0000
  C   C3        1.0  0.23385  0.52551  0.16378  1.0000
  C   C4        1.0  0.17975  0.72431  0.18962  1.0000
  C   C5        1.0  0.40005  0.45859  0.12074  1.0000
  C   C6        1.0  0.15242  0.26498  0.08335  1.0000
  C   C7        1.0  0.08932  0.03169  0.10550  1.0000
  C   C8        1.0  0.05788  0.03283  0.10412  1.0000
  C   C9        1.0  0.04145  0.98534  0.09750  1.0000
  C   C10       1.0  0.05675  0.93600  0.10013  1.0000
  C   C11       1.0  0.08857  0.93276  0.12223  1.0000
  C   C12       1.0  0.10369  0.98129  0.11937  1.0000
  C   C13       1.0  0.04219  0.07835  0.11928  1.0000
  C   C14       1.0  0.01183  0.08006  0.11125  1.0000
  C   C15       1.0  0.99427  0.03644  0.08651  1.0000
  C   C16       1.0  0.00959  0.98717  0.08881  1.0000
  C   C17       1.0  0.99313  0.93993  0.08023  1.0000
  C   C18       1.0  0.00874  0.89520  0.06038  1.0000
  C   C19       1.0  0.03912  0.89337  0.06960  1.0000
  C   C20       1.0  0.96247  0.03908  0.06830  1.0000
  C   C21       1.0  0.94740  0.99043  0.07182  1.0000
  C   C22       1.0  0.96175  0.94070  0.08097  1.0000
  C   C23       1.0  0.82433  0.52623  0.08535  1.0000
  C   C24       1.0  0.77846  0.48862  0.08128  1.0000
  C   C25       1.0  0.81903  0.44046  0.06322  1.0000
  C   C26       1.0  0.87092  0.24560  0.00752  1.0000
  C   C27       1.0  0.65226  0.50349  0.09305  1.0000
  C   C28       1.0  0.90038  0.70444  0.11727  1.0000
  C   C29       1.0  0.22894  0.43797  0.63944  1.0000
  C   C30       1.0  0.27543  0.47227  0.65632  1.0000
  C   C31       1.0  0.23498  0.52378  0.66104  1.0000
  C   C32       1.0  0.18272  0.72416  0.68787  1.0000
  C   C33       1.0  0.40102  0.45155  0.63403  1.0000
  C   C34       1.0  0.15243  0.26382  0.58139  1.0000
  C   C35       1.0  0.09017  0.02967  0.60818  1.0000
  C   C36       1.0  0.05871  0.03069  0.60544  1.0000
  C   C37       1.0  0.04250  0.98302  0.59828  1.0000
  C   C38       1.0  0.05801  0.93386  0.60066  1.0000
  C   C39       1.0  0.08985  0.93108  0.62189  1.0000
  C   C40       1.0  0.10474  0.97955  0.62143  1.0000
  C   C41       1.0  0.04282  0.07595  0.62110  1.0000
  C   C42       1.0  0.01245  0.07735  0.61239  1.0000
  C   C43       1.0  0.99509  0.03378  0.58590  1.0000
  C   C44       1.0  0.01062  0.98451  0.58942  1.0000
  C   C45       1.0  0.99436  0.93680  0.58309  1.0000
  C   C46       1.0  0.01019  0.89188  0.56555  1.0000
  C   C47       1.0  0.04053  0.89061  0.57297  1.0000
  C   C48       1.0  0.96329  0.03627  0.56585  1.0000
  C   C49       1.0  0.94839  0.98728  0.57101  1.0000
  C   C50       1.0  0.96295  0.93732  0.58315  1.0000
  C   C51       1.0  0.82569  0.52342  0.58459  1.0000
  C   C52       1.0  0.77939  0.48774  0.57632  1.0000
  C   C53       1.0  0.81959  0.43807  0.56034  1.0000
  C   C54       1.0  0.87152  0.24198  0.50958  1.0000
  C   C55       1.0  0.65358  0.50759  0.59194  1.0000
  C   C56       1.0  0.90238  0.69937  0.62725  1.0000
  N   N1        1.0  0.21542  0.48561  0.14816  1.0000
  N   N2        1.0  0.25831  0.43231  0.14790  1.0000
  N   N3        1.0  0.26378  0.52231  0.17022  1.0000
  N   N4        1.0  0.15164  0.72860  0.19785  1.0000
  N   N5        1.0  0.16295  0.21491  0.10643  1.0000
  N   N6        1.0  0.41676  0.50222  0.09110  1.0000
  N   N7        1.0  0.83734  0.48162  0.07015  1.0000
  N   N8        1.0  0.79486  0.53242  0.08773  1.0000
  N   N9        1.0  0.78955  0.44154  0.07106  1.0000
  N   N10       1.0  0.88946  0.75497  0.08798  1.0000
  N   N11       1.0  0.63358  0.47313  0.04027  1.0000
  N   N12       1.0  0.89848  0.24326  0.98492  1.0000
  N   N13       1.0  0.21616  0.48416  0.64703  1.0000
  N   N14       1.0  0.25852  0.42965  0.64595  1.0000
  N   N15       1.0  0.26480  0.52004  0.66493  1.0000
  N   N16       1.0  0.15450  0.72881  0.69281  1.0000
  N   N17       1.0  0.16317  0.21428  0.60139  1.0000
  N   N18       1.0  0.41779  0.49503  0.60591  1.0000
  N   N19       1.0  0.83829  0.47859  0.56870  1.0000
  N   N20       1.0  0.79631  0.53038  0.58660  1.0000
  N   N21       1.0  0.78998  0.44053  0.56431  1.0000
  N   N22       1.0  0.89146  0.74992  0.59779  1.0000
  N   N23       1.0  0.63459  0.47841  0.53587  1.0000
  N   N24       1.0  0.89915  0.23960  0.48807  1.0000
  C   C57       1.0  0.13852  0.87924  0.05585  1.0000
  C   C58       1.0  0.11212  0.88259  0.12254  1.0000
  C  Sn1       1.0  0.09931  0.83132  0.23661  1.0000
  C  Sn2       1.0  0.11325  0.77574  0.28461  1.0000
  C   C59       1.0  0.13968  0.77286  0.21728  1.0000
  C   C60       1.0  0.15229  0.82444  0.10318  1.0000
  H   H25       1.0  0.17332  0.77871  0.96765  1.0000
  O  Te1       1.0  0.07292  0.83546  0.30198  1.0000
  O  Te2       1.0  0.10094  0.72381  0.39844  1.0000
  H   H26       1.0  0.17275  0.82183  0.05166  1.0000
  Mg  Mg1       1.0  0.06473  0.75222  0.45293  1.0000
  C   C61       1.0  0.34247  0.41181  0.13476  1.0000
  C   C62       1.0  0.36426  0.45136  0.13126  1.0000
  C  Sn3       1.0  0.35723  0.50108  0.15237  1.0000
  C  Sn4       1.0  0.32782  0.51127  0.17747  1.0000
  C   C63       1.0  0.30619  0.47143  0.18090  1.0000
  C   C64       1.0  0.31346  0.42183  0.15959  1.0000
  H   H27       1.0  0.34809  0.37342  0.11837  1.0000
  O  Te3       1.0  0.37927  0.54014  0.14847  1.0000
  O  Te4       1.0  0.32020  0.56060  0.19898  1.0000
  H   H28       1.0  0.29659  0.39120  0.16242  1.0000
  Mg  Mg2       1.0  0.35799  0.60107  0.18377  1.0000
  C   C65       1.0  0.23869  0.63355  0.19496  1.0000
  C   C66       1.0  0.22527  0.58477  0.18831  1.0000
  C  Sn5       1.0  0.19419  0.58229  0.16982  1.0000
  C  Sn6       1.0  0.17628  0.62959  0.15774  1.0000
  C   C67       1.0  0.18992  0.67821  0.16440  1.0000
  C   C68       1.0  0.22104  0.68023  0.18299  1.0000
  H   H29       1.0  0.26276  0.63513  0.20924  1.0000
  O  Te5       1.0  0.18114  0.53321  0.16347  1.0000
  O  Te6       1.0  0.14517  0.62826  0.13913  1.0000
  H   H30       1.0  0.23143  0.71802  0.18801  1.0000
  Mg  Mg3       1.0  0.13783  0.55183  0.13703  1.0000
  C   C69       1.0  0.17036  0.39823  0.09863  1.0000
  C   C70       1.0  0.20159  0.39678  0.12823  1.0000
  C  Sn7       1.0  0.21837  0.35068  0.13064  1.0000
  C  Sn8       1.0  0.20355  0.30525  0.10280  1.0000
  C   C71       1.0  0.17230  0.30713  0.07316  1.0000
  C   C72       1.0  0.15572  0.35346  0.07108  1.0000
  H   H31       1.0  0.15753  0.43409  0.09691  1.0000
  O  Te7       1.0  0.24956  0.34990  0.16047  1.0000
  O  Te8       1.0  0.21977  0.25867  0.10445  1.0000
  H   H32       1.0  0.13154  0.35459  0.04803  1.0000
  Mg  Mg4       1.0  0.26185  0.27712  0.15057  1.0000
  C   C73       1.0  0.15080  0.09775  0.24992  1.0000
  C   C74       1.0  0.14794  0.15726  0.12048  1.0000
  C  Sn9       1.0  0.14806  0.03922  0.97870  1.0000
  C  Sn10      1.0  0.12564  0.00123  0.96665  1.0000
  C   C75       1.0  0.10368  0.08220  0.09690  1.0000
  C   C76       1.0  0.12869  0.06026  0.23818  1.0000
  H   H33       1.0  0.17015  0.08077  0.35930  1.0000
  O  Te9       1.0  0.14556  0.09878  0.85049  1.0000
  O  Te10      1.0  0.10052  0.02246  0.82639  1.0000
  H   H34       1.0  0.13089  0.01419  0.33845  1.0000
  Mg  Mg5       1.0  0.10720  0.10694  0.68446  1.0000
  C   C77       1.0  0.14278  0.07213  0.74175  1.0000
  C   C78       1.0  0.11434  0.07517  0.64198  1.0000
  C  Sn11      1.0  0.10103  0.12920  0.50299  1.0000
  C  Sn12      1.0  0.11655  0.18107  0.46342  1.0000
  C   C79       1.0  0.14500  0.17756  0.56393  1.0000
  C   C80       1.0  0.15811  0.12327  0.70276  1.0000
  H   H35       1.0  0.15293  0.03013  0.84910  1.0000
  O  Te11      1.0  0.07260  0.13145  0.40470  1.0000
  O  Te12      1.0  0.10377  0.23564  0.32518  1.0000
  H   H36       1.0  0.18014  0.12093  0.77990  1.0000
  Mg  Mg6       1.0  0.06455  0.21613  0.22934  1.0000
  C   C81       1.0  0.58133  0.54118  0.00518  1.0000
  C   C82       1.0  0.60032  0.49270  0.04553  1.0000
  C  Sn13      1.0  0.58880  0.43784  0.08878  1.0000
  C  Sn14      1.0  0.55768  0.43154  0.09152  1.0000
  C   C83       1.0  0.53887  0.48032  0.05082  1.0000
  C   C84       1.0  0.55064  0.53500  0.00778  1.0000
  H   H37       1.0  0.61546  0.44307  0.97178  1.0000
  O  Te13      1.0  0.60808  0.38987  0.12881  1.0000
  O  Te14      1.0  0.54556  0.37722  0.13422  1.0000
  H   H38       1.0  0.56095  0.43210  0.97643  1.0000
  Mg  Mg7       1.0  0.58094  0.32488  0.17901  1.0000
  C   C85       1.0  0.47444  0.43098  0.74367  1.0000
  C   C86       1.0  0.45265  0.47691  0.63904  1.0000
  C  Sn15      1.0  0.45966  0.52830  0.48974  1.0000
  C  Sn16      1.0  0.48905  0.53365  0.44466  1.0000
  C   C87       1.0  0.51069  0.48742  0.55011  1.0000
  C   C88       1.0  0.50343  0.43621  0.69925  1.0000
  H   H39       1.0  0.46883  0.39134  0.85900  1.0000
  O  Te15      1.0  0.43762  0.57378  0.38670  1.0000
  O  Te16      1.0  0.49666  0.58451  0.29612  1.0000
  H   H40       1.0  0.52030  0.40063  0.78016  1.0000
  Mg  Mg8       1.0  0.45887  0.63439  0.19718  1.0000
  C   C89       1.0  0.46656  0.54758  0.91837  1.0000
  C   C90       1.0  0.42460  0.64744  0.04410  1.0000
  C  Sn17      1.0  0.43848  0.59618  0.19528  1.0000
  C  Sn18      1.0  0.46989  0.58548  0.22074  1.0000
  C   C91       1.0  0.48664  0.62636  0.09425  1.0000
  C   C92       1.0  0.49755  0.53707  0.94341  1.0000
  H   H41       1.0  0.45564  0.58717  0.80172  1.0000
  O  Te17      1.0  0.42122  0.55610  0.31954  1.0000
  O  Te18      1.0  0.48433  0.53462  0.37068  1.0000
  H   H42       1.0  0.51067  0.56850  0.84616  1.0000
  Mg  Mg9       1.0  0.45116  0.49320  0.50231  1.0000
  C   C93       1.0  0.91135  0.89284  0.44574  1.0000
  C   C94       1.0  0.93742  0.89174  0.56452  1.0000
  C  Sn19      1.0  0.95095  0.83825  0.70571  1.0000
  C  Sn20      1.0  0.93810  0.78495  0.72803  1.0000
  C   C95       1.0  0.91203  0.78652  0.60839  1.0000
  C   C96       1.0  0.89867  0.84028  0.46761  1.0000
  H   H43       1.0  0.90102  0.93443  0.33674  1.0000
  O  Te19      1.0  0.97698  0.83795  0.82320  1.0000
  O  Te20      1.0  0.95117  0.73088  0.86794  1.0000
  H   H44       1.0  0.87850  0.84111  0.37559  1.0000
  Mg  Mg10      1.0  0.98649  0.75324  0.99320  1.0000
  C   C97       1.0  0.94257  0.79140  0.23472  1.0000
  C   C98       1.0  0.91444  0.79393  0.13226  1.0000
  C  Sn21      1.0  0.92591  0.70743  0.99415  1.0000
  C  Sn22      1.0  0.94086  0.75973  0.95823  1.0000
  C   C99       1.0  0.94398  0.89716  0.06141  1.0000
  C   C100      1.0  0.95733  0.84296  0.19933  1.0000
  H   H45       1.0  0.95291  0.74947  0.34136  1.0000
  O  Te21      1.0  0.89779  0.70917  0.89314  1.0000
  O  Te22      1.0  0.92783  0.81422  0.82095  1.0000
  H   H46       1.0  0.97912  0.84101  0.27855  1.0000
  Mg  Mg11      1.0  0.88922  0.79394  0.72043  1.0000
  C   C101      1.0  0.72645  0.54740  0.10284  1.0000
  C   C102      1.0  0.74366  0.50332  0.09649  1.0000
  C  Sn23      1.0  0.72997  0.45649  0.07759  1.0000
  C  Sn24      1.0  0.69845  0.45387  0.06480  1.0000
  C   C103      1.0  0.68143  0.49822  0.07115  1.0000
  C   C104      1.0  0.69536  0.54487  0.09015  1.0000
  H   H47       1.0  0.73723  0.58352  0.11743  1.0000
  O  Te23      1.0  0.74750  0.41281  0.07155  1.0000
  O  Te24      1.0  0.68418  0.40758  0.04576  1.0000
  H   H48       1.0  0.68203  0.57901  0.09494  1.0000
  Mg  Mg12      1.0  0.71771  0.35859  0.04433  1.0000
  C   C105      1.0  0.82074  0.30443  0.04270  1.0000
  C   C106      1.0  0.84979  0.29598  0.01591  1.0000
  C  Sn25      1.0  0.87118  0.33607  0.01372  1.0000
  C  Sn26      1.0  0.86328  0.38548  0.03890  1.0000
  C   C107      1.0  0.83416  0.39352  0.06573  1.0000
  C   C108      1.0  0.81292  0.35314  0.06762  1.0000
  H   H49       1.0  0.80431  0.27317  0.04427  1.0000
  O  Te25      1.0  0.92513  0.18654  0.98671  1.0000
  O  Te26      1.0  0.88423  0.42622  0.03739  1.0000
  H   H50       1.0  0.79044  0.35967  0.08849  1.0000
  Mg  Mg13      1.0  0.94578  0.25432  0.99566  1.0000
  C   C109      1.0  0.88265  0.57002  0.10953  1.0000
  C   C110      1.0  0.85191  0.56666  0.11325  1.0000
  C  Sn27      1.0  0.83525  0.61253  0.11303  1.0000
  C  Sn28      1.0  0.84969  0.66266  0.10896  1.0000
  C   C111      1.0  0.88045  0.66562  0.10512  1.0000
  C   C112      1.0  0.89691  0.61945  0.10543  1.0000
  H   H51       1.0  0.89538  0.53432  0.10966  1.0000
  O  Te27      1.0  0.80456  0.60845  0.11685  1.0000
  O  Te28      1.0  0.83358  0.70915  0.10858  1.0000
  H   H52       1.0  0.92071  0.62209  0.10243  1.0000
  Mg  Mg14      1.0  0.79223  0.68311  0.11474  1.0000
  C   C113      1.0  0.91485  0.08898  0.64649  1.0000
  C   C114      1.0  0.93773  0.08623  0.55057  1.0000
  C  Sn29      1.0  0.94906  0.13780  0.42599  1.0000
  C  Sn30      1.0  0.93723  0.19308  0.39724  1.0000
  C   C115      1.0  0.91437  0.19535  0.49398  1.0000
  C   C116      1.0  0.90319  0.14347  0.61827  1.0000
  H   H53       1.0  0.90621  0.04884  0.74273  1.0000
  O  Te29      1.0  0.97191  0.13427  0.33126  1.0000
  O  Te30      1.0  0.94815  0.24530  0.27359  1.0000
  H   H54       1.0  0.88549  0.14561  0.69260  1.0000
  Mg  Mg15      1.0  0.97939  0.21771  0.17716  1.0000
  C   C117      1.0  0.94309  0.19181  0.89357  1.0000
  C   C118      1.0  0.91723  0.19512  0.96540  1.0000
  C  Sn31      1.0  0.88011  0.28429  0.08570  1.0000
  C  Sn32      1.0  0.89421  0.22875  0.13478  1.0000
  C   C119      1.0  0.92008  0.22591  0.06228  1.0000
  C   C120      1.0  0.95702  0.13705  0.94197  1.0000
  H   H55       1.0  0.95232  0.23171  0.80057  1.0000
  O  Te31      1.0  0.85425  0.28838  0.15614  1.0000
  O  Te32      1.0  0.88260  0.17682  0.25479  1.0000
  H   H56       1.0  0.97705  0.13448  0.88648  1.0000
  Mg  Mg16      1.0  0.84694  0.20517  0.31464  1.0000
  C   C121      1.0  0.14031  0.87915  0.55377  1.0000
  C   C122      1.0  0.11382  0.88157  0.62088  1.0000
  C  Sn33      1.0  0.10128  0.82980  0.73393  1.0000
  C  Sn34      1.0  0.11558  0.77465  0.78046  1.0000
  C   C123      1.0  0.14209  0.77270  0.71274  1.0000
  C   C124      1.0  0.15444  0.82478  0.59967  1.0000
  H   H57       1.0  0.14988  0.91944  0.46637  1.0000
  O  Te33      1.0  0.07479  0.83301  0.79972  1.0000
  O  Te34      1.0  0.10353  0.72223  0.89325  1.0000
  H   H58       1.0  0.17497  0.82289  0.54783  1.0000
  Mg  Mg17      1.0  0.06706  0.74940  0.94885  1.0000
  C   C125      1.0  0.33428  0.51575  0.66560  1.0000
  C   C126      1.0  0.31177  0.47975  0.64847  1.0000
  C  Sn35      1.0  0.31895  0.42825  0.63794  1.0000
  C  Sn36      1.0  0.34925  0.41260  0.64477  1.0000
  C   C127      1.0  0.37160  0.44889  0.66206  1.0000
  C   C128      1.0  0.36417  0.50034  0.67242  1.0000
  H   H59       1.0  0.32854  0.55554  0.67372  1.0000
  O  Te35      1.0  0.29619  0.39279  0.62078  1.0000
  O  Te36      1.0  0.35705  0.36136  0.63460  1.0000
  H   H60       1.0  0.38160  0.52818  0.68581  1.0000
  Mg  Mg18      1.0  0.31803  0.32737  0.61197  1.0000
  C   C129      1.0  0.23417  0.65559  0.71038  1.0000
  C   C130      1.0  0.20398  0.67390  0.67716  1.0000
  C  Sn37      1.0  0.18182  0.63923  0.64670  1.0000
  C  Sn38      1.0  0.19011  0.58524  0.64970  1.0000
  C   C131      1.0  0.22037  0.56729  0.68320  1.0000
  C   C132      1.0  0.24236  0.60233  0.71344  1.0000
  H   H61       1.0  0.25119  0.68269  0.73389  1.0000
  O  Te37      1.0  0.15176  0.65819  0.61364  1.0000
  O  Te38      1.0  0.16841  0.54972  0.61976  1.0000
  H   H62       1.0  0.26573  0.58813  0.73928  1.0000
  Mg  Mg19      1.0  0.13042  0.59446  0.58053  1.0000
  C   C133      1.0  0.22086  0.32867  0.62112  1.0000
  C   C134      1.0  0.21293  0.38302  0.61075  1.0000
  C  Sn39      1.0  0.18296  0.39923  0.59711  1.0000
  C  Sn40      1.0  0.16056  0.36021  0.59388  1.0000
  C   C135      1.0  0.16873  0.30592  0.60447  1.0000
  C   C136      1.0  0.19879  0.29015  0.61801  1.0000
  H   H63       1.0  0.24412  0.31645  0.63171  1.0000
  O  Te39      1.0  0.17542  0.45370  0.58681  1.0000
  O  Te40      1.0  0.13044  0.37530  0.58041  1.0000
  H   H64       1.0  0.20492  0.24805  0.62616  1.0000
  Mg  Mg20      1.0  0.13134  0.45440  0.56993  1.0000
  C   C137      1.0  0.56595  0.54155  0.54122  1.0000
  C   C138      1.0  0.54564  0.49913  0.54944  1.0000
  C  Sn41      1.0  0.55551  0.44562  0.56137  1.0000
  C  Sn42      1.0  0.58630  0.43449  0.56516  1.0000
  C   C139      1.0  0.60645  0.47719  0.55699  1.0000
  C   C140      1.0  0.59633  0.53059  0.54502  1.0000
  H   H65       1.0  0.55813  0.58285  0.53206  1.0000
  O  Te41      1.0  0.53491  0.40374  0.56940  1.0000
  O  Te42      1.0  0.59677  0.38138  0.57709  1.0000
  H   H66       1.0  0.61206  0.56341  0.53878  1.0000
  Mg  Mg21      1.0  0.56003  0.33809  0.58465  1.0000
  C   C141      1.0  0.72095  0.44340  0.56863  1.0000
  C   C142      1.0  0.74279  0.48243  0.56972  1.0000
  C  Sn43      1.0  0.73547  0.53252  0.58802  1.0000
  C  Sn44      1.0  0.70572  0.54362  0.60558  1.0000
  C   C143      1.0  0.68404  0.50429  0.60447  1.0000
  C   C144      1.0  0.69160  0.45430  0.58602  1.0000
  H   H67       1.0  0.72680  0.40471  0.55447  1.0000
  O  Te43      1.0  0.75756  0.57106  0.58876  1.0000
  O  Te44      1.0  0.69780  0.59334  0.62413  1.0000
  H   H68       1.0  0.67469  0.42408  0.58531  1.0000
  Mg  Mg22      1.0  0.73580  0.63282  0.61747  1.0000
  C   C145      1.0  0.82096  0.30228  0.53648  1.0000
  C   C146      1.0  0.85030  0.29257  0.51697  1.0000
  C  Sn45      1.0  0.87198  0.33151  0.52141  1.0000
  C  Sn46      1.0  0.86408  0.38105  0.54592  1.0000
  C   C147      1.0  0.83467  0.39036  0.56545  1.0000
  C   C148      1.0  0.81315  0.35112  0.56074  1.0000
  H   H69       1.0  0.80431  0.27192  0.53294  1.0000
  O  Te45      1.0  0.90119  0.32115  0.50162  1.0000
  O  Te46      1.0  0.88530  0.42065  0.55095  1.0000
  H   H70       1.0  0.79044  0.35864  0.57598  1.0000
  Mg  Mg23      1.0  0.92216  0.38768  0.51778  1.0000
  C   C149      1.0  0.83431  0.63059  0.61745  1.0000
  C   C150      1.0  0.84156  0.58088  0.59678  1.0000
  C  Sn47      1.0  0.87132  0.56590  0.60029  1.0000
  C  Sn48      1.0  0.89419  0.60141  0.62502  1.0000
  C   C151      1.0  0.88670  0.65103  0.64570  1.0000
  C   C152      1.0  0.85685  0.66563  0.64192  1.0000
  H   H71       1.0  0.81121  0.64187  0.61462  1.0000
  O  Te47      1.0  0.87818  0.51610  0.57937  1.0000
  O  Te48      1.0  0.92412  0.58744  0.62913  1.0000
  H   H72       1.0  0.85124  0.70410  0.65804  1.0000
  Mg  Mg24      1.0  0.92224  0.51521  0.59456  1.0000
