data_image0
_chemical_formula_structural       H24C56N24SnCSn2CSnTe4Mg2SnCSn2CSnTe4Mg2SnCSn2CSnTe4Mg2SnCSn2CSnTe4Mg2SnCSn2CSnTe4Mg2SnCSn2CSnTe4Mg2SnCSn2CSnTe4Mg2SnCSn2CSnTe4Mg2SnCSn2CSnTe4Mg2SnCSn2CSnTe4Mg2SnCSn2CSnTe4Mg2SnCSn2CSnTe4Mg2SnCSn2CSnTe4Mg2SnCSn2CSnTe4Mg2SnCSn2CSnTe4Mg2SnCSn2CSnTe4Mg2SnCSn2CSnTe4Mg2SnCSn2CSnTe4Mg2SnCSn2CSnTe4Mg2SnCSn2CSnTe4Mg2SnCSn2CSnTe4Mg2SnCSn2CSnTe4Mg2SnCSn2CSnTe4Mg2SnCSn2CSnTe4Mg2
_chemical_formula_sum              "H24 C104 N24 Sn96 Te96 Mg48"
_cell_length_a       45.2809
_cell_length_b       25.4887
_cell_length_c       8.03158
_cell_angle_alpha    63.4426
_cell_angle_beta     98.3691
_cell_angle_gamma    90.575

_symmetry_space_group_name_H-M    'P1'
_space_group_IT_number       1

loop_
  _space_group_symop_operation_xyz
  'x, y, z'

loop_
  _atom_site_type_symbol
  _atom_site_label
  _atom_site_symmetry_multiplicity
  _atom_site_fract_x
  _atom_site_fract_y
  _atom_site_fract_z
  _atom_site_occupancy
  H   H1        1.0  0.19505  0.75806  0.19042  1.0000
  H   H2        1.0  0.40850  0.41731  0.12660  1.0000
  H   H3        1.0  0.12821  0.27540  0.06322  1.0000
  H   H4        1.0  0.12789  0.97984  0.12896  1.0000
  H   H5        1.0  0.05508  0.11124  0.14289  1.0000
  H   H6        1.0  0.00066  0.11430  0.12892  1.0000
  H   H7        1.0  0.99584  0.86325  0.03124  1.0000
  H   H8        1.0  0.05027  0.86013  0.04697  1.0000
  H   H9        1.0  0.92322  0.99162  0.06398  1.0000
  H   H10       1.0  0.85592  0.21049  0.01658  1.0000
  H   H11       1.0  0.64516  0.53269  0.14952  1.0000
  H   H12       1.0  0.92465  0.69430  0.13889  1.0000
  H   H13       1.0  0.19806  0.75761  0.69093  1.0000
  H   H14       1.0  0.40949  0.40991  0.64269  1.0000
  H   H15       1.0  0.12821  0.27362  0.56411  1.0000
  H   H16       1.0  0.12898  0.97815  0.63305  1.0000
  H   H17       1.0  0.05543  0.10897  0.64566  1.0000
  H   H18       1.0  0.00117  0.11115  0.63190  1.0000
  H   H19       1.0  0.99754  0.85906  0.54007  1.0000
  H   H20       1.0  0.05160  0.85707  0.55135  1.0000
  H   H21       1.0  0.92421  0.98834  0.56293  1.0000
  H   H22       1.0  0.85651  0.20697  0.51765  1.0000
  H   H23       1.0  0.64700  0.53656  0.65051  1.0000
  H   H24       1.0  0.92663  0.68945  0.64685  1.0000
  C   C1        1.0  0.22867  0.43981  0.14067  1.0000
  C   C2        1.0  0.27488  0.47509  0.16033  1.0000
  C   C3        1.0  0.23385  0.52551  0.16378  1.0000
  C   C4        1.0  0.17975  0.72431  0.18962  1.0000
  C   C5        1.0  0.40005  0.45859  0.12074  1.0000
  C   C6        1.0  0.15242  0.26498  0.08335  1.0000
  C   C7        1.0  0.08932  0.03169  0.10550  1.0000
  C   C8        1.0  0.05788  0.03283  0.10412  1.0000
  C   C9        1.0  0.04145  0.98534  0.09750  1.0000
  C   C10       1.0  0.05675  0.93600  0.10013  1.0000
  C   C11       1.0  0.08857  0.93276  0.12223  1.0000
  C   C12       1.0  0.10369  0.98129  0.11937  1.0000
  C   C13       1.0  0.04219  0.07835  0.11928  1.0000
  C   C14       1.0  0.01183  0.08006  0.11125  1.0000
  C   C15       1.0  0.99427  0.03644  0.08651  1.0000
  C   C16       1.0  0.00959  0.98717  0.08881  1.0000
  C   C17       1.0  0.99313  0.93993  0.08023  1.0000
  C   C18       1.0  0.00874  0.89520  0.06038  1.0000
  C   C19       1.0  0.03912  0.89337  0.06960  1.0000
  C   C20       1.0  0.96247  0.03908  0.06830  1.0000
  C   C21       1.0  0.94740  0.99043  0.07182  1.0000
  C   C22       1.0  0.96175  0.94070  0.08097  1.0000
  C   C23       1.0  0.82433  0.52623  0.08535  1.0000
  C   C24       1.0  0.77846  0.48862  0.08128  1.0000
  C   C25       1.0  0.81903  0.44046  0.06322  1.0000
  C   C26       1.0  0.87092  0.24560  0.00752  1.0000
  C   C27       1.0  0.65226  0.50349  0.09305  1.0000
  C   C28       1.0  0.90038  0.70444  0.11727  1.0000
  C   C29       1.0  0.22894  0.43797  0.63944  1.0000
  C   C30       1.0  0.27543  0.47227  0.65632  1.0000
  C   C31       1.0  0.23498  0.52378  0.66104  1.0000
  C   C32       1.0  0.18272  0.72416  0.68787  1.0000
  C   C33       1.0  0.40102  0.45155  0.63403  1.0000
  C   C34       1.0  0.15243  0.26382  0.58139  1.0000
  C   C35       1.0  0.09017  0.02967  0.60818  1.0000
  C   C36       1.0  0.05871  0.03069  0.60544  1.0000
  C   C37       1.0  0.04250  0.98302  0.59828  1.0000
  C   C38       1.0  0.05801  0.93386  0.60066  1.0000
  C   C39       1.0  0.08985  0.93108  0.62189  1.0000
  C   C40       1.0  0.10474  0.97955  0.62143  1.0000
  C   C41       1.0  0.04282  0.07595  0.62110  1.0000
  C   C42       1.0  0.01245  0.07735  0.61239  1.0000
  C   C43       1.0  0.99509  0.03378  0.58590  1.0000
  C   C44       1.0  0.01062  0.98451  0.58942  1.0000
  C   C45       1.0  0.99436  0.93680  0.58309  1.0000
  C   C46       1.0  0.01019  0.89188  0.56555  1.0000
  C   C47       1.0  0.04053  0.89061  0.57297  1.0000
  C   C48       1.0  0.96329  0.03627  0.56585  1.0000
  C   C49       1.0  0.94839  0.98728  0.57101  1.0000
  C   C50       1.0  0.96295  0.93732  0.58315  1.0000
  C   C51       1.0  0.82569  0.52342  0.58459  1.0000
  C   C52       1.0  0.77939  0.48774  0.57632  1.0000
  C   C53       1.0  0.81959  0.43807  0.56034  1.0000
  C   C54       1.0  0.87152  0.24198  0.50958  1.0000
  C   C55       1.0  0.65358  0.50759  0.59194  1.0000
  C   C56       1.0  0.90238  0.69937  0.62725  1.0000
  N   N1        1.0  0.21542  0.48561  0.14816  1.0000
  N   N2        1.0  0.25831  0.43231  0.14790  1.0000
  N   N3        1.0  0.26378  0.52231  0.17022  1.0000
  N   N4        1.0  0.15164  0.72860  0.19785  1.0000
  N   N5        1.0  0.16295  0.21491  0.10643  1.0000
  N   N6        1.0  0.41676  0.50222  0.09110  1.0000
  N   N7        1.0  0.83734  0.48162  0.07015  1.0000
  N   N8        1.0  0.79486  0.53242  0.08773  1.0000
  N   N9        1.0  0.78955  0.44154  0.07106  1.0000
  N   N10       1.0  0.88946  0.75497  0.08798  1.0000
  N   N11       1.0  0.63358  0.47313  0.04027  1.0000
  N   N12       1.0  0.89848  0.24326  0.98492  1.0000
  N   N13       1.0  0.21616  0.48416  0.64703  1.0000
  N   N14       1.0  0.25852  0.42965  0.64595  1.0000
  N   N15       1.0  0.26480  0.52004  0.66493  1.0000
  N   N16       1.0  0.15450  0.72881  0.69281  1.0000
  N   N17       1.0  0.16317  0.21428  0.60139  1.0000
  N   N18       1.0  0.41779  0.49503  0.60591  1.0000
  N   N19       1.0  0.83829  0.47859  0.56870  1.0000
  N   N20       1.0  0.79631  0.53038  0.58660  1.0000
  N   N21       1.0  0.78998  0.44053  0.56431  1.0000
  N   N22       1.0  0.89146  0.74992  0.59779  1.0000
  N   N23       1.0  0.63459  0.47841  0.53587  1.0000
  N   N24       1.0  0.89915  0.23960  0.48807  1.0000
  C  Sn1       1.0  0.10528  0.80929  0.31783  1.0000
  C   C57       1.0  0.11031  0.86850  0.21240  1.0000
  C  Sn2       1.0  0.12851  0.88521  0.07288  1.0000
  C  Sn3       1.0  0.14195  0.84184  0.03791  1.0000
  C   C58       1.0  0.13691  0.78268  0.14329  1.0000
  C  Sn4       1.0  0.11871  0.76592  0.28287  1.0000
  O  Te1       1.0  0.08700  0.79359  0.45661  1.0000
  O  Te2       1.0  0.15825  0.80424  0.96934  1.0000
  O  Te3       1.0  0.18526  0.71716  0.89901  1.0000
  O  Te4       1.0  0.11400  0.70651  0.38634  1.0000
  Mg  Mg1       1.0  0.18492  0.80374  0.79530  1.0000
  Mg  Mg2       1.0  0.08732  0.70695  0.56034  1.0000
  C  Sn5       1.0  0.34138  0.42595  0.07438  1.0000
  C   C59       1.0  0.36340  0.46292  0.09077  1.0000
  C  Sn6       1.0  0.35794  0.50227  0.16187  1.0000
  C  Sn7       1.0  0.32989  0.50469  0.21788  1.0000
  C   C60       1.0  0.30790  0.46773  0.20151  1.0000
  C  Sn8       1.0  0.31334  0.42838  0.13039  1.0000
  O  Te5       1.0  0.34733  0.38695  0.00293  1.0000
  O  Te6       1.0  0.38029  0.53880  0.17687  1.0000
  O  Te7       1.0  0.32396  0.54374  0.28937  1.0000
  O  Te8       1.0  0.29100  0.39185  0.11541  1.0000
  Mg  Mg3       1.0  0.36152  0.58452  0.28274  1.0000
  Mg  Mg4       1.0  0.30975  0.34610  0.00966  1.0000
  C  Sn9       1.0  0.23751  0.62138  0.25493  1.0000
  C   C61       1.0  0.22333  0.57611  0.22855  1.0000
  C  Sn10      1.0  0.19274  0.58218  0.16009  1.0000
  C  Sn11      1.0  0.17598  0.63461  0.11699  1.0000
  C   C62       1.0  0.19017  0.67985  0.14333  1.0000
  C  Sn12      1.0  0.22075  0.67381  0.21182  1.0000
  O  Te9       1.0  0.26812  0.61436  0.32351  1.0000
  O  Te10      1.0  0.17905  0.53631  0.13495  1.0000
  O  Te11      1.0  0.14535  0.64160  0.04836  1.0000
  O  Te12      1.0  0.23444  0.71965  0.23694  1.0000
  Mg  Mg5       1.0  0.13682  0.56673  0.03787  1.0000
  Mg  Mg6       1.0  0.27667  0.68929  0.33391  1.0000
  C  Sn13      1.0  0.17323  0.38709  0.16126  1.0000
  C   C63       1.0  0.20430  0.38760  0.17121  1.0000
  C  Sn14      1.0  0.21971  0.35058  0.12263  1.0000
  C  Sn15      1.0  0.20374  0.31229  0.06272  1.0000
  C   C64       1.0  0.17270  0.31180  0.05276  1.0000
  C  Sn16      1.0  0.15726  0.34879  0.10136  1.0000
  O  Te13      1.0  0.15828  0.42447  0.21051  1.0000
  O  Te14      1.0  0.25077  0.35186  0.13376  1.0000
  O  Te15      1.0  0.21872  0.27489  0.01347  1.0000
  O  Te16      1.0  0.12622  0.34754  0.09021  1.0000
  Mg  Mg7       1.0  0.26110  0.29270  0.05169  1.0000
  Mg  Mg8       1.0  0.11587  0.40670  0.17216  1.0000
  C  Sn17      1.0  0.15468  0.09895  0.19960  1.0000
  C   C65       1.0  0.14972  0.15917  0.08059  1.0000
  C  Sn18      1.0  0.14648  0.04206  0.97615  1.0000
  C  Sn19      1.0  0.12268  0.00440  0.99105  1.0000
  C   C66       1.0  0.10262  0.08465  0.11003  1.0000
  C  Sn20      1.0  0.13087  0.06129  0.21450  1.0000
  O  Te17      1.0  0.18311  0.07660  0.30270  1.0000
  O  Te18      1.0  0.14207  0.10241  0.85806  1.0000
  O  Te19      1.0  0.09423  0.02681  0.88781  1.0000
  O  Te20      1.0  0.13529  0.00098  0.33255  1.0000
  Mg  Mg9       1.0  0.09932  0.11198  0.74630  1.0000
  Mg  Mg10      1.0  0.17802  0.99137  0.44445  1.0000
  C  Sn21      1.0  0.10740  0.17811  0.49739  1.0000
  C   C67       1.0  0.13469  0.17441  0.60984  1.0000
  C  Sn22      1.0  0.15120  0.12061  0.71370  1.0000
  C  Sn23      1.0  0.14022  0.06946  0.70489  1.0000
  C   C68       1.0  0.11295  0.07318  0.59247  1.0000
  C  Sn24      1.0  0.09641  0.12696  0.48858  1.0000
  O  Te21      1.0  0.09126  0.23235  0.39474  1.0000
  O  Te22      1.0  0.17842  0.11800  0.82517  1.0000
  O  Te23      1.0  0.15638  0.01520  0.80766  1.0000
  O  Te24      1.0  0.06921  0.12959  0.37713  1.0000
  Mg  Mg11      1.0  0.19224  0.03402  0.93901  1.0000
  Mg  Mg12      1.0  0.05539  0.21355  0.26317  1.0000
  C  Sn25      1.0  0.58386  0.53199  0.06865  1.0000
  C   C69       1.0  0.60175  0.48429  0.09053  1.0000
  C  Sn26      1.0  0.58871  0.43541  0.08252  1.0000
  C  Sn27      1.0  0.55711  0.43419  0.05188  1.0000
  C   C70       1.0  0.53924  0.48188  0.02998  1.0000
  C  Sn28      1.0  0.55227  0.53078  0.03800  1.0000
  O  Te25      1.0  0.59738  0.58040  0.07716  1.0000
  O  Te26      1.0  0.60706  0.38824  0.10486  1.0000
  O  Te27      1.0  0.54360  0.38573  0.04338  1.0000
  O  Te28      1.0  0.53393  0.57793  0.01565  1.0000
  Mg  Mg13      1.0  0.57808  0.33224  0.08196  1.0000
  Mg  Mg14      1.0  0.56288  0.63396  0.03843  1.0000
  C  Sn29      1.0  0.46509  0.53260  0.41438  1.0000
  C   C71       1.0  0.44961  0.49104  0.54804  1.0000
  C  Sn30      1.0  0.46518  0.44692  0.71492  1.0000
  C  Sn31      1.0  0.49689  0.44431  0.74899  1.0000
  C   C72       1.0  0.51235  0.48586  0.61539  1.0000
  C  Sn32      1.0  0.49679  0.52999  0.44844  1.0000
  O  Te29      1.0  0.44906  0.57632  0.24854  1.0000
  O  Te30      1.0  0.44922  0.40585  0.84642  1.0000
  O  Te31      1.0  0.51291  0.40054  0.91499  1.0000
  O  Te32      1.0  0.51274  0.57105  0.31702  1.0000
  Mg  Mg15      1.0  0.45609  0.49507  0.05108  1.0000
  Mg  Mg16      1.0  0.48087  0.62230  0.11236  1.0000
  C  Sn33      1.0  0.47412  0.45169  0.26340  1.0000
  C   C73       1.0  0.45242  0.49491  0.13511  1.0000
  C  Sn34      1.0  0.48329  0.39324  0.95596  1.0000
  C  Sn35      1.0  0.51142  0.38869  0.90388  1.0000
  C   C74       1.0  0.50808  0.48592  0.03211  1.0000
  C  Sn36      1.0  0.50225  0.44714  0.21132  1.0000
  O  Te33      1.0  0.46779  0.41341  0.44174  1.0000
  O  Te34      1.0  0.46125  0.43610  0.83015  1.0000
  O  Te35      1.0  0.51774  0.42702  0.72538  1.0000
  O  Te36      1.0  0.52428  0.40430  0.33707  1.0000
  Mg  Mg17      1.0  0.48050  0.47803  0.60348  1.0000
  Mg  Mg18      1.0  0.50504  0.36233  0.56373  1.0000
  C  Sn37      1.0  0.90829  0.89253  0.49731  1.0000
  C   C75       1.0  0.93594  0.88970  0.60519  1.0000
  C  Sn38      1.0  0.95285  0.83632  0.70766  1.0000
  C  Sn39      1.0  0.94192  0.78469  0.70210  1.0000
  C   C76       1.0  0.91429  0.78754  0.59425  1.0000
  C  Sn40      1.0  0.89736  0.84091  0.49175  1.0000
  O  Te37      1.0  0.88611  0.94637  0.39598  1.0000
  O  Te38      1.0  0.98042  0.83457  0.81453  1.0000
  O  Te39      1.0  0.95847  0.73083  0.80355  1.0000
  O  Te40      1.0  0.86981  0.84266  0.38490  1.0000
  Mg  Mg19      1.0  0.99471  0.75085  0.92825  1.0000
  Mg  Mg20      1.0  0.85551  0.92637  0.27106  1.0000
  C  Sn41      1.0  0.90118  0.89708  0.99366  1.0000
  C   C77       1.0  0.90386  0.03393  0.10199  1.0000
  C  Sn42      1.0  0.92055  0.98024  0.20298  1.0000
  C  Sn43      1.0  0.91497  0.92907  0.19546  1.0000
  C   C78       1.0  0.88728  0.93267  0.08716  1.0000
  C  Sn44      1.0  0.89560  0.84590  0.98614  1.0000
  O  Te41      1.0  0.88488  0.95121  0.89383  1.0000
  O  Te42      1.0  0.94819  0.97775  0.31035  1.0000
  O  Te43      1.0  0.93130  0.87491  0.29541  1.0000
  O  Te44      1.0  0.86798  0.84841  0.87880  1.0000
  Mg  Mg21      1.0  0.96774  0.89388  0.42150  1.0000
  Mg  Mg22      1.0  0.84841  0.93226  0.76752  1.0000
  C  Sn45      1.0  0.70491  0.43874  0.12312  1.0000
  C   C79       1.0  0.68831  0.48263  0.13447  1.0000
  C  Sn46      1.0  0.70060  0.53604  0.10444  1.0000
  C  Sn47      1.0  0.73010  0.54580  0.06205  1.0000
  C   C80       1.0  0.74668  0.50193  0.05068  1.0000
  C  Sn48      1.0  0.73441  0.44850  0.08073  1.0000
  O  Te45      1.0  0.69217  0.38569  0.15366  1.0000
  O  Te46      1.0  0.68357  0.57925  0.11660  1.0000
  O  Te47      1.0  0.74283  0.59890  0.03151  1.0000
  O  Te48      1.0  0.75142  0.40531  0.06855  1.0000
  Mg  Mg23      1.0  0.71075  0.64423  0.06344  1.0000
  Mg  Mg24      1.0  0.72426  0.34033  0.12159  1.0000
  C  Sn49      1.0  0.89058  0.24807  0.97532  1.0000
  C   C81       1.0  0.86104  0.25683  0.99354  1.0000
  C  Sn50      1.0  0.81706  0.35087  0.04335  1.0000
  C  Sn51      1.0  0.82787  0.29454  0.07575  1.0000
  C   C82       1.0  0.85739  0.28580  0.05755  1.0000
  C  Sn52      1.0  0.87636  0.33217  0.00771  1.0000
  O  Te49      1.0  0.90913  0.29508  0.92540  1.0000
  O  Te50      1.0  0.78761  0.36070  0.06065  1.0000
  O  Te51      1.0  0.80928  0.24752  0.12569  1.0000
  O  Te52      1.0  0.93082  0.18193  0.99045  1.0000
  Mg  Mg25      1.0  0.77095  0.28279  0.13177  1.0000
  Mg  Mg26      1.0  0.94750  0.25980  0.91944  1.0000
  C  Sn53      1.0  0.83280  0.64095  0.04653  1.0000
  C   C83       1.0  0.84126  0.58757  0.05187  1.0000
  C  Sn54      1.0  0.87112  0.56586  0.10894  1.0000
  C  Sn55      1.0  0.89297  0.59816  0.16189  1.0000
  C   C84       1.0  0.88450  0.65149  0.15657  1.0000
  C  Sn56      1.0  0.85466  0.67324  0.09949  1.0000
  O  Te53      1.0  0.82786  0.52138  0.98903  1.0000
  O  Te54      1.0  0.87903  0.51240  0.11307  1.0000
  O  Te55      1.0  0.92296  0.57724  0.21942  1.0000
  O  Te56      1.0  0.84673  0.72666  0.09537  1.0000
  Mg  Mg27      1.0  0.92271  0.50225  0.20165  1.0000
  Mg  Mg28      1.0  0.80307  0.73685  0.00692  1.0000
  C  Sn57      1.0  0.93566  0.18720  0.35210  1.0000
  C   C85       1.0  0.91198  0.18875  0.44396  1.0000
  C  Sn58      1.0  0.90595  0.13864  0.60116  1.0000
  C  Sn59      1.0  0.92398  0.08588  0.66803  1.0000
  C   C86       1.0  0.94765  0.08435  0.57622  1.0000
  C  Sn60      1.0  0.95369  0.13444  0.41897  1.0000
  O  Te57      1.0  0.94128  0.23782  0.19521  1.0000
  O  Te58      1.0  0.88215  0.14125  0.69061  1.0000
  O  Te59      1.0  0.91834  0.03524  0.82506  1.0000
  O  Te60      1.0  0.97749  0.13185  0.32957  1.0000
  Mg  Mg29      1.0  0.88340  0.06074  0.89903  1.0000
  Mg  Mg30      1.0  0.97626  0.21234  0.12121  1.0000
  C  Sn61      1.0  0.90924  0.09419  0.08819  1.0000
  C   C87       1.0  0.93445  0.09209  0.00903  1.0000
  C  Sn62      1.0  0.97573  0.00145  0.93027  1.0000
  C  Sn63      1.0  0.96660  0.05445  0.93074  1.0000
  C   C88       1.0  0.91639  0.19696  0.00990  1.0000
  C  Sn64      1.0  0.90012  0.14719  0.08866  1.0000
  O  Te61      1.0  0.89333  0.04388  0.16615  1.0000
  O  Te62      1.0  0.00085  0.99828  0.85190  1.0000
  O  Te63      1.0  0.98253  0.10478  0.85269  1.0000
  O  Te64      1.0  0.87502  0.15034  0.16703  1.0000
  Mg  Mg31      1.0  0.01520  0.07855  0.76281  1.0000
  Mg  Mg32      1.0  0.86066  0.07009  0.25623  1.0000
  C  Sn65      1.0  0.10575  0.78122  0.73367  1.0000
  C   C89       1.0  0.13103  0.78012  0.65377  1.0000
  C  Sn66      1.0  0.14759  0.82979  0.58210  1.0000
  C  Sn67      1.0  0.13871  0.88164  0.59055  1.0000
  C   C90       1.0  0.11345  0.88272  0.67044  1.0000
  C  Sn68      1.0  0.09688  0.83307  0.74213  1.0000
  O  Te65      1.0  0.08954  0.73105  0.80447  1.0000
  O  Te66      1.0  0.17277  0.82764  0.50283  1.0000
  O  Te67      1.0  0.14930  0.93183  0.51967  1.0000
  O  Te68      1.0  0.07171  0.83521  0.82138  1.0000
  Mg  Mg33      1.0  0.18758  0.90725  0.42536  1.0000
  Mg  Mg34      1.0  0.05690  0.75562  0.89898  1.0000
  C  Sn69      1.0  0.34236  0.41813  0.58861  1.0000
  C   C91       1.0  0.36427  0.45616  0.59785  1.0000
  C  Sn70      1.0  0.35845  0.49860  0.65598  1.0000
  C  Sn71      1.0  0.33014  0.50312  0.70605  1.0000
  C   C92       1.0  0.30826  0.46510  0.69683  1.0000
  C  Sn72      1.0  0.31405  0.42264  0.63867  1.0000
  O  Te69      1.0  0.34866  0.37602  0.53011  1.0000
  O  Te70      1.0  0.38070  0.53614  0.66403  1.0000
  O  Te71      1.0  0.32385  0.54527  0.76457  1.0000
  O  Te72      1.0  0.29182  0.38511  0.63064  1.0000
  Mg  Mg35      1.0  0.36141  0.58632  0.75252  1.0000
  Mg  Mg36      1.0  0.31109  0.33490  0.54227  1.0000
  C  Sn73      1.0  0.17883  0.61040  0.70918  1.0000
  C   C93       1.0  0.19350  0.65609  0.73017  1.0000
  C  Sn74      1.0  0.22340  0.66420  0.70538  1.0000
  C  Sn75      1.0  0.23895  0.62588  0.65852  1.0000
  C   C94       1.0  0.22428  0.58024  0.63753  1.0000
  C  Sn76      1.0  0.19438  0.57208  0.66232  1.0000
  O  Te73      1.0  0.14893  0.60311  0.73461  1.0000
  O  Te74      1.0  0.23759  0.71017  0.72717  1.0000
  O  Te75      1.0  0.26887  0.63321  0.63310  1.0000
  O  Te76      1.0  0.18019  0.52615  0.64053  1.0000
  Mg  Mg37      1.0  0.27849  0.70221  0.67795  1.0000
  Mg  Mg38      1.0  0.13929  0.53409  0.68962  1.0000
  C  Sn77      1.0  0.20962  0.29946  0.66430  1.0000
  C   C95       1.0  0.17843  0.30040  0.64534  1.0000
  C  Sn78      1.0  0.16172  0.35240  0.59624  1.0000
  C  Sn79      1.0  0.17648  0.40457  0.56532  1.0000
  C   C96       1.0  0.20765  0.40361  0.58425  1.0000
  C  Sn80      1.0  0.22439  0.35162  0.63339  1.0000
  O  Te77      1.0  0.22589  0.24697  0.71349  1.0000
  O  Te78      1.0  0.13056  0.35225  0.57818  1.0000
  O  Te79      1.0  0.16019  0.45707  0.51610  1.0000
  O  Te80      1.0  0.25552  0.35176  0.65141  1.0000
  Mg  Mg39      1.0  0.11822  0.43467  0.50853  1.0000
  Mg  Mg40      1.0  0.26789  0.26938  0.72096  1.0000
  C  Sn81      1.0  0.58479  0.53152  0.58915  1.0000
  C   C97       1.0  0.60285  0.48662  0.59363  1.0000
  C  Sn82      1.0  0.58998  0.44008  0.56868  1.0000
  C  Sn83      1.0  0.55841  0.43840  0.53850  1.0000
  C   C98       1.0  0.54037  0.48328  0.53400  1.0000
  C  Sn84      1.0  0.55322  0.52984  0.55897  1.0000
  O  Te81      1.0  0.59813  0.57762  0.61442  1.0000
  O  Te82      1.0  0.60850  0.39569  0.57379  1.0000
  O  Te83      1.0  0.54507  0.39224  0.51323  1.0000
  O  Te84      1.0  0.53472  0.57421  0.55384  1.0000
  Mg  Mg41      1.0  0.57974  0.34214  0.53187  1.0000
  Mg  Mg42      1.0  0.56345  0.62780  0.59564  1.0000
  C  Sn85      1.0  0.72021  0.45745  0.50830  1.0000
  C   C99       1.0  0.74216  0.49394  0.52919  1.0000
  C  Sn86      1.0  0.73612  0.53372  0.59758  1.0000
  C  Sn87      1.0  0.70756  0.53706  0.64623  1.0000
  C   C100      1.0  0.68563  0.50058  0.62536  1.0000
  C  Sn88      1.0  0.69165  0.46080  0.55695  1.0000
  O  Te85      1.0  0.72674  0.41802  0.43967  1.0000
  O  Te86      1.0  0.75841  0.56976  0.61718  1.0000
  O  Te87      1.0  0.70104  0.57654  0.71489  1.0000
  O  Te88      1.0  0.66938  0.42477  0.53737  1.0000
  Mg  Mg43      1.0  0.73876  0.61637  0.71667  1.0000
  Mg  Mg44      1.0  0.68901  0.37812  0.43799  1.0000
  C  Sn89      1.0  0.82147  0.31284  0.47443  1.0000
  C   C101      1.0  0.85155  0.30104  0.47467  1.0000
  C  Sn90      1.0  0.87378  0.33101  0.52996  1.0000
  C  Sn91      1.0  0.86577  0.37363  0.58630  1.0000
  C   C102      1.0  0.83571  0.38541  0.58607  1.0000
  C  Sn92      1.0  0.81346  0.35547  0.53077  1.0000
  O  Te89      1.0  0.79962  0.28235  0.41863  1.0000
  O  Te90      1.0  0.90370  0.31848  0.52897  1.0000
  O  Te91      1.0  0.88765  0.40413  0.64211  1.0000
  O  Te92      1.0  0.78356  0.36797  0.53177  1.0000
  Mg  Mg45      1.0  0.92533  0.37158  0.61705  1.0000
  Mg  Mg46      1.0  0.76191  0.31488  0.44382  1.0000
  C  Sn93      1.0  0.83459  0.63708  0.55531  1.0000
  C   C103      1.0  0.84282  0.58452  0.55440  1.0000
  C  Sn94      1.0  0.87263  0.56257  0.60878  1.0000
  C  Sn95      1.0  0.89468  0.59377  0.66537  1.0000
  C   C104      1.0  0.88646  0.64629  0.66630  1.0000
  C  Sn96      1.0  0.85665  0.66829  0.61191  1.0000
  O  Te93      1.0  0.80466  0.65821  0.50040  1.0000
  O  Te94      1.0  0.88031  0.50994  0.60664  1.0000
  O  Te95      1.0  0.92464  0.57259  0.72030  1.0000
  O  Te96      1.0  0.84896  0.72088  0.61406  1.0000
  Mg  Mg47      1.0  0.92403  0.49901  0.69380  1.0000
  Mg  Mg48      1.0  0.80525  0.73183  0.52702  1.0000
