data_image0
_chemical_formula_structural       H96C164N24C2Sn2C2HTe2HMgC2Sn2C2HTe2HMgC2Sn2C2HTe2HMgC2Sn2C2HTe2HMgC2Sn2C2HTe2HMgC2Sn2C2HTe2HMg
_chemical_formula_sum              "H108 C188 N24 Sn12 Te12 Mg6"
_cell_length_a       45.2433
_cell_length_b       25.6228
_cell_length_c       8.00466
_cell_angle_alpha    70.8318
_cell_angle_beta     101.575
_cell_angle_gamma    92.3503

_symmetry_space_group_name_H-M    'P1'
_space_group_IT_number       1

loop_
  _space_group_symop_operation_xyz
  'x, y, z'

loop_
  _atom_site_type_symbol
  _atom_site_label
  _atom_site_symmetry_multiplicity
  _atom_site_fract_x
  _atom_site_fract_y
  _atom_site_fract_z
  _atom_site_occupancy
  H   H1        1.0  0.08392  0.83439  0.31520  1.0000
  H   H2        1.0  0.11659  0.75336  0.35279  1.0000
  H   H3        1.0  0.31668  0.39968  0.45229  1.0000
  H   H4        1.0  0.37203  0.39174  0.46542  1.0000
  H   H5        1.0  0.31551  0.55248  0.01475  1.0000
  H   H6        1.0  0.25615  0.65119  0.02429  1.0000
  H   H7        1.0  0.23159  0.73945  0.99985  1.0000
  H   H8        1.0  0.18773  0.56565  0.30848  1.0000
  H   H9        1.0  0.17407  0.45935  0.44230  1.0000
  H   H10       1.0  0.14193  0.38046  0.40488  1.0000
  H   H11       1.0  0.23263  0.34171  0.38501  1.0000
  H   H12       1.0  0.18912  0.78737  0.02247  1.0000
  H   H13       1.0  0.41709  0.43062  0.37577  1.0000
  H   H14       1.0  0.13919  0.28131  0.45259  1.0000
  H   H15       1.0  0.14219  0.03981  0.37324  1.0000
  H   H16       1.0  0.17057  0.12325  0.39742  1.0000
  H   H17       1.0  0.10497  0.22435  0.45520  1.0000
  H   H18       1.0  0.07763  0.14110  0.43352  1.0000
  H   H19       1.0  0.45911  0.40759  0.35623  1.0000
  H   H20       1.0  0.51260  0.40361  0.33824  1.0000
  H   H21       1.0  0.12990  0.99082  0.16451  1.0000
  H   H22       1.0  0.05289  0.10830  0.19378  1.0000
  H   H23       1.0  0.99804  0.10619  0.15298  1.0000
  H   H24       1.0  0.00044  0.86190  0.48845  1.0000
  H   H25       1.0  0.05459  0.86694  0.01766  1.0000
  H   H26       1.0  0.92276  0.98054  0.01741  1.0000
  H   H27       1.0  0.73613  0.57137  0.27136  1.0000
  H   H28       1.0  0.68098  0.57708  0.27201  1.0000
  H   H29       1.0  0.73830  0.41108  0.18355  1.0000
  H   H30       1.0  0.79746  0.31936  0.16740  1.0000
  H   H31       1.0  0.82230  0.23210  0.18695  1.0000
  H   H32       1.0  0.86550  0.40733  0.37663  1.0000
  H   H33       1.0  0.87903  0.51126  0.25411  1.0000
  H   H34       1.0  0.91076  0.59079  0.29249  1.0000
  H   H35       1.0  0.82061  0.62749  0.30845  1.0000
  H   H36       1.0  0.86456  0.18537  0.16114  1.0000
  H   H37       1.0  0.63699  0.53788  0.37553  1.0000
  H   H38       1.0  0.91243  0.69082  0.24180  1.0000
  H   H39       1.0  0.96929  0.13745  0.35344  1.0000
  H   H40       1.0  0.93778  0.21895  0.32302  1.0000
  H   H41       1.0  0.88035  0.11133  0.16020  1.0000
  H   H42       1.0  0.91166  0.03137  0.19331  1.0000
  H   H43       1.0  0.19219  0.51026  0.14425  1.0000
  H   H44       1.0  0.26788  0.40345  0.21588  1.0000
  H   H45       1.0  0.28251  0.57057  0.21232  1.0000
  H   H46       1.0  0.86071  0.46221  0.04638  1.0000
  H   H47       1.0  0.78503  0.56568  0.99954  1.0000
  H   H48       1.0  0.77169  0.39954  0.48101  1.0000
  H   H49       1.0  0.17391  0.86180  0.03111  1.0000
  H   H50       1.0  0.14166  0.94131  0.99316  1.0000
  H   H51       1.0  0.31756  0.39994  0.94911  1.0000
  H   H52       1.0  0.37313  0.39138  0.96273  1.0000
  H   H53       1.0  0.31696  0.55303  0.51365  1.0000
  H   H54       1.0  0.25728  0.64888  0.52518  1.0000
  H   H55       1.0  0.23278  0.73758  0.49977  1.0000
  H   H56       1.0  0.18839  0.56389  0.80532  1.0000
  H   H57       1.0  0.17507  0.45851  0.93452  1.0000
  H   H58       1.0  0.14489  0.37887  0.88824  1.0000
  H   H59       1.0  0.23471  0.34019  0.86712  1.0000
  H   H60       1.0  0.19170  0.78591  0.52954  1.0000
  H   H61       1.0  0.41876  0.43275  0.87742  1.0000
  H   H62       1.0  0.14477  0.27654  0.94243  1.0000
  H   H63       1.0  0.14236  0.03943  0.87970  1.0000
  H   H64       1.0  0.17029  0.12397  0.90126  1.0000
  H   H65       1.0  0.10385  0.22624  0.96738  1.0000
  H   H66       1.0  0.07567  0.14359  0.94366  1.0000
  H   H67       1.0  0.50047  0.55450  0.88759  1.0000
  H   H68       1.0  0.44622  0.55865  0.90525  1.0000
  H   H69       1.0  0.13082  0.98943  0.66588  1.0000
  H   H70       1.0  0.05399  0.10719  0.69292  1.0000
  H   H71       1.0  0.99886  0.10581  0.64826  1.0000
  H   H72       1.0  0.99962  0.86416  0.98047  1.0000
  H   H73       1.0  0.05529  0.86390  0.52815  1.0000
  H   H74       1.0  0.92366  0.98015  0.51812  1.0000
  H   H75       1.0  0.73553  0.57067  0.77491  1.0000
  H   H76       1.0  0.68036  0.57637  0.77275  1.0000
  H   H77       1.0  0.73925  0.41178  0.68068  1.0000
  H   H78       1.0  0.79952  0.31901  0.67566  1.0000
  H   H79       1.0  0.82450  0.23145  0.69430  1.0000
  H   H80       1.0  0.86599  0.40744  0.88923  1.0000
  H   H81       1.0  0.87786  0.51318  0.76757  1.0000
  H   H82       1.0  0.90860  0.59358  0.80383  1.0000
  H   H83       1.0  0.81941  0.62915  0.81931  1.0000
  H   H84       1.0  0.86521  0.18502  0.65487  1.0000
  H   H85       1.0  0.63632  0.53788  0.87826  1.0000
  H   H86       1.0  0.90904  0.69569  0.73904  1.0000
  H   H87       1.0  0.96835  0.13701  0.85964  1.0000
  H   H88       1.0  0.93692  0.21863  0.82896  1.0000
  H   H89       1.0  0.88133  0.11178  0.65437  1.0000
  H   H90       1.0  0.91248  0.03153  0.68523  1.0000
  H   H91       1.0  0.19330  0.50878  0.64505  1.0000
  H   H92       1.0  0.26869  0.40302  0.70263  1.0000
  H   H93       1.0  0.28360  0.56899  0.71020  1.0000
  H   H94       1.0  0.86164  0.46134  0.54864  1.0000
  H   H95       1.0  0.78572  0.56568  0.49087  1.0000
  H   H96       1.0  0.77091  0.39916  0.99472  1.0000
  C   C1        1.0  0.10979  0.89378  0.14610  1.0000
  C   C2        1.0  0.10309  0.84007  0.24857  1.0000
  C   C3        1.0  0.12130  0.79487  0.27139  1.0000
  C   C4        1.0  0.14669  0.80119  0.19048  1.0000
  C   C5        1.0  0.15423  0.85515  0.09369  1.0000
  C   C6        1.0  0.13609  0.90019  0.07296  1.0000
  C   C7        1.0  0.21645  0.50310  0.16846  1.0000
  C   C8        1.0  0.22764  0.45119  0.18314  1.0000
  C   C9        1.0  0.25897  0.44282  0.21122  1.0000
  C   C10       1.0  0.27886  0.48593  0.21742  1.0000
  C   C11       1.0  0.26711  0.53748  0.20214  1.0000
  C   C12       1.0  0.23593  0.54650  0.18008  1.0000
  C   C13       1.0  0.22373  0.60035  0.16770  1.0000
  C   C14       1.0  0.20722  0.40663  0.16004  1.0000
  C   C15       1.0  0.31146  0.47748  0.23260  1.0000
  C   C16       1.0  0.32781  0.43099  0.35834  1.0000
  C   C17       1.0  0.35862  0.42661  0.36591  1.0000
  C   C18       1.0  0.37264  0.46799  0.24532  1.0000
  C   C19       1.0  0.32765  0.51648  0.11768  1.0000
  C   C20       1.0  0.23648  0.65064  0.08394  1.0000
  C   C21       1.0  0.22271  0.69988  0.06929  1.0000
  C   C22       1.0  0.19665  0.69854  0.14076  1.0000
  C   C23       1.0  0.19781  0.60376  0.23700  1.0000
  C   C24       1.0  0.18127  0.41655  0.02374  1.0000
  C   C25       1.0  0.16445  0.37214  0.99787  1.0000
  C   C26       1.0  0.17329  0.31821  0.11275  1.0000
  C   C27       1.0  0.21350  0.35124  0.27145  1.0000
  C   C28       1.0  0.18188  0.75059  0.12116  1.0000
  C   C29       1.0  0.40505  0.46206  0.25337  1.0000
  C   C30       1.0  0.15655  0.27060  0.08190  1.0000
  C   C31       1.0  0.10680  0.08540  0.15670  1.0000
  C   C32       1.0  0.13416  0.08055  0.28126  1.0000
  C   C33       1.0  0.15009  0.12692  0.29594  1.0000
  C   C34       1.0  0.13976  0.18023  0.18161  1.0000
  C   C35       1.0  0.11260  0.18541  0.05483  1.0000
  C   C36       1.0  0.09652  0.13889  0.04308  1.0000
  C   C37       1.0  0.51063  0.47899  0.11356  1.0000
  C   C38       1.0  0.49160  0.52310  0.99300  1.0000
  C   C39       1.0  0.46126  0.52541  0.00076  1.0000
  C   C40       1.0  0.44881  0.48427  0.13115  1.0000
  C   C41       1.0  0.46781  0.43986  0.25218  1.0000
  C   C42       1.0  0.49800  0.43739  0.24194  1.0000
  C   C43       1.0  0.08980  0.03606  0.14338  1.0000
  C   C44       1.0  0.05798  0.03356  0.13041  1.0000
  C   C45       1.0  0.04245  0.98668  0.10035  1.0000
  C   C46       1.0  0.05901  0.94131  0.09312  1.0000
  C   C47       1.0  0.09111  0.94202  0.12663  1.0000
  C   C48       1.0  0.10542  0.98977  0.14586  1.0000
  C   C49       1.0  0.04092  0.07536  0.15388  1.0000
  C   C50       1.0  0.01019  0.07405  0.13146  1.0000
  C   C51       1.0  0.99361  0.03056  0.08450  1.0000
  C   C52       1.0  0.01021  0.98507  0.07836  1.0000
  C   C53       1.0  0.99468  0.93814  0.04876  1.0000
  C   C54       1.0  0.01167  0.89670  0.02255  1.0000
  C   C55       1.0  0.04240  0.89820  0.04363  1.0000
  C   C56       1.0  0.96151  0.02975  0.05261  1.0000
  C   C57       1.0  0.94722  0.98181  0.03494  1.0000
  C   C58       1.0  0.96291  0.93556  0.03751  1.0000
  C   C59       1.0  0.83646  0.46839  0.02777  1.0000
  C   C60       1.0  0.82514  0.51954  0.01872  1.0000
  C   C61       1.0  0.79388  0.52695  0.99847  1.0000
  C   C62       1.0  0.77487  0.48337  0.48462  1.0000
  C   C63       1.0  0.78689  0.43260  0.49415  1.0000
  C   C64       1.0  0.81727  0.42459  0.01760  1.0000
  C   C65       1.0  0.82976  0.37140  0.02639  1.0000
  C   C66       1.0  0.84578  0.56399  0.03869  1.0000
  C   C67       1.0  0.74231  0.49039  0.47493  1.0000
  C   C68       1.0  0.72546  0.53803  0.36154  1.0000
  C   C69       1.0  0.69482  0.54120  0.36176  1.0000
  C   C70       1.0  0.68151  0.49718  0.47745  1.0000
  C   C71       1.0  0.72590  0.44838  0.09046  1.0000
  C   C72       1.0  0.81715  0.32069  0.10729  1.0000
  C   C73       1.0  0.83118  0.27194  0.11975  1.0000
  C   C74       1.0  0.85742  0.27420  0.04889  1.0000
  C   C75       1.0  0.85609  0.36869  0.44987  1.0000
  C   C76       1.0  0.87271  0.55347  0.16771  1.0000
  C   C77       1.0  0.89028  0.59752  0.18912  1.0000
  C   C78       1.0  0.88104  0.65159  0.07725  1.0000
  C   C79       1.0  0.83993  0.61871  0.42093  1.0000
  C   C80       1.0  0.87213  0.22242  0.06521  1.0000
  C   C81       1.0  0.64925  0.50115  0.47717  1.0000
  C   C82       1.0  0.89861  0.69852  0.10593  1.0000
  C   C83       1.0  0.94301  0.07811  0.03422  1.0000
  C   C84       1.0  0.95065  0.13198  0.42437  1.0000
  C   C85       1.0  0.93305  0.17759  0.40555  1.0000
  C   C86       1.0  0.90706  0.17155  0.99494  1.0000
  C   C87       1.0  0.89948  0.11770  0.09292  1.0000
  C   C88       1.0  0.91717  0.07228  0.11151  1.0000
  C   C89       1.0  0.21752  0.50179  0.66611  1.0000
  C   C90       1.0  0.22857  0.45029  0.67624  1.0000
  C   C91       1.0  0.25987  0.44212  0.70082  1.0000
  C   C92       1.0  0.27982  0.48495  0.71030  1.0000
  C   C93       1.0  0.26813  0.53615  0.69849  1.0000
  C   C94       1.0  0.23702  0.54499  0.67867  1.0000
  C   C95       1.0  0.22479  0.59856  0.66780  1.0000
  C   C96       1.0  0.20774  0.40617  0.65451  1.0000
  C   C97       1.0  0.31254  0.47696  0.72738  1.0000
  C   C98       1.0  0.32886  0.43067  0.85443  1.0000
  C   C99       1.0  0.35974  0.42636  0.86344  1.0000
  C   C100      1.0  0.37381  0.46796  0.74378  1.0000
  C   C101      1.0  0.32888  0.51653  0.61515  1.0000
  C   C102      1.0  0.23760  0.64874  0.58425  1.0000
  C   C103      1.0  0.22388  0.69804  0.56934  1.0000
  C   C104      1.0  0.19770  0.69674  0.63988  1.0000
  C   C105      1.0  0.19868  0.60196  0.73525  1.0000
  C   C106      1.0  0.18054  0.41705  0.52750  1.0000
  C   C107      1.0  0.16272  0.37322  0.50615  1.0000
  C   C108      1.0  0.17209  0.31883  0.61451  1.0000
  C   C109      1.0  0.21446  0.35040  0.76075  1.0000
  C   C110      1.0  0.18326  0.74896  0.62163  1.0000
  C   C111      1.0  0.40628  0.46251  0.75238  1.0000
  C   C112      1.0  0.15428  0.27216  0.58541  1.0000
  C   C113      1.0  0.10764  0.08406  0.65711  1.0000
  C   C114      1.0  0.13443  0.07991  0.78528  1.0000
  C   C115      1.0  0.15004  0.12677  0.79870  1.0000
  C   C116      1.0  0.13988  0.17972  0.68030  1.0000
  C   C117      1.0  0.11335  0.18408  0.54926  1.0000
  C   C118      1.0  0.09771  0.13719  0.53802  1.0000
  C   C119      1.0  0.09075  0.03450  0.64470  1.0000
  C   C120      1.0  0.05891  0.03231  0.63033  1.0000
  C   C121      1.0  0.04336  0.98528  0.60166  1.0000
  C   C122      1.0  0.05995  0.93951  0.59693  1.0000
  C   C123      1.0  0.09208  0.94018  0.62991  1.0000
  C   C124      1.0  0.10636  0.98816  0.64769  1.0000
  C   C125      1.0  0.04190  0.07443  0.65244  1.0000
  C   C126      1.0  0.01115  0.07358  0.62800  1.0000
  C   C127      1.0  0.99455  0.03003  0.58181  1.0000
  C   C128      1.0  0.01110  0.98404  0.57847  1.0000
  C   C129      1.0  0.99548  0.93690  0.55122  1.0000
  C   C130      1.0  0.01247  0.89487  0.52814  1.0000
  C   C131      1.0  0.04323  0.89605  0.55026  1.0000
  C   C132      1.0  0.96244  0.02965  0.54903  1.0000
  C   C133      1.0  0.94811  0.98141  0.53476  1.0000
  C   C134      1.0  0.96367  0.93478  0.53914  1.0000
  C   C135      1.0  0.83735  0.46773  0.52715  1.0000
  C   C136      1.0  0.82588  0.51901  0.51600  1.0000
  C   C137      1.0  0.79457  0.52667  0.49206  1.0000
  C   C138      1.0  0.77425  0.48343  0.99237  1.0000
  C   C139      1.0  0.78620  0.43255  0.00262  1.0000
  C   C140      1.0  0.81807  0.42425  0.51394  1.0000
  C   C141      1.0  0.83057  0.37094  0.52382  1.0000
  C   C142      1.0  0.84617  0.56387  0.53700  1.0000
  C   C143      1.0  0.74166  0.49023  0.98149  1.0000
  C   C144      1.0  0.72481  0.53753  0.86560  1.0000
  C   C145      1.0  0.69411  0.54060  0.86410  1.0000
  C   C146      1.0  0.68068  0.49673  0.97976  1.0000
  C   C147      1.0  0.72676  0.44885  0.58659  1.0000
  C   C148      1.0  0.81864  0.32016  0.61092  1.0000
  C   C149      1.0  0.83267  0.27148  0.62250  1.0000
  C   C150      1.0  0.85826  0.27395  0.54558  1.0000
  C   C151      1.0  0.85586  0.36896  0.95763  1.0000
  C   C152      1.0  0.87204  0.55470  0.67367  1.0000
  C   C153      1.0  0.88907  0.59945  0.69426  1.0000
  C   C154      1.0  0.88041  0.65281  0.57392  1.0000
  C   C155      1.0  0.83924  0.61939  0.92864  1.0000
  C   C156      1.0  0.87301  0.22229  0.56110  1.0000
  C   C157      1.0  0.64839  0.50078  0.97903  1.0000
  C   C158      1.0  0.89725  0.70078  0.60018  1.0000
  C   C159      1.0  0.94399  0.07838  0.52840  1.0000
  C   C160      1.0  0.94963  0.13165  0.92983  1.0000
  C   C161      1.0  0.93202  0.17727  0.91047  1.0000
  C   C162      1.0  0.90818  0.17184  0.49081  1.0000
  C   C163      1.0  0.90058  0.11799  0.58819  1.0000
  C   C164      1.0  0.91813  0.07257  0.60536  1.0000
  N   N1        1.0  0.35701  0.51238  0.12030  1.0000
  N   N2        1.0  0.18455  0.65043  0.22647  1.0000
  N   N3        1.0  0.19729  0.30826  0.25124  1.0000
  N   N4        1.0  0.16176  0.75198  0.21346  1.0000
  N   N5        1.0  0.15645  0.22473  0.21134  1.0000
  N   N6        1.0  0.41797  0.49126  0.12455  1.0000
  N   N7        1.0  0.69669  0.45095  0.09300  1.0000
  N   N8        1.0  0.86970  0.32261  0.45816  1.0000
  N   N9        1.0  0.85635  0.66196  0.43605  1.0000
  N   N10       1.0  0.89715  0.74535  0.97871  1.0000
  N   N11       1.0  0.63498  0.46330  0.08705  1.0000
  N   N12       1.0  0.89358  0.22128  0.47112  1.0000
  N   N13       1.0  0.35833  0.51270  0.61983  1.0000
  N   N14       1.0  0.18538  0.64866  0.72408  1.0000
  N   N15       1.0  0.19752  0.30793  0.74369  1.0000
  N   N16       1.0  0.16229  0.75030  0.70836  1.0000
  N   N17       1.0  0.15686  0.22421  0.70804  1.0000
  N   N18       1.0  0.41886  0.49070  0.62069  1.0000
  N   N19       1.0  0.69763  0.45155  0.59085  1.0000
  N   N20       1.0  0.86944  0.32278  0.96628  1.0000
  N   N21       1.0  0.85608  0.66205  0.94489  1.0000
  N   N22       1.0  0.89729  0.74619  0.46861  1.0000
  N   N23       1.0  0.63595  0.46379  0.58635  1.0000
  N   N24       1.0  0.89246  0.22112  0.97398  1.0000
  C   C165      1.0  0.95555  0.81762  0.16452  1.0000
  C   C166      1.0  0.95009  0.87239  0.05168  1.0000
  C  Sn1       1.0  0.95791  0.78630  0.91191  1.0000
  C  Sn2       1.0  0.93767  0.74469  0.88496  1.0000
  C   C167      1.0  0.94332  0.69002  0.99867  1.0000
  C   C168      1.0  0.93560  0.77656  0.13809  1.0000
  H   H97       1.0  0.97523  0.80707  0.27246  1.0000
  O  Te1       1.0  0.95280  0.84122  0.80037  1.0000
  O  Te2       1.0  0.91215  0.75763  0.74633  1.0000
  H   H98       1.0  0.93980  0.73415  0.22550  1.0000
  Mg  Mg1       1.0  0.91492  0.83833  0.62988  1.0000
  C   C169      1.0  0.49249  0.43080  0.76045  1.0000
  C   C170      1.0  0.50846  0.46666  0.63891  1.0000
  C  Sn3       1.0  0.49432  0.51447  0.50901  1.0000
  C  Sn4       1.0  0.46363  0.52651  0.50100  1.0000
  C   C171      1.0  0.44786  0.49039  0.62328  1.0000
  C   C172      1.0  0.46223  0.44265  0.75268  1.0000
  H   H99       1.0  0.50360  0.39388  0.86064  1.0000
  O  Te3       1.0  0.51060  0.54984  0.38858  1.0000
  O  Te4       1.0  0.44896  0.57402  0.37257  1.0000
  H   H100      1.0  0.44987  0.41491  0.84684  1.0000
  Mg  Mg2       1.0  0.48069  0.60945  0.23784  1.0000
  C   C173      1.0  0.56358  0.41653  0.13356  1.0000
  C   C174      1.0  0.54614  0.46186  0.12163  1.0000
  C  Sn5       1.0  0.55843  0.51438  0.08632  1.0000
  C  Sn6       1.0  0.58875  0.52152  0.06253  1.0000
  C   C175      1.0  0.60601  0.47592  0.07460  1.0000
  C   C176      1.0  0.59348  0.42355  0.11004  1.0000
  H   H101      1.0  0.55389  0.37601  0.16089  1.0000
  O  Te5       1.0  0.54069  0.55921  0.07490  1.0000
  O  Te6       1.0  0.60160  0.57356  0.02703  1.0000
  H   H102      1.0  0.60699  0.38847  0.11916  1.0000
  Mg  Mg3       1.0  0.56834  0.62193  0.02411  1.0000
  C   C177      1.0  0.56869  0.53161  0.56711  1.0000
  C   C178      1.0  0.54748  0.48992  0.58710  1.0000
  C  Sn7       1.0  0.55627  0.43553  0.61571  1.0000
  C  Sn8       1.0  0.58688  0.42277  0.62447  1.0000
  C   C179      1.0  0.60794  0.46477  0.60444  1.0000
  C   C180      1.0  0.59889  0.51905  0.57580  1.0000
  H   H103      1.0  0.56170  0.57361  0.54505  1.0000
  O  Te7       1.0  0.53479  0.39439  0.63533  1.0000
  O  Te8       1.0  0.59629  0.36876  0.65300  1.0000
  H   H104      1.0  0.61532  0.55132  0.56045  1.0000
  Mg  Mg4       1.0  0.55861  0.32701  0.67173  1.0000
  C   C181      1.0  0.95560  0.81674  0.66077  1.0000
  C   C182      1.0  0.95038  0.87198  0.55206  1.0000
  C  Sn9       1.0  0.92499  0.88731  0.41281  1.0000
  C  Sn10      1.0  0.90448  0.84647  0.38220  1.0000
  C   C183      1.0  0.90990  0.79132  0.49179  1.0000
  C   C184      1.0  0.93538  0.77644  0.63071  1.0000
  H   H105      1.0  0.97531  0.80522  0.76832  1.0000
  O  Te9       1.0  0.92012  0.94269  0.30542  1.0000
  O  Te10      1.0  0.87892  0.86065  0.24401  1.0000
  H   H106      1.0  0.93941  0.73367  0.71493  1.0000
  Mg  Mg5       1.0  0.88207  0.94155  0.13387  1.0000
  C   C185      1.0  0.11598  0.79866  0.78408  1.0000
  C   C186      1.0  0.14026  0.79680  0.70221  1.0000
  C  Sn11      1.0  0.15129  0.84561  0.59648  1.0000
  C  Sn12      1.0  0.13770  0.89717  0.57257  1.0000
  C   C187      1.0  0.11343  0.89859  0.65516  1.0000
  C   C188      1.0  0.10257  0.84950  0.76062  1.0000
  H   H107      1.0  0.10759  0.76068  0.86576  1.0000
  O  Te11      1.0  0.17556  0.84300  0.51560  1.0000
  O  Te12      1.0  0.14828  0.94658  0.46766  1.0000
  H   H108      1.0  0.08378  0.85095  0.82409  1.0000
  Mg  Mg6       1.0  0.18190  0.92163  0.38505  1.0000
