data_image0
_chemical_formula_structural       H100C172N28C2Sn2C2HTe2HMgC2Sn2C2HTe2HMgC2Sn2C2HTe2HMgC2Sn2C2HTe2HMgC2Sn2C2HTe2HMgC2Sn2C2HTe2HMgC2Sn2C2HTe2HMgC2Sn2C2HTe2HMgC2Sn2C2HTe2HMgC2Sn2C2HTe2HMgC2Sn2C2HTe2HMgC2Sn2C2HTe2HMgC2Sn2C2HTe2HMgC2Sn2C2HTe2HMg
_chemical_formula_sum              "H128 C228 N28 Sn28 Te28 Mg14"
_cell_length_a       51.6654
_cell_length_b       25.4348
_cell_length_c       8.02119
_cell_angle_alpha    79.6947
_cell_angle_beta     71.2068
_cell_angle_gamma    90.8038

_symmetry_space_group_name_H-M    'P1'
_space_group_IT_number       1

loop_
  _space_group_symop_operation_xyz
  'x, y, z'

loop_
  _atom_site_type_symbol
  _atom_site_label
  _atom_site_symmetry_multiplicity
  _atom_site_fract_x
  _atom_site_fract_y
  _atom_site_fract_z
  _atom_site_occupancy
  H   H1        1.0  0.15929  0.83739  0.14936  1.0000
  H   H2        1.0  0.13340  0.91712  0.21319  1.0000
  H   H3        1.0  0.28259  0.55754  0.42756  1.0000
  H   H4        1.0  0.23682  0.62406  0.38570  1.0000
  H   H5        1.0  0.21614  0.71209  0.36548  1.0000
  H   H6        1.0  0.14869  0.63983  0.26076  1.0000
  H   H7        1.0  0.16974  0.55166  0.27972  1.0000
  H   H8        1.0  0.18827  0.25222  0.05694  1.0000
  H   H9        1.0  0.21671  0.33483  0.04405  1.0000
  H   H10       1.0  0.17928  0.76517  0.34441  1.0000
  H   H11       1.0  0.35600  0.41809  0.10735  1.0000
  H   H12       1.0  0.12293  0.25884  0.42454  1.0000
  H   H13       1.0  0.47510  0.59134  0.49361  1.0000
  H   H14       1.0  0.46110  0.40044  0.15635  1.0000
  H   H15       1.0  0.48930  0.32922  0.22153  1.0000
  H   H16       1.0  0.59325  0.51395  0.10359  1.0000
  H   H17       1.0  0.56538  0.58527  0.03257  1.0000
  H   H18       1.0  0.57907  0.32105  0.26749  1.0000
  H   H19       1.0  0.56015  0.62020  0.27303  1.0000
  H   H20       1.0  0.57487  0.71696  0.18513  1.0000
  H   H21       1.0  0.50049  0.74786  0.12927  1.0000
  H   H22       1.0  0.48742  0.65086  0.19043  1.0000
  H   H23       1.0  0.40148  0.42850  0.45007  1.0000
  H   H24       1.0  0.44935  0.43278  0.44243  1.0000
  H   H25       1.0  0.47946  0.18550  0.05134  1.0000
  H   H26       1.0  0.52460  0.09341  0.30902  1.0000
  H   H27       1.0  0.49621  0.10065  0.47358  1.0000
  H   H28       1.0  0.55756  0.80593  0.19377  1.0000
  H   H29       1.0  0.53233  0.81851  0.36935  1.0000
  H   H30       1.0  0.12070  0.96886  0.45650  1.0000
  H   H31       1.0  0.05160  0.07486  0.24484  1.0000
  H   H32       1.0  0.00161  0.06890  0.33565  1.0000
  H   H33       1.0  0.00355  0.84143  0.00338  1.0000
  H   H34       1.0  0.05245  0.84689  0.41705  1.0000
  H   H35       1.0  0.93320  0.94603  0.30223  1.0000
  H   H36       1.0  0.78096  0.52920  0.28997  1.0000
  H   H37       1.0  0.73466  0.53821  0.25657  1.0000
  H   H38       1.0  0.73223  0.37527  0.18354  1.0000
  H   H39       1.0  0.77823  0.36578  0.22491  1.0000
  H   H40       1.0  0.87407  0.15008  0.40411  1.0000
  H   H41       1.0  0.69459  0.50107  0.21617  1.0000
  H   H42       1.0  0.92581  0.65754  0.39729  1.0000
  H   H43       1.0  0.89378  0.07908  0.10716  1.0000
  H   H44       1.0  0.91944  0.99899  0.04650  1.0000
  H   H45       1.0  0.07133  0.81710  0.65290  1.0000
  H   H46       1.0  0.09622  0.73703  0.58036  1.0000
  H   H47       1.0  0.26785  0.38651  0.54865  1.0000
  H   H48       1.0  0.31216  0.37760  0.61083  1.0000
  H   H49       1.0  0.32708  0.54897  0.49056  1.0000
  H   H50       1.0  0.23759  0.62426  0.87403  1.0000
  H   H51       1.0  0.21643  0.71194  0.85216  1.0000
  H   H52       1.0  0.14784  0.63634  0.76912  1.0000
  H   H53       1.0  0.16941  0.54869  0.78912  1.0000
  H   H54       1.0  0.16470  0.43270  0.81849  1.0000
  H   H55       1.0  0.13735  0.35072  0.82111  1.0000
  H   H56       1.0  0.17933  0.76397  0.83312  1.0000
  H   H57       1.0  0.35470  0.41669  0.61679  1.0000
  H   H58       1.0  0.12978  0.25649  0.86968  1.0000
  H   H59       1.0  0.47547  0.59352  0.98951  1.0000
  H   H60       1.0  0.45991  0.39828  0.65871  1.0000
  H   H61       1.0  0.48766  0.32646  0.72512  1.0000
  H   H62       1.0  0.59202  0.50986  0.61278  1.0000
  H   H63       1.0  0.56397  0.58160  0.54952  1.0000
  H   H64       1.0  0.57852  0.31675  0.75550  1.0000
  H   H65       1.0  0.56036  0.62967  0.76879  1.0000
  H   H66       1.0  0.57367  0.72653  0.70760  1.0000
  H   H67       1.0  0.50294  0.74895  0.59673  1.0000
  H   H68       1.0  0.48856  0.65205  0.68442  1.0000
  H   H69       1.0  0.43509  0.56735  0.70859  1.0000
  H   H70       1.0  0.38720  0.56482  0.70727  1.0000
  H   H71       1.0  0.49345  0.28218  0.98919  1.0000
  H   H72       1.0  0.55182  0.16287  0.62500  1.0000
  H   H73       1.0  0.56544  0.25966  0.56277  1.0000
  H   H74       1.0  0.52199  0.08880  0.84258  1.0000
  H   H75       1.0  0.49385  0.09862  0.00411  1.0000
  H   H76       1.0  0.55883  0.81373  0.75791  1.0000
  H   H77       1.0  0.53045  0.82218  0.92009  1.0000
  H   H78       1.0  0.12197  0.96875  0.95100  1.0000
  H   H79       1.0  0.05021  0.07527  0.74514  1.0000
  H   H80       1.0  0.00018  0.06909  0.83538  1.0000
  H   H81       1.0  0.00244  0.84045  0.50915  1.0000
  H   H82       1.0  0.05362  0.84756  0.91186  1.0000
  H   H83       1.0  0.93190  0.94533  0.80654  1.0000
  H   H84       1.0  0.92187  0.89354  0.61386  1.0000
  H   H85       1.0  0.89606  0.80802  0.63117  1.0000
  H   H86       1.0  0.95322  0.71938  0.83554  1.0000
  H   H87       1.0  0.97845  0.80346  0.81977  1.0000
  H   H88       1.0  0.81685  0.29338  0.84708  1.0000
  H   H89       1.0  0.83677  0.20452  0.87298  1.0000
  H   H90       1.0  0.90394  0.27536  0.98447  1.0000
  H   H91       1.0  0.88379  0.36440  0.95748  1.0000
  H   H92       1.0  0.88992  0.48141  0.92817  1.0000
  H   H93       1.0  0.91763  0.56268  0.92765  1.0000
  H   H94       1.0  0.86518  0.66316  0.71293  1.0000
  H   H95       1.0  0.83615  0.58124  0.72672  1.0000
  H   H96       1.0  0.87363  0.15090  0.89553  1.0000
  H   H97       1.0  0.69367  0.49528  0.70464  1.0000
  H   H98       1.0  0.92378  0.65844  0.89522  1.0000
  H   H99       1.0  0.98091  0.09715  0.59796  1.0000
  H   H100      1.0  0.95600  0.17761  0.66477  1.0000
  C   C1        1.0  0.10041  0.87325  0.43800  1.0000
  C   C2        1.0  0.10409  0.77668  0.50051  1.0000
  C   C3        1.0  0.12950  0.78188  0.36234  1.0000
  C   C4        1.0  0.14014  0.83321  0.26103  1.0000
  C   C5        1.0  0.12557  0.87799  0.29783  1.0000
  C   C6        1.0  0.20875  0.43802  0.41465  1.0000
  C   C7        1.0  0.24656  0.47722  0.44496  1.0000
  C   C8        1.0  0.21493  0.52916  0.36953  1.0000
  C   C9        1.0  0.20436  0.58234  0.33655  1.0000
  C   C10       1.0  0.27261  0.47240  0.48333  1.0000
  C   C11       1.0  0.21782  0.62816  0.35544  1.0000
  C   C12       1.0  0.20621  0.67714  0.34357  1.0000
  C   C13       1.0  0.18090  0.68144  0.31366  1.0000
  C   C14       1.0  0.16805  0.63596  0.28671  1.0000
  C   C15       1.0  0.17968  0.58717  0.29767  1.0000
  C   C16       1.0  0.16746  0.73142  0.32682  1.0000
  C   C17       1.0  0.34971  0.45908  0.08100  1.0000
  C   C18       1.0  0.14172  0.25029  0.45743  1.0000
  C   C19       1.0  0.47558  0.50850  0.06895  1.0000
  C   C20       1.0  0.49163  0.46597  0.10922  1.0000
  C   C21       1.0  0.51883  0.47847  0.11023  1.0000
  C   C22       1.0  0.52987  0.53316  0.06684  1.0000
  C   C23       1.0  0.51368  0.57487  0.02496  1.0000
  C   C24       1.0  0.48730  0.56131  0.02750  1.0000
  C   C25       1.0  0.48168  0.41082  0.15371  1.0000
  C   C26       1.0  0.49739  0.37071  0.19217  1.0000
  C   C27       1.0  0.52427  0.38160  0.19647  1.0000
  C   C28       1.0  0.53504  0.43637  0.15657  1.0000
  C   C29       1.0  0.56223  0.44880  0.15770  1.0000
  C   C30       1.0  0.57247  0.50381  0.10938  1.0000
  C   C31       1.0  0.55693  0.54390  0.06818  1.0000
  C   C32       1.0  0.54072  0.33995  0.23483  1.0000
  C   C33       1.0  0.56703  0.35346  0.23375  1.0000
  C   C34       1.0  0.57839  0.40635  0.19739  1.0000
  C   C35       1.0  0.52316  0.62883  0.48449  1.0000
  C   C36       1.0  0.54782  0.64829  0.34614  1.0000
  C   C37       1.0  0.55609  0.70273  0.29616  1.0000
  C   C38       1.0  0.53974  0.73997  0.38260  1.0000
  C   C39       1.0  0.51363  0.72215  0.04905  1.0000
  C   C40       1.0  0.50624  0.66743  0.08309  1.0000
  C   C41       1.0  0.08592  0.00997  0.05213  1.0000
  C   C42       1.0  0.05672  0.00549  0.11707  1.0000
  C   C43       1.0  0.04229  0.95987  0.09751  1.0000
  C   C44       1.0  0.05708  0.91779  0.02365  1.0000
  C   C45       1.0  0.08490  0.91983  0.48499  1.0000
  C   C46       1.0  0.09969  0.96627  0.99217  1.0000
  C   C47       1.0  0.04099  0.04353  0.21005  1.0000
  C   C48       1.0  0.01300  0.04011  0.26145  1.0000
  C   C49       1.0  0.99808  0.99822  0.22566  1.0000
  C   C50       1.0  0.01294  0.95613  0.15221  1.0000
  C   C51       1.0  0.99854  0.91036  0.13317  1.0000
  C   C52       1.0  0.01421  0.87257  0.03872  1.0000
  C   C53       1.0  0.04103  0.87576  0.49056  1.0000
  C   C54       1.0  0.96909  0.99585  0.26759  1.0000
  C   C55       1.0  0.95550  0.94882  0.26018  1.0000
  C   C56       1.0  0.96936  0.90523  0.20061  1.0000
  C   C57       1.0  0.84615  0.47817  0.33383  1.0000
  C   C58       1.0  0.80854  0.44074  0.29599  1.0000
  C   C59       1.0  0.83996  0.38747  0.36863  1.0000
  C   C60       1.0  0.78224  0.44682  0.26189  1.0000
  C   C61       1.0  0.77008  0.49586  0.26676  1.0000
  C   C62       1.0  0.74433  0.50055  0.24784  1.0000
  C   C63       1.0  0.73034  0.45688  0.21979  1.0000
  C   C64       1.0  0.74304  0.40831  0.20908  1.0000
  C   C65       1.0  0.76845  0.40325  0.23135  1.0000
  C   C66       1.0  0.88612  0.18398  0.41878  1.0000
  C   C67       1.0  0.70303  0.46184  0.20520  1.0000
  C   C68       1.0  0.91123  0.66464  0.32297  1.0000
  C   C69       1.0  0.09029  0.82160  0.53993  1.0000
  C   C70       1.0  0.20894  0.43721  0.92260  1.0000
  C   C71       1.0  0.24717  0.47687  0.94558  1.0000
  C   C72       1.0  0.21543  0.52829  0.86926  1.0000
  C   C73       1.0  0.20465  0.58114  0.83502  1.0000
  C   C74       1.0  0.19238  0.38869  0.93038  1.0000
  C   C75       1.0  0.28106  0.42164  0.53590  1.0000
  C   C76       1.0  0.30577  0.41705  0.56970  1.0000
  C   C77       1.0  0.32259  0.46300  0.55332  1.0000
  C   C78       1.0  0.31391  0.51384  0.50223  1.0000
  C   C79       1.0  0.28934  0.51848  0.46797  1.0000
  C   C80       1.0  0.21826  0.62764  0.84779  1.0000
  C   C81       1.0  0.20636  0.67630  0.83539  1.0000
  C   C82       1.0  0.18059  0.67950  0.81154  1.0000
  C   C83       1.0  0.16755  0.63327  0.79078  1.0000
  C   C84       1.0  0.17947  0.58482  0.80210  1.0000
  C   C85       1.0  0.16964  0.39306  0.87046  1.0000
  C   C86       1.0  0.15436  0.34727  0.87369  1.0000
  C   C87       1.0  0.16099  0.29611  0.94121  1.0000
  C   C88       1.0  0.18354  0.29195  0.00387  1.0000
  C   C89       1.0  0.19917  0.33755  0.99705  1.0000
  C   C90       1.0  0.16711  0.72944  0.82385  1.0000
  C   C91       1.0  0.34879  0.45775  0.58514  1.0000
  C   C92       1.0  0.14485  0.24885  0.94001  1.0000
  C   C93       1.0  0.47483  0.50611  0.57252  1.0000
  C   C94       1.0  0.49069  0.46321  0.61268  1.0000
  C   C95       1.0  0.51786  0.47512  0.61489  1.0000
  C   C96       1.0  0.52894  0.52966  0.57396  1.0000
  C   C97       1.0  0.51306  0.57165  0.53070  1.0000
  C   C98       1.0  0.48670  0.55875  0.53204  1.0000
  C   C99       1.0  0.48051  0.40822  0.65665  1.0000
  C   C100      1.0  0.49606  0.36776  0.69511  1.0000
  C   C101      1.0  0.52311  0.37804  0.69765  1.0000
  C   C102      1.0  0.53405  0.43267  0.65851  1.0000
  C   C103      1.0  0.56136  0.44478  0.65800  1.0000
  C   C104      1.0  0.57138  0.49981  0.61621  1.0000
  C   C105      1.0  0.55578  0.54019  0.57892  1.0000
  C   C106      1.0  0.53966  0.33607  0.73210  1.0000
  C   C107      1.0  0.56626  0.34928  0.72608  1.0000
  C   C108      1.0  0.57769  0.40203  0.69138  1.0000
  C   C109      1.0  0.52293  0.63254  0.98585  1.0000
  C   C110      1.0  0.44609  0.49986  0.57718  1.0000
  C   C111      1.0  0.53032  0.27859  0.76932  1.0000
  C   C112      1.0  0.54740  0.65513  0.85097  1.0000
  C   C113      1.0  0.55492  0.70988  0.81558  1.0000
  C   C114      1.0  0.53817  0.74410  0.91481  1.0000
  C   C115      1.0  0.51551  0.72087  0.52460  1.0000
  C   C116      1.0  0.50737  0.66626  0.57354  1.0000
  C   C117      1.0  0.42790  0.53736  0.64911  1.0000
  C   C118      1.0  0.40100  0.53588  0.65047  1.0000
  C   C119      1.0  0.39055  0.49550  0.58501  1.0000
  C   C120      1.0  0.40836  0.45738  0.51499  1.0000
  C   C121      1.0  0.43557  0.46002  0.51009  1.0000
  C   C122      1.0  0.50595  0.25640  0.90599  1.0000
  C   C123      1.0  0.49808  0.20184  0.94171  1.0000
  C   C124      1.0  0.51456  0.16722  0.84248  1.0000
  C   C125      1.0  0.53902  0.18881  0.70629  1.0000
  C   C126      1.0  0.54667  0.24346  0.67127  1.0000
  C   C127      1.0  0.08465  0.01026  0.55447  1.0000
  C   C128      1.0  0.05544  0.00569  0.61843  1.0000
  C   C129      1.0  0.04106  0.95987  0.59933  1.0000
  C   C130      1.0  0.05593  0.91775  0.52591  1.0000
  C   C131      1.0  0.08603  0.91966  0.98250  1.0000
  C   C132      1.0  0.09843  0.96645  0.49582  1.0000
  C   C133      1.0  0.03964  0.04379  0.71064  1.0000
  C   C134      1.0  0.01165  0.04019  0.76211  1.0000
  C   C135      1.0  0.99676  0.99797  0.72780  1.0000
  C   C136      1.0  0.01168  0.95592  0.65437  1.0000
  C   C137      1.0  0.99731  0.90997  0.63618  1.0000
  C   C138      1.0  0.01305  0.87204  0.54283  1.0000
  C   C139      1.0  0.04218  0.87610  0.98691  1.0000
  C   C140      1.0  0.96773  0.99538  0.77147  1.0000
  C   C141      1.0  0.95420  0.94830  0.76405  1.0000
  C   C142      1.0  0.96812  0.90487  0.70343  1.0000
  C   C143      1.0  0.95243  0.85499  0.71230  1.0000
  C   C144      1.0  0.92849  0.85541  0.66502  1.0000
  C   C145      1.0  0.91397  0.80787  0.67435  1.0000
  C   C146      1.0  0.92244  0.75782  0.73556  1.0000
  C   C147      1.0  0.94615  0.75719  0.78609  1.0000
  C   C148      1.0  0.96066  0.80471  0.77521  1.0000
  C   C149      1.0  0.84475  0.47850  0.83176  1.0000
  C   C150      1.0  0.80739  0.44033  0.79365  1.0000
  C   C151      1.0  0.83916  0.38775  0.86382  1.0000
  C   C152      1.0  0.84944  0.33437  0.89684  1.0000
  C   C153      1.0  0.86125  0.52651  0.82926  1.0000
  C   C154      1.0  0.83573  0.28879  0.87860  1.0000
  C   C155      1.0  0.84692  0.23942  0.89368  1.0000
  C   C156      1.0  0.87201  0.23463  0.92645  1.0000
  C   C157      1.0  0.88494  0.27983  0.95422  1.0000
  C   C158      1.0  0.87381  0.32903  0.93905  1.0000
  C   C159      1.0  0.88461  0.52135  0.88244  1.0000
  C   C160      1.0  0.90015  0.56677  0.87979  1.0000
  C   C161      1.0  0.89327  0.61826  0.81776  1.0000
  C   C162      1.0  0.87009  0.62316  0.76176  1.0000
  C   C163      1.0  0.85410  0.57799  0.76939  1.0000
  C   C164      1.0  0.88526  0.18439  0.91591  1.0000
  C   C165      1.0  0.70218  0.45600  0.69757  1.0000
  C   C166      1.0  0.90954  0.66547  0.81839  1.0000
  C   C167      1.0  0.95216  0.04197  0.81735  1.0000
  C   C168      1.0  0.96207  0.09323  0.71160  1.0000
  C   C169      1.0  0.94824  0.13832  0.74788  1.0000
  C   C170      1.0  0.92304  0.13360  0.88771  1.0000
  C   C171      1.0  0.91265  0.08270  0.99352  1.0000
  C   C172      1.0  0.92720  0.03773  0.95896  1.0000
  N   N1        1.0  0.19942  0.48604  0.37025  1.0000
  N   N2        1.0  0.23200  0.43159  0.45527  1.0000
  N   N3        1.0  0.23884  0.52696  0.40334  1.0000
  N   N4        1.0  0.14230  0.73460  0.33327  1.0000
  N   N5        1.0  0.14847  0.20137  0.01503  1.0000
  N   N6        1.0  0.36457  0.50075  0.07796  1.0000
  N   N7        1.0  0.50854  0.11636  0.34618  1.0000
  N   N8        1.0  0.54811  0.79515  0.32915  1.0000
  N   N9        1.0  0.85542  0.42985  0.37374  1.0000
  N   N10       1.0  0.82299  0.48568  0.29273  1.0000
  N   N11       1.0  0.81631  0.39064  0.33157  1.0000
  N   N12       1.0  0.90798  0.71174  0.24287  1.0000
  N   N13       1.0  0.68981  0.42188  0.18112  1.0000
  N   N14       1.0  0.91135  0.18090  0.41070  1.0000
  N   N15       1.0  0.19965  0.48495  0.87532  1.0000
  N   N16       1.0  0.23220  0.43111  0.96326  1.0000
  N   N17       1.0  0.23967  0.52648  0.89864  1.0000
  N   N18       1.0  0.14159  0.73198  0.83842  1.0000
  N   N19       1.0  0.14829  0.20213  0.50209  1.0000
  N   N20       1.0  0.36413  0.49942  0.57593  1.0000
  N   N21       1.0  0.50602  0.11227  0.87476  1.0000
  N   N22       1.0  0.54657  0.79914  0.88641  1.0000
  N   N23       1.0  0.85437  0.43038  0.86973  1.0000
  N   N24       1.0  0.82131  0.48552  0.79380  1.0000
  N   N25       1.0  0.81563  0.39053  0.82565  1.0000
  N   N26       1.0  0.90668  0.71249  0.73594  1.0000
  N   N27       1.0  0.68906  0.41542  0.67609  1.0000
  N   N28       1.0  0.91020  0.18096  0.91424  1.0000
  C   C173      1.0  0.30041  0.41082  0.06689  1.0000
  C   C174      1.0  0.32047  0.45134  0.04447  1.0000
  C  Sn1       1.0  0.26552  0.44718  0.99525  1.0000
  C  Sn2       1.0  0.24040  0.46044  0.96812  1.0000
  C   C175      1.0  0.22045  0.41961  0.99101  1.0000
  C   C176      1.0  0.27562  0.42386  0.04022  1.0000
  H   H101      1.0  0.30408  0.36934  0.10506  1.0000
  O  Te1       1.0  0.28579  0.48716  0.97336  1.0000
  O  Te2       1.0  0.23532  0.51378  0.91894  1.0000
  H   H102      1.0  0.26008  0.39250  0.05768  1.0000
  Mg  Mg1       1.0  0.26927  0.55398  0.90535  1.0000
  C   C177      1.0  0.89978  0.55102  0.40199  1.0000
  C   C178      1.0  0.89785  0.60470  0.33235  1.0000
  C  Sn3       1.0  0.87658  0.61928  0.26550  1.0000
  C  Sn4       1.0  0.85692  0.57929  0.26865  1.0000
  C   C179      1.0  0.85902  0.52570  0.33872  1.0000
  C   C180      1.0  0.88039  0.51156  0.40521  1.0000
  H   H103      1.0  0.91631  0.54008  0.45352  1.0000
  O  Te3       1.0  0.87496  0.67309  0.19634  1.0000
  O  Te4       1.0  0.83545  0.59274  0.20277  1.0000
  H   H104      1.0  0.88187  0.47000  0.45923  1.0000
  Mg  Mg2       1.0  0.84197  0.67149  0.12208  1.0000
  C   C181      1.0  0.13212  0.06549  0.09218  1.0000
  C   C182      1.0  0.10734  0.05810  0.06106  1.0000
  C  Sn5       1.0  0.04465  0.04426  0.99597  1.0000
  C  Sn6       1.0  0.05748  0.09660  0.96148  1.0000
  C   C183      1.0  0.08228  0.10357  0.99294  1.0000
  C   C184      1.0  0.14479  0.11710  0.05814  1.0000
  H   H105      1.0  0.14149  0.03120  0.14253  1.0000
  O  Te5       1.0  0.01989  0.03616  0.96567  1.0000
  O  Te6       1.0  0.04567  0.14129  0.89633  1.0000
  H   H106      1.0  0.16399  0.12283  0.08211  1.0000
  Mg  Mg3       1.0  0.01180  0.10971  0.87631  1.0000
  C   C185      1.0  0.15181  0.36378  0.39145  1.0000
  C   C186      1.0  0.15710  0.30989  0.42580  1.0000
  C  Sn7       1.0  0.18051  0.29559  0.46887  1.0000
  C  Sn8       1.0  0.19894  0.33607  0.47766  1.0000
  C   C187      1.0  0.19346  0.38987  0.44319  1.0000
  C   C188      1.0  0.16997  0.40374  0.40016  1.0000
  H   H107      1.0  0.13363  0.37452  0.35826  1.0000
  O  Te7       1.0  0.18549  0.24156  0.50273  1.0000
  O  Te8       1.0  0.22249  0.32289  0.52046  1.0000
  H   H108      1.0  0.16588  0.44546  0.37369  1.0000
  Mg  Mg4       1.0  0.22035  0.24369  0.55551  1.0000
  C   C189      1.0  0.95441  0.76414  0.28514  1.0000
  C   C190      1.0  0.92941  0.75582  0.25780  1.0000
  C  Sn9       1.0  0.91633  0.79935  0.19809  1.0000
  C  Sn10      1.0  0.92855  0.85214  0.16522  1.0000
  C   C191      1.0  0.95358  0.86003  0.19286  1.0000
  C   C192      1.0  0.96649  0.81618  0.25268  1.0000
  H   H109      1.0  0.96441  0.73022  0.33133  1.0000
  O  Te9       1.0  0.89135  0.79034  0.17153  1.0000
  O  Te10      1.0  0.91592  0.89636  0.10543  1.0000
  H   H110      1.0  0.98586  0.82263  0.27373  1.0000
  Mg  Mg5       1.0  0.88207  0.86354  0.08900  1.0000
  C   C193      1.0  0.88726  0.29469  0.44879  1.0000
  C   C194      1.0  0.87608  0.24459  0.44646  1.0000
  C  Sn11      1.0  0.85123  0.24012  0.41387  1.0000
  C  Sn12      1.0  0.83738  0.28675  0.38305  1.0000
  C   C195      1.0  0.84875  0.33669  0.38553  1.0000
  C   C196      1.0  0.87362  0.34070  0.41833  1.0000
  H   H111      1.0  0.90651  0.29780  0.47407  1.0000
  O  Te11      1.0  0.84034  0.18975  0.41208  1.0000
  O  Te12      1.0  0.81252  0.28344  0.35008  1.0000
  H   H112      1.0  0.88228  0.37950  0.42001  1.0000
  Mg  Mg6       1.0  0.80593  0.20581  0.36119  1.0000
  C   C197      1.0  0.63234  0.36842  0.59606  1.0000
  C   C198      1.0  0.61046  0.39743  0.67499  1.0000
  C  Sn13      1.0  0.61470  0.43954  0.75606  1.0000
  C  Sn14      1.0  0.64137  0.45276  0.75787  1.0000
  C   C199      1.0  0.66313  0.42351  0.67842  1.0000
  C   C200      1.0  0.65865  0.38144  0.59772  1.0000
  H   H113      1.0  0.62888  0.33589  0.53353  1.0000
  O  Te13      1.0  0.59261  0.46810  0.83436  1.0000
  O  Te14      1.0  0.64618  0.49466  0.83791  1.0000
  H   H114      1.0  0.67560  0.35901  0.53651  1.0000
  Mg  Mg7       1.0  0.60949  0.52177  0.92697  1.0000
  C   C201      1.0  0.74815  0.50293  0.75573  1.0000
  C   C202      1.0  0.73294  0.46510  0.71126  1.0000
  C  Sn15      1.0  0.74218  0.41423  0.69624  1.0000
  C  Sn16      1.0  0.76712  0.40112  0.72644  1.0000
  C   C203      1.0  0.78217  0.43925  0.77099  1.0000
  C   C204      1.0  0.77274  0.49003  0.78560  1.0000
  H   H115      1.0  0.74085  0.54222  0.76714  1.0000
  O  Te15      1.0  0.72674  0.37691  0.65164  1.0000
  O  Te16      1.0  0.77682  0.35058  0.71238  1.0000
  H   H116      1.0  0.78451  0.51930  0.82015  1.0000
  Mg  Mg8       1.0  0.74850  0.31337  0.64833  1.0000
  C   C205      1.0  0.62210  0.46127  0.27485  1.0000
  C   C206      1.0  0.60964  0.42660  0.20144  1.0000
  C  Sn17      1.0  0.62440  0.38737  0.11856  1.0000
  C  Sn18      1.0  0.65215  0.38284  0.10924  1.0000
  C   C207      1.0  0.66443  0.41769  0.18319  1.0000
  C   C208      1.0  0.64947  0.45682  0.26578  1.0000
  H   H117      1.0  0.61052  0.49153  0.33883  1.0000
  O  Te17      1.0  0.61164  0.35307  0.04585  1.0000
  O  Te18      1.0  0.66738  0.34397  0.02722  1.0000
  H   H118      1.0  0.65912  0.48363  0.32270  1.0000
  Mg  Mg9       1.0  0.59051  0.24872  0.94777  1.0000
  C   C209      1.0  0.13861  0.09215  0.59086  1.0000
  C   C210      1.0  0.13503  0.14445  0.51668  1.0000
  C  Sn19      1.0  0.11259  0.15502  0.45803  1.0000
  C  Sn20      1.0  0.09342  0.11235  0.47418  1.0000
  C   C211      1.0  0.09717  0.06016  0.54870  1.0000
  C   C212      1.0  0.11970  0.05004  0.60690  1.0000
  H   H119      1.0  0.15603  0.08431  0.63599  1.0000
  O  Te19      1.0  0.10933  0.20751  0.38417  1.0000
  O  Te20      1.0  0.07080  0.12178  0.41670  1.0000
  H   H120      1.0  0.12246  0.00954  0.66445  1.0000
  Mg  Mg10      1.0  0.07523  0.20015  0.32509  1.0000
  C   C213      1.0  0.43019  0.45337  0.00766  1.0000
  C   C214      1.0  0.44466  0.49231  0.05275  1.0000
  C  Sn21      1.0  0.43112  0.53379  0.12898  1.0000
  C  Sn22      1.0  0.40256  0.53621  0.16055  1.0000
  C   C215      1.0  0.38826  0.49703  0.11508  1.0000
  C   C216      1.0  0.40201  0.45572  0.03881  1.0000
  H   H121      1.0  0.39041  0.36353  0.94874  1.0000
  O  Te21      1.0  0.44590  0.57238  0.17317  1.0000
  O  Te22      1.0  0.38852  0.57721  0.23663  1.0000
  H   H122      1.0  0.39080  0.42555  0.00402  1.0000
  Mg  Mg11      1.0  0.41763  0.62045  0.27382  1.0000
  C   C217      1.0  0.91362  0.06740  0.49496  1.0000
  C   C218      1.0  0.92114  0.12138  0.41585  1.0000
  C  Sn23      1.0  0.94544  0.13617  0.27160  1.0000
  C  Sn24      1.0  0.96249  0.09609  0.20560  1.0000
  C   C219      1.0  0.95477  0.04220  0.28558  1.0000
  C   C220      1.0  0.93041  0.02784  0.42989  1.0000
  H   H123      1.0  0.89476  0.05629  0.60655  1.0000
  O  Te23      1.0  0.95265  0.19028  0.19418  1.0000
  O  Te24      1.0  0.98688  0.10976  0.06155  1.0000
  H   H124      1.0  0.92459  0.98604  0.49104  1.0000
  Mg  Mg12      1.0  0.98790  0.18889  0.00090  1.0000
  C   C221      1.0  0.50214  0.24710  0.42447  1.0000
  C   C222      1.0  0.52601  0.27689  0.30700  1.0000
  C  Sn25      1.0  0.54567  0.25285  0.18516  1.0000
  C  Sn26      1.0  0.54128  0.19797  0.18112  1.0000
  C   C223      1.0  0.51732  0.16852  0.29911  1.0000
  C   C224      1.0  0.49779  0.19297  0.42053  1.0000
  H   H125      1.0  0.48702  0.26601  0.51836  1.0000
  O  Te25      1.0  0.56941  0.28320  0.06879  1.0000
  O  Te26      1.0  0.56059  0.17295  0.06065  1.0000
  H   H126      1.0  0.47930  0.16990  0.51138  1.0000
  Mg  Mg13      1.0  0.53927  0.17327  0.92894  1.0000
  C   C225      1.0  0.13892  0.84487  0.74196  1.0000
  C   C226      1.0  0.13335  0.79254  0.84150  1.0000
  C  Sn27      1.0  0.10991  0.77923  0.99309  1.0000
  C  Sn28      1.0  0.14216  0.87698  0.04562  1.0000
  C   C227      1.0  0.09749  0.87135  0.94506  1.0000
  C   C228      1.0  0.12100  0.88424  0.79364  1.0000
  H   H127      1.0  0.15710  0.85484  0.62475  1.0000
  O  Te27      1.0  0.15507  0.78461  0.09106  1.0000
  O  Te28      1.0  0.11858  0.86476  0.19651  1.0000
  H   H128      1.0  0.12530  0.92476  0.71653  1.0000
  Mg  Mg14      1.0  0.12030  0.78759  0.28651  1.0000
