data_image0
_chemical_formula_structural       H44C88N28SnCSn2CSnTe4Mg2SnCSn2CSnTe4Mg2SnCSn2CSnTe4Mg2SnCSn2CSnTe4Mg2SnCSn2CSnTe4Mg2SnCSn2CSnTe4Mg2SnCSn2CSnTe4Mg2SnCSn2CSnTe4Mg2SnCSn2CSnTe4Mg2SnCSn2CSnTe4Mg2SnCSn2CSnTe4Mg2SnCSn2CSnTe4Mg2SnCSn2CSnTe4Mg2SnCSn2CSnTe4Mg2SnCSn2CSnTe4Mg2SnCSn2CSnTe4Mg2SnCSn2CSnTe4Mg2SnCSn2CSnTe4Mg2SnCSn2CSnTe4Mg2SnCSn2CSnTe4Mg2SnCSn2CSnTe4Mg2SnCSn2CSnTe4Mg2SnCSn2CSnTe4Mg2SnCSn2CSnTe4Mg2SnCSn2CSnTe4Mg2SnCSn2CSnTe4Mg2SnCSn2CSnTe4Mg2SnCSn2CSnTe4Mg2
_chemical_formula_sum              "H44 C144 N28 Sn112 Te112 Mg56"
_cell_length_a       51.6654
_cell_length_b       25.4348
_cell_length_c       8.02119
_cell_angle_alpha    79.6947
_cell_angle_beta     71.2068
_cell_angle_gamma    90.8038

_symmetry_space_group_name_H-M    'P1'
_space_group_IT_number       1

loop_
  _space_group_symop_operation_xyz
  'x, y, z'

loop_
  _atom_site_type_symbol
  _atom_site_label
  _atom_site_symmetry_multiplicity
  _atom_site_fract_x
  _atom_site_fract_y
  _atom_site_fract_z
  _atom_site_occupancy
  H   H1        1.0  0.17928  0.76517  0.34441  1.0000
  H   H2        1.0  0.35600  0.41809  0.10735  1.0000
  H   H3        1.0  0.12293  0.25884  0.42454  1.0000
  H   H4        1.0  0.47510  0.59134  0.49361  1.0000
  H   H5        1.0  0.46110  0.40044  0.15635  1.0000
  H   H6        1.0  0.48930  0.32922  0.22153  1.0000
  H   H7        1.0  0.59325  0.51395  0.10359  1.0000
  H   H8        1.0  0.56538  0.58527  0.03257  1.0000
  H   H9        1.0  0.57907  0.32105  0.26749  1.0000
  H   H10       1.0  0.52460  0.09341  0.30902  1.0000
  H   H11       1.0  0.49621  0.10065  0.47358  1.0000
  H   H12       1.0  0.55756  0.80593  0.19377  1.0000
  H   H13       1.0  0.53233  0.81851  0.36935  1.0000
  H   H14       1.0  0.12070  0.96886  0.45650  1.0000
  H   H15       1.0  0.05160  0.07486  0.24484  1.0000
  H   H16       1.0  0.00161  0.06890  0.33565  1.0000
  H   H17       1.0  0.00355  0.84143  0.00338  1.0000
  H   H18       1.0  0.05245  0.84689  0.41705  1.0000
  H   H19       1.0  0.93320  0.94603  0.30223  1.0000
  H   H20       1.0  0.87407  0.15008  0.40411  1.0000
  H   H21       1.0  0.69459  0.50107  0.21617  1.0000
  H   H22       1.0  0.92581  0.65754  0.39729  1.0000
  H   H23       1.0  0.17933  0.76397  0.83312  1.0000
  H   H24       1.0  0.35470  0.41669  0.61679  1.0000
  H   H25       1.0  0.12978  0.25649  0.86968  1.0000
  H   H26       1.0  0.47547  0.59352  0.98951  1.0000
  H   H27       1.0  0.45991  0.39828  0.65871  1.0000
  H   H28       1.0  0.48766  0.32646  0.72512  1.0000
  H   H29       1.0  0.59202  0.50986  0.61278  1.0000
  H   H30       1.0  0.56397  0.58160  0.54952  1.0000
  H   H31       1.0  0.57852  0.31675  0.75550  1.0000
  H   H32       1.0  0.52199  0.08880  0.84258  1.0000
  H   H33       1.0  0.49385  0.09862  0.00411  1.0000
  H   H34       1.0  0.55883  0.81373  0.75791  1.0000
  H   H35       1.0  0.53045  0.82218  0.92009  1.0000
  H   H36       1.0  0.12197  0.96875  0.95100  1.0000
  H   H37       1.0  0.05021  0.07527  0.74514  1.0000
  H   H38       1.0  0.00018  0.06909  0.83538  1.0000
  H   H39       1.0  0.00244  0.84045  0.50915  1.0000
  H   H40       1.0  0.05362  0.84756  0.91186  1.0000
  H   H41       1.0  0.93190  0.94533  0.80654  1.0000
  H   H42       1.0  0.87363  0.15090  0.89553  1.0000
  H   H43       1.0  0.69367  0.49528  0.70464  1.0000
  H   H44       1.0  0.92378  0.65844  0.89522  1.0000
  C   C1        1.0  0.20875  0.43802  0.41465  1.0000
  C   C2        1.0  0.24656  0.47722  0.44496  1.0000
  C   C3        1.0  0.21493  0.52916  0.36953  1.0000
  C   C4        1.0  0.16746  0.73142  0.32682  1.0000
  C   C5        1.0  0.34971  0.45908  0.08100  1.0000
  C   C6        1.0  0.14172  0.25029  0.45743  1.0000
  C   C7        1.0  0.47558  0.50850  0.06895  1.0000
  C   C8        1.0  0.49163  0.46597  0.10922  1.0000
  C   C9        1.0  0.51883  0.47847  0.11023  1.0000
  C   C10       1.0  0.52987  0.53316  0.06684  1.0000
  C   C11       1.0  0.51368  0.57487  0.02496  1.0000
  C   C12       1.0  0.48730  0.56131  0.02750  1.0000
  C   C13       1.0  0.48168  0.41082  0.15371  1.0000
  C   C14       1.0  0.49739  0.37071  0.19217  1.0000
  C   C15       1.0  0.52427  0.38160  0.19647  1.0000
  C   C16       1.0  0.53504  0.43637  0.15657  1.0000
  C   C17       1.0  0.56223  0.44880  0.15770  1.0000
  C   C18       1.0  0.57247  0.50381  0.10938  1.0000
  C   C19       1.0  0.55693  0.54390  0.06818  1.0000
  C   C20       1.0  0.54072  0.33995  0.23483  1.0000
  C   C21       1.0  0.56703  0.35346  0.23375  1.0000
  C   C22       1.0  0.57839  0.40635  0.19739  1.0000
  C   C23       1.0  0.08592  0.00997  0.05213  1.0000
  C   C24       1.0  0.05672  0.00549  0.11707  1.0000
  C   C25       1.0  0.04229  0.95987  0.09751  1.0000
  C   C26       1.0  0.05708  0.91779  0.02365  1.0000
  C   C27       1.0  0.08490  0.91983  0.48499  1.0000
  C   C28       1.0  0.09969  0.96627  0.99217  1.0000
  C   C29       1.0  0.04099  0.04353  0.21005  1.0000
  C   C30       1.0  0.01300  0.04011  0.26145  1.0000
  C   C31       1.0  0.99808  0.99822  0.22566  1.0000
  C   C32       1.0  0.01294  0.95613  0.15221  1.0000
  C   C33       1.0  0.99854  0.91036  0.13317  1.0000
  C   C34       1.0  0.01421  0.87257  0.03872  1.0000
  C   C35       1.0  0.04103  0.87576  0.49056  1.0000
  C   C36       1.0  0.96909  0.99585  0.26759  1.0000
  C   C37       1.0  0.95550  0.94882  0.26018  1.0000
  C   C38       1.0  0.96936  0.90523  0.20061  1.0000
  C   C39       1.0  0.84615  0.47817  0.33383  1.0000
  C   C40       1.0  0.80854  0.44074  0.29599  1.0000
  C   C41       1.0  0.83996  0.38747  0.36863  1.0000
  C   C42       1.0  0.88612  0.18398  0.41878  1.0000
  C   C43       1.0  0.70303  0.46184  0.20520  1.0000
  C   C44       1.0  0.91123  0.66464  0.32297  1.0000
  C   C45       1.0  0.20894  0.43721  0.92260  1.0000
  C   C46       1.0  0.24717  0.47687  0.94558  1.0000
  C   C47       1.0  0.21543  0.52829  0.86926  1.0000
  C   C48       1.0  0.16711  0.72944  0.82385  1.0000
  C   C49       1.0  0.34879  0.45775  0.58514  1.0000
  C   C50       1.0  0.14485  0.24885  0.94001  1.0000
  C   C51       1.0  0.47483  0.50611  0.57252  1.0000
  C   C52       1.0  0.49069  0.46321  0.61268  1.0000
  C   C53       1.0  0.51786  0.47512  0.61489  1.0000
  C   C54       1.0  0.52894  0.52966  0.57396  1.0000
  C   C55       1.0  0.51306  0.57165  0.53070  1.0000
  C   C56       1.0  0.48670  0.55875  0.53204  1.0000
  C   C57       1.0  0.48051  0.40822  0.65665  1.0000
  C   C58       1.0  0.49606  0.36776  0.69511  1.0000
  C   C59       1.0  0.52311  0.37804  0.69765  1.0000
  C   C60       1.0  0.53405  0.43267  0.65851  1.0000
  C   C61       1.0  0.56136  0.44478  0.65800  1.0000
  C   C62       1.0  0.57138  0.49981  0.61621  1.0000
  C   C63       1.0  0.55578  0.54019  0.57892  1.0000
  C   C64       1.0  0.53966  0.33607  0.73210  1.0000
  C   C65       1.0  0.56626  0.34928  0.72608  1.0000
  C   C66       1.0  0.57769  0.40203  0.69138  1.0000
  C   C67       1.0  0.08465  0.01026  0.55447  1.0000
  C   C68       1.0  0.05544  0.00569  0.61843  1.0000
  C   C69       1.0  0.04106  0.95987  0.59933  1.0000
  C   C70       1.0  0.05593  0.91775  0.52591  1.0000
  C   C71       1.0  0.08603  0.91966  0.98250  1.0000
  C   C72       1.0  0.09843  0.96645  0.49582  1.0000
  C   C73       1.0  0.03964  0.04379  0.71064  1.0000
  C   C74       1.0  0.01165  0.04019  0.76211  1.0000
  C   C75       1.0  0.99676  0.99797  0.72780  1.0000
  C   C76       1.0  0.01168  0.95592  0.65437  1.0000
  C   C77       1.0  0.99731  0.90997  0.63618  1.0000
  C   C78       1.0  0.01305  0.87204  0.54283  1.0000
  C   C79       1.0  0.04218  0.87610  0.98691  1.0000
  C   C80       1.0  0.96773  0.99538  0.77147  1.0000
  C   C81       1.0  0.95420  0.94830  0.76405  1.0000
  C   C82       1.0  0.96812  0.90487  0.70343  1.0000
  C   C83       1.0  0.84475  0.47850  0.83176  1.0000
  C   C84       1.0  0.80739  0.44033  0.79365  1.0000
  C   C85       1.0  0.83916  0.38775  0.86382  1.0000
  C   C86       1.0  0.88526  0.18439  0.91591  1.0000
  C   C87       1.0  0.70218  0.45600  0.69757  1.0000
  C   C88       1.0  0.90954  0.66547  0.81839  1.0000
  N   N1        1.0  0.19942  0.48604  0.37025  1.0000
  N   N2        1.0  0.23200  0.43159  0.45527  1.0000
  N   N3        1.0  0.23884  0.52696  0.40334  1.0000
  N   N4        1.0  0.14230  0.73460  0.33327  1.0000
  N   N5        1.0  0.14847  0.20137  0.01503  1.0000
  N   N6        1.0  0.36457  0.50075  0.07796  1.0000
  N   N7        1.0  0.50854  0.11636  0.34618  1.0000
  N   N8        1.0  0.54811  0.79515  0.32915  1.0000
  N   N9        1.0  0.85542  0.42985  0.37374  1.0000
  N   N10       1.0  0.82299  0.48568  0.29273  1.0000
  N   N11       1.0  0.81631  0.39064  0.33157  1.0000
  N   N12       1.0  0.90798  0.71174  0.24287  1.0000
  N   N13       1.0  0.68981  0.42188  0.18112  1.0000
  N   N14       1.0  0.91135  0.18090  0.41070  1.0000
  N   N15       1.0  0.19965  0.48495  0.87532  1.0000
  N   N16       1.0  0.23220  0.43111  0.96326  1.0000
  N   N17       1.0  0.23967  0.52648  0.89864  1.0000
  N   N18       1.0  0.14159  0.73198  0.83842  1.0000
  N   N19       1.0  0.14829  0.20213  0.50209  1.0000
  N   N20       1.0  0.36413  0.49942  0.57593  1.0000
  N   N21       1.0  0.50602  0.11227  0.87476  1.0000
  N   N22       1.0  0.54657  0.79914  0.88641  1.0000
  N   N23       1.0  0.85437  0.43038  0.86973  1.0000
  N   N24       1.0  0.82131  0.48552  0.79380  1.0000
  N   N25       1.0  0.81563  0.39053  0.82565  1.0000
  N   N26       1.0  0.90668  0.71249  0.73594  1.0000
  N   N27       1.0  0.68906  0.41542  0.67609  1.0000
  N   N28       1.0  0.91020  0.18096  0.91424  1.0000
  C  Sn1       1.0  0.12572  0.86603  0.74282  1.0000
  C   C89       1.0  0.10169  0.86968  0.88280  1.0000
  C  Sn2       1.0  0.14239  0.88551  0.03083  1.0000
  C  Sn3       1.0  0.15701  0.83886  0.03920  1.0000
  C   C90       1.0  0.13061  0.77738  0.89930  1.0000
  C  Sn4       1.0  0.14034  0.81939  0.75119  1.0000
  O  Te1       1.0  0.13505  0.90853  0.59613  1.0000
  O  Te2       1.0  0.11832  0.89007  0.16910  1.0000
  O  Te3       1.0  0.14766  0.79635  0.18605  1.0000
  O  Te4       1.0  0.16440  0.81484  0.61300  1.0000
  Mg  Mg1       1.0  0.11386  0.82147  0.34085  1.0000
  Mg  Mg2       1.0  0.16889  0.88342  0.44123  1.0000
  C  Sn5       1.0  0.09546  0.78199  0.48588  1.0000
  C   C91       1.0  0.12037  0.77990  0.35116  1.0000
  C  Sn6       1.0  0.13750  0.82651  0.26454  1.0000
  C  Sn7       1.0  0.12958  0.87624  0.31366  1.0000
  C   C92       1.0  0.10469  0.87831  0.44833  1.0000
  C  Sn8       1.0  0.08754  0.83172  0.53501  1.0000
  O  Te5       1.0  0.07865  0.73489  0.57069  1.0000
  O  Te6       1.0  0.16230  0.82343  0.13021  1.0000
  O  Te7       1.0  0.14641  0.92336  0.22872  1.0000
  O  Te8       1.0  0.06276  0.83479  0.66928  1.0000
  Mg  Mg3       1.0  0.17819  0.89862  0.05401  1.0000
  Mg  Mg4       1.0  0.04686  0.75962  0.74563  1.0000
  C  Sn9       1.0  0.29939  0.52136  0.91800  1.0000
  C   C93       1.0  0.28032  0.47993  0.93171  1.0000
  C  Sn10      1.0  0.33200  0.48620  0.02303  1.0000
  C  Sn11      1.0  0.35274  0.47582  0.10243  1.0000
  C   C94       1.0  0.37180  0.51723  0.08874  1.0000
  C  Sn12      1.0  0.32014  0.51097  0.99740  1.0000
  O  Te9       1.0  0.29774  0.57261  0.82608  1.0000
  O  Te10      1.0  0.31271  0.44543  0.03490  1.0000
  O  Te11      1.0  0.35438  0.42451  0.19440  1.0000
  O  Te12      1.0  0.33941  0.55173  0.98555  1.0000
  Mg  Mg5       1.0  0.32344  0.38225  0.17420  1.0000
  Mg  Mg6       1.0  0.32869  0.61493  0.84636  1.0000
  C  Sn13      1.0  0.16480  0.62026  0.33988  1.0000
  C   C95       1.0  0.17525  0.66938  0.35595  1.0000
  C  Sn14      1.0  0.20266  0.67673  0.34463  1.0000
  C  Sn15      1.0  0.21998  0.63411  0.31653  1.0000
  C   C96       1.0  0.20952  0.58503  0.30044  1.0000
  C  Sn16      1.0  0.18212  0.57763  0.31179  1.0000
  O  Te13      1.0  0.13734  0.61381  0.35162  1.0000
  O  Te14      1.0  0.21264  0.72620  0.36117  1.0000
  O  Te15      1.0  0.24746  0.64060  0.30480  1.0000
  O  Te16      1.0  0.17214  0.52821  0.29523  1.0000
  Mg  Mg7       1.0  0.25151  0.71542  0.33564  1.0000
  Mg  Mg8       1.0  0.13328  0.53895  0.32064  1.0000
  C  Sn17      1.0  0.20206  0.32587  0.42654  1.0000
  C   C97       1.0  0.19693  0.37954  0.38358  1.0000
  C  Sn18      1.0  0.17075  0.39326  0.38579  1.0000
  C  Sn19      1.0  0.14924  0.35250  0.43202  1.0000
  C   C98       1.0  0.15438  0.29887  0.47498  1.0000
  C  Sn20      1.0  0.18055  0.28510  0.47277  1.0000
  O  Te17      1.0  0.22838  0.31307  0.42347  1.0000
  O  Te18      1.0  0.16612  0.44719  0.34228  1.0000
  O  Te19      1.0  0.12290  0.36534  0.43506  1.0000
  O  Te20      1.0  0.18518  0.23121  0.51628  1.0000
  Mg  Mg9       1.0  0.12677  0.44448  0.36560  1.0000
  Mg  Mg10      1.0  0.22452  0.23388  0.49309  1.0000
  C  Sn21      1.0  0.14990  0.20793  0.01576  1.0000
  C   C99       1.0  0.17402  0.21439  0.05578  1.0000
  C  Sn22      1.0  0.18969  0.17090  0.07618  1.0000
  C  Sn23      1.0  0.18108  0.11990  0.05605  1.0000
  C   C100      1.0  0.15699  0.11346  0.01602  1.0000
  C  Sn24      1.0  0.09089  0.09907  0.99563  1.0000
  O  Te21      1.0  0.08415  0.19411  0.99594  1.0000
  O  Te22      1.0  0.21371  0.17834  0.11625  1.0000
  O  Te23      1.0  0.19645  0.07585  0.07591  1.0000
  O  Te24      1.0  0.06688  0.09166  0.95555  1.0000
  Mg  Mg11      1.0  0.22764  0.10612  0.13030  1.0000
  Mg  Mg12      1.0  0.05294  0.16385  0.94138  1.0000
  C  Sn25      1.0  0.09873  0.15084  0.51116  1.0000
  C   C101      1.0  0.12311  0.15749  0.54799  1.0000
  C  Sn26      1.0  0.13858  0.11385  0.57077  1.0000
  C  Sn27      1.0  0.12952  0.06248  0.55633  1.0000
  C   C102      1.0  0.10516  0.05585  0.51949  1.0000
  C  Sn28      1.0  0.08967  0.09947  0.49671  1.0000
  O  Te25      1.0  0.08359  0.19503  0.48888  1.0000
  O  Te26      1.0  0.16287  0.12149  0.60757  1.0000
  O  Te27      1.0  0.14468  0.01827  0.57865  1.0000
  O  Te28      1.0  0.06540  0.09185  0.45991  1.0000
  Mg  Mg13      1.0  0.17637  0.04893  0.62687  1.0000
  Mg  Mg14      1.0  0.05189  0.16439  0.44050  1.0000
  C  Sn29      1.0  0.62417  0.46888  0.21620  1.0000
  C   C103      1.0  0.61148  0.43026  0.15819  1.0000
  C  Sn30      1.0  0.62417  0.38354  0.12144  1.0000
  C  Sn31      1.0  0.65008  0.37523  0.14324  1.0000
  C   C104      1.0  0.66275  0.41383  0.20125  1.0000
  C  Sn32      1.0  0.65007  0.46057  0.23800  1.0000
  O  Te29      1.0  0.61111  0.51528  0.25217  1.0000
  O  Te30      1.0  0.61109  0.34552  0.06355  1.0000
  O  Te31      1.0  0.66313  0.32878  0.10721  1.0000
  O  Te32      1.0  0.66314  0.49857  0.29589  1.0000
  Mg  Mg15      1.0  0.63711  0.28877  0.03169  1.0000
  Mg  Mg16      1.0  0.63714  0.55532  0.32787  1.0000
  C  Sn33      1.0  0.55535  0.65740  0.36188  1.0000
  C   C105      1.0  0.53152  0.63189  0.49425  1.0000
  C  Sn34      1.0  0.50960  0.66152  0.56775  1.0000
  C  Sn35      1.0  0.51153  0.71783  0.50762  1.0000
  C   C106      1.0  0.53534  0.74331  0.37531  1.0000
  C  Sn36      1.0  0.55728  0.71371  0.30175  1.0000
  O  Te33      1.0  0.57701  0.62698  0.29028  1.0000
  O  Te34      1.0  0.48599  0.63512  0.69998  1.0000
  O  Te35      1.0  0.48984  0.74824  0.57936  1.0000
  O  Te36      1.0  0.58087  0.74008  0.16958  1.0000
  Mg  Mg17      1.0  0.46198  0.69401  0.75636  1.0000
  Mg  Mg18      1.0  0.60489  0.68123  0.11305  1.0000
  C  Sn37      1.0  0.55472  0.66369  0.87004  1.0000
  C   C107      1.0  0.53104  0.63537  0.99577  1.0000
  C  Sn38      1.0  0.55896  0.72043  0.07707  1.0000
  C  Sn39      1.0  0.56014  0.77714  0.03170  1.0000
  C   C108      1.0  0.53339  0.74757  0.90602  1.0000
  C  Sn40      1.0  0.55590  0.72039  0.82467  1.0000
  O  Te37      1.0  0.57697  0.63565  0.79043  1.0000
  O  Te38      1.0  0.53551  0.69125  0.20242  1.0000
  O  Te39      1.0  0.53787  0.80516  0.11144  1.0000
  O  Te40      1.0  0.57934  0.74954  0.69937  1.0000
  Mg  Mg19      1.0  0.51051  0.74756  0.27427  1.0000
  Mg  Mg20      1.0  0.60434  0.69327  0.62737  1.0000
  C  Sn41      1.0  0.42015  0.53252  0.20164  1.0000
  C   C109      1.0  0.44060  0.49912  0.13391  1.0000
  C  Sn42      1.0  0.43743  0.46617  0.01884  1.0000
  C  Sn43      1.0  0.36292  0.40878  0.97037  1.0000
  C   C110      1.0  0.39291  0.50002  0.03806  1.0000
  C  Sn44      1.0  0.39606  0.53298  0.15317  1.0000
  O  Te41      1.0  0.42375  0.56513  0.31647  1.0000
  O  Te42      1.0  0.40774  0.37526  0.95288  1.0000
  O  Te43      1.0  0.35934  0.37612  0.85545  1.0000
  O  Te44      1.0  0.37536  0.56603  0.21909  1.0000
  Mg  Mg21      1.0  0.39334  0.33809  0.80052  1.0000
  Mg  Mg22      1.0  0.38974  0.60323  0.37138  1.0000
  C  Sn45      1.0  0.54427  0.24026  0.12450  1.0000
  C   C111      1.0  0.53081  0.27792  0.22232  1.0000
  C  Sn46      1.0  0.51055  0.26123  0.38938  1.0000
  C  Sn47      1.0  0.50363  0.20572  0.46022  1.0000
  C   C112      1.0  0.51709  0.16810  0.36244  1.0000
  C  Sn48      1.0  0.53734  0.18476  0.19534  1.0000
  O  Te45      1.0  0.51404  0.20001  0.95778  1.0000
  O  Te46      1.0  0.49737  0.29963  0.48465  1.0000
  O  Te47      1.0  0.48343  0.18814  0.62708  1.0000
  O  Te48      1.0  0.55052  0.14639  0.10011  1.0000
  Mg  Mg23      1.0  0.47129  0.25578  0.70601  1.0000
  Mg  Mg24      1.0  0.52620  0.13234  0.87879  1.0000
  C  Sn49      1.0  0.92095  0.81869  0.12467  1.0000
  C   C113      1.0  0.92653  0.76653  0.18594  1.0000
  C  Sn50      1.0  0.94496  0.75766  0.28095  1.0000
  C  Sn51      1.0  0.95809  0.80185  0.31554  1.0000
  C   C114      1.0  0.95251  0.85397  0.25431  1.0000
  C  Sn52      1.0  0.93408  0.86287  0.15926  1.0000
  O  Te49      1.0  0.90245  0.82661  0.02997  1.0000
  O  Te50      1.0  0.95021  0.70516  0.34079  1.0000
  O  Te51      1.0  0.97661  0.79388  0.41032  1.0000
  O  Te52      1.0  0.92883  0.91534  0.09946  1.0000
  Mg  Mg25      1.0  0.97701  0.71492  0.46417  1.0000
  Mg  Mg26      1.0  0.85161  0.84778  0.97616  1.0000
  C  Sn53      1.0  0.75341  0.50806  0.19949  1.0000
  C   C115      1.0  0.73650  0.46863  0.17605  1.0000
  C  Sn54      1.0  0.74160  0.41465  0.20988  1.0000
  C  Sn55      1.0  0.76407  0.39976  0.26847  1.0000
  C   C116      1.0  0.78096  0.43917  0.29191  1.0000
  C  Sn56      1.0  0.77587  0.49317  0.25808  1.0000
  O  Te53      1.0  0.74792  0.56178  0.16488  1.0000
  O  Te54      1.0  0.72442  0.37595  0.18542  1.0000
  O  Te55      1.0  0.76955  0.34598  0.30307  1.0000
  O  Te56      1.0  0.79304  0.53185  0.28253  1.0000
  Mg  Mg27      1.0  0.74028  0.30802  0.25016  1.0000
  Mg  Mg28      1.0  0.77719  0.59978  0.21793  1.0000
  C  Sn57      1.0  0.84781  0.25102  0.34193  1.0000
  C   C117      1.0  0.87184  0.23875  0.38006  1.0000
  C  Sn58      1.0  0.88440  0.27432  0.44983  1.0000
  C  Sn59      1.0  0.87269  0.32315  0.48228  1.0000
  C   C118      1.0  0.84868  0.33540  0.44419  1.0000
  C  Sn60      1.0  0.83611  0.29986  0.37438  1.0000
  O  Te57      1.0  0.83560  0.21487  0.27225  1.0000
  O  Te58      1.0  0.90841  0.26118  0.48683  1.0000
  O  Te59      1.0  0.88492  0.35931  0.55202  1.0000
  O  Te60      1.0  0.81211  0.31297  0.33742  1.0000
  Mg  Mg29      1.0  0.91740  0.32343  0.58062  1.0000
  Mg  Mg30      1.0  0.80309  0.25074  0.24372  1.0000
  C  Sn61      1.0  0.86253  0.61615  0.31056  1.0000
  C   C119      1.0  0.88613  0.61804  0.35912  1.0000
  C  Sn62      1.0  0.90001  0.57195  0.38140  1.0000
  C  Sn63      1.0  0.89009  0.52295  0.35447  1.0000
  C   C120      1.0  0.86650  0.52109  0.30591  1.0000
  C  Sn64      1.0  0.85261  0.56716  0.28363  1.0000
  O  Te61      1.0  0.84898  0.66272  0.28901  1.0000
  O  Te62      1.0  0.92356  0.57481  0.43005  1.0000
  O  Te63      1.0  0.90366  0.47637  0.37607  1.0000
  O  Te64      1.0  0.82907  0.56431  0.23497  1.0000
  Mg  Mg31      1.0  0.93486  0.50054  0.44319  1.0000
  Mg  Mg32      1.0  0.81776  0.63856  0.22171  1.0000
  C  Sn65      1.0  0.96621  0.10756  0.24307  1.0000
  C   C121      1.0  0.95835  0.05393  0.32576  1.0000
  C  Sn66      1.0  0.93131  0.03836  0.43567  1.0000
  C  Sn67      1.0  0.91172  0.07720  0.46344  1.0000
  C   C122      1.0  0.91959  0.13079  0.38076  1.0000
  C  Sn68      1.0  0.94662  0.14640  0.27084  1.0000
  O  Te65      1.0  0.99335  0.12222  0.13373  1.0000
  O  Te66      1.0  0.92394  0.98450  0.51694  1.0000
  O  Te67      1.0  0.88457  0.06249  0.57289  1.0000
  O  Te68      1.0  0.95400  0.20022  0.18958  1.0000
  Mg  Mg33      1.0  0.88447  0.98426  0.65405  1.0000
  Mg  Mg34      1.0  0.99345  0.20050  0.05237  1.0000
  C  Sn69      1.0  0.30509  0.51934  0.54426  1.0000
  C   C123      1.0  0.31679  0.47226  0.59230  1.0000
  C  Sn70      1.0  0.30722  0.42315  0.57055  1.0000
  C  Sn71      1.0  0.28551  0.42105  0.49918  1.0000
  C   C124      1.0  0.27382  0.46811  0.45115  1.0000
  C  Sn72      1.0  0.28338  0.51723  0.47289  1.0000
  O  Te69      1.0  0.31498  0.56799  0.56716  1.0000
  O  Te70      1.0  0.31924  0.37663  0.61960  1.0000
  O  Te71      1.0  0.27562  0.37235  0.47631  1.0000
  O  Te72      1.0  0.27137  0.56374  0.42385  1.0000
  Mg  Mg35      1.0  0.29865  0.31997  0.56284  1.0000
  Mg  Mg36      1.0  0.29196  0.62042  0.48046  1.0000
  C  Sn73      1.0  0.21438  0.67102  0.78622  1.0000
  C   C125      1.0  0.18923  0.68138  0.76165  1.0000
  C  Sn74      1.0  0.16985  0.63925  0.78732  1.0000
  C  Sn75      1.0  0.17572  0.58565  0.83874  1.0000
  C   C126      1.0  0.20086  0.57532  0.86331  1.0000
  C  Sn76      1.0  0.22026  0.61742  0.83764  1.0000
  O  Te73      1.0  0.23346  0.71376  0.75982  1.0000
  O  Te74      1.0  0.14485  0.65060  0.76189  1.0000
  O  Te75      1.0  0.15663  0.54291  0.86512  1.0000
  O  Te76      1.0  0.24524  0.60610  0.86307  1.0000
  Mg  Mg37      1.0  0.12549  0.57876  0.81416  1.0000
  Mg  Mg38      1.0  0.26461  0.67791  0.81094  1.0000
  C  Sn77      1.0  0.18318  0.30043  0.05758  1.0000
  C   C127      1.0  0.11013  0.23959  0.99941  1.0000
  C  Sn78      1.0  0.10459  0.28349  0.88739  1.0000
  C  Sn79      1.0  0.12206  0.33136  0.83224  1.0000
  C   C128      1.0  0.14468  0.33432  0.89037  1.0000
  C  Sn80      1.0  0.20064  0.34830  0.00243  1.0000
  O  Te77      1.0  0.18832  0.25605  0.16952  1.0000
  O  Te78      1.0  0.08183  0.27955  0.83103  1.0000
  O  Te79      1.0  0.11690  0.37575  0.72021  1.0000
  O  Te80      1.0  0.22339  0.35222  0.05874  1.0000
  Mg  Mg39      1.0  0.08339  0.35082  0.67913  1.0000
  Mg  Mg40      1.0  0.22186  0.28096  0.21057  1.0000
  C  Sn81      1.0  0.64909  0.38310  0.55493  1.0000
  C   C129      1.0  0.66139  0.41829  0.62755  1.0000
  C  Sn82      1.0  0.64529  0.44744  0.74954  1.0000
  C  Sn83      1.0  0.61630  0.44127  0.80009  1.0000
  C   C130      1.0  0.60402  0.40609  0.72751  1.0000
  C  Sn84      1.0  0.62010  0.37692  0.60548  1.0000
  O  Te81      1.0  0.66558  0.35436  0.43321  1.0000
  O  Te82      1.0  0.65805  0.48240  0.82029  1.0000
  O  Te83      1.0  0.59981  0.47005  0.92190  1.0000
  O  Te84      1.0  0.60736  0.34198  0.53477  1.0000
  Mg  Mg41      1.0  0.62678  0.51269  0.98143  1.0000
  Mg  Mg42      1.0  0.63860  0.31165  0.37370  1.0000
  C  Sn85      1.0  0.40880  0.54933  0.60829  1.0000
  C   C131      1.0  0.39555  0.51323  0.54426  1.0000
  C  Sn86      1.0  0.40694  0.46535  0.50790  1.0000
  C  Sn87      1.0  0.43209  0.45327  0.53624  1.0000
  C   C132      1.0  0.44533  0.48935  0.60026  1.0000
  C  Sn88      1.0  0.43395  0.53725  0.63663  1.0000
  O  Te85      1.0  0.39703  0.59695  0.64374  1.0000
  O  Te86      1.0  0.39332  0.42990  0.44392  1.0000
  O  Te87      1.0  0.44385  0.40560  0.50072  1.0000
  O  Te88      1.0  0.44756  0.57268  0.70061  1.0000
  Mg  Mg43      1.0  0.41752  0.37014  0.41544  1.0000
  Mg  Mg44      1.0  0.42337  0.63243  0.72921  1.0000
  C  Sn89      1.0  0.50685  0.24263  0.95819  1.0000
  C   C133      1.0  0.52979  0.27098  0.82478  1.0000
  C  Sn90      1.0  0.54476  0.24798  0.68090  1.0000
  C  Sn91      1.0  0.53661  0.19556  0.67006  1.0000
  C   C134      1.0  0.51368  0.16724  0.80339  1.0000
  C  Sn92      1.0  0.49870  0.19021  0.94735  1.0000
  O  Te89      1.0  0.54260  0.32426  0.10082  1.0000
  O  Te90      1.0  0.56763  0.27711  0.54919  1.0000
  O  Te91      1.0  0.55130  0.17180  0.52728  1.0000
  O  Te92      1.0  0.52626  0.21897  0.07899  1.0000
  Mg  Mg45      1.0  0.58095  0.22751  0.38103  1.0000
  Mg  Mg46      1.0  0.51291  0.26854  0.24714  1.0000
  C  Sn93      1.0  0.96366  0.79208  0.73085  1.0000
  C   C135      1.0  0.95761  0.84452  0.67769  1.0000
  C  Sn94      1.0  0.93178  0.85486  0.66445  1.0000
  C  Sn95      1.0  0.91158  0.81188  0.70532  1.0000
  C   C136      1.0  0.91763  0.75947  0.75848  1.0000
  C  Sn96      1.0  0.94345  0.74910  0.77172  1.0000
  O  Te93      1.0  0.98961  0.78268  0.74317  1.0000
  O  Te94      1.0  0.92622  0.90762  0.61096  1.0000
  O  Te95      1.0  0.88561  0.82131  0.69295  1.0000
  O  Te96      1.0  0.94902  0.69637  0.82521  1.0000
  Mg  Mg47      1.0  0.88785  0.90007  0.61435  1.0000
  Mg  Mg48      1.0  0.98737  0.70388  0.82196  1.0000
  C  Sn97      1.0  0.75171  0.50462  0.69544  1.0000
  C   C137      1.0  0.73560  0.46429  0.66936  1.0000
  C  Sn98      1.0  0.74144  0.41074  0.70291  1.0000
  C  Sn99      1.0  0.76383  0.39720  0.76389  1.0000
  C   C138      1.0  0.77992  0.43751  0.78997  1.0000
  C  Sn100     1.0  0.77410  0.49108  0.75643  1.0000
  O  Te97      1.0  0.74550  0.55789  0.66107  1.0000
  O  Te98      1.0  0.72505  0.37113  0.67580  1.0000
  O  Te99      1.0  0.77003  0.34388  0.79826  1.0000
  O  Te100     1.0  0.79047  0.53067  0.78353  1.0000
  Mg  Mg49      1.0  0.74170  0.30429  0.74128  1.0000
  Mg  Mg50      1.0  0.77382  0.59752  0.71818  1.0000
  C  Sn101     1.0  0.88200  0.32355  0.89152  1.0000
  C   C139      1.0  0.85757  0.33552  0.85854  1.0000
  C  Sn102     1.0  0.83802  0.29447  0.87701  1.0000
  C  Sn103     1.0  0.84298  0.24033  0.92966  1.0000
  C   C140      1.0  0.86740  0.22839  0.96264  1.0000
  C  Sn104     1.0  0.88697  0.26942  0.94417  1.0000
  O  Te101     1.0  0.90126  0.36524  0.87224  1.0000
  O  Te102     1.0  0.81375  0.30741  0.84324  1.0000
  O  Te103     1.0  0.82370  0.19864  0.94892  1.0000
  O  Te104     1.0  0.91122  0.25649  0.97794  1.0000
  Mg  Mg51      1.0  0.79379  0.23655  0.88788  1.0000
  Mg  Mg52      1.0  0.93119  0.32732  0.93344  1.0000
  C  Sn105     1.0  0.86105  0.58889  0.71245  1.0000
  C   C141      1.0  0.86420  0.53539  0.77664  1.0000
  C  Sn106     1.0  0.88116  0.52263  0.88066  1.0000
  C  Sn107     1.0  0.89525  0.56422  0.92147  1.0000
  C   C142      1.0  0.89209  0.61768  0.85732  1.0000
  C  Sn108     1.0  0.87514  0.63048  0.75326  1.0000
  O  Te105     1.0  0.84399  0.60071  0.60870  1.0000
  O  Te106     1.0  0.88400  0.46885  0.94327  1.0000
  O  Te107     1.0  0.96274  0.61021  0.02530  1.0000
  O  Te108     1.0  0.87229  0.68422  0.69069  1.0000
  Mg  Mg53      1.0  0.95997  0.53089  0.07967  1.0000
  Mg  Mg54      1.0  0.84674  0.68008  0.55437  1.0000
  C  Sn109     1.0  0.96895  0.13158  0.02910  1.0000
  C   C143      1.0  0.92496  0.12638  0.93266  1.0000
  C  Sn110     1.0  0.94438  0.13736  0.76061  1.0000
  C  Sn111     1.0  0.95765  0.09484  0.68328  1.0000
  C   C144      1.0  0.95122  0.04223  0.77968  1.0000
  C  Sn112     1.0  0.93181  0.03120  0.95176  1.0000
  O  Te109     1.0  0.94947  0.12153  0.20089  1.0000
  O  Te110     1.0  0.95046  0.19032  0.66684  1.0000
  O  Te111     1.0  0.97714  0.10493  0.51134  1.0000
  O  Te112     1.0  0.97614  0.03614  0.04550  1.0000
  Mg  Mg55      1.0  0.97844  0.18370  0.43690  1.0000
  Mg  Mg56      1.0  0.94815  0.04270  0.27540  1.0000
