data_image0
_chemical_formula_structural       H88C136S4N32C2Sn2C2HTe2HMgC2Sn2C2HTe2HMgC2Sn2C2HTe2HMgC2Sn2C2HTe2HMgC2Sn2C2HTe2HMgC2Sn2C2HTe2HMgC2Sn2C2HTe2HMgC2Sn2C2HTe2HMgC2Sn2C2HTe2HMgC2Sn2C2HTe2HMgC2Sn2C2HTe2HMgC2Sn2C2HTe2HMgC2Sn2C2HTe2HMgC2Sn2C2HTe2HMgC2Sn2C2HTe2HMgC2Sn2C2HTe2HMg
_chemical_formula_sum              "H120 C200 S4 N32 Sn32 Te32 Mg16"
_cell_length_a       43.1328
_cell_length_b       34.0873
_cell_length_c       8.52029
_cell_angle_alpha    107.684
_cell_angle_beta     82.9448
_cell_angle_gamma    90.8216

_symmetry_space_group_name_H-M    'P1'
_space_group_IT_number       1

loop_
  _space_group_symop_operation_xyz
  'x, y, z'

loop_
  _atom_site_type_symbol
  _atom_site_label
  _atom_site_symmetry_multiplicity
  _atom_site_fract_x
  _atom_site_fract_y
  _atom_site_fract_z
  _atom_site_occupancy
  H   H1        1.0  0.52347  0.62580  0.53483  1.0000
  H   H2        1.0  0.46679  0.62314  0.53035  1.0000
  H   H3        1.0  0.41505  0.74058  0.66718  1.0000
  H   H4        1.0  0.35821  0.73313  0.65845  1.0000
  H   H5        1.0  0.37455  0.61290  0.30080  1.0000
  H   H6        1.0  0.43100  0.61937  0.31796  1.0000
  H   H7        1.0  0.27329  0.96687  0.35652  1.0000
  H   H8        1.0  0.29957  0.90144  0.34110  1.0000
  H   H9        1.0  0.18621  0.92322  0.53692  1.0000
  H   H10       1.0  0.21279  0.85760  0.52272  1.0000
  H   H11       1.0  0.24703  0.82758  0.62070  1.0000
  H   H12       1.0  0.06688  0.24316  0.70745  1.0000
  H   H13       1.0  0.12409  0.23463  0.68683  1.0000
  H   H14       1.0  0.06075  0.11569  0.42451  1.0000
  H   H15       1.0  0.11776  0.10784  0.39347  1.0000
  H   H16       1.0  0.14880  0.21486  0.32542  1.0000
  H   H17       1.0  0.17703  0.27892  0.31859  1.0000
  H   H18       1.0  0.23417  0.26236  0.67438  1.0000
  H   H19       1.0  0.23943  0.32289  0.60119  1.0000
  H   H20       1.0  0.24040  0.52042  0.44210  1.0000
  H   H21       1.0  0.24208  0.58867  0.42421  1.0000
  H   H22       1.0  0.26943  0.65272  0.43215  1.0000
  H   H23       1.0  0.35240  0.60068  0.53465  1.0000
  H   H24       1.0  0.32537  0.53562  0.51278  1.0000
  H   H25       1.0  0.24562  0.01222  0.34166  1.0000
  H   H26       1.0  0.73811  0.53240  0.56873  1.0000
  H   H27       1.0  0.74044  0.30601  0.35402  1.0000
  H   H28       1.0  0.76644  0.16227  0.55283  1.0000
  H   H29       1.0  0.74498  0.09540  0.56205  1.0000
  H   H30       1.0  0.83672  0.03930  0.42172  1.0000
  H   H31       1.0  0.85839  0.10547  0.39875  1.0000
  H   H32       1.0  0.75073  0.02492  0.54129  1.0000
  H   H33       1.0  0.87087  0.20828  0.30309  1.0000
  H   H34       1.0  0.92739  0.21360  0.33130  1.0000
  H   H35       1.0  0.85567  0.16092  0.71897  1.0000
  H   H36       1.0  0.91209  0.16552  0.74657  1.0000
  H   H37       1.0  0.65083  0.75749  0.69129  1.0000
  H   H38       1.0  0.68385  0.81658  0.66403  1.0000
  H   H39       1.0  0.74707  0.73273  0.28645  1.0000
  H   H40       1.0  0.71426  0.67400  0.31077  1.0000
  H   H41       1.0  0.75734  0.80435  0.35942  1.0000
  H   H42       1.0  0.95812  0.13131  0.60377  1.0000
  H   H43       1.0  0.01407  0.12824  0.62519  1.0000
  H   H44       1.0  0.64504  0.59040  0.76020  1.0000
  H   H45       1.0  0.58894  0.58502  0.72595  1.0000
  H   H46       1.0  0.57204  0.53791  0.14328  1.0000
  H   H47       1.0  0.62834  0.54315  0.17581  1.0000
  H   H48       1.0  0.54237  0.61744  0.85204  1.0000
  H   H49       1.0  0.48678  0.61936  0.82371  1.0000
  H   H50       1.0  0.75816  0.44463  0.12964  1.0000
  H   H51       1.0  0.76073  0.21851  0.91595  1.0000
  H   H52       1.0  0.88183  0.09764  0.76967  1.0000
  H   H53       1.0  0.93908  0.09394  0.76705  1.0000
  H   H54       1.0  0.92662  0.03173  0.13957  1.0000
  H   H55       1.0  0.86929  0.03610  0.14426  1.0000
  H   H56       1.0  0.73358  0.58962  0.93341  1.0000
  H   H57       1.0  0.75468  0.65664  0.92462  1.0000
  H   H58       1.0  0.66285  0.71237  0.07022  1.0000
  H   H59       1.0  0.64149  0.64574  0.09080  1.0000
  H   H60       1.0  0.74868  0.72643  0.94089  1.0000
  H   H61       1.0  0.75287  0.76502  0.76567  1.0000
  H   H62       1.0  0.78033  0.82944  0.75414  1.0000
  H   H63       1.0  0.72108  0.89886  0.19143  1.0000
  H   H64       1.0  0.69363  0.83521  0.20182  1.0000
  H   H65       1.0  0.74084  0.94794  0.12079  1.0000
  H   H66       1.0  0.25672  0.23386  0.08718  1.0000
  H   H67       1.0  0.25877  0.42831  0.86530  1.0000
  H   H68       1.0  0.32256  0.47065  0.14045  1.0000
  H   H69       1.0  0.35143  0.53411  0.13234  1.0000
  H   H70       1.0  0.29303  0.55246  0.78462  1.0000
  H   H71       1.0  0.26520  0.48857  0.78779  1.0000
  H   H72       1.0  0.25899  0.74146  0.14020  1.0000
  H   H73       1.0  0.22892  0.78106  0.08895  1.0000
  H   H74       1.0  0.20223  0.84627  0.10328  1.0000
  H   H75       1.0  0.28885  0.89070  0.92255  1.0000
  H   H76       1.0  0.31579  0.82555  0.91073  1.0000
  H   H77       1.0  0.25437  0.92181  0.82924  1.0000
  H   H78       1.0  0.18432  0.96696  0.14936  1.0000
  H   H79       1.0  0.15752  0.03301  0.16848  1.0000
  H   H80       1.0  0.12758  0.13875  0.14009  1.0000
  H   H81       1.0  0.07104  0.13323  0.12808  1.0000
  H   H82       1.0  0.08463  0.00801  0.81208  1.0000
  H   H83       1.0  0.14167  0.01466  0.81210  1.0000
  H   H84       1.0  0.24995  0.98138  0.74932  1.0000
  H   H85       1.0  0.22299  0.04687  0.76637  1.0000
  H   H86       1.0  0.03392  0.12587  0.91949  1.0000
  H   H87       1.0  0.97721  0.12367  0.92161  1.0000
  H   H88       1.0  0.20702  0.19827  0.67750  1.0000
  C   C1        1.0  0.71800  0.61637  0.96530  1.0000
  C   C2        1.0  0.72973  0.65413  0.95933  1.0000
  C   C3        1.0  0.32458  0.54676  0.95471  1.0000
  C   C4        1.0  0.29241  0.47461  0.96146  1.0000
  C   C5        1.0  0.76138  0.82996  0.85159  1.0000
  C   C6        1.0  0.12618  0.04065  0.88143  1.0000
  C   C7        1.0  0.09403  0.03700  0.88110  1.0000
  C   C8        1.0  0.23000  0.99310  0.84302  1.0000
  C   C9        1.0  0.71004  0.68886  0.99044  1.0000
  C   C10       1.0  0.72321  0.72720  0.97706  1.0000
  C   C11       1.0  0.74630  0.79425  0.85993  1.0000
  C   C12       1.0  0.21898  0.96979  0.94826  1.0000
  C   C13       1.0  0.27566  0.86652  0.95719  1.0000
  C   C14       1.0  0.98910  0.09757  0.93865  1.0000
  C   C15       1.0  0.62881  0.57989  0.84625  1.0000
  C   C16       1.0  0.59717  0.57703  0.82833  1.0000
  C   C17       1.0  0.49582  0.59407  0.85953  1.0000
  C   C18       1.0  0.23489  0.93096  0.93038  1.0000
  C   C19       1.0  0.29949  0.53454  0.86203  1.0000
  C   C20       1.0  0.28376  0.49882  0.86552  1.0000
  C   C21       1.0  0.21496  0.02972  0.85163  1.0000
  C   C22       1.0  0.18852  0.04394  0.96798  1.0000
  C   C23       1.0  0.29087  0.83042  0.95209  1.0000
  C   C24       1.0  0.27465  0.79899  0.00083  1.0000
  C   C25       1.0  0.78430  0.22255  0.95474  1.0000
  C   C26       1.0  0.27681  0.43579  0.95015  1.0000
  C   C27       1.0  0.92384  0.08226  0.85343  1.0000
  C   C28       1.0  0.89167  0.08420  0.85370  1.0000
  C   C29       1.0  0.02188  0.09914  0.93930  1.0000
  C   C30       1.0  0.52803  0.59265  0.87393  1.0000
  C   C31       1.0  0.97245  0.15649  0.58575  1.0000
  C   C32       1.0  0.10675  0.13714  0.46758  1.0000
  C   C33       1.0  0.07443  0.14173  0.48515  1.0000
  C   C34       1.0  0.00483  0.15443  0.59612  1.0000
  C   C35       1.0  0.87163  0.17143  0.63181  1.0000
  C   C36       1.0  0.90340  0.17395  0.64625  1.0000
  C   C37       1.0  0.32852  0.59812  0.50600  1.0000
  C   C38       1.0  0.31334  0.56151  0.49505  1.0000
  C   C39       1.0  0.70788  0.70509  0.38973  1.0000
  C   C40       1.0  0.72612  0.73815  0.37614  1.0000
  C   C41       1.0  0.31346  0.63185  0.47982  1.0000
  C   C42       1.0  0.28195  0.55686  0.46377  1.0000
  C   C43       1.0  0.77631  0.02459  0.51033  1.0000
  C   C44       1.0  0.12525  0.17065  0.53813  1.0000
  C   C45       1.0  0.05931  0.18003  0.56847  1.0000
  C   C46       1.0  0.02538  0.18435  0.57069  1.0000
  C   C47       1.0  0.83369  0.10356  0.43923  1.0000
  C   C48       1.0  0.82170  0.06661  0.45135  1.0000
  C   C49       1.0  0.18308  0.26127  0.39810  1.0000
  C   C50       1.0  0.78189  0.13541  0.52158  1.0000
  C   C51       1.0  0.81421  0.13925  0.48035  1.0000
  C   C52       1.0  0.68039  0.71201  0.50180  1.0000
  C   C53       1.0  0.71737  0.77878  0.47216  1.0000
  C   C54       1.0  0.73642  0.81286  0.45164  1.0000
  C   C55       1.0  0.17563  0.20285  0.50456  1.0000
  C   C56       1.0  0.21582  0.25168  0.59570  1.0000
  C   C57       1.0  0.22290  0.31409  0.50820  1.0000
  C   C58       1.0  0.71491  0.52836  0.52557  1.0000
  C   C59       1.0  0.25980  0.94320  0.39323  1.0000
  C   C60       1.0  0.07794  0.21334  0.64063  1.0000
  C   C61       1.0  0.11020  0.20860  0.62884  1.0000
  C   C62       1.0  0.97850  0.21967  0.51963  1.0000
  C   C63       1.0  0.52884  0.68668  0.51502  1.0000
  C   C64       1.0  0.51138  0.65267  0.52565  1.0000
  C   C65       1.0  0.47794  0.71879  0.49561  1.0000
  C   C66       1.0  0.22243  0.01507  0.41470  1.0000
  C   C67       1.0  0.21110  0.91810  0.49517  1.0000
  C   C68       1.0  0.85979  0.18274  0.50513  1.0000
  C   C69       1.0  0.92433  0.18849  0.53683  1.0000
  C   C70       1.0  0.95813  0.18826  0.54789  1.0000
  C   C71       1.0  0.67181  0.75240  0.60201  1.0000
  C   C72       1.0  0.69003  0.78524  0.58688  1.0000
  C   C73       1.0  0.20040  0.21577  0.59896  1.0000
  C   C74       1.0  0.28187  0.62742  0.45095  1.0000
  C   C75       1.0  0.26653  0.59102  0.44544  1.0000
  C   C76       1.0  0.76998  0.09778  0.52833  1.0000
  C   C77       1.0  0.16751  0.22554  0.40163  1.0000
  C   C78       1.0  0.22749  0.94965  0.44822  1.0000
  C   C79       1.0  0.26669  0.81804  0.52081  1.0000
  C   C80       1.0  0.27479  0.90678  0.38529  1.0000
  C   C81       1.0  0.25849  0.87561  0.43577  1.0000
  C   C82       1.0  0.22613  0.88179  0.48905  1.0000
  C   C83       1.0  0.75906  0.31410  0.43490  1.0000
  C   C84       1.0  0.20721  0.27540  0.49795  1.0000
  C   C85       1.0  0.26550  0.51892  0.45260  1.0000
  C   C86       1.0  0.78956  0.06300  0.49830  1.0000
  C   C87       1.0  0.91187  0.20170  0.41556  1.0000
  C   C88       1.0  0.88010  0.19864  0.39908  1.0000
  C   C89       1.0  0.01170  0.21801  0.53366  1.0000
  C   C90       1.0  0.36212  0.67174  0.48436  1.0000
  C   C91       1.0  0.37417  0.70805  0.58491  1.0000
  C   C92       1.0  0.40618  0.71228  0.58930  1.0000
  C   C93       1.0  0.42725  0.67995  0.49767  1.0000
  C   C94       1.0  0.41507  0.64398  0.39612  1.0000
  C   C95       1.0  0.38312  0.64016  0.38672  1.0000
  C   C96       1.0  0.46107  0.68307  0.50621  1.0000
  C   C97       1.0  0.47874  0.65084  0.52073  1.0000
  C   C98       1.0  0.51156  0.72045  0.49790  1.0000
  C   C99       1.0  0.33254  0.52382  0.05702  1.0000
  C   C100      1.0  0.31671  0.48831  0.06062  1.0000
  C   C101      1.0  0.76239  0.93941  0.03307  1.0000
  C   C102      1.0  0.02231  0.03354  0.98632  1.0000
  C   C103      1.0  0.13895  0.07764  0.97244  1.0000
  C   C104      1.0  0.07348  0.07055  0.96557  1.0000
  C   C105      1.0  0.03949  0.06786  0.96196  1.0000
  C   C106      1.0  0.75270  0.86843  0.96918  1.0000
  C   C107      1.0  0.68568  0.61229  0.00590  1.0000
  C   C108      1.0  0.71249  0.83435  0.10350  1.0000
  C   C109      1.0  0.72195  0.79576  0.98835  1.0000
  C   C110      1.0  0.23456  0.23181  0.03378  1.0000
  C   C111      1.0  0.74005  0.43657  0.04553  1.0000
  C   C112      1.0  0.08644  0.10738  0.05560  1.0000
  C   C113      1.0  0.11846  0.11068  0.06217  1.0000
  C   C114      1.0  0.64015  0.56875  0.97459  1.0000
  C   C115      1.0  0.57583  0.56257  0.93629  1.0000
  C   C116      1.0  0.58782  0.54972  0.05982  1.0000
  C   C117      1.0  0.61946  0.55290  0.07916  1.0000
  C   C118      1.0  0.54220  0.56215  0.92059  1.0000
  C   C119      1.0  0.52171  0.53130  0.95334  1.0000
  C   C120      1.0  0.22708  0.84125  0.06037  1.0000
  C   C121      1.0  0.88469  0.04897  0.06252  1.0000
  C   C122      1.0  0.91696  0.04662  0.05977  1.0000
  C   C123      1.0  0.98856  0.03218  0.98808  1.0000
  C   C124      1.0  0.87158  0.06863  0.96239  1.0000
  C   C125      1.0  0.93732  0.06422  0.95846  1.0000
  C   C126      1.0  0.97135  0.06480  0.96163  1.0000
  C   C127      1.0  0.17768  0.02134  0.07637  1.0000
  C   C128      1.0  0.19258  0.98467  0.06642  1.0000
  C   C129      1.0  0.66615  0.64797  0.04994  1.0000
  C   C130      1.0  0.67798  0.68511  0.03905  1.0000
  C   C131      1.0  0.24329  0.87258  0.01062  1.0000
  C   C132      1.0  0.28070  0.73604  0.05348  1.0000
  C   C133      1.0  0.24226  0.80504  0.05366  1.0000
  C   C134      1.0  0.72785  0.86995  0.09571  1.0000
  C   C135      1.0  0.47514  0.56477  0.89002  1.0000
  C   C136      1.0  0.48864  0.53239  0.93618  1.0000
  S   S1        1.0  0.49431  0.78398  0.46792  1.0000
  S   S2        1.0  0.00168  0.27879  0.46117  1.0000
  S   S3        1.0  0.49822  0.47383  0.02422  1.0000
  S   S4        1.0  0.00556  0.97075  0.03682  1.0000
  N   N1        1.0  0.77043  0.90170  0.94998  1.0000
  N   N2        1.0  0.73420  0.39899  0.96417  1.0000
  N   N3        1.0  0.29173  0.76302  0.98310  1.0000
  N   N4        1.0  0.22337  0.26157  0.99063  1.0000
  N   N5        1.0  0.27937  0.48579  0.45668  1.0000
  N   N6        1.0  0.79288  0.99122  0.48193  1.0000
  N   N7        1.0  0.72893  0.85048  0.53893  1.0000
  N   N8        1.0  0.76514  0.35178  0.51389  1.0000
  N   N9        1.0  0.15836  0.16730  0.51471  1.0000
  N   N10       1.0  0.32919  0.66848  0.48179  1.0000
  N   N11       1.0  0.46540  0.75325  0.47812  1.0000
  N   N12       1.0  0.70236  0.49249  0.48096  1.0000
  N   N13       1.0  0.21036  0.98578  0.46861  1.0000
  N   N14       1.0  0.27549  0.84002  0.42388  1.0000
  N   N15       1.0  0.21696  0.33734  0.41985  1.0000
  N   N16       1.0  0.82750  0.17738  0.48357  1.0000
  N   N17       1.0  0.66110  0.67853  0.51330  1.0000
  N   N18       1.0  0.52360  0.75639  0.48398  1.0000
  N   N19       1.0  0.96996  0.25318  0.47937  1.0000
  N   N20       1.0  0.02745  0.25008  0.50232  1.0000
  N   N21       1.0  0.28463  0.41083  0.02763  1.0000
  N   N22       1.0  0.70675  0.76081  0.00887  1.0000
  N   N23       1.0  0.79707  0.25831  0.99566  1.0000
  N   N24       1.0  0.17180  0.08048  0.97474  1.0000
  N   N25       1.0  0.34234  0.58169  0.94246  1.0000
  N   N26       1.0  0.22624  0.90829  0.02456  1.0000
  N   N27       1.0  0.83869  0.07321  0.97219  1.0000
  N   N28       1.0  0.67235  0.57397  0.99886  1.0000
  N   N29       1.0  0.47271  0.50126  0.97440  1.0000
  N   N30       1.0  0.53001  0.49900  0.00210  1.0000
  N   N31       1.0  0.97634  0.99757  0.01503  1.0000
  N   N32       1.0  0.03469  0.00022  0.01371  1.0000
  C   C137      1.0  0.22617  0.43482  0.38122  1.0000
  C   C138      1.0  0.25437  0.44944  0.43918  1.0000
  C  Sn1       1.0  0.27369  0.42418  0.48947  1.0000
  C  Sn2       1.0  0.26455  0.38353  0.48139  1.0000
  C   C139      1.0  0.23630  0.36918  0.42310  1.0000
  C   C140      1.0  0.21714  0.39472  0.37315  1.0000
  H   H89       1.0  0.21135  0.45457  0.34248  1.0000
  O  Te1       1.0  0.30179  0.43929  0.54712  1.0000
  O  Te2       1.0  0.28342  0.35762  0.53081  1.0000
  H   H90       1.0  0.19531  0.38338  0.32817  1.0000
  Mg  Mg1       1.0  0.31953  0.39226  0.60040  1.0000
  C   C141      1.0  0.33897  0.65782  0.87355  1.0000
  C   C142      1.0  0.33147  0.62678  0.94665  1.0000
  C  Sn3       1.0  0.32760  0.55462  0.05731  1.0000
  C  Sn4       1.0  0.30750  0.58971  0.09520  1.0000
  C   C143      1.0  0.31520  0.62058  0.02132  1.0000
  C   C144      1.0  0.31915  0.69243  0.91080  1.0000
  H   H91       1.0  0.36012  0.65498  0.78797  1.0000
  O  Te3       1.0  0.32046  0.52333  0.12928  1.0000
  O  Te4       1.0  0.28009  0.59383  0.20532  1.0000
  H   H92       1.0  0.32494  0.71646  0.85414  1.0000
  Mg  Mg2       1.0  0.28047  0.54301  0.27175  1.0000
  C   C145      1.0  0.40169  0.61669  0.99058  1.0000
  C   C146      1.0  0.37950  0.58771  0.92820  1.0000
  C  Sn5       1.0  0.38862  0.54672  0.84579  1.0000
  C  Sn6       1.0  0.42056  0.53460  0.82569  1.0000
  C   C147      1.0  0.44258  0.56382  0.88865  1.0000
  C   C148      1.0  0.43320  0.60476  0.97087  1.0000
  H   H93       1.0  0.41784  0.57286  0.05427  1.0000
  O  Te5       1.0  0.36615  0.51817  0.78418  1.0000
  O  Te6       1.0  0.43032  0.49384  0.74389  1.0000
  H   H94       1.0  0.47378  0.55168  0.01925  1.0000
  Mg  Mg3       1.0  0.39095  0.46625  0.68176  1.0000
  C   C149      1.0  0.80647  0.28107  0.57221  1.0000
  C   C150      1.0  0.78426  0.28198  0.46691  1.0000
  C  Sn7       1.0  0.77369  0.24528  0.36455  1.0000
  C  Sn8       1.0  0.78562  0.20701  0.36798  1.0000
  C   C151      1.0  0.80782  0.20644  0.47385  1.0000
  C   C152      1.0  0.81824  0.24334  0.57572  1.0000
  H   H95       1.0  0.81453  0.30963  0.65111  1.0000
  O  Te7       1.0  0.75149  0.24673  0.26004  1.0000
  O  Te8       1.0  0.77545  0.16987  0.26701  1.0000
  H   H96       1.0  0.83543  0.24263  0.65731  1.0000
  Mg  Mg4       1.0  0.74492  0.18784  0.14567  1.0000
  C   C153      1.0  0.74712  0.45499  0.61649  1.0000
  C   C154      1.0  0.72523  0.46007  0.51567  1.0000
  C  Sn9       1.0  0.71356  0.42575  0.40401  1.0000
  C  Sn10      1.0  0.72402  0.38564  0.39341  1.0000
  C   C155      1.0  0.74590  0.38089  0.49490  1.0000
  C   C156      1.0  0.75744  0.41545  0.60616  1.0000
  H   H97       1.0  0.75604  0.48172  0.70265  1.0000
  O  Te9       1.0  0.69171  0.43137  0.30415  1.0000
  O  Te10      1.0  0.71272  0.35081  0.28294  1.0000
  H   H98       1.0  0.77437  0.41151  0.68428  1.0000
  Mg  Mg5       1.0  0.68322  0.37434  0.17290  1.0000
  C   C157      1.0  0.68401  0.48830  0.90248  1.0000
  C   C158      1.0  0.68638  0.53005  0.98837  1.0000
  C  Sn11      1.0  0.73241  0.46751  0.09613  1.0000
  C  Sn12      1.0  0.75302  0.43805  0.11801  1.0000
  C   C159      1.0  0.75048  0.39636  0.03142  1.0000
  C   C160      1.0  0.70434  0.45923  0.92394  1.0000
  H   H99       1.0  0.66643  0.47852  0.81925  1.0000
  O  Te11      1.0  0.73445  0.50934  0.18102  1.0000
  O  Te12      1.0  0.77586  0.45017  0.22490  1.0000
  H   H100      1.0  0.70252  0.42690  0.85737  1.0000
  Mg  Mg6       1.0  0.76942  0.51068  0.31296  1.0000
  C   C161      1.0  0.28562  0.33123  0.04704  1.0000
  C   C162      1.0  0.27348  0.36576  0.01751  1.0000
  C  Sn13      1.0  0.21922  0.44198  0.98398  1.0000
  C  Sn14      1.0  0.20022  0.40745  0.98005  1.0000
  C   C163      1.0  0.23599  0.29756  0.00987  1.0000
  C   C164      1.0  0.26690  0.29716  0.04326  1.0000
  H   H101      1.0  0.30953  0.33093  0.07296  1.0000
  O  Te13      1.0  0.20746  0.47672  0.95470  1.0000
  O  Te14      1.0  0.16930  0.40735  0.94690  1.0000
  H   H102      1.0  0.27629  0.27044  0.06622  1.0000
  Mg  Mg7       1.0  0.16391  0.46190  0.91496  1.0000
  C   C165      1.0  0.66532  0.57205  0.44449  1.0000
  C   C166      1.0  0.69372  0.56487  0.49539  1.0000
  C  Sn15      1.0  0.71261  0.59776  0.56342  1.0000
  C  Sn16      1.0  0.70281  0.63858  0.58071  1.0000
  C   C167      1.0  0.67434  0.64545  0.52952  1.0000
  C   C168      1.0  0.65563  0.61230  0.46155  1.0000
  H   H103      1.0  0.65083  0.54641  0.39199  1.0000
  O  Te15      1.0  0.74092  0.59003  0.61358  1.0000
  O  Te16      1.0  0.72123  0.67202  0.64836  1.0000
  H   H104      1.0  0.63363  0.61788  0.42225  1.0000
  Mg  Mg8       1.0  0.75788  0.64577  0.69848  1.0000
  C   C169      1.0  0.77736  0.88728  0.37004  1.0000
  C   C170      1.0  0.75416  0.88172  0.49062  1.0000
  C  Sn17      1.0  0.74169  0.91548  0.62186  1.0000
  C  Sn18      1.0  0.75269  0.95551  0.63222  1.0000
  C   C171      1.0  0.77589  0.96075  0.51091  1.0000
  C   C172      1.0  0.78822  0.92676  0.38014  1.0000
  H   H105      1.0  0.78689  0.86099  0.26881  1.0000
  O  Te17      1.0  0.71854  0.90937  0.74129  1.0000
  O  Te18      1.0  0.74063  0.98978  0.76204  1.0000
  H   H106      1.0  0.80616  0.93107  0.28675  1.0000
  Mg  Mg9       1.0  0.70939  0.96573  0.89461  1.0000
  C   C173      1.0  0.58273  0.66362  0.63608  1.0000
  C   C174      1.0  0.56551  0.68377  0.55363  1.0000
  C  Sn19      1.0  0.58079  0.70319  0.44428  1.0000
  C  Sn20      1.0  0.61393  0.70236  0.41720  1.0000
  C   C175      1.0  0.63094  0.68210  0.50021  1.0000
  C   C176      1.0  0.61542  0.66277  0.60940  1.0000
  H   H107      1.0  0.57072  0.64865  0.72050  1.0000
  O  Te19      1.0  0.56323  0.72319  0.36297  1.0000
  O  Te20      1.0  0.62980  0.72151  0.30854  1.0000
  H   H108      1.0  0.62876  0.64715  0.67314  1.0000
  Mg  Mg10      1.0  0.59554  0.74481  0.22684  1.0000
  C   C177      1.0  0.18233  0.18007  0.94231  1.0000
  C   C178      1.0  0.23354  0.11756  0.00871  1.0000
  C  Sn21      1.0  0.25184  0.09028  0.05408  1.0000
  C  Sn22      1.0  0.24208  0.04924  0.03240  1.0000
  C   C179      1.0  0.19084  0.11204  0.96576  1.0000
  C   C180      1.0  0.17269  0.13959  0.92082  1.0000
  H   H109      1.0  0.16830  0.20138  0.90745  1.0000
  O  Te21      1.0  0.27954  0.10377  0.12029  1.0000
  O  Te22      1.0  0.25993  0.02134  0.07665  1.0000
  H   H110      1.0  0.15118  0.12952  0.86932  1.0000
  Mg  Mg11      1.0  0.29586  0.05429  0.16185  1.0000
  C   C181      1.0  0.16025  0.08894  0.56625  1.0000
  C   C182      1.0  0.17093  0.12401  0.52606  1.0000
  C  Sn23      1.0  0.20036  0.12350  0.43623  1.0000
  C  Sn24      1.0  0.21940  0.08716  0.38583  1.0000
  C   C183      1.0  0.20850  0.05222  0.42655  1.0000
  C   C184      1.0  0.17901  0.05308  0.51654  1.0000
  H   H111      1.0  0.13743  0.08959  0.63580  1.0000
  O  Te23      1.0  0.21068  0.15882  0.39717  1.0000
  O  Te24      1.0  0.24892  0.08580  0.29587  1.0000
  H   H112      1.0  0.18207  0.02591  0.54754  1.0000
  Mg  Mg12      1.0  0.25264  0.14178  0.27258  1.0000
  C   C185      1.0  0.78337  0.13637  0.89712  1.0000
  C   C186      1.0  0.79316  0.17668  0.96261  1.0000
  C  Sn25      1.0  0.84481  0.10850  0.03007  1.0000
  C  Sn26      1.0  0.86354  0.07479  0.03179  1.0000
  C   C187      1.0  0.83013  0.11008  0.96586  1.0000
  C   C188      1.0  0.80183  0.10310  0.89870  1.0000
  H   H113      1.0  0.76148  0.13097  0.84507  1.0000
  O  Te25      1.0  0.85424  0.14896  0.09504  1.0000
  O  Te26      1.0  0.89186  0.08123  0.09840  1.0000
  H   H114      1.0  0.79427  0.07189  0.84790  1.0000
  Mg  Mg13      1.0  0.89470  0.14200  0.17221  1.0000
  C   C189      1.0  0.74440  0.31502  0.85823  1.0000
  C   C190      1.0  0.74699  0.35543  0.95970  1.0000
  C  Sn27      1.0  0.79228  0.28923  0.07298  1.0000
  C  Sn28      1.0  0.81190  0.25743  0.08458  1.0000
  C   C191      1.0  0.78573  0.29261  0.98244  1.0000
  C   C192      1.0  0.76375  0.28364  0.86955  1.0000
  H   H115      1.0  0.72741  0.30808  0.77081  1.0000
  O  Te27      1.0  0.79455  0.32976  0.17347  1.0000
  O  Te28      1.0  0.83397  0.26587  0.19669  1.0000
  H   H116      1.0  0.76177  0.25235  0.79093  1.0000
  Mg  Mg14      1.0  0.82822  0.32590  0.30701  1.0000
  C   C193      1.0  0.27972  0.72763  0.62568  1.0000
  C   C194      1.0  0.30515  0.70688  0.51523  1.0000
  C  Sn29      1.0  0.32048  0.72420  0.39890  1.0000
  C  Sn30      1.0  0.31013  0.76303  0.39336  1.0000
  C   C195      1.0  0.28468  0.78355  0.50447  1.0000
  C   C196      1.0  0.26950  0.76593  0.62034  1.0000
  H   H117      1.0  0.26798  0.71401  0.71539  1.0000
  O  Te29      1.0  0.34584  0.70305  0.28942  1.0000
  O  Te30      1.0  0.32504  0.78105  0.27839  1.0000
  H   H118      1.0  0.24983  0.78202  0.70591  1.0000
  Mg  Mg15      1.0  0.35853  0.74025  0.15517  1.0000
  C   C197      1.0  0.77532  0.02517  0.12942  1.0000
  C   C198      1.0  0.78909  0.98391  0.03182  1.0000
  C  Sn31      1.0  0.79102  0.04549  0.90864  1.0000
  C  Sn32      1.0  0.80300  0.07348  0.88303  1.0000
  C   C199      1.0  0.80036  0.11469  0.98141  1.0000
  C   C200      1.0  0.79830  0.05278  0.10428  1.0000
  H   H119      1.0  0.75563  0.03569  0.22455  1.0000
  O  Te31      1.0  0.79309  0.00417  0.81220  1.0000
  O  Te32      1.0  0.82858  0.06039  0.76083  1.0000
  H   H120      1.0  0.79644  0.08472  0.17990  1.0000
  Mg  Mg16      1.0  0.83235  0.00108  0.66112  1.0000
