data_image0
_chemical_formula_structural       H24C40S4N32SnCSn2CSnTe4Mg2SnCSn2CSnTe4Mg2SnCSn2CSnTe4Mg2SnCSn2CSnTe4Mg2SnCSn2CSnTe4Mg2SnCSn2CSnTe4Mg2SnCSn2CSnTe4Mg2SnCSn2CSnTe4Mg2SnCSn2CSnTe4Mg2SnCSn2CSnTe4Mg2SnCSn2CSnTe4Mg2SnCSn2CSnTe4Mg2SnCSn2CSnTe4Mg2SnCSn2CSnTe4Mg2SnCSn2CSnTe4Mg2SnCSn2CSnTe4Mg2SnCSn2CSnTe4Mg2SnCSn2CSnTe4Mg2SnCSn2CSnTe4Mg2SnCSn2CSnTe4Mg2SnCSn2CSnTe4Mg2SnCSn2CSnTe4Mg2SnCSn2CSnTe4Mg2SnCSn2CSnTe4Mg2SnCSn2CSnTe4Mg2SnCSn2CSnTe4Mg2SnCSn2CSnTe4Mg2SnCSn2CSnTe4Mg2SnCSn2CSnTe4Mg2SnCSn2CSnTe4Mg2SnCSn2CSnTe4Mg2SnCSn2CSnTe4Mg2
_chemical_formula_sum              "H24 C104 S4 N32 Sn128 Te128 Mg64"
_cell_length_a       43.1328
_cell_length_b       34.0873
_cell_length_c       8.52029
_cell_angle_alpha    107.684
_cell_angle_beta     82.9448
_cell_angle_gamma    90.8216

_symmetry_space_group_name_H-M    'P1'
_space_group_IT_number       1

loop_
  _space_group_symop_operation_xyz
  'x, y, z'

loop_
  _atom_site_type_symbol
  _atom_site_label
  _atom_site_symmetry_multiplicity
  _atom_site_fract_x
  _atom_site_fract_y
  _atom_site_fract_z
  _atom_site_occupancy
  H   H1        1.0  0.52347  0.62580  0.53483  1.0000
  H   H2        1.0  0.46679  0.62314  0.53035  1.0000
  H   H3        1.0  0.24703  0.82758  0.62070  1.0000
  H   H4        1.0  0.23943  0.32289  0.60119  1.0000
  H   H5        1.0  0.24040  0.52042  0.44210  1.0000
  H   H6        1.0  0.24562  0.01222  0.34166  1.0000
  H   H7        1.0  0.73811  0.53240  0.56873  1.0000
  H   H8        1.0  0.74044  0.30601  0.35402  1.0000
  H   H9        1.0  0.75073  0.02492  0.54129  1.0000
  H   H10       1.0  0.75734  0.80435  0.35942  1.0000
  H   H11       1.0  0.95812  0.13131  0.60377  1.0000
  H   H12       1.0  0.01407  0.12824  0.62519  1.0000
  H   H13       1.0  0.54237  0.61744  0.85204  1.0000
  H   H14       1.0  0.48678  0.61936  0.82371  1.0000
  H   H15       1.0  0.75816  0.44463  0.12964  1.0000
  H   H16       1.0  0.76073  0.21851  0.91595  1.0000
  H   H17       1.0  0.74868  0.72643  0.94089  1.0000
  H   H18       1.0  0.74084  0.94794  0.12079  1.0000
  H   H19       1.0  0.25672  0.23386  0.08718  1.0000
  H   H20       1.0  0.25877  0.42831  0.86530  1.0000
  H   H21       1.0  0.25899  0.74146  0.14020  1.0000
  H   H22       1.0  0.25437  0.92181  0.82924  1.0000
  H   H23       1.0  0.03392  0.12587  0.91949  1.0000
  H   H24       1.0  0.97721  0.12367  0.92161  1.0000
  C   C1        1.0  0.72321  0.72720  0.97706  1.0000
  C   C2        1.0  0.98910  0.09757  0.93865  1.0000
  C   C3        1.0  0.49582  0.59407  0.85953  1.0000
  C   C4        1.0  0.23489  0.93096  0.93038  1.0000
  C   C5        1.0  0.78430  0.22255  0.95474  1.0000
  C   C6        1.0  0.27681  0.43579  0.95015  1.0000
  C   C7        1.0  0.02188  0.09914  0.93930  1.0000
  C   C8        1.0  0.52803  0.59265  0.87393  1.0000
  C   C9        1.0  0.97245  0.15649  0.58575  1.0000
  C   C10       1.0  0.00483  0.15443  0.59612  1.0000
  C   C11       1.0  0.77631  0.02459  0.51033  1.0000
  C   C12       1.0  0.02538  0.18435  0.57069  1.0000
  C   C13       1.0  0.73642  0.81286  0.45164  1.0000
  C   C14       1.0  0.22290  0.31409  0.50820  1.0000
  C   C15       1.0  0.71491  0.52836  0.52557  1.0000
  C   C16       1.0  0.97850  0.21967  0.51963  1.0000
  C   C17       1.0  0.52884  0.68668  0.51502  1.0000
  C   C18       1.0  0.51138  0.65267  0.52565  1.0000
  C   C19       1.0  0.47794  0.71879  0.49561  1.0000
  C   C20       1.0  0.22243  0.01507  0.41470  1.0000
  C   C21       1.0  0.95813  0.18826  0.54789  1.0000
  C   C22       1.0  0.26669  0.81804  0.52081  1.0000
  C   C23       1.0  0.75906  0.31410  0.43490  1.0000
  C   C24       1.0  0.26550  0.51892  0.45260  1.0000
  C   C25       1.0  0.01170  0.21801  0.53366  1.0000
  C   C26       1.0  0.46107  0.68307  0.50621  1.0000
  C   C27       1.0  0.47874  0.65084  0.52073  1.0000
  C   C28       1.0  0.51156  0.72045  0.49790  1.0000
  C   C29       1.0  0.76239  0.93941  0.03307  1.0000
  C   C30       1.0  0.02231  0.03354  0.98632  1.0000
  C   C31       1.0  0.03949  0.06786  0.96196  1.0000
  C   C32       1.0  0.23456  0.23181  0.03378  1.0000
  C   C33       1.0  0.74005  0.43657  0.04553  1.0000
  C   C34       1.0  0.54220  0.56215  0.92059  1.0000
  C   C35       1.0  0.52171  0.53130  0.95334  1.0000
  C   C36       1.0  0.98856  0.03218  0.98808  1.0000
  C   C37       1.0  0.97135  0.06480  0.96163  1.0000
  C   C38       1.0  0.28070  0.73604  0.05348  1.0000
  C   C39       1.0  0.47514  0.56477  0.89002  1.0000
  C   C40       1.0  0.48864  0.53239  0.93618  1.0000
  S   S1        1.0  0.49431  0.78398  0.46792  1.0000
  S   S2        1.0  0.00168  0.27879  0.46117  1.0000
  S   S3        1.0  0.49822  0.47383  0.02422  1.0000
  S   S4        1.0  0.00556  0.97075  0.03682  1.0000
  N   N1        1.0  0.77043  0.90170  0.94998  1.0000
  N   N2        1.0  0.73420  0.39899  0.96417  1.0000
  N   N3        1.0  0.29173  0.76302  0.98310  1.0000
  N   N4        1.0  0.22337  0.26157  0.99063  1.0000
  N   N5        1.0  0.27937  0.48579  0.45668  1.0000
  N   N6        1.0  0.79288  0.99122  0.48193  1.0000
  N   N7        1.0  0.72893  0.85048  0.53893  1.0000
  N   N8        1.0  0.76514  0.35178  0.51389  1.0000
  N   N9        1.0  0.15836  0.16730  0.51471  1.0000
  N   N10       1.0  0.32919  0.66848  0.48179  1.0000
  N   N11       1.0  0.46540  0.75325  0.47812  1.0000
  N   N12       1.0  0.70236  0.49249  0.48096  1.0000
  N   N13       1.0  0.21036  0.98578  0.46861  1.0000
  N   N14       1.0  0.27549  0.84002  0.42388  1.0000
  N   N15       1.0  0.21696  0.33734  0.41985  1.0000
  N   N16       1.0  0.82750  0.17738  0.48357  1.0000
  N   N17       1.0  0.66110  0.67853  0.51330  1.0000
  N   N18       1.0  0.52360  0.75639  0.48398  1.0000
  N   N19       1.0  0.96996  0.25318  0.47937  1.0000
  N   N20       1.0  0.02745  0.25008  0.50232  1.0000
  N   N21       1.0  0.28463  0.41083  0.02763  1.0000
  N   N22       1.0  0.70675  0.76081  0.00887  1.0000
  N   N23       1.0  0.79707  0.25831  0.99566  1.0000
  N   N24       1.0  0.17180  0.08048  0.97474  1.0000
  N   N25       1.0  0.34234  0.58169  0.94246  1.0000
  N   N26       1.0  0.22624  0.90829  0.02456  1.0000
  N   N27       1.0  0.83869  0.07321  0.97219  1.0000
  N   N28       1.0  0.67235  0.57397  0.99886  1.0000
  N   N29       1.0  0.47271  0.50126  0.97440  1.0000
  N   N30       1.0  0.53001  0.49900  0.00210  1.0000
  N   N31       1.0  0.97634  0.99757  0.01503  1.0000
  N   N32       1.0  0.03469  0.00022  0.01371  1.0000
  C  Sn1       1.0  0.67507  0.68157  0.09298  1.0000
  C   C41       1.0  0.70575  0.69012  0.04154  1.0000
  C  Sn2       1.0  0.70380  0.73359  0.95785  1.0000
  C  Sn3       1.0  0.69438  0.69212  0.92479  1.0000
  C   C42       1.0  0.66371  0.68358  0.97619  1.0000
  C  Sn4       1.0  0.66565  0.64010  0.05991  1.0000
  O  Te1       1.0  0.65401  0.71408  0.17644  1.0000
  O  Te2       1.0  0.73435  0.74291  0.90770  1.0000
  O  Te3       1.0  0.71547  0.65960  0.84125  1.0000
  O  Te4       1.0  0.63512  0.63080  0.11003  1.0000
  Mg  Mg1       1.0  0.75446  0.68795  0.79785  1.0000
  Mg  Mg2       1.0  0.61498  0.68573  0.21980  1.0000
  C  Sn5       1.0  0.22718  0.33535  0.92722  1.0000
  C   C43       1.0  0.24020  0.30074  0.95211  1.0000
  C  Sn6       1.0  0.29104  0.22834  0.02636  1.0000
  C  Sn7       1.0  0.30577  0.26685  0.07688  1.0000
  C   C44       1.0  0.29274  0.30144  0.05201  1.0000
  C  Sn8       1.0  0.24190  0.37386  0.97774  1.0000
  O  Te5       1.0  0.19974  0.33154  0.85276  1.0000
  O  Te6       1.0  0.30363  0.19329  0.04989  1.0000
  O  Te7       1.0  0.33323  0.27064  0.15138  1.0000
  O  Te8       1.0  0.22932  0.40888  0.95423  1.0000
  Mg  Mg3       1.0  0.34135  0.21409  0.15686  1.0000
  Mg  Mg4       1.0  0.19159  0.38812  0.84736  1.0000
  C  Sn9       1.0  0.72940  0.86187  0.13583  1.0000
  C   C45       1.0  0.75362  0.86632  0.01794  1.0000
  C  Sn10      1.0  0.73698  0.91076  0.86688  1.0000
  C  Sn11      1.0  0.71916  0.87451  0.83289  1.0000
  C   C46       1.0  0.69496  0.87008  0.95073  1.0000
  C  Sn12      1.0  0.71159  0.82562  0.10185  1.0000
  O  Te9       1.0  0.72305  0.89331  0.28602  1.0000
  O  Te10      1.0  0.76130  0.91591  0.75097  1.0000
  O  Te11      1.0  0.72553  0.84306  0.68256  1.0000
  O  Te12      1.0  0.68727  0.82049  0.21769  1.0000
  Mg  Mg5       1.0  0.76098  0.86441  0.56429  1.0000
  Mg  Mg6       1.0  0.68757  0.87197  0.40436  1.0000
  C  Sn13      1.0  0.11201  0.03079  0.91359  1.0000
  C   C47       1.0  0.08847  0.06036  0.99339  1.0000
  C  Sn14      1.0  0.10785  0.02633  0.05551  1.0000
  C  Sn15      1.0  0.13934  0.03850  0.03742  1.0000
  C   C48       1.0  0.13945  0.08444  0.95764  1.0000
  C  Sn16      1.0  0.14350  0.04296  0.89549  1.0000
  O  Te13      1.0  0.10417  0.98950  0.85243  1.0000
  O  Te14      1.0  0.08392  0.05534  0.13488  1.0000
  O  Te15      1.0  0.14716  0.07982  0.09867  1.0000
  O  Te16      1.0  0.16741  0.01396  0.81615  1.0000
  Mg  Mg7       1.0  0.10633  0.10785  0.19720  1.0000
  Mg  Mg8       1.0  0.14503  0.96144  0.75371  1.0000
  C  Sn17      1.0  0.81980  0.99222  0.84340  1.0000
  C   C49       1.0  0.81572  0.03381  0.93535  1.0000
  C  Sn18      1.0  0.81874  0.97028  0.08313  1.0000
  C  Sn19      1.0  0.80210  0.94005  0.14026  1.0000
  C   C50       1.0  0.80619  0.89849  0.04835  1.0000
  C  Sn20      1.0  0.80316  0.96199  0.90053  1.0000
  O  Te17      1.0  0.84031  0.98096  0.69602  1.0000
  O  Te18      1.0  0.81504  0.01205  0.17288  1.0000
  O  Te19      1.0  0.78158  0.95135  0.28776  1.0000
  O  Te20      1.0  0.80687  0.92026  0.81081  1.0000
  Mg  Mg9       1.0  0.78445  0.01207  0.36622  1.0000
  Mg  Mg10      1.0  0.83746  0.92020  0.61751  1.0000
  C  Sn21      1.0  0.34282  0.66183  0.92288  1.0000
  C   C51       1.0  0.33312  0.62946  0.98450  1.0000
  C  Sn22      1.0  0.32577  0.55300  0.05679  1.0000
  C  Sn23      1.0  0.30424  0.58506  0.06762  1.0000
  C   C52       1.0  0.31394  0.61741  0.00601  1.0000
  C  Sn24      1.0  0.32129  0.69389  0.93372  1.0000
  O  Te21      1.0  0.37369  0.66215  0.85111  1.0000
  O  Te22      1.0  0.31662  0.52033  0.11757  1.0000
  O  Te23      1.0  0.27335  0.58472  0.13947  1.0000
  O  Te24      1.0  0.33044  0.72654  0.87294  1.0000
  Mg  Mg11      1.0  0.27205  0.53362  0.20439  1.0000
  Mg  Mg12      1.0  0.37499  0.71327  0.78602  1.0000
  C  Sn25      1.0  0.77998  0.14005  0.95210  1.0000
  C   C53       1.0  0.81528  0.10416  0.00279  1.0000
  C  Sn26      1.0  0.84669  0.10972  0.02687  1.0000
  C  Sn27      1.0  0.84324  0.15046  0.99962  1.0000
  C   C54       1.0  0.83135  0.11088  0.94893  1.0000
  C  Sn28      1.0  0.79993  0.10529  0.92485  1.0000
  O  Te25      1.0  0.74850  0.13523  0.92878  1.0000
  O  Te26      1.0  0.85804  0.14962  0.07763  1.0000
  O  Te27      1.0  0.89815  0.07981  0.02299  1.0000
  O  Te28      1.0  0.79991  0.06542  0.87409  1.0000
  Mg  Mg13      1.0  0.90264  0.14033  0.09267  1.0000
  Mg  Mg14      1.0  0.74399  0.07467  0.85894  1.0000
  C  Sn29      1.0  0.21864  0.13427  0.08741  1.0000
  C   C55       1.0  0.18965  0.12303  0.03225  1.0000
  C  Sn30      1.0  0.15194  0.22151  0.94928  1.0000
  C  Sn31      1.0  0.16695  0.25645  0.92073  1.0000
  C   C56       1.0  0.19593  0.26767  0.97584  1.0000
  C  Sn32      1.0  0.23365  0.16921  0.05886  1.0000
  O  Te29      1.0  0.23251  0.11084  0.17008  1.0000
  O  Te30      1.0  0.12295  0.20967  0.89536  1.0000
  O  Te31      1.0  0.15306  0.27988  0.83799  1.0000
  O  Te32      1.0  0.26263  0.18103  0.11274  1.0000
  Mg  Mg15      1.0  0.11346  0.25142  0.78835  1.0000
  Mg  Mg16      1.0  0.27214  0.13930  0.21968  1.0000
  C  Sn33      1.0  0.23395  0.00753  0.86901  1.0000
  C   C57       1.0  0.22606  0.98077  0.96280  1.0000
  C  Sn34      1.0  0.22009  0.90840  0.05582  1.0000
  C  Sn35      1.0  0.19812  0.93888  0.05500  1.0000
  C   C58       1.0  0.18261  0.04111  0.96124  1.0000
  C  Sn36      1.0  0.21198  0.03801  0.86820  1.0000
  O  Te33      1.0  0.26346  0.00384  0.77694  1.0000
  O  Te34      1.0  0.21274  0.88131  0.14866  1.0000
  O  Te35      1.0  0.16860  0.94255  0.14718  1.0000
  O  Te36      1.0  0.20800  0.06507  0.77538  1.0000
  Mg  Mg17      1.0  0.16955  0.89852  0.25379  1.0000
  Mg  Mg18      1.0  0.26251  0.04787  0.67014  1.0000
  C  Sn37      1.0  0.23018  0.83749  0.11004  1.0000
  C   C59       1.0  0.24291  0.87107  0.06530  1.0000
  C  Sn38      1.0  0.24861  0.94272  0.96915  1.0000
  C  Sn39      1.0  0.26533  0.90449  0.91652  1.0000
  C   C60       1.0  0.25259  0.87093  0.96123  1.0000
  C  Sn40      1.0  0.24689  0.79926  0.05741  1.0000
  O  Te37      1.0  0.20104  0.84205  0.20622  1.0000
  O  Te38      1.0  0.26088  0.97673  0.92603  1.0000
  O  Te39      1.0  0.29449  0.89995  0.82027  1.0000
  O  Te40      1.0  0.23463  0.76528  0.10050  1.0000
  Mg  Mg19      1.0  0.30140  0.95519  0.79327  1.0000
  Mg  Mg20      1.0  0.19411  0.78677  0.23318  1.0000
  C  Sn41      1.0  0.62093  0.59193  0.86384  1.0000
  C   C61       1.0  0.63642  0.58080  0.97926  1.0000
  C  Sn42      1.0  0.64537  0.48035  0.06853  1.0000
  C  Sn43      1.0  0.61480  0.46622  0.04181  1.0000
  C   C62       1.0  0.57592  0.55285  0.92644  1.0000
  C  Sn44      1.0  0.59036  0.57780  0.83713  1.0000
  O  Te41      1.0  0.63583  0.61689  0.77599  1.0000
  O  Te42      1.0  0.66132  0.46964  0.18329  1.0000
  O  Te43      1.0  0.59990  0.44125  0.12979  1.0000
  O  Te44      1.0  0.57442  0.58851  0.72240  1.0000
  Mg  Mg21      1.0  0.63120  0.43499  0.27255  1.0000
  Mg  Mg22      1.0  0.60452  0.62314  0.63302  1.0000
  C  Sn45      1.0  0.72194  0.51985  0.16162  1.0000
  C   C63       1.0  0.71885  0.47825  0.07562  1.0000
  C  Sn46      1.0  0.67882  0.54220  0.93855  1.0000
  C  Sn47      1.0  0.66502  0.57287  0.88625  1.0000
  C   C64       1.0  0.66812  0.61444  0.97220  1.0000
  C  Sn48      1.0  0.70814  0.55052  0.10932  1.0000
  O  Te45      1.0  0.73866  0.53069  0.29831  1.0000
  O  Te46      1.0  0.67603  0.50041  0.85459  1.0000
  O  Te47      1.0  0.64829  0.56199  0.74944  1.0000
  O  Te48      1.0  0.71094  0.59227  0.19323  1.0000
  Mg  Mg23      1.0  0.65099  0.50106  0.67555  1.0000
  Mg  Mg24      1.0  0.73598  0.59166  0.37222  1.0000
  C  Sn49      1.0  0.31533  0.50222  0.10574  1.0000
  C   C65       1.0  0.29097  0.48442  0.01613  1.0000
  C  Sn50      1.0  0.26129  0.57167  0.87954  1.0000
  C  Sn51      1.0  0.27977  0.60181  0.83144  1.0000
  C   C66       1.0  0.30412  0.61959  0.92101  1.0000
  C  Sn52      1.0  0.33381  0.53237  0.05764  1.0000
  O  Te49      1.0  0.32118  0.49001  0.24187  1.0000
  O  Te50      1.0  0.23680  0.55344  0.79192  1.0000
  O  Te51      1.0  0.27390  0.61402  0.69519  1.0000
  O  Te52      1.0  0.35829  0.55057  0.14521  1.0000
  Mg  Mg25      1.0  0.23798  0.58028  0.61532  1.0000
  Mg  Mg26      1.0  0.35714  0.52374  0.32177  1.0000
  C  Sn53      1.0  0.91692  0.09511  0.88122  1.0000
  C   C67       1.0  0.93377  0.07714  0.97266  1.0000
  C  Sn54      1.0  0.95407  0.97471  0.05240  1.0000
  C  Sn55      1.0  0.92211  0.96553  0.04042  1.0000
  C   C68       1.0  0.88186  0.05899  0.94900  1.0000
  C  Sn56      1.0  0.88495  0.08593  0.86924  1.0000
  O  Te53      1.0  0.93183  0.12195  0.80251  1.0000
  O  Te54      1.0  0.97140  0.95713  0.14316  1.0000
  O  Te55      1.0  0.90719  0.93867  0.11924  1.0000
  O  Te56      1.0  0.86764  0.10350  0.77851  1.0000
  Mg  Mg27      1.0  0.94067  0.92244  0.22821  1.0000
  Mg  Mg28      1.0  0.89835  0.13818  0.69334  1.0000
  C  Sn57      1.0  0.39597  0.53324  0.87456  1.0000
  C   C69       1.0  0.37768  0.56937  0.94022  1.0000
  C  Sn58      1.0  0.39157  0.60781  0.97083  1.0000
  C  Sn59      1.0  0.42440  0.61018  0.93498  1.0000
  C   C70       1.0  0.44267  0.57406  0.86933  1.0000
  C  Sn60      1.0  0.42881  0.53561  0.83870  1.0000
  O  Te57      1.0  0.38159  0.49515  0.84494  1.0000
  O  Te58      1.0  0.39621  0.56801  0.03657  1.0000
  O  Te59      1.0  0.43877  0.64831  0.96466  1.0000
  O  Te60      1.0  0.44755  0.49993  0.77298  1.0000
  Mg  Mg29      1.0  0.42669  0.61268  0.05517  1.0000
  Mg  Mg30      1.0  0.41710  0.45524  0.75425  1.0000
  C  Sn61      1.0  0.78071  0.33990  0.12862  1.0000
  C   C71       1.0  0.77638  0.29941  0.03259  1.0000
  C  Sn62      1.0  0.73723  0.36703  0.89278  1.0000
  C  Sn63      1.0  0.72559  0.40031  0.84794  1.0000
  C   C72       1.0  0.72993  0.44077  0.94392  1.0000
  C  Sn64      1.0  0.76907  0.37318  0.08378  1.0000
  O  Te61      1.0  0.79652  0.34705  0.26787  1.0000
  O  Te62      1.0  0.73317  0.32630  0.79874  1.0000
  O  Te63      1.0  0.70977  0.39312  0.70856  1.0000
  O  Te64      1.0  0.77313  0.41388  0.17776  1.0000
  Mg  Mg31      1.0  0.71010  0.33229  0.61996  1.0000
  Mg  Mg32      1.0  0.79621  0.40793  0.35652  1.0000
  C  Sn65      1.0  0.08595  0.21852  0.60271  1.0000
  C   C73       1.0  0.06418  0.18903  0.53919  1.0000
  C  Sn66      1.0  0.07248  0.14717  0.48522  1.0000
  C  Sn67      1.0  0.10318  0.13452  0.49504  1.0000
  C   C74       1.0  0.12493  0.16401  0.55854  1.0000
  C  Sn68      1.0  0.11665  0.20588  0.61252  1.0000
  O  Te65      1.0  0.07714  0.26020  0.65595  1.0000
  O  Te66      1.0  0.05031  0.11825  0.42214  1.0000
  O  Te67      1.0  0.11198  0.09280  0.44172  1.0000
  O  Te68      1.0  0.13880  0.23479  0.67559  1.0000
  Mg  Mg33      1.0  0.07350  0.06508  0.36537  1.0000
  Mg  Mg34      1.0  0.11563  0.28796  0.73248  1.0000
  C  Sn69      1.0  0.89773  0.16070  0.62114  1.0000
  C   C75       1.0  0.92124  0.17546  0.52717  1.0000
  C  Sn70      1.0  0.91359  0.19855  0.42650  1.0000
  C  Sn71      1.0  0.88179  0.20710  0.41967  1.0000
  C   C76       1.0  0.85830  0.19235  0.51362  1.0000
  C  Sn72      1.0  0.86592  0.16924  0.61431  1.0000
  O  Te69      1.0  0.90591  0.13768  0.72093  1.0000
  O  Te70      1.0  0.93750  0.21297  0.33364  1.0000
  O  Te71      1.0  0.87362  0.23014  0.31977  1.0000
  O  Te72      1.0  0.84203  0.15484  0.70714  1.0000
  Mg  Mg35      1.0  0.91456  0.24302  0.21640  1.0000
  Mg  Mg36      1.0  0.86495  0.12481  0.82449  1.0000
  C  Sn73      1.0  0.27405  0.62531  0.49759  1.0000
  C   C77       1.0  0.30530  0.63402  0.51868  1.0000
  C  Sn74      1.0  0.32684  0.60225  0.50035  1.0000
  C  Sn75      1.0  0.31694  0.56089  0.46001  1.0000
  C   C78       1.0  0.28571  0.55220  0.43892  1.0000
  C  Sn76      1.0  0.26415  0.58396  0.45725  1.0000
  O  Te73      1.0  0.25292  0.65757  0.51650  1.0000
  O  Te74      1.0  0.35796  0.61172  0.52210  1.0000
  O  Te75      1.0  0.33810  0.52863  0.44112  1.0000
  O  Te76      1.0  0.23305  0.57451  0.43550  1.0000
  Mg  Mg37      1.0  0.37796  0.55711  0.48315  1.0000
  Mg  Mg38      1.0  0.21304  0.62909  0.47434  1.0000
  C  Sn77      1.0  0.71862  0.73077  0.33541  1.0000
  C   C79       1.0  0.71431  0.77236  0.42706  1.0000
  C  Sn78      1.0  0.69367  0.78426  0.57391  1.0000
  C  Sn79      1.0  0.67699  0.75396  0.63042  1.0000
  C   C80       1.0  0.68130  0.71240  0.53882  1.0000
  C  Sn80      1.0  0.70194  0.70048  0.39192  1.0000
  O  Te77      1.0  0.73937  0.71958  0.18896  1.0000
  O  Te78      1.0  0.68975  0.82602  0.66337  1.0000
  O  Te79      1.0  0.65622  0.76519  0.77700  1.0000
  O  Te80      1.0  0.70587  0.65874  0.30250  1.0000
  Mg  Mg39      1.0  0.65885  0.82593  0.85539  1.0000
  Mg  Mg40      1.0  0.73677  0.65880  0.11053  1.0000
  C  Sn81      1.0  0.22400  0.43979  0.43709  1.0000
  C   C81       1.0  0.25371  0.45205  0.47934  1.0000
  C  Sn82      1.0  0.27576  0.42307  0.48524  1.0000
  C  Sn83      1.0  0.26795  0.38095  0.44802  1.0000
  C   C82       1.0  0.23826  0.36870  0.40577  1.0000
  C  Sn84      1.0  0.21620  0.39766  0.39987  1.0000
  O  Te81      1.0  0.20234  0.46929  0.43196  1.0000
  O  Te82      1.0  0.30530  0.43607  0.52786  1.0000
  O  Te83      1.0  0.28965  0.35144  0.45318  1.0000
  O  Te84      1.0  0.18667  0.38468  0.35726  1.0000
  Mg  Mg41      1.0  0.32682  0.38429  0.51779  1.0000
  Mg  Mg42      1.0  0.16514  0.43643  0.36720  1.0000
  C  Sn85      1.0  0.73381  0.93330  0.61690  1.0000
  C   C83       1.0  0.74007  0.89313  0.51226  1.0000
  C  Sn86      1.0  0.76822  0.88322  0.40711  1.0000
  C  Sn87      1.0  0.79058  0.91411  0.40661  1.0000
  C   C84       1.0  0.78431  0.95426  0.51122  1.0000
  C  Sn88      1.0  0.75617  0.96419  0.61639  1.0000
  O  Te85      1.0  0.70551  0.94251  0.72100  1.0000
  O  Te86      1.0  0.77395  0.84284  0.30357  1.0000
  O  Te87      1.0  0.81889  0.90487  0.30239  1.0000
  O  Te88      1.0  0.75044  0.00454  0.71990  1.0000
  Mg  Mg43      1.0  0.81592  0.84546  0.18408  1.0000
  Mg  Mg44      1.0  0.70848  0.00196  0.83950  1.0000
  C  Sn89      1.0  0.83176  0.09110  0.39039  1.0000
  C   C85       1.0  0.81591  0.12872  0.42268  1.0000
  C  Sn90      1.0  0.78591  0.13529  0.51030  1.0000
  C  Sn91      1.0  0.77146  0.10360  0.56694  1.0000
  C   C86       1.0  0.78732  0.06600  0.53468  1.0000
  C  Sn92      1.0  0.81732  0.05941  0.44703  1.0000
  O  Te89      1.0  0.86174  0.08521  0.30257  1.0000
  O  Te90      1.0  0.77052  0.17316  0.54102  1.0000
  O  Te91      1.0  0.74146  0.10952  0.65482  1.0000
  O  Te92      1.0  0.84404  0.02157  0.41634  1.0000
  Mg  Mg45      1.0  0.73000  0.16640  0.66591  1.0000
  Mg  Mg46      1.0  0.87323  0.02830  0.29154  1.0000
  C  Sn93      1.0  0.30883  0.75135  0.34850  1.0000
  C   C87       1.0  0.28291  0.77100  0.45785  1.0000
  C  Sn94      1.0  0.27291  0.75932  0.59908  1.0000
  C  Sn95      1.0  0.28916  0.72734  0.63177  1.0000
  C   C88       1.0  0.31507  0.70771  0.52248  1.0000
  C  Sn96      1.0  0.32508  0.71937  0.38119  1.0000
  O  Te93      1.0  0.31841  0.76353  0.20808  1.0000
  O  Te94      1.0  0.24693  0.77941  0.70655  1.0000
  O  Te95      1.0  0.27955  0.71517  0.77233  1.0000
  O  Te96      1.0  0.35105  0.69930  0.27378  1.0000
  Mg  Mg47      1.0  0.24288  0.75182  0.88150  1.0000
  Mg  Mg48      1.0  0.35512  0.72688  0.09885  1.0000
  C  Sn97      1.0  0.76551  0.22906  0.39331  1.0000
  C   C89       1.0  0.76937  0.27087  0.47313  1.0000
  C  Sn98      1.0  0.79652  0.28423  0.54559  1.0000
  C  Sn99      1.0  0.82032  0.25520  0.53804  1.0000
  C   C90       1.0  0.81646  0.21342  0.45824  1.0000
  C  Sn100     1.0  0.78932  0.20004  0.38576  1.0000
  O  Te97      1.0  0.73818  0.21640  0.32172  1.0000
  O  Te98      1.0  0.79984  0.32618  0.62475  1.0000
  O  Te99      1.0  0.84767  0.26789  0.60972  1.0000
  O  Te100     1.0  0.78600  0.15811  0.30661  1.0000
  Mg  Mg49      1.0  0.84132  0.32831  0.70353  1.0000
  Mg  Mg50      1.0  0.74453  0.15595  0.22772  1.0000
  C  Sn101     1.0  0.71214  0.63266  0.53504  1.0000
  C   C91       1.0  0.68372  0.63897  0.48224  1.0000
  C  Sn102     1.0  0.66157  0.60809  0.45588  1.0000
  C  Sn103     1.0  0.66795  0.57011  0.48294  1.0000
  C   C92       1.0  0.69635  0.56382  0.53573  1.0000
  C  Sn104     1.0  0.71852  0.59468  0.56210  1.0000
  O  Te101     1.0  0.73394  0.66396  0.56062  1.0000
  O  Te102     1.0  0.63333  0.61511  0.40304  1.0000
  O  Te103     1.0  0.64612  0.53880  0.45730  1.0000
  O  Te104     1.0  0.74674  0.58768  0.61493  1.0000
  Mg  Mg51      1.0  0.61106  0.56304  0.38532  1.0000
  Mg  Mg52      1.0  0.76902  0.63973  0.63277  1.0000
  C  Sn105     1.0  0.17584  0.22672  0.35534  1.0000
  C   C93       1.0  0.18016  0.20108  0.45182  1.0000
  C  Sn106     1.0  0.19703  0.21449  0.58755  1.0000
  C  Sn107     1.0  0.20982  0.25437  0.62777  1.0000
  C   C94       1.0  0.20549  0.27998  0.53134  1.0000
  C  Sn108     1.0  0.18863  0.26660  0.39556  1.0000
  O  Te105     1.0  0.15890  0.21268  0.22022  1.0000
  O  Te106     1.0  0.20105  0.18830  0.68213  1.0000
  O  Te107     1.0  0.22677  0.26840  0.76301  1.0000
  O  Te108     1.0  0.18460  0.29277  0.30103  1.0000
  Mg  Mg53      1.0  0.22591  0.22141  0.85421  1.0000
  Mg  Mg54      1.0  0.15973  0.25970  0.12898  1.0000
  C  Sn109     1.0  0.20614  0.11045  0.35760  1.0000
  C   C95       1.0  0.17664  0.12359  0.44477  1.0000
  C  Sn110     1.0  0.16222  0.10329  0.55305  1.0000
  C  Sn111     1.0  0.17761  0.06916  0.57475  1.0000
  C   C96       1.0  0.20709  0.05604  0.48763  1.0000
  C  Sn112     1.0  0.22153  0.07631  0.37929  1.0000
  O  Te109     1.0  0.22011  0.13120  0.25000  1.0000
  O  Te110     1.0  0.13272  0.11699  0.63880  1.0000
  O  Te111     1.0  0.17494  0.04841  0.68245  1.0000
  O  Te112     1.0  0.25101  0.06264  0.29361  1.0000
  Mg  Mg55      1.0  0.12327  0.07866  0.77144  1.0000
  Mg  Mg56      1.0  0.26049  0.10096  0.16100  1.0000
  C  Sn113     1.0  0.26295  0.93145  0.34002  1.0000
  C   C97       1.0  0.23170  0.94349  0.39618  1.0000
  C  Sn114     1.0  0.21296  0.92226  0.48740  1.0000
  C  Sn115     1.0  0.22573  0.88831  0.52334  1.0000
  C   C98       1.0  0.25697  0.87629  0.46722  1.0000
  C  Sn116     1.0  0.27572  0.89750  0.37596  1.0000
  O  Te113     1.0  0.28126  0.95311  0.24904  1.0000
  O  Te114     1.0  0.18177  0.93487  0.54217  1.0000
  O  Te115     1.0  0.20740  0.86665  0.61439  1.0000
  O  Te116     1.0  0.30689  0.88491  0.32123  1.0000
  Mg  Mg57      1.0  0.16624  0.89556  0.66185  1.0000
  Mg  Mg58      1.0  0.32245  0.92420  0.20162  1.0000
  C  Sn117     1.0  0.58195  0.67696  0.66781  1.0000
  C   C99       1.0  0.56540  0.69365  0.57107  1.0000
  C  Sn118     1.0  0.58083  0.70268  0.43260  1.0000
  C  Sn119     1.0  0.61347  0.69485  0.38985  1.0000
  C   C100      1.0  0.62999  0.67817  0.48654  1.0000
  C  Sn120     1.0  0.61459  0.66913  0.62506  1.0000
  O  Te117     1.0  0.56605  0.66817  0.80569  1.0000
  O  Te118     1.0  0.56379  0.71936  0.33783  1.0000
  O  Te119     1.0  0.62936  0.70366  0.25184  1.0000
  O  Te120     1.0  0.63161  0.65246  0.71979  1.0000
  Mg  Mg59      1.0  0.59593  0.72608  0.16149  1.0000
  Mg  Mg60      1.0  0.59949  0.64570  0.89609  1.0000
  C  Sn121     1.0  0.75271  0.45508  0.56808  1.0000
  C   C101      1.0  0.72853  0.45898  0.47826  1.0000
  C  Sn122     1.0  0.71150  0.42467  0.40334  1.0000
  C  Sn123     1.0  0.71879  0.38566  0.41859  1.0000
  C   C102      1.0  0.74295  0.38177  0.50838  1.0000
  C  Sn124     1.0  0.75999  0.41606  0.58333  1.0000
  O  Te121     1.0  0.76942  0.48980  0.64196  1.0000
  O  Te122     1.0  0.68744  0.42934  0.31413  1.0000
  O  Te123     1.0  0.70205  0.35093  0.34461  1.0000
  O  Te124     1.0  0.78404  0.41141  0.67252  1.0000
  Mg  Mg61      1.0  0.67138  0.37291  0.23601  1.0000
  Mg  Mg62      1.0  0.80010  0.46782  0.75076  1.0000
  C  Sn125     1.0  0.39845  0.70893  0.63357  1.0000
  C   C103      1.0  0.42258  0.68142  0.54235  1.0000
  C  Sn126     1.0  0.41689  0.64907  0.40321  1.0000
  C  Sn127     1.0  0.38646  0.64411  0.35415  1.0000
  C   C104      1.0  0.36236  0.67162  0.44533  1.0000
  C  Sn128     1.0  0.36802  0.70398  0.58451  1.0000
  O  Te125     1.0  0.40466  0.74106  0.77224  1.0000
  O  Te126     1.0  0.44139  0.62195  0.31402  1.0000
  O  Te127     1.0  0.38026  0.61195  0.21536  1.0000
  O  Te128     1.0  0.34355  0.73109  0.67366  1.0000
  Mg  Mg63      1.0  0.42129  0.58302  0.13410  1.0000
  Mg  Mg64      1.0  0.36362  0.77004  0.85353  1.0000
