data_image0
_chemical_formula_structural       H88C136S4N32SnCSn2CSnTe4Mg2SnCSn2CSnTe4Mg2SnCSn2CSnTe4Mg2SnCSn2CSnTe4Mg2SnCSn2CSnTe4Mg2SnCSn2CSnTe4Mg2SnCSn2CSnTe4Mg2SnCSn2CSnTe4Mg2SnCSn2CSnTe4Mg2SnCSn2CSnTe4Mg2SnCSn2CSnTe4Mg2SnCSn2CSnTe4Mg2SnCSn2CSnTe4Mg2SnCSn2CSnTe4Mg2SnCSn2CSnTe4Mg2SnCSn2CSnTe4Mg2
_chemical_formula_sum              "H88 C168 S4 N32 Sn64 Te64 Mg32"
_cell_length_a       43.1328
_cell_length_b       34.0873
_cell_length_c       8.52029
_cell_angle_alpha    107.684
_cell_angle_beta     82.9448
_cell_angle_gamma    90.8216

_symmetry_space_group_name_H-M    'P1'
_space_group_IT_number       1

loop_
  _space_group_symop_operation_xyz
  'x, y, z'

loop_
  _atom_site_type_symbol
  _atom_site_label
  _atom_site_symmetry_multiplicity
  _atom_site_fract_x
  _atom_site_fract_y
  _atom_site_fract_z
  _atom_site_occupancy
  H   H1        1.0  0.52347  0.62580  0.53483  1.0000
  H   H2        1.0  0.46679  0.62314  0.53035  1.0000
  H   H3        1.0  0.57371  0.72130  0.34582  1.0000
  H   H4        1.0  0.56055  0.65513  0.70467  1.0000
  H   H5        1.0  0.63101  0.71666  0.34300  1.0000
  H   H6        1.0  0.61772  0.65188  0.70674  1.0000
  H   H7        1.0  0.25031  0.76730  0.69943  1.0000
  H   H8        1.0  0.27719  0.70238  0.68791  1.0000
  H   H9        1.0  0.31861  0.78305  0.31270  1.0000
  H   H10       1.0  0.34495  0.71685  0.29550  1.0000
  H   H11       1.0  0.24703  0.82758  0.62070  1.0000
  H   H12       1.0  0.06688  0.24316  0.70745  1.0000
  H   H13       1.0  0.12409  0.23463  0.68683  1.0000
  H   H14       1.0  0.06075  0.11569  0.42451  1.0000
  H   H15       1.0  0.11776  0.10784  0.39347  1.0000
  H   H16       1.0  0.23943  0.32289  0.60119  1.0000
  H   H17       1.0  0.24040  0.52042  0.44210  1.0000
  H   H18       1.0  0.24208  0.58867  0.42421  1.0000
  H   H19       1.0  0.26943  0.65272  0.43215  1.0000
  H   H20       1.0  0.35240  0.60068  0.53465  1.0000
  H   H21       1.0  0.32537  0.53562  0.51278  1.0000
  H   H22       1.0  0.24562  0.01222  0.34166  1.0000
  H   H23       1.0  0.69196  0.41763  0.31413  1.0000
  H   H24       1.0  0.71804  0.35385  0.31681  1.0000
  H   H25       1.0  0.74765  0.48948  0.68018  1.0000
  H   H26       1.0  0.77420  0.42550  0.68063  1.0000
  H   H27       1.0  0.73811  0.53240  0.56873  1.0000
  H   H28       1.0  0.75105  0.23400  0.28079  1.0000
  H   H29       1.0  0.78097  0.17430  0.29604  1.0000
  H   H30       1.0  0.83522  0.25621  0.64465  1.0000
  H   H31       1.0  0.80609  0.31630  0.62066  1.0000
  H   H32       1.0  0.74044  0.30601  0.35402  1.0000
  H   H33       1.0  0.75073  0.02492  0.54129  1.0000
  H   H34       1.0  0.65083  0.75749  0.69129  1.0000
  H   H35       1.0  0.68385  0.81658  0.66403  1.0000
  H   H36       1.0  0.74707  0.73273  0.28645  1.0000
  H   H37       1.0  0.71426  0.67400  0.31077  1.0000
  H   H38       1.0  0.75734  0.80435  0.35942  1.0000
  H   H39       1.0  0.71921  0.92264  0.73528  1.0000
  H   H40       1.0  0.74676  0.98704  0.72382  1.0000
  H   H41       1.0  0.80609  0.91670  0.28838  1.0000
  H   H42       1.0  0.77857  0.85321  0.29869  1.0000
  H   H43       1.0  0.95812  0.13131  0.60377  1.0000
  H   H44       1.0  0.01407  0.12824  0.62519  1.0000
  H   H45       1.0  0.64504  0.59040  0.76020  1.0000
  H   H46       1.0  0.58894  0.58502  0.72595  1.0000
  H   H47       1.0  0.57204  0.53791  0.14328  1.0000
  H   H48       1.0  0.62834  0.54315  0.17581  1.0000
  H   H49       1.0  0.54237  0.61744  0.85204  1.0000
  H   H50       1.0  0.48678  0.61936  0.82371  1.0000
  H   H51       1.0  0.75816  0.44463  0.12964  1.0000
  H   H52       1.0  0.72526  0.32509  0.79583  1.0000
  H   H53       1.0  0.75216  0.26118  0.79610  1.0000
  H   H54       1.0  0.80723  0.33318  0.16433  1.0000
  H   H55       1.0  0.78080  0.39689  0.16239  1.0000
  H   H56       1.0  0.76073  0.21851  0.91595  1.0000
  H   H57       1.0  0.88183  0.09764  0.76967  1.0000
  H   H58       1.0  0.93908  0.09394  0.76705  1.0000
  H   H59       1.0  0.92662  0.03173  0.13957  1.0000
  H   H60       1.0  0.86929  0.03610  0.14426  1.0000
  H   H61       1.0  0.74868  0.72643  0.94089  1.0000
  H   H62       1.0  0.74084  0.94794  0.12079  1.0000
  H   H63       1.0  0.81484  0.93549  0.82018  1.0000
  H   H64       1.0  0.15131  0.14593  0.89541  1.0000
  H   H65       1.0  0.17776  0.21195  0.93057  1.0000
  H   H66       1.0  0.25566  0.16414  0.09073  1.0000
  H   H67       1.0  0.22888  0.09844  0.06252  1.0000
  H   H68       1.0  0.25672  0.23386  0.08718  1.0000
  H   H69       1.0  0.25877  0.42831  0.86530  1.0000
  H   H70       1.0  0.32256  0.47065  0.14045  1.0000
  H   H71       1.0  0.35143  0.53411  0.13234  1.0000
  H   H72       1.0  0.29303  0.55246  0.78462  1.0000
  H   H73       1.0  0.26520  0.48857  0.78779  1.0000
  H   H74       1.0  0.25899  0.74146  0.14020  1.0000
  H   H75       1.0  0.22892  0.78106  0.08895  1.0000
  H   H76       1.0  0.20223  0.84627  0.10328  1.0000
  H   H77       1.0  0.28885  0.89070  0.92255  1.0000
  H   H78       1.0  0.31579  0.82555  0.91073  1.0000
  H   H79       1.0  0.25437  0.92181  0.82924  1.0000
  H   H80       1.0  0.12758  0.13875  0.14009  1.0000
  H   H81       1.0  0.07104  0.13323  0.12808  1.0000
  H   H82       1.0  0.08463  0.00801  0.81208  1.0000
  H   H83       1.0  0.14167  0.01466  0.81210  1.0000
  H   H84       1.0  0.03392  0.12587  0.91949  1.0000
  H   H85       1.0  0.97721  0.12367  0.92161  1.0000
  H   H86       1.0  0.78594  0.07797  0.18018  1.0000
  H   H87       1.0  0.75262  0.01958  0.20265  1.0000
  H   H88       1.0  0.84820  0.99436  0.79325  1.0000
  C   C1        1.0  0.32458  0.54676  0.95471  1.0000
  C   C2        1.0  0.29241  0.47461  0.96146  1.0000
  C   C3        1.0  0.12618  0.04065  0.88143  1.0000
  C   C4        1.0  0.09403  0.03700  0.88110  1.0000
  C   C5        1.0  0.82740  0.99953  0.88369  1.0000
  C   C6        1.0  0.80894  0.96683  0.89828  1.0000
  C   C7        1.0  0.18887  0.18684  0.95853  1.0000
  C   C8        1.0  0.72321  0.72720  0.97706  1.0000
  C   C9        1.0  0.27566  0.86652  0.95719  1.0000
  C   C10       1.0  0.98910  0.09757  0.93865  1.0000
  C   C11       1.0  0.62881  0.57989  0.84625  1.0000
  C   C12       1.0  0.59717  0.57703  0.82833  1.0000
  C   C13       1.0  0.49582  0.59407  0.85953  1.0000
  C   C14       1.0  0.23489  0.93096  0.93038  1.0000
  C   C15       1.0  0.29949  0.53454  0.86203  1.0000
  C   C16       1.0  0.28376  0.49882  0.86552  1.0000
  C   C17       1.0  0.17394  0.14980  0.94050  1.0000
  C   C18       1.0  0.29087  0.83042  0.95209  1.0000
  C   C19       1.0  0.27465  0.79899  0.00083  1.0000
  C   C20       1.0  0.78430  0.22255  0.95474  1.0000
  C   C21       1.0  0.27681  0.43579  0.95015  1.0000
  C   C22       1.0  0.92384  0.08226  0.85343  1.0000
  C   C23       1.0  0.89167  0.08420  0.85370  1.0000
  C   C24       1.0  0.02188  0.09914  0.93930  1.0000
  C   C25       1.0  0.52803  0.59265  0.87393  1.0000
  C   C26       1.0  0.75770  0.29070  0.88049  1.0000
  C   C27       1.0  0.74288  0.32634  0.87807  1.0000
  C   C28       1.0  0.97245  0.15649  0.58575  1.0000
  C   C29       1.0  0.10675  0.13714  0.46758  1.0000
  C   C30       1.0  0.07443  0.14173  0.48515  1.0000
  C   C31       1.0  0.00483  0.15443  0.59612  1.0000
  C   C32       1.0  0.32852  0.59812  0.50600  1.0000
  C   C33       1.0  0.31334  0.56151  0.49505  1.0000
  C   C34       1.0  0.70788  0.70509  0.38973  1.0000
  C   C35       1.0  0.72612  0.73815  0.37614  1.0000
  C   C36       1.0  0.31346  0.63185  0.47982  1.0000
  C   C37       1.0  0.28195  0.55686  0.46377  1.0000
  C   C38       1.0  0.77631  0.02459  0.51033  1.0000
  C   C39       1.0  0.78712  0.91767  0.38630  1.0000
  C   C40       1.0  0.12525  0.17065  0.53813  1.0000
  C   C41       1.0  0.05931  0.18003  0.56847  1.0000
  C   C42       1.0  0.02538  0.18435  0.57069  1.0000
  C   C43       1.0  0.32435  0.72832  0.38459  1.0000
  C   C44       1.0  0.30972  0.76504  0.39347  1.0000
  C   C45       1.0  0.78596  0.20520  0.37069  1.0000
  C   C46       1.0  0.81712  0.25156  0.56294  1.0000
  C   C47       1.0  0.77760  0.95624  0.50122  1.0000
  C   C48       1.0  0.68039  0.71201  0.50180  1.0000
  C   C49       1.0  0.71737  0.77878  0.47216  1.0000
  C   C50       1.0  0.73642  0.81286  0.45164  1.0000
  C   C51       1.0  0.73808  0.92213  0.63753  1.0000
  C   C52       1.0  0.74669  0.88371  0.51965  1.0000
  C   C53       1.0  0.77166  0.88214  0.39377  1.0000
  C   C54       1.0  0.22290  0.31409  0.50820  1.0000
  C   C55       1.0  0.77662  0.27949  0.44908  1.0000
  C   C56       1.0  0.71491  0.52836  0.52557  1.0000
  C   C57       1.0  0.07794  0.21334  0.64063  1.0000
  C   C58       1.0  0.11020  0.20860  0.62884  1.0000
  C   C59       1.0  0.97850  0.21967  0.51963  1.0000
  C   C60       1.0  0.62828  0.68278  0.52041  1.0000
  C   C61       1.0  0.61545  0.70326  0.42218  1.0000
  C   C62       1.0  0.58324  0.70570  0.42365  1.0000
  C   C63       1.0  0.56275  0.68721  0.52078  1.0000
  C   C64       1.0  0.57594  0.66792  0.62261  1.0000
  C   C65       1.0  0.60803  0.66608  0.62454  1.0000
  C   C66       1.0  0.52884  0.68668  0.51502  1.0000
  C   C67       1.0  0.51138  0.65267  0.52565  1.0000
  C   C68       1.0  0.47794  0.71879  0.49561  1.0000
  C   C69       1.0  0.28582  0.71948  0.60344  1.0000
  C   C70       1.0  0.27085  0.75596  0.60953  1.0000
  C   C71       1.0  0.74174  0.46003  0.59668  1.0000
  C   C72       1.0  0.71836  0.45816  0.49249  1.0000
  C   C73       1.0  0.22243  0.01507  0.41470  1.0000
  C   C74       1.0  0.95813  0.18826  0.54789  1.0000
  C   C75       1.0  0.67181  0.75240  0.60201  1.0000
  C   C76       1.0  0.69003  0.78524  0.58688  1.0000
  C   C77       1.0  0.28187  0.62742  0.45095  1.0000
  C   C78       1.0  0.26653  0.59102  0.44544  1.0000
  C   C79       1.0  0.80088  0.28508  0.55008  1.0000
  C   C80       1.0  0.31265  0.70527  0.48992  1.0000
  C   C81       1.0  0.28259  0.77949  0.50655  1.0000
  C   C82       1.0  0.26669  0.81804  0.52081  1.0000
  C   C83       1.0  0.80996  0.21116  0.47257  1.0000
  C   C84       1.0  0.76942  0.23896  0.36112  1.0000
  C   C85       1.0  0.75906  0.31410  0.43490  1.0000
  C   C86       1.0  0.74838  0.38517  0.50006  1.0000
  C   C87       1.0  0.75643  0.42432  0.59931  1.0000
  C   C88       1.0  0.26550  0.51892  0.45260  1.0000
  C   C89       1.0  0.75321  0.95782  0.62941  1.0000
  C   C90       1.0  0.01170  0.21801  0.53366  1.0000
  C   C91       1.0  0.46107  0.68307  0.50621  1.0000
  C   C92       1.0  0.47874  0.65084  0.52073  1.0000
  C   C93       1.0  0.51156  0.72045  0.49790  1.0000
  C   C94       1.0  0.72474  0.38329  0.39709  1.0000
  C   C95       1.0  0.70996  0.41902  0.39443  1.0000
  C   C96       1.0  0.33254  0.52382  0.05702  1.0000
  C   C97       1.0  0.31671  0.48831  0.06062  1.0000
  C   C98       1.0  0.76239  0.93941  0.03307  1.0000
  C   C99       1.0  0.02231  0.03354  0.98632  1.0000
  C   C100      1.0  0.13895  0.07764  0.97244  1.0000
  C   C101      1.0  0.07348  0.07055  0.96557  1.0000
  C   C102      1.0  0.03949  0.06786  0.96196  1.0000
  C   C103      1.0  0.79198  0.04694  0.09925  1.0000
  C   C104      1.0  0.81925  0.03992  0.98539  1.0000
  C   C105      1.0  0.18761  0.11733  0.98169  1.0000
  C   C106      1.0  0.23265  0.16024  0.04852  1.0000
  C   C107      1.0  0.23456  0.23181  0.03378  1.0000
  C   C108      1.0  0.74005  0.43657  0.04553  1.0000
  C   C109      1.0  0.08644  0.10738  0.05560  1.0000
  C   C110      1.0  0.11846  0.11068  0.06217  1.0000
  C   C111      1.0  0.64015  0.56875  0.97459  1.0000
  C   C112      1.0  0.57583  0.56257  0.93629  1.0000
  C   C113      1.0  0.58782  0.54972  0.05982  1.0000
  C   C114      1.0  0.61946  0.55290  0.07916  1.0000
  C   C115      1.0  0.54220  0.56215  0.92059  1.0000
  C   C116      1.0  0.52171  0.53130  0.95334  1.0000
  C   C117      1.0  0.77429  0.36738  0.08187  1.0000
  C   C118      1.0  0.75074  0.36547  0.97834  1.0000
  C   C119      1.0  0.22708  0.84125  0.06037  1.0000
  C   C120      1.0  0.88469  0.04897  0.06252  1.0000
  C   C121      1.0  0.91696  0.04662  0.05977  1.0000
  C   C122      1.0  0.98856  0.03218  0.98808  1.0000
  C   C123      1.0  0.87158  0.06863  0.96239  1.0000
  C   C124      1.0  0.93732  0.06422  0.95846  1.0000
  C   C125      1.0  0.97135  0.06480  0.96163  1.0000
  C   C126      1.0  0.21768  0.12311  0.03265  1.0000
  C   C127      1.0  0.77342  0.01406  0.11178  1.0000
  C   C128      1.0  0.24329  0.87258  0.01062  1.0000
  C   C129      1.0  0.28070  0.73604  0.05348  1.0000
  C   C130      1.0  0.24226  0.80504  0.05366  1.0000
  C   C131      1.0  0.78097  0.29263  0.98518  1.0000
  C   C132      1.0  0.78922  0.33175  0.08406  1.0000
  C   C133      1.0  0.21855  0.19318  0.01403  1.0000
  C   C134      1.0  0.78167  0.97344  0.01365  1.0000
  C   C135      1.0  0.47514  0.56477  0.89002  1.0000
  C   C136      1.0  0.48864  0.53239  0.93618  1.0000
  S   S1        1.0  0.49431  0.78398  0.46792  1.0000
  S   S2        1.0  0.00168  0.27879  0.46117  1.0000
  S   S3        1.0  0.49822  0.47383  0.02422  1.0000
  S   S4        1.0  0.00556  0.97075  0.03682  1.0000
  N   N1        1.0  0.77043  0.90170  0.94998  1.0000
  N   N2        1.0  0.73420  0.39899  0.96417  1.0000
  N   N3        1.0  0.29173  0.76302  0.98310  1.0000
  N   N4        1.0  0.22337  0.26157  0.99063  1.0000
  N   N5        1.0  0.27937  0.48579  0.45668  1.0000
  N   N6        1.0  0.79288  0.99122  0.48193  1.0000
  N   N7        1.0  0.72893  0.85048  0.53893  1.0000
  N   N8        1.0  0.76514  0.35178  0.51389  1.0000
  N   N9        1.0  0.15836  0.16730  0.51471  1.0000
  N   N10       1.0  0.32919  0.66848  0.48179  1.0000
  N   N11       1.0  0.46540  0.75325  0.47812  1.0000
  N   N12       1.0  0.70236  0.49249  0.48096  1.0000
  N   N13       1.0  0.21036  0.98578  0.46861  1.0000
  N   N14       1.0  0.27549  0.84002  0.42388  1.0000
  N   N15       1.0  0.21696  0.33734  0.41985  1.0000
  N   N16       1.0  0.82750  0.17738  0.48357  1.0000
  N   N17       1.0  0.66110  0.67853  0.51330  1.0000
  N   N18       1.0  0.52360  0.75639  0.48398  1.0000
  N   N19       1.0  0.96996  0.25318  0.47937  1.0000
  N   N20       1.0  0.02745  0.25008  0.50232  1.0000
  N   N21       1.0  0.28463  0.41083  0.02763  1.0000
  N   N22       1.0  0.70675  0.76081  0.00887  1.0000
  N   N23       1.0  0.79707  0.25831  0.99566  1.0000
  N   N24       1.0  0.17180  0.08048  0.97474  1.0000
  N   N25       1.0  0.34234  0.58169  0.94246  1.0000
  N   N26       1.0  0.22624  0.90829  0.02456  1.0000
  N   N27       1.0  0.83869  0.07321  0.97219  1.0000
  N   N28       1.0  0.67235  0.57397  0.99886  1.0000
  N   N29       1.0  0.47271  0.50126  0.97440  1.0000
  N   N30       1.0  0.53001  0.49900  0.00210  1.0000
  N   N31       1.0  0.97634  0.99757  0.01503  1.0000
  N   N32       1.0  0.03469  0.00022  0.01371  1.0000
  C  Sn1       1.0  0.22246  0.09905  0.42974  1.0000
  C   C137      1.0  0.21206  0.06536  0.48105  1.0000
  C  Sn2       1.0  0.18040  0.06193  0.53272  1.0000
  C  Sn3       1.0  0.15868  0.09280  0.53301  1.0000
  C   C138      1.0  0.16908  0.12646  0.48170  1.0000
  C  Sn4       1.0  0.20074  0.12992  0.43004  1.0000
  O  Te1       1.0  0.25422  0.10184  0.37858  1.0000
  O  Te2       1.0  0.18189  0.02797  0.58351  1.0000
  O  Te3       1.0  0.12690  0.08998  0.58423  1.0000
  O  Te4       1.0  0.21058  0.16384  0.37924  1.0000
  Mg  Mg1       1.0  0.13622  0.03793  0.64221  1.0000
  Mg  Mg2       1.0  0.25624  0.15391  0.32044  1.0000
  C  Sn5       1.0  0.71214  0.63266  0.53504  1.0000
  C   C139      1.0  0.68372  0.63897  0.48224  1.0000
  C  Sn6       1.0  0.66157  0.60809  0.45588  1.0000
  C  Sn7       1.0  0.66795  0.57011  0.48294  1.0000
  C   C140      1.0  0.69635  0.56382  0.53573  1.0000
  C  Sn8       1.0  0.71852  0.59468  0.56210  1.0000
  O  Te5       1.0  0.73394  0.66396  0.56062  1.0000
  O  Te6       1.0  0.63333  0.61511  0.40304  1.0000
  O  Te7       1.0  0.64612  0.53880  0.45730  1.0000
  O  Te8       1.0  0.74674  0.58768  0.61493  1.0000
  Mg  Mg3       1.0  0.61106  0.56304  0.38532  1.0000
  Mg  Mg4       1.0  0.76902  0.63973  0.63277  1.0000
  C  Sn9       1.0  0.22534  0.01594  0.80728  1.0000
  C   C141      1.0  0.19966  0.03550  0.91881  1.0000
  C  Sn10      1.0  0.21388  0.94862  0.06160  1.0000
  C  Sn11      1.0  0.23074  0.91704  0.09365  1.0000
  C   C142      1.0  0.23301  0.97300  0.98218  1.0000
  C  Sn12      1.0  0.24220  0.98436  0.83933  1.0000
  O  Te9       1.0  0.23411  0.02781  0.66533  1.0000
  O  Te10      1.0  0.18812  0.96862  0.17124  1.0000
  O  Te11      1.0  0.22195  0.90518  0.23575  1.0000
  O  Te12      1.0  0.26795  0.96438  0.72975  1.0000
  Mg  Mg5       1.0  0.18527  0.94155  0.34767  1.0000
  Mg  Mg6       1.0  0.27083  0.99144  0.55334  1.0000
  C  Sn13      1.0  0.22400  0.43979  0.43709  1.0000
  C   C143      1.0  0.25371  0.45205  0.47934  1.0000
  C  Sn14      1.0  0.27576  0.42307  0.48524  1.0000
  C  Sn15      1.0  0.26795  0.38095  0.44802  1.0000
  C   C144      1.0  0.23826  0.36870  0.40577  1.0000
  C  Sn16      1.0  0.21620  0.39766  0.39987  1.0000
  O  Te13      1.0  0.20234  0.46929  0.43196  1.0000
  O  Te14      1.0  0.30530  0.43607  0.52786  1.0000
  O  Te15      1.0  0.28965  0.35144  0.45318  1.0000
  O  Te16      1.0  0.18667  0.38468  0.35726  1.0000
  Mg  Mg7       1.0  0.32682  0.38429  0.51779  1.0000
  Mg  Mg8       1.0  0.16514  0.43643  0.36720  1.0000
  C  Sn17      1.0  0.89773  0.16070  0.62114  1.0000
  C   C145      1.0  0.92124  0.17546  0.52717  1.0000
  C  Sn18      1.0  0.91359  0.19855  0.42650  1.0000
  C  Sn19      1.0  0.88179  0.20710  0.41967  1.0000
  C   C146      1.0  0.85830  0.19235  0.51362  1.0000
  C  Sn20      1.0  0.86592  0.16924  0.61431  1.0000
  O  Te17      1.0  0.90591  0.13768  0.72093  1.0000
  O  Te18      1.0  0.93750  0.21297  0.33364  1.0000
  O  Te19      1.0  0.87362  0.23014  0.31977  1.0000
  O  Te20      1.0  0.84203  0.15484  0.70714  1.0000
  Mg  Mg9       1.0  0.91456  0.24302  0.21640  1.0000
  Mg  Mg10      1.0  0.86495  0.12481  0.82449  1.0000
  C  Sn21      1.0  0.72768  0.64218  0.90886  1.0000
  C   C147      1.0  0.71190  0.68015  0.94992  1.0000
  C  Sn22      1.0  0.70547  0.61053  0.03945  1.0000
  C  Sn23      1.0  0.69112  0.57777  0.08910  1.0000
  C   C148      1.0  0.70690  0.53983  0.04808  1.0000
  C  Sn24      1.0  0.71332  0.60942  0.95851  1.0000
  O  Te21      1.0  0.75749  0.63699  0.81928  1.0000
  O  Te22      1.0  0.69015  0.64876  0.07899  1.0000
  O  Te23      1.0  0.66129  0.58298  0.17874  1.0000
  O  Te24      1.0  0.72864  0.57121  0.91900  1.0000
  Mg  Mg11      1.0  0.64987  0.64074  0.20291  1.0000
  Mg  Mg12      1.0  0.76893  0.57921  0.79517  1.0000
  C  Sn25      1.0  0.28976  0.66352  0.13557  1.0000
  C   C149      1.0  0.29858  0.69499  0.06686  1.0000
  C  Sn26      1.0  0.29755  0.76287  0.92726  1.0000
  C  Sn27      1.0  0.31139  0.72295  0.85475  1.0000
  C   C150      1.0  0.30257  0.69151  0.92344  1.0000
  C  Sn28      1.0  0.30361  0.62361  0.06306  1.0000
  O  Te25      1.0  0.26734  0.67184  0.27515  1.0000
  O  Te26      1.0  0.30599  0.79483  0.86082  1.0000
  O  Te27      1.0  0.33383  0.71466  0.71507  1.0000
  O  Te28      1.0  0.29516  0.59168  0.12948  1.0000
  Mg  Mg13      1.0  0.33758  0.76826  0.66986  1.0000
  Mg  Mg14      1.0  0.26356  0.61820  0.32038  1.0000
  C  Sn29      1.0  0.77849  0.13156  0.57442  1.0000
  C   C151      1.0  0.80951  0.14036  0.53077  1.0000
  C  Sn30      1.0  0.83125  0.10852  0.44936  1.0000
  C  Sn31      1.0  0.82179  0.06699  0.41066  1.0000
  C   C152      1.0  0.79078  0.05820  0.45427  1.0000
  C  Sn32      1.0  0.76902  0.09003  0.53572  1.0000
  O  Te29      1.0  0.75714  0.16389  0.65574  1.0000
  O  Te30      1.0  0.86214  0.11809  0.40703  1.0000
  O  Te31      1.0  0.84316  0.03466  0.32927  1.0000
  O  Te32      1.0  0.73815  0.08048  0.57801  1.0000
  Mg  Mg15      1.0  0.88256  0.06332  0.29723  1.0000
  Mg  Mg16      1.0  0.71771  0.13522  0.68772  1.0000
  C  Sn33      1.0  0.27554  0.92049  0.43038  1.0000
  C   C153      1.0  0.26231  0.88612  0.46682  1.0000
  C  Sn34      1.0  0.22994  0.88167  0.48200  1.0000
  C  Sn35      1.0  0.21037  0.91221  0.46022  1.0000
  C   C154      1.0  0.22359  0.94656  0.42378  1.0000
  C  Sn36      1.0  0.25597  0.95103  0.40860  1.0000
  O  Te33      1.0  0.30796  0.92430  0.41576  1.0000
  O  Te34      1.0  0.21726  0.84704  0.51855  1.0000
  O  Te35      1.0  0.17792  0.90837  0.47487  1.0000
  O  Te36      1.0  0.26864  0.98563  0.37205  1.0000
  Mg  Mg17      1.0  0.17175  0.85569  0.52594  1.0000
  Mg  Mg18      1.0  0.31415  0.97700  0.36454  1.0000
  C  Sn37      1.0  0.72940  0.86187  0.13583  1.0000
  C   C155      1.0  0.75362  0.86632  0.01794  1.0000
  C  Sn38      1.0  0.73698  0.91076  0.86688  1.0000
  C  Sn39      1.0  0.71916  0.87451  0.83289  1.0000
  C   C156      1.0  0.69496  0.87008  0.95073  1.0000
  C  Sn40      1.0  0.71159  0.82562  0.10185  1.0000
  O  Te37      1.0  0.72305  0.89331  0.28602  1.0000
  O  Te38      1.0  0.76130  0.91591  0.75097  1.0000
  O  Te39      1.0  0.72553  0.84306  0.68256  1.0000
  O  Te40      1.0  0.68727  0.82049  0.21769  1.0000
  Mg  Mg19      1.0  0.76098  0.86441  0.56429  1.0000
  Mg  Mg20      1.0  0.68757  0.87197  0.40436  1.0000
  C  Sn41      1.0  0.39845  0.70893  0.63357  1.0000
  C   C157      1.0  0.42258  0.68142  0.54235  1.0000
  C  Sn42      1.0  0.41689  0.64907  0.40321  1.0000
  C  Sn43      1.0  0.38646  0.64411  0.35415  1.0000
  C   C158      1.0  0.36236  0.67162  0.44533  1.0000
  C  Sn44      1.0  0.36802  0.70398  0.58451  1.0000
  O  Te41      1.0  0.40466  0.74106  0.77224  1.0000
  O  Te42      1.0  0.44139  0.62195  0.31402  1.0000
  O  Te43      1.0  0.38026  0.61195  0.21536  1.0000
  O  Te44      1.0  0.34355  0.73109  0.67366  1.0000
  Mg  Mg21      1.0  0.42129  0.58302  0.13410  1.0000
  Mg  Mg22      1.0  0.36362  0.77004  0.85353  1.0000
  C  Sn45      1.0  0.17584  0.22672  0.35534  1.0000
  C   C159      1.0  0.18016  0.20108  0.45182  1.0000
  C  Sn46      1.0  0.19703  0.21449  0.58755  1.0000
  C  Sn47      1.0  0.20982  0.25437  0.62777  1.0000
  C   C160      1.0  0.20549  0.27998  0.53134  1.0000
  C  Sn48      1.0  0.18863  0.26660  0.39556  1.0000
  O  Te45      1.0  0.15890  0.21268  0.22022  1.0000
  O  Te46      1.0  0.20105  0.18830  0.68213  1.0000
  O  Te47      1.0  0.22677  0.26840  0.76301  1.0000
  O  Te48      1.0  0.18460  0.29277  0.30103  1.0000
  Mg  Mg23      1.0  0.22591  0.22141  0.85421  1.0000
  Mg  Mg24      1.0  0.15973  0.25970  0.12898  1.0000
  C  Sn49      1.0  0.72194  0.51985  0.16162  1.0000
  C   C161      1.0  0.71885  0.47825  0.07562  1.0000
  C  Sn50      1.0  0.67882  0.54220  0.93855  1.0000
  C  Sn51      1.0  0.66502  0.57287  0.88625  1.0000
  C   C162      1.0  0.66812  0.61444  0.97220  1.0000
  C  Sn52      1.0  0.70814  0.55052  0.10932  1.0000
  O  Te49      1.0  0.73866  0.53069  0.29831  1.0000
  O  Te50      1.0  0.67603  0.50041  0.85459  1.0000
  O  Te51      1.0  0.64829  0.56199  0.74944  1.0000
  O  Te52      1.0  0.71094  0.59227  0.19323  1.0000
  Mg  Mg25      1.0  0.65099  0.50106  0.67555  1.0000
  Mg  Mg26      1.0  0.73598  0.59166  0.37222  1.0000
  C  Sn53      1.0  0.40170  0.61624  0.93697  1.0000
  C   C163      1.0  0.37970  0.58584  0.88846  1.0000
  C  Sn54      1.0  0.38813  0.54423  0.84836  1.0000
  C  Sn55      1.0  0.41921  0.53275  0.85702  1.0000
  C   C164      1.0  0.44119  0.56314  0.90554  1.0000
  C  Sn56      1.0  0.43277  0.60476  0.94563  1.0000
  O  Te53      1.0  0.39274  0.65765  0.97650  1.0000
  O  Te54      1.0  0.36573  0.51439  0.80014  1.0000
  O  Te55      1.0  0.42815  0.49130  0.81743  1.0000
  O  Te56      1.0  0.45515  0.63459  0.99386  1.0000
  Mg  Mg27      1.0  0.38924  0.46203  0.75859  1.0000
  Mg  Mg28      1.0  0.45507  0.61146  0.03551  1.0000
  C  Sn57      1.0  0.25303  0.28963  0.02920  1.0000
  C   C165      1.0  0.28381  0.30070  0.05336  1.0000
  C  Sn58      1.0  0.30670  0.27055  0.03548  1.0000
  C  Sn59      1.0  0.27525  0.30394  0.99244  1.0000
  C   C166      1.0  0.24449  0.29289  0.96828  1.0000
  C  Sn60      1.0  0.22158  0.32303  0.98617  1.0000
  O  Te57      1.0  0.23053  0.32029  0.04773  1.0000
  O  Te58      1.0  0.33731  0.28236  0.06032  1.0000
  O  Te59      1.0  0.29778  0.27328  0.97393  1.0000
  O  Te60      1.0  0.19099  0.31123  0.96132  1.0000
  Mg  Mg29      1.0  0.35967  0.22926  0.02066  1.0000
  Mg  Mg30      1.0  0.19202  0.28880  0.00087  1.0000
  C  Sn61      1.0  0.79617  0.11579  0.86098  1.0000
  C   C167      1.0  0.82425  0.11003  0.91824  1.0000
  C  Sn62      1.0  0.86230  0.06799  0.01862  1.0000
  C  Sn63      1.0  0.84860  0.10805  0.06279  1.0000
  C   C168      1.0  0.82054  0.11379  0.00556  1.0000
  C  Sn64      1.0  0.78247  0.15585  0.90514  1.0000
  O  Te61      1.0  0.78193  0.08190  0.76077  1.0000
  O  Te62      1.0  0.89036  0.06146  0.07431  1.0000
  O  Te63      1.0  0.86287  0.14195  0.16307  1.0000
  O  Te64      1.0  0.75442  0.16236  0.84949  1.0000
  Mg  Mg31      1.0  0.90083  0.11740  0.20807  1.0000
  Mg  Mg32      1.0  0.74393  0.10645  0.71580  1.0000
