data_image0
_chemical_formula_structural       H24C40S4N32C2Sn2C2HTe2HMgC2Sn2C2HTe2HMgC2Sn2C2HTe2HMgC2Sn2C2HTe2HMgC2Sn2C2HTe2HMgC2Sn2C2HTe2HMgC2Sn2C2HTe2HMgC2Sn2C2HTe2HMgC2Sn2C2HTe2HMgC2Sn2C2HTe2HMgC2Sn2C2HTe2HMgC2Sn2C2HTe2HMgC2Sn2C2HTe2HMgC2Sn2C2HTe2HMgC2Sn2C2HTe2HMgC2Sn2C2HTe2HMgC2Sn2C2HTe2HMgC2Sn2C2HTe2HMgC2Sn2C2HTe2HMgC2Sn2C2HTe2HMgC2Sn2C2HTe2HMgC2Sn2C2HTe2HMgC2Sn2C2HTe2HMgC2Sn2C2HTe2HMgC2Sn2C2HTe2HMgC2Sn2C2HTe2HMgC2Sn2C2HTe2HMgC2Sn2C2HTe2HMgC2Sn2C2HTe2HMgC2Sn2C2HTe2HMgC2Sn2C2HTe2HMgC2Sn2C2HTe2HMg
_chemical_formula_sum              "H88 C168 S4 N32 Sn64 Te64 Mg32"
_cell_length_a       43.1328
_cell_length_b       34.0873
_cell_length_c       8.52029
_cell_angle_alpha    107.684
_cell_angle_beta     82.9448
_cell_angle_gamma    90.8216

_symmetry_space_group_name_H-M    'P1'
_space_group_IT_number       1

loop_
  _space_group_symop_operation_xyz
  'x, y, z'

loop_
  _atom_site_type_symbol
  _atom_site_label
  _atom_site_symmetry_multiplicity
  _atom_site_fract_x
  _atom_site_fract_y
  _atom_site_fract_z
  _atom_site_occupancy
  H   H1        1.0  0.52347  0.62580  0.53483  1.0000
  H   H2        1.0  0.46679  0.62314  0.53035  1.0000
  H   H3        1.0  0.24703  0.82758  0.62070  1.0000
  H   H4        1.0  0.23943  0.32289  0.60119  1.0000
  H   H5        1.0  0.24040  0.52042  0.44210  1.0000
  H   H6        1.0  0.24562  0.01222  0.34166  1.0000
  H   H7        1.0  0.73811  0.53240  0.56873  1.0000
  H   H8        1.0  0.74044  0.30601  0.35402  1.0000
  H   H9        1.0  0.75073  0.02492  0.54129  1.0000
  H   H10       1.0  0.75734  0.80435  0.35942  1.0000
  H   H11       1.0  0.95812  0.13131  0.60377  1.0000
  H   H12       1.0  0.01407  0.12824  0.62519  1.0000
  H   H13       1.0  0.54237  0.61744  0.85204  1.0000
  H   H14       1.0  0.48678  0.61936  0.82371  1.0000
  H   H15       1.0  0.75816  0.44463  0.12964  1.0000
  H   H16       1.0  0.76073  0.21851  0.91595  1.0000
  H   H17       1.0  0.74868  0.72643  0.94089  1.0000
  H   H18       1.0  0.74084  0.94794  0.12079  1.0000
  H   H19       1.0  0.25672  0.23386  0.08718  1.0000
  H   H20       1.0  0.25877  0.42831  0.86530  1.0000
  H   H21       1.0  0.25899  0.74146  0.14020  1.0000
  H   H22       1.0  0.25437  0.92181  0.82924  1.0000
  H   H23       1.0  0.03392  0.12587  0.91949  1.0000
  H   H24       1.0  0.97721  0.12367  0.92161  1.0000
  C   C1        1.0  0.72321  0.72720  0.97706  1.0000
  C   C2        1.0  0.98910  0.09757  0.93865  1.0000
  C   C3        1.0  0.49582  0.59407  0.85953  1.0000
  C   C4        1.0  0.23489  0.93096  0.93038  1.0000
  C   C5        1.0  0.78430  0.22255  0.95474  1.0000
  C   C6        1.0  0.27681  0.43579  0.95015  1.0000
  C   C7        1.0  0.02188  0.09914  0.93930  1.0000
  C   C8        1.0  0.52803  0.59265  0.87393  1.0000
  C   C9        1.0  0.97245  0.15649  0.58575  1.0000
  C   C10       1.0  0.00483  0.15443  0.59612  1.0000
  C   C11       1.0  0.77631  0.02459  0.51033  1.0000
  C   C12       1.0  0.02538  0.18435  0.57069  1.0000
  C   C13       1.0  0.73642  0.81286  0.45164  1.0000
  C   C14       1.0  0.22290  0.31409  0.50820  1.0000
  C   C15       1.0  0.71491  0.52836  0.52557  1.0000
  C   C16       1.0  0.97850  0.21967  0.51963  1.0000
  C   C17       1.0  0.52884  0.68668  0.51502  1.0000
  C   C18       1.0  0.51138  0.65267  0.52565  1.0000
  C   C19       1.0  0.47794  0.71879  0.49561  1.0000
  C   C20       1.0  0.22243  0.01507  0.41470  1.0000
  C   C21       1.0  0.95813  0.18826  0.54789  1.0000
  C   C22       1.0  0.26669  0.81804  0.52081  1.0000
  C   C23       1.0  0.75906  0.31410  0.43490  1.0000
  C   C24       1.0  0.26550  0.51892  0.45260  1.0000
  C   C25       1.0  0.01170  0.21801  0.53366  1.0000
  C   C26       1.0  0.46107  0.68307  0.50621  1.0000
  C   C27       1.0  0.47874  0.65084  0.52073  1.0000
  C   C28       1.0  0.51156  0.72045  0.49790  1.0000
  C   C29       1.0  0.76239  0.93941  0.03307  1.0000
  C   C30       1.0  0.02231  0.03354  0.98632  1.0000
  C   C31       1.0  0.03949  0.06786  0.96196  1.0000
  C   C32       1.0  0.23456  0.23181  0.03378  1.0000
  C   C33       1.0  0.74005  0.43657  0.04553  1.0000
  C   C34       1.0  0.54220  0.56215  0.92059  1.0000
  C   C35       1.0  0.52171  0.53130  0.95334  1.0000
  C   C36       1.0  0.98856  0.03218  0.98808  1.0000
  C   C37       1.0  0.97135  0.06480  0.96163  1.0000
  C   C38       1.0  0.28070  0.73604  0.05348  1.0000
  C   C39       1.0  0.47514  0.56477  0.89002  1.0000
  C   C40       1.0  0.48864  0.53239  0.93618  1.0000
  S   S1        1.0  0.49431  0.78398  0.46792  1.0000
  S   S2        1.0  0.00168  0.27879  0.46117  1.0000
  S   S3        1.0  0.49822  0.47383  0.02422  1.0000
  S   S4        1.0  0.00556  0.97075  0.03682  1.0000
  N   N1        1.0  0.77043  0.90170  0.94998  1.0000
  N   N2        1.0  0.73420  0.39899  0.96417  1.0000
  N   N3        1.0  0.29173  0.76302  0.98310  1.0000
  N   N4        1.0  0.22337  0.26157  0.99063  1.0000
  N   N5        1.0  0.27937  0.48579  0.45668  1.0000
  N   N6        1.0  0.79288  0.99122  0.48193  1.0000
  N   N7        1.0  0.72893  0.85048  0.53893  1.0000
  N   N8        1.0  0.76514  0.35178  0.51389  1.0000
  N   N9        1.0  0.15836  0.16730  0.51471  1.0000
  N   N10       1.0  0.32919  0.66848  0.48179  1.0000
  N   N11       1.0  0.46540  0.75325  0.47812  1.0000
  N   N12       1.0  0.70236  0.49249  0.48096  1.0000
  N   N13       1.0  0.21036  0.98578  0.46861  1.0000
  N   N14       1.0  0.27549  0.84002  0.42388  1.0000
  N   N15       1.0  0.21696  0.33734  0.41985  1.0000
  N   N16       1.0  0.82750  0.17738  0.48357  1.0000
  N   N17       1.0  0.66110  0.67853  0.51330  1.0000
  N   N18       1.0  0.52360  0.75639  0.48398  1.0000
  N   N19       1.0  0.96996  0.25318  0.47937  1.0000
  N   N20       1.0  0.02745  0.25008  0.50232  1.0000
  N   N21       1.0  0.28463  0.41083  0.02763  1.0000
  N   N22       1.0  0.70675  0.76081  0.00887  1.0000
  N   N23       1.0  0.79707  0.25831  0.99566  1.0000
  N   N24       1.0  0.17180  0.08048  0.97474  1.0000
  N   N25       1.0  0.34234  0.58169  0.94246  1.0000
  N   N26       1.0  0.22624  0.90829  0.02456  1.0000
  N   N27       1.0  0.83869  0.07321  0.97219  1.0000
  N   N28       1.0  0.67235  0.57397  0.99886  1.0000
  N   N29       1.0  0.47271  0.50126  0.97440  1.0000
  N   N30       1.0  0.53001  0.49900  0.00210  1.0000
  N   N31       1.0  0.97634  0.99757  0.01503  1.0000
  N   N32       1.0  0.03469  0.00022  0.01371  1.0000
  C   C41       1.0  0.73126  0.64322  0.95765  1.0000
  C   C42       1.0  0.71553  0.68052  0.98142  1.0000
  C  Sn1       1.0  0.70670  0.60886  0.02966  1.0000
  C  Sn2       1.0  0.68996  0.57466  0.05452  1.0000
  C   C43       1.0  0.70592  0.53748  0.03054  1.0000
  C   C44       1.0  0.71477  0.60948  0.98221  1.0000
  H   H25       1.0  0.75623  0.64051  0.92034  1.0000
  O  Te1       1.0  0.69135  0.64635  0.05280  1.0000
  O  Te2       1.0  0.65773  0.57765  0.10281  1.0000
  H   H26       1.0  0.72695  0.58060  0.96392  1.0000
  Mg  Mg1       1.0  0.64725  0.63521  0.11872  1.0000
  C   C45       1.0  0.22230  0.34158  0.97883  1.0000
  C   C46       1.0  0.23574  0.30522  0.98622  1.0000
  C  Sn3       1.0  0.29014  0.22880  0.01738  1.0000
  C  Sn4       1.0  0.30795  0.26501  0.04158  1.0000
  C   C47       1.0  0.29428  0.30124  0.03406  1.0000
  C   C48       1.0  0.26325  0.30180  0.00275  1.0000
  H   H27       1.0  0.19829  0.34203  0.95470  1.0000
  O  Te3       1.0  0.30320  0.19221  0.02429  1.0000
  O  Te4       1.0  0.33897  0.26496  0.07298  1.0000
  H   H28       1.0  0.22944  0.40547  0.99715  1.0000
  Mg  Mg2       1.0  0.34637  0.20757  0.07056  1.0000
  C   C49       1.0  0.76114  0.81845  0.83583  1.0000
  C   C50       1.0  0.75432  0.85912  0.93377  1.0000
  C  Sn5       1.0  0.75408  0.79231  0.06798  1.0000
  C  Sn6       1.0  0.73699  0.75963  0.10454  1.0000
  C   C51       1.0  0.74400  0.71905  0.00588  1.0000
  C   C52       1.0  0.74429  0.78619  0.87184  1.0000
  H   H29       1.0  0.77949  0.81199  0.73218  1.0000
  O  Te5       1.0  0.74757  0.83312  0.16452  1.0000
  O  Te6       1.0  0.71324  0.76745  0.23798  1.0000
  H   H30       1.0  0.74958  0.75470  0.79610  1.0000
  Mg  Mg3       1.0  0.71305  0.82817  0.33309  1.0000
  C   C53       1.0  0.11060  0.11596  0.07130  1.0000
  C   C54       1.0  0.13418  0.08563  0.00693  1.0000
  C  Sn7       1.0  0.10380  0.12178  0.90949  1.0000
  C  Sn8       1.0  0.07263  0.11272  0.87607  1.0000
  C   C55       1.0  0.04921  0.14329  0.94095  1.0000
  C   C56       1.0  0.07985  0.10706  0.03834  1.0000
  H   H31       1.0  0.11619  0.14635  0.14658  1.0000
  O  Te7       1.0  0.12764  0.09183  0.84621  1.0000
  O  Te8       1.0  0.06502  0.07366  0.77901  1.0000
  H   H32       1.0  0.06159  0.13055  0.08807  1.0000
  Mg  Mg4       1.0  0.11696  0.04316  0.72070  1.0000
  C   C57       1.0  0.77532  0.02517  0.12942  1.0000
  C   C58       1.0  0.78909  0.98391  0.03182  1.0000
  C  Sn9       1.0  0.79102  0.04549  0.90864  1.0000
  C  Sn10      1.0  0.80300  0.07348  0.88303  1.0000
  C   C59       1.0  0.80036  0.11469  0.98141  1.0000
  C   C60       1.0  0.79830  0.05278  0.10428  1.0000
  H   H33       1.0  0.75563  0.03569  0.22455  1.0000
  O  Te9       1.0  0.79309  0.00417  0.81220  1.0000
  O  Te10      1.0  0.82858  0.06039  0.76083  1.0000
  H   H34       1.0  0.79644  0.08472  0.17990  1.0000
  Mg  Mg5       1.0  0.83235  0.00108  0.66112  1.0000
  C   C61       1.0  0.29193  0.63707  0.09247  1.0000
  C   C62       1.0  0.29508  0.69556  0.98238  1.0000
  C  Sn11      1.0  0.31185  0.71869  0.89210  1.0000
  C  Sn12      1.0  0.30180  0.75960  0.91272  1.0000
  C   C63       1.0  0.29862  0.70084  0.02325  1.0000
  C   C64       1.0  0.28200  0.67743  0.11293  1.0000
  H   H35       1.0  0.27907  0.61897  0.16193  1.0000
  O  Te11      1.0  0.33833  0.70122  0.78259  1.0000
  O  Te12      1.0  0.31814  0.78340  0.82409  1.0000
  H   H36       1.0  0.26145  0.69061  0.19824  1.0000
  Mg  Mg6       1.0  0.35278  0.74594  0.68969  1.0000
  C   C65       1.0  0.84161  0.15956  0.03469  1.0000
  C   C66       1.0  0.80549  0.19585  0.99890  1.0000
  C  Sn13      1.0  0.77688  0.18867  0.93526  1.0000
  C  Sn14      1.0  0.76076  0.22140  0.90702  1.0000
  C   C67       1.0  0.77369  0.26051  0.94311  1.0000
  C   C68       1.0  0.82573  0.19187  0.00680  1.0000
  H   H37       1.0  0.86378  0.16486  0.08388  1.0000
  O  Te13      1.0  0.76450  0.14931  0.90025  1.0000
  O  Te14      1.0  0.73213  0.21507  0.84345  1.0000
  H   H38       1.0  0.83558  0.22222  0.03440  1.0000
  Mg  Mg7       1.0  0.72480  0.15599  0.81536  1.0000
  C   C69       1.0  0.23231  0.15003  0.05654  1.0000
  C   C70       1.0  0.22365  0.18430  0.01296  1.0000
  C  Sn15      1.0  0.17147  0.26123  0.95511  1.0000
  C  Sn16      1.0  0.15103  0.22767  0.94080  1.0000
  C   C71       1.0  0.15990  0.19353  0.98483  1.0000
  C   C72       1.0  0.21216  0.11692  0.04253  1.0000
  H   H39       1.0  0.25462  0.14917  0.10127  1.0000
  O  Te15      1.0  0.16319  0.29570  0.91204  1.0000
  O  Te16      1.0  0.12213  0.22829  0.88339  1.0000
  H   H40       1.0  0.21885  0.09039  0.07636  1.0000
  Mg  Mg8       1.0  0.12134  0.28212  0.84006  1.0000
  C   C73       1.0  0.17760  0.01176  0.08920  1.0000
  C   C74       1.0  0.18611  0.04018  0.00392  1.0000
  C  Sn17      1.0  0.18814  0.10721  0.87929  1.0000
  C  Sn18      1.0  0.20534  0.06957  0.83956  1.0000
  C   C75       1.0  0.20796  0.04133  0.92553  1.0000
  C   C76       1.0  0.20587  0.97462  0.05005  1.0000
  H   H41       1.0  0.15786  0.01855  0.18548  1.0000
  O  Te17      1.0  0.19633  0.13595  0.79535  1.0000
  O  Te18      1.0  0.23087  0.06032  0.71552  1.0000
  H   H42       1.0  0.19928  0.95260  0.11599  1.0000
  Mg  Mg9       1.0  0.23294  0.10931  0.63620  1.0000
  C   C77       1.0  0.22639  0.83045  0.06245  1.0000
  C   C78       1.0  0.23918  0.86604  0.03489  1.0000
  C  Sn19      1.0  0.24754  0.94240  0.97918  1.0000
  C  Sn20      1.0  0.26682  0.90692  0.95059  1.0000
  C   C79       1.0  0.25380  0.87146  0.97842  1.0000
  C   C80       1.0  0.24538  0.79544  0.03423  1.0000
  H   H43       1.0  0.20177  0.83004  0.10555  1.0000
  O  Te19      1.0  0.25994  0.97822  0.95233  1.0000
  O  Te20      1.0  0.29865  0.90693  0.89484  1.0000
  H   H44       1.0  0.23549  0.76787  0.05545  1.0000
  Mg  Mg10      1.0  0.30465  0.96312  0.87626  1.0000
  C   C81       1.0  0.60501  0.58089  0.81657  1.0000
  C   C82       1.0  0.58114  0.56414  0.90085  1.0000
  C  Sn21      1.0  0.61052  0.47495  0.03329  1.0000
  C  Sn22      1.0  0.64099  0.47815  0.08200  1.0000
  C   C83       1.0  0.64130  0.57049  0.99696  1.0000
  C   C84       1.0  0.63506  0.58408  0.86458  1.0000
  H   H45       1.0  0.60019  0.59142  0.71420  1.0000
  O  Te21      1.0  0.58640  0.45828  0.11610  1.0000
  O  Te22      1.0  0.64760  0.46473  0.21398  1.0000
  H   H46       1.0  0.65355  0.59707  0.79942  1.0000
  Mg  Mg11      1.0  0.60697  0.44424  0.28818  1.0000
  C   C85       1.0  0.69168  0.46996  0.91550  1.0000
  C   C86       1.0  0.74073  0.39360  0.00007  1.0000
  C  Sn23      1.0  0.75207  0.43021  0.09899  1.0000
  C  Sn24      1.0  0.73740  0.46835  0.11331  1.0000
  C   C87       1.0  0.71175  0.46888  0.02830  1.0000
  C   C88       1.0  0.67720  0.50756  0.92961  1.0000
  H   H47       1.0  0.68304  0.44147  0.83921  1.0000
  O  Te23      1.0  0.77772  0.42880  0.18258  1.0000
  O  Te24      1.0  0.74825  0.50541  0.21139  1.0000
  H   H48       1.0  0.65733  0.50824  0.86424  1.0000
  Mg  Mg12      1.0  0.78391  0.48754  0.30113  1.0000
  C   C89       1.0  0.28414  0.50842  0.85276  1.0000
  C   C90       1.0  0.29043  0.47940  0.93120  1.0000
  C  Sn25      1.0  0.33728  0.41068  0.03533  1.0000
  C  Sn26      1.0  0.35470  0.44724  0.06121  1.0000
  C   C91       1.0  0.32481  0.55160  0.98226  1.0000
  C   C92       1.0  0.30131  0.54449  0.87827  1.0000
  H   H49       1.0  0.26595  0.50294  0.77237  1.0000
  O  Te25      1.0  0.34326  0.38135  0.11268  1.0000
  O  Te26      1.0  0.37825  0.45480  0.16470  1.0000
  H   H50       1.0  0.29644  0.56698  0.81764  1.0000
  Mg  Mg13      1.0  0.37770  0.40560  0.24236  1.0000
  C   C93       1.0  0.89151  0.04463  0.07559  1.0000
  C   C94       1.0  0.85070  0.14007  0.99315  1.0000
  C  Sn27      1.0  0.86577  0.15849  0.87979  1.0000
  C  Sn28      1.0  0.89888  0.15686  0.84861  1.0000
  C   C95       1.0  0.91608  0.13681  0.93164  1.0000
  C   C96       1.0  0.92417  0.04300  0.04487  1.0000
  H   H51       1.0  0.87966  0.03044  0.16313  1.0000
  O  Te27      1.0  0.84802  0.17829  0.79854  1.0000
  O  Te28      1.0  0.91453  0.17500  0.73588  1.0000
  H   H52       1.0  0.93765  0.02754  0.10860  1.0000
  Mg  Mg14      1.0  0.88008  0.19841  0.65601  1.0000
  C   C97       1.0  0.41926  0.61450  0.97399  1.0000
  C   C98       1.0  0.43805  0.57878  0.91020  1.0000
  C  Sn29      1.0  0.42480  0.54089  0.83877  1.0000
  C  Sn30      1.0  0.39211  0.53883  0.83121  1.0000
  C   C99       1.0  0.37352  0.57474  0.89527  1.0000
  C   C100      1.0  0.38703  0.61249  0.96653  1.0000
  H   H53       1.0  0.45312  0.56821  0.02904  1.0000
  O  Te29      1.0  0.44391  0.50550  0.77568  1.0000
  O  Te30      1.0  0.37825  0.50137  0.76044  1.0000
  H   H54       1.0  0.39588  0.56464  0.01581  1.0000
  Mg  Mg15      1.0  0.41409  0.46166  0.69134  1.0000
  C   C101      1.0  0.78891  0.34328  0.09717  1.0000
  C   C102      1.0  0.78277  0.30227  0.01538  1.0000
  C  Sn31      1.0  0.73706  0.36839  0.90445  1.0000
  C  Sn32      1.0  0.72065  0.40074  0.87507  1.0000
  C   C103      1.0  0.72698  0.44167  0.95742  1.0000
  C   C104      1.0  0.77274  0.37520  0.06822  1.0000
  H   H55       1.0  0.80622  0.35027  0.18283  1.0000
  O  Te31      1.0  0.73120  0.32725  0.82383  1.0000
  O  Te32      1.0  0.69824  0.39224  0.76478  1.0000
  H   H56       1.0  0.77751  0.40696  0.13144  1.0000
  Mg  Mg16      1.0  0.69851  0.33128  0.68486  1.0000
  C   C105      1.0  0.09900  0.13213  0.46257  1.0000
  C   C106      1.0  0.12138  0.16198  0.51131  1.0000
  C  Sn33      1.0  0.11211  0.20243  0.60230  1.0000
  C  Sn34      1.0  0.07983  0.21309  0.64513  1.0000
  C   C107      1.0  0.05763  0.18300  0.59588  1.0000
  C   C108      1.0  0.06716  0.14262  0.50482  1.0000
  H   H57       1.0  0.10637  0.10088  0.39219  1.0000
  O  Te33      1.0  0.13477  0.23187  0.64994  1.0000
  O  Te34      1.0  0.06992  0.25328  0.73604  1.0000
  H   H58       1.0  0.04983  0.11950  0.46719  1.0000
  Mg  Mg17      1.0  0.10966  0.28251  0.77241  1.0000
  C   C109      1.0  0.89533  0.17223  0.66436  1.0000
  C   C110      1.0  0.91968  0.18281  0.56178  1.0000
  C  Sn35      1.0  0.91328  0.19599  0.42878  1.0000
  C  Sn36      1.0  0.88188  0.19860  0.39825  1.0000
  C   C111      1.0  0.85768  0.18796  0.50166  1.0000
  C   C112      1.0  0.86436  0.17480  0.63437  1.0000
  H   H59       1.0  0.90049  0.16206  0.76710  1.0000
  O  Te35      1.0  0.93789  0.20644  0.32747  1.0000
  O  Te36      1.0  0.87482  0.21169  0.26622  1.0000
  H   H60       1.0  0.84549  0.16663  0.71384  1.0000
  Mg  Mg18      1.0  0.91642  0.22255  0.16302  1.0000
  C   C113      1.0  0.32082  0.56726  0.49814  1.0000
  C   C114      1.0  0.28967  0.55775  0.47730  1.0000
  C  Sn37      1.0  0.26962  0.58647  0.45184  1.0000
  C  Sn38      1.0  0.28104  0.62539  0.44717  1.0000
  C   C115      1.0  0.31225  0.63459  0.46804  1.0000
  C   C116      1.0  0.33210  0.60563  0.49349  1.0000
  H   H61       1.0  0.33618  0.54485  0.51774  1.0000
  O  Te37      1.0  0.23856  0.57648  0.43130  1.0000
  O  Te38      1.0  0.26152  0.65466  0.42186  1.0000
  H   H62       1.0  0.35623  0.61299  0.50951  1.0000
  Mg  Mg19      1.0  0.22103  0.62662  0.40034  1.0000
  C   C117      1.0  0.72523  0.72673  0.36513  1.0000
  C   C118      1.0  0.71974  0.76889  0.44281  1.0000
  C  Sn39      1.0  0.69384  0.78279  0.56234  1.0000
  C  Sn40      1.0  0.67310  0.75387  0.60465  1.0000
  C   C119      1.0  0.67881  0.71176  0.52631  1.0000
  C   C120      1.0  0.70479  0.69818  0.40683  1.0000
  H   H63       1.0  0.74534  0.71622  0.27276  1.0000
  O  Te39      1.0  0.68870  0.82502  0.63870  1.0000
  O  Te40      1.0  0.64705  0.76692  0.72373  1.0000
  H   H64       1.0  0.70905  0.66554  0.34679  1.0000
  Mg  Mg20      1.0  0.64998  0.82767  0.79325  1.0000
  C   C121      1.0  0.22617  0.43482  0.38122  1.0000
  C   C122      1.0  0.25437  0.44944  0.43918  1.0000
  C  Sn41      1.0  0.27369  0.42418  0.48947  1.0000
  C  Sn42      1.0  0.26455  0.38353  0.48139  1.0000
  C   C123      1.0  0.23630  0.36918  0.42310  1.0000
  C   C124      1.0  0.21714  0.39472  0.37315  1.0000
  H   H65       1.0  0.21135  0.45457  0.34248  1.0000
  O  Te41      1.0  0.30179  0.43929  0.54712  1.0000
  O  Te42      1.0  0.28342  0.35762  0.53081  1.0000
  H   H66       1.0  0.19531  0.38338  0.32817  1.0000
  Mg  Mg21      1.0  0.31953  0.39226  0.60040  1.0000
  C   C125      1.0  0.74647  0.95303  0.64827  1.0000
  C   C126      1.0  0.77265  0.95759  0.54166  1.0000
  C  Sn43      1.0  0.78545  0.92372  0.41200  1.0000
  C  Sn44      1.0  0.77174  0.88460  0.38891  1.0000
  C   C127      1.0  0.74554  0.88036  0.49616  1.0000
  C   C128      1.0  0.73292  0.91446  0.62554  1.0000
  H   H67       1.0  0.73669  0.97941  0.74832  1.0000
  O  Te43      1.0  0.81162  0.92881  0.30667  1.0000
  O  Te44      1.0  0.78406  0.85024  0.26028  1.0000
  H   H68       1.0  0.71264  0.91092  0.70799  1.0000
  Mg  Mg22      1.0  0.81991  0.87274  0.14934  1.0000
  C   C129      1.0  0.77480  0.12911  0.52495  1.0000
  C   C130      1.0  0.80601  0.13967  0.49852  1.0000
  C  Sn45      1.0  0.82978  0.10958  0.45903  1.0000
  C  Sn46      1.0  0.82209  0.06818  0.44579  1.0000
  C   C131      1.0  0.79079  0.05793  0.47235  1.0000
  C   C132      1.0  0.76719  0.08828  0.51186  1.0000
  H   H69       1.0  0.75654  0.15259  0.55543  1.0000
  O  Te45      1.0  0.86083  0.12066  0.43307  1.0000
  O  Te46      1.0  0.84538  0.03749  0.40642  1.0000
  H   H70       1.0  0.74303  0.08010  0.53221  1.0000
  Mg  Mg23      1.0  0.88427  0.06783  0.38233  1.0000
  C   C133      1.0  0.27972  0.72763  0.62568  1.0000
  C   C134      1.0  0.30515  0.70688  0.51523  1.0000
  C  Sn47      1.0  0.32048  0.72420  0.39890  1.0000
  C  Sn48      1.0  0.31013  0.76303  0.39336  1.0000
  C   C135      1.0  0.28468  0.78355  0.50447  1.0000
  C   C136      1.0  0.26950  0.76593  0.62034  1.0000
  H   H71       1.0  0.26798  0.71401  0.71539  1.0000
  O  Te47      1.0  0.34584  0.70305  0.28942  1.0000
  O  Te48      1.0  0.32504  0.78105  0.27839  1.0000
  H   H72       1.0  0.24983  0.78202  0.70591  1.0000
  Mg  Mg24      1.0  0.35853  0.74025  0.15517  1.0000
  C   C137      1.0  0.77905  0.20906  0.35658  1.0000
  C   C138      1.0  0.80521  0.20861  0.43787  1.0000
  C  Sn49      1.0  0.81629  0.24536  0.53717  1.0000
  C  Sn50      1.0  0.80082  0.28322  0.55522  1.0000
  C   C139      1.0  0.77465  0.28334  0.47348  1.0000
  C   C140      1.0  0.76377  0.24638  0.37437  1.0000
  H   H73       1.0  0.77062  0.18046  0.27997  1.0000
  O  Te49      1.0  0.84247  0.24436  0.61745  1.0000
  O  Te50      1.0  0.81139  0.32041  0.65376  1.0000
  H   H74       1.0  0.74350  0.24674  0.31154  1.0000
  Mg  Mg25      1.0  0.84801  0.30314  0.73811  1.0000
  C   C141      1.0  0.66532  0.57205  0.44449  1.0000
  C   C142      1.0  0.69372  0.56487  0.49539  1.0000
  C  Sn51      1.0  0.71261  0.59776  0.56342  1.0000
  C  Sn52      1.0  0.70281  0.63858  0.58071  1.0000
  C   C143      1.0  0.67434  0.64545  0.52952  1.0000
  C   C144      1.0  0.65563  0.61230  0.46155  1.0000
  H   H75       1.0  0.65083  0.54641  0.39199  1.0000
  O  Te51      1.0  0.74092  0.59003  0.61358  1.0000
  O  Te52      1.0  0.72123  0.67202  0.64836  1.0000
  H   H76       1.0  0.63363  0.61788  0.42225  1.0000
  Mg  Mg26      1.0  0.75788  0.64577  0.69848  1.0000
  C   C145      1.0  0.16795  0.23500  0.38794  1.0000
  C   C146      1.0  0.17396  0.20664  0.46999  1.0000
  C  Sn53      1.0  0.19712  0.21405  0.57589  1.0000
  C  Sn54      1.0  0.21455  0.25057  0.59988  1.0000
  C   C147      1.0  0.20835  0.27877  0.51732  1.0000
  C   C148      1.0  0.18512  0.27104  0.41159  1.0000
  H   H77       1.0  0.14997  0.22904  0.30620  1.0000
  O  Te53      1.0  0.20283  0.18538  0.65684  1.0000
  O  Te54      1.0  0.23783  0.25876  0.70508  1.0000
  H   H78       1.0  0.18046  0.29302  0.34817  1.0000
  Mg  Mg27      1.0  0.23695  0.21032  0.78766  1.0000
  C   C149      1.0  0.16025  0.08894  0.56625  1.0000
  C   C150      1.0  0.17093  0.12401  0.52606  1.0000
  C  Sn55      1.0  0.20036  0.12350  0.43623  1.0000
  C  Sn56      1.0  0.21940  0.08716  0.38583  1.0000
  C   C151      1.0  0.20850  0.05222  0.42655  1.0000
  C   C152      1.0  0.17901  0.05308  0.51654  1.0000
  H   H79       1.0  0.13743  0.08959  0.63580  1.0000
  O  Te55      1.0  0.21068  0.15882  0.39717  1.0000
  O  Te56      1.0  0.24892  0.08580  0.29587  1.0000
  H   H80       1.0  0.18207  0.02591  0.54754  1.0000
  Mg  Mg28      1.0  0.25264  0.14178  0.27258  1.0000
  C   C153      1.0  0.27519  0.91671  0.37495  1.0000
  C   C154      1.0  0.26323  0.88373  0.42668  1.0000
  C  Sn57      1.0  0.23158  0.88345  0.48607  1.0000
  C  Sn58      1.0  0.21160  0.91686  0.49362  1.0000
  C   C155      1.0  0.22379  0.94969  0.44147  1.0000
  C   C156      1.0  0.25550  0.94966  0.38230  1.0000
  H   H81       1.0  0.29972  0.91668  0.32909  1.0000
  O  Te57      1.0  0.22001  0.85027  0.53731  1.0000
  O  Te58      1.0  0.17988  0.91736  0.55239  1.0000
  H   H82       1.0  0.26475  0.97518  0.34216  1.0000
  Mg  Mg29      1.0  0.17512  0.86508  0.60797  1.0000
  C   C157      1.0  0.59117  0.70900  0.41002  1.0000
  C   C158      1.0  0.56748  0.69164  0.49292  1.0000
  C  Sn59      1.0  0.57470  0.67068  0.60202  1.0000
  C  Sn60      1.0  0.60624  0.66710  0.62839  1.0000
  C   C159      1.0  0.62977  0.68461  0.54494  1.0000
  C   C160      1.0  0.62229  0.70550  0.43600  1.0000
  H   H83       1.0  0.58538  0.72518  0.32580  1.0000
  O  Te59      1.0  0.55074  0.65351  0.68379  1.0000
  O  Te60      1.0  0.61411  0.64634  0.73679  1.0000
  H   H84       1.0  0.64064  0.71896  0.37191  1.0000
  Mg  Mg30      1.0  0.57320  0.62816  0.81931  1.0000
  C   C161      1.0  0.75612  0.43585  0.61254  1.0000
  C   C162      1.0  0.74997  0.39486  0.53051  1.0000
  C  Sn61      1.0  0.72758  0.38554  0.42002  1.0000
  C  Sn62      1.0  0.71110  0.41793  0.39134  1.0000
  C   C163      1.0  0.71744  0.45884  0.47393  1.0000
  C   C164      1.0  0.73988  0.46781  0.58427  1.0000
  H   H85       1.0  0.77349  0.44280  0.69785  1.0000
  O  Te61      1.0  0.72172  0.34442  0.33915  1.0000
  O  Te62      1.0  0.68862  0.40949  0.28150  1.0000
  H   H86       1.0  0.74465  0.49955  0.64769  1.0000
  Mg  Mg31      1.0  0.68890  0.34853  0.20100  1.0000
  C   C165      1.0  0.38072  0.71405  0.60515  1.0000
  C   C166      1.0  0.36451  0.68229  0.50494  1.0000
  C  Sn63      1.0  0.38056  0.64698  0.39915  1.0000
  C  Sn64      1.0  0.41343  0.64348  0.39390  1.0000
  C   C167      1.0  0.42943  0.67541  0.49473  1.0000
  C   C168      1.0  0.41314  0.71062  0.60009  1.0000
  H   H87       1.0  0.36812  0.74129  0.68674  1.0000
  O  Te63      1.0  0.36400  0.61554  0.29982  1.0000
  O  Te64      1.0  0.43005  0.60851  0.28935  1.0000
  H   H88       1.0  0.42569  0.73519  0.67774  1.0000
  Mg  Mg32      1.0  0.39707  0.57396  0.17764  1.0000
