data_image0
_chemical_formula_structural       H92C142N28C2Sn2C2HTe2HMgC2Sn2C2HTe2HMgC2Sn2C2HTe2HMgC2Sn2C2HTe2HMgC2Sn2C2HTe2HMgC2Sn2C2HTe2HMgC2Sn2C2HTe2HMgC2Sn2C2HTe2HMgC2Sn2C2HTe2HMg
_chemical_formula_sum              "H110 C178 N28 Sn18 Te18 Mg9"
_cell_length_a       49.7604
_cell_length_b       39.2264
_cell_length_c       7.64536
_cell_angle_alpha    89.0686
_cell_angle_beta     110.962
_cell_angle_gamma    129.494

_symmetry_space_group_name_H-M    'P1'
_space_group_IT_number       1

loop_
  _space_group_symop_operation_xyz
  'x, y, z'

loop_
  _atom_site_type_symbol
  _atom_site_label
  _atom_site_symmetry_multiplicity
  _atom_site_fract_x
  _atom_site_fract_y
  _atom_site_fract_z
  _atom_site_occupancy
  H   H1        1.0  0.42491  0.58537  0.98256  1.0000
  H   H2        1.0  0.38917  0.60624  0.02419  1.0000
  H   H3        1.0  0.38056  0.54705  0.50135  1.0000
  H   H4        1.0  0.41943  0.53006  0.47054  1.0000
  H   H5        1.0  0.30179  0.47917  0.12929  1.0000
  H   H6        1.0  0.23423  0.43680  0.14230  1.0000
  H   H7        1.0  0.42924  0.67578  0.35049  1.0000
  H   H8        1.0  0.42343  0.73955  0.32860  1.0000
  H   H9        1.0  0.37908  0.73461  0.99236  1.0000
  H   H10       1.0  0.42577  0.81670  0.99718  1.0000
  H   H11       1.0  0.41158  0.85710  0.45257  1.0000
  H   H12       1.0  0.36617  0.77560  0.45313  1.0000
  H   H13       1.0  0.30117  0.72916  0.14849  1.0000
  H   H14       1.0  0.23581  0.67157  0.19441  1.0000
  H   H15       1.0  0.16104  0.49286  0.30265  1.0000
  H   H16       1.0  0.18010  0.44381  0.26026  1.0000
  H   H17       1.0  0.31225  0.61023  0.19056  1.0000
  H   H18       1.0  0.57940  0.49047  0.03098  1.0000
  H   H19       1.0  0.62454  0.48150  0.03223  1.0000
  H   H20       1.0  0.60518  0.40946  0.46708  1.0000
  H   H21       1.0  0.56071  0.41938  0.47020  1.0000
  H   H22       1.0  0.69685  0.54307  0.37767  1.0000
  H   H23       1.0  0.76388  0.58586  0.35846  1.0000
  H   H24       1.0  0.57181  0.34716  0.18850  1.0000
  H   H25       1.0  0.57683  0.28308  0.19869  1.0000
  H   H26       1.0  0.68394  0.28071  0.20155  1.0000
  H   H27       1.0  0.75165  0.34140  0.18038  1.0000
  H   H28       1.0  0.84083  0.53328  0.22962  1.0000
  H   H29       1.0  0.81952  0.58054  0.25816  1.0000
  H   H30       1.0  0.68685  0.41041  0.30892  1.0000
  H   H31       1.0  0.49666  0.42799  0.00720  1.0000
  H   H32       1.0  0.48713  0.57294  0.46322  1.0000
  H   H33       1.0  0.51636  0.96355  0.27576  1.0000
  H   H34       1.0  0.56449  0.04655  0.29157  1.0000
  H   H35       1.0  0.48259  0.05968  0.23817  1.0000
  H   H36       1.0  0.43539  0.97743  0.23390  1.0000
  H   H37       1.0  0.58368  0.12039  0.29768  1.0000
  H   H38       1.0  0.41767  0.90516  0.24743  1.0000
  H   H39       1.0  0.06381  0.59477  0.41723  1.0000
  H   H40       1.0  0.00307  0.57399  0.39029  1.0000
  H   H41       1.0  0.93553  0.43329  0.08264  1.0000
  H   H42       1.0  0.99589  0.45416  0.10555  1.0000
  H   H43       1.0  0.93356  0.51995  0.26943  1.0000
  H   H44       1.0  0.06170  0.50370  0.22006  1.0000
  H   H45       1.0  0.80042  0.47572  0.61532  1.0000
  H   H46       1.0  0.73435  0.43488  0.64211  1.0000
  H   H47       1.0  0.92995  0.67280  0.85034  1.0000
  H   H48       1.0  0.92590  0.73805  0.84891  1.0000
  H   H49       1.0  0.88039  0.73135  0.50051  1.0000
  H   H50       1.0  0.92705  0.81273  0.49620  1.0000
  H   H51       1.0  0.91507  0.85683  0.95177  1.0000
  H   H52       1.0  0.87038  0.77614  0.96416  1.0000
  H   H53       1.0  0.80507  0.73035  0.66803  1.0000
  H   H54       1.0  0.73910  0.67259  0.70912  1.0000
  H   H55       1.0  0.66122  0.49126  0.79094  1.0000
  H   H56       1.0  0.68021  0.44223  0.74595  1.0000
  H   H57       1.0  0.81263  0.60840  0.66676  1.0000
  H   H58       1.0  0.19548  0.53908  0.87095  1.0000
  H   H59       1.0  0.26404  0.58311  0.86529  1.0000
  H   H60       1.0  0.06982  0.34253  0.65660  1.0000
  H   H61       1.0  0.07514  0.27854  0.66873  1.0000
  H   H62       1.0  0.08358  0.24462  0.42429  1.0000
  H   H63       1.0  0.03704  0.16162  0.41222  1.0000
  H   H64       1.0  0.11758  0.19325  0.99390  1.0000
  H   H65       1.0  0.16301  0.27630  0.00931  1.0000
  H   H66       1.0  0.18313  0.27710  0.68423  1.0000
  H   H67       1.0  0.25108  0.33824  0.66622  1.0000
  H   H68       1.0  0.31230  0.39969  0.92915  1.0000
  H   H69       1.0  0.36301  0.40422  0.90818  1.0000
  H   H70       1.0  0.31180  0.46451  0.47087  1.0000
  H   H71       1.0  0.36471  0.47243  0.46130  1.0000
  H   H72       1.0  0.34170  0.53072  0.73672  1.0000
  H   H73       1.0  0.32094  0.57845  0.76940  1.0000
  H   H74       1.0  0.18626  0.40714  0.80693  1.0000
  H   H75       1.0  0.92479  0.46103  0.57987  1.0000
  H   H76       1.0  0.94537  0.42210  0.49916  1.0000
  H   H77       1.0  0.06521  0.54316  0.87518  1.0000
  H   H78       1.0  0.04458  0.58230  0.94940  1.0000
  H   H79       1.0  0.00403  0.43562  0.49238  1.0000
  H   H80       1.0  0.98471  0.56881  0.94753  1.0000
  H   H81       1.0  0.08654  0.11700  0.79074  1.0000
  H   H82       1.0  0.91846  0.90185  0.72614  1.0000
  H   H83       1.0  0.43557  0.51903  0.78302  1.0000
  H   H84       1.0  0.56477  0.50503  0.72888  1.0000
  H   H85       1.0  0.19100  0.44126  0.61297  1.0000
  H   H86       1.0  0.23233  0.43704  0.73002  1.0000
  H   H87       1.0  0.31004  0.57871  0.40482  1.0000
  H   H88       1.0  0.26877  0.58436  0.28493  1.0000
  H   H89       1.0  0.81024  0.57840  0.87879  1.0000
  H   H90       1.0  0.76996  0.58377  0.78471  1.0000
  H   H91       1.0  0.68976  0.44362  0.11092  1.0000
  H   H92       1.0  0.73195  0.43983  0.22846  1.0000
  C   C1        1.0  0.42100  0.84228  0.22065  1.0000
  C   C2        1.0  0.41220  0.80720  0.09479  1.0000
  C   C3        1.0  0.38635  0.76145  0.09400  1.0000
  C   C4        1.0  0.36926  0.74891  0.22317  1.0000
  C   C5        1.0  0.37834  0.78425  0.34941  1.0000
  C   C6        1.0  0.40359  0.83004  0.34813  1.0000
  C   C7        1.0  0.40021  0.70285  0.30018  1.0000
  C   C8        1.0  0.36096  0.68074  0.25366  1.0000
  C   C9        1.0  0.36599  0.62627  0.27113  1.0000
  C   C10       1.0  0.25912  0.47373  0.19262  1.0000
  C   C11       1.0  0.29467  0.49576  0.18885  1.0000
  C   C12       1.0  0.31875  0.54428  0.25781  1.0000
  C   C13       1.0  0.26063  0.50820  0.26353  1.0000
  C   C14       1.0  0.35523  0.58307  0.26671  1.0000
  C   C15       1.0  0.18723  0.50569  0.29528  1.0000
  C   C16       1.0  0.19717  0.48031  0.27453  1.0000
  C   C17       1.0  0.23439  0.51098  0.27720  1.0000
  C   C18       1.0  0.21781  0.55215  0.30328  1.0000
  C   C19       1.0  0.29026  0.69805  0.19264  1.0000
  C   C20       1.0  0.25690  0.66865  0.21503  1.0000
  C   C21       1.0  0.25392  0.63099  0.26583  1.0000
  C   C22       1.0  0.30821  0.67886  0.23171  1.0000
  C   C23       1.0  0.34465  0.70064  0.23325  1.0000
  C   C24       1.0  0.22231  0.59159  0.29205  1.0000
  C   C25       1.0  0.40321  0.67010  0.31099  1.0000
  C   C26       1.0  0.38145  0.57716  0.26228  1.0000
  C   C27       1.0  0.39588  0.58959  0.12215  1.0000
  C   C28       1.0  0.41593  0.57811  0.09872  1.0000
  C   C29       1.0  0.42404  0.55574  0.22255  1.0000
  C   C30       1.0  0.41247  0.54660  0.37303  1.0000
  C   C31       1.0  0.39072  0.55611  0.38938  1.0000
  C   C32       1.0  0.59972  0.31935  0.21751  1.0000
  C   C33       1.0  0.63776  0.34046  0.24334  1.0000
  C   C34       1.0  0.63394  0.39597  0.24331  1.0000
  C   C35       1.0  0.73945  0.54886  0.31262  1.0000
  C   C36       1.0  0.70417  0.52653  0.31985  1.0000
  C   C37       1.0  0.68076  0.47809  0.25499  1.0000
  C   C38       1.0  0.73845  0.51470  0.24435  1.0000
  C   C39       1.0  0.64461  0.43917  0.24864  1.0000
  C   C40       1.0  0.81346  0.51938  0.22405  1.0000
  C   C41       1.0  0.80266  0.54397  0.24038  1.0000
  C   C42       1.0  0.76497  0.51250  0.23111  1.0000
  C   C43       1.0  0.78246  0.47236  0.20656  1.0000
  C   C44       1.0  0.70074  0.31721  0.21722  1.0000
  C   C45       1.0  0.73531  0.34821  0.20723  1.0000
  C   C46       1.0  0.74539  0.39218  0.22882  1.0000
  C   C47       1.0  0.68914  0.34183  0.24361  1.0000
  C   C48       1.0  0.65284  0.31990  0.24308  1.0000
  C   C49       1.0  0.77808  0.43296  0.21400  1.0000
  C   C50       1.0  0.59724  0.35249  0.21376  1.0000
  C   C51       1.0  0.61763  0.44412  0.24773  1.0000
  C   C52       1.0  0.61005  0.46715  0.12570  1.0000
  C   C53       1.0  0.58430  0.47167  0.12257  1.0000
  C   C54       1.0  0.56631  0.45459  0.24721  1.0000
  C   C55       1.0  0.57386  0.43169  0.37054  1.0000
  C   C56       1.0  0.59875  0.42624  0.36849  1.0000
  C   C57       1.0  0.51536  0.45519  0.14693  1.0000
  C   C58       1.0  0.46950  0.54750  0.31906  1.0000
  C   C59       1.0  0.47271  0.96497  0.25226  1.0000
  C   C60       1.0  0.50946  0.98502  0.26904  1.0000
  C   C61       1.0  0.53600  0.03116  0.27682  1.0000
  C   C62       1.0  0.52638  0.05839  0.26304  1.0000
  C   C63       1.0  0.48974  0.03844  0.24751  1.0000
  C   C64       1.0  0.46355  0.99259  0.24423  1.0000
  C   C65       1.0  0.55415  0.10607  0.26039  1.0000
  C   C66       1.0  0.44393  0.91643  0.24155  1.0000
  C   C67       1.0  0.03398  0.52570  0.26636  1.0000
  C   C68       1.0  0.03567  0.55961  0.34430  1.0000
  C   C69       1.0  0.00177  0.54795  0.32754  1.0000
  C   C70       1.0  0.96537  0.50221  0.23441  1.0000
  C   C71       1.0  0.96366  0.46847  0.15510  1.0000
  C   C72       1.0  0.99739  0.48016  0.17062  1.0000
  C   C73       1.0  0.93079  0.49071  0.22955  1.0000
  C   C74       1.0  0.06774  0.53488  0.27293  1.0000
  C   C75       1.0  0.92317  0.83999  0.71879  1.0000
  C   C76       1.0  0.91402  0.80424  0.59590  1.0000
  C   C77       1.0  0.88811  0.75896  0.59943  1.0000
  C   C78       1.0  0.87169  0.74766  0.73117  1.0000
  C   C79       1.0  0.88162  0.78374  0.85673  1.0000
  C   C80       1.0  0.90659  0.82905  0.84953  1.0000
  C   C81       1.0  0.90201  0.70111  0.80963  1.0000
  C   C82       1.0  0.86262  0.67922  0.75734  1.0000
  C   C83       1.0  0.86627  0.62368  0.75843  1.0000
  C   C84       1.0  0.75910  0.47175  0.68587  1.0000
  C   C85       1.0  0.79393  0.49303  0.67548  1.0000
  C   C86       1.0  0.81827  0.54171  0.74026  1.0000
  C   C87       1.0  0.76112  0.50684  0.75528  1.0000
  C   C88       1.0  0.85469  0.57993  0.74667  1.0000
  C   C89       1.0  0.68775  0.50429  0.78739  1.0000
  C   C90       1.0  0.69764  0.47894  0.76518  1.0000
  C   C91       1.0  0.73516  0.50986  0.77136  1.0000
  C   C92       1.0  0.71875  0.55102  0.80070  1.0000
  C   C93       1.0  0.79329  0.69837  0.70574  1.0000
  C   C94       1.0  0.75971  0.66902  0.72642  1.0000
  C   C95       1.0  0.75563  0.63032  0.77004  1.0000
  C   C96       1.0  0.81026  0.67802  0.73847  1.0000
  C   C97       1.0  0.84672  0.69950  0.74121  1.0000
  C   C98       1.0  0.72371  0.59083  0.79407  1.0000
  C   C99       1.0  0.90413  0.66762  0.80987  1.0000
  C   C100      1.0  0.07442  0.17179  0.70037  1.0000
  C   C101      1.0  0.06486  0.18696  0.54135  1.0000
  C   C102      1.0  0.09080  0.23327  0.54925  1.0000
  C   C103      1.0  0.12635  0.26630  0.71823  1.0000
  C   C104      1.0  0.13581  0.25107  0.87680  1.0000
  C   C105      1.0  0.11043  0.20443  0.86806  1.0000
  C   C106      1.0  0.09825  0.31511  0.69322  1.0000
  C   C107      1.0  0.13682  0.33667  0.72754  1.0000
  C   C108      1.0  0.13280  0.39203  0.72670  1.0000
  C   C109      1.0  0.23961  0.54606  0.81668  1.0000
  C   C110      1.0  0.20366  0.52321  0.81694  1.0000
  C   C111      1.0  0.18046  0.47484  0.74978  1.0000
  C   C112      1.0  0.23923  0.51229  0.75067  1.0000
  C   C113      1.0  0.14386  0.43550  0.73741  1.0000
  C   C114      1.0  0.31442  0.51704  0.73155  1.0000
  C   C115      1.0  0.30379  0.54177  0.74956  1.0000
  C   C116      1.0  0.26600  0.51030  0.73927  1.0000
  C   C117      1.0  0.28320  0.46995  0.71122  1.0000
  C   C118      1.0  0.20003  0.31369  0.70277  1.0000
  C   C119      1.0  0.23483  0.34491  0.69537  1.0000
  C   C120      1.0  0.24528  0.38904  0.72232  1.0000
  C   C121      1.0  0.18864  0.33839  0.73236  1.0000
  C   C122      1.0  0.15224  0.31639  0.73054  1.0000
  C   C123      1.0  0.27846  0.43024  0.71307  1.0000
  C   C124      1.0  0.09563  0.34816  0.68862  1.0000
  C   C125      1.0  0.30872  0.43264  0.70422  1.0000
  C   C126      1.0  0.32401  0.45285  0.57212  1.0000
  C   C127      1.0  0.35385  0.45752  0.56690  1.0000
  C   C128      1.0  0.36924  0.44138  0.69233  1.0000
  C   C129      1.0  0.35226  0.41818  0.81496  1.0000
  C   C130      1.0  0.32344  0.41517  0.82487  1.0000
  C   C131      1.0  0.98311  0.52412  0.76513  1.0000
  C   C132      1.0  0.95536  0.47861  0.64152  1.0000
  C   C133      1.0  0.96697  0.45706  0.59813  1.0000
  C   C134      1.0  0.00668  0.48029  0.68317  1.0000
  C   C135      1.0  0.03449  0.52539  0.81145  1.0000
  C   C136      1.0  0.02284  0.54713  0.85227  1.0000
  C   C137      1.0  0.01964  0.45811  0.64149  1.0000
  C   C138      1.0  0.96994  0.54678  0.79849  1.0000
  C   C139      1.0  0.05662  0.10228  0.74528  1.0000
  C   C140      1.0  0.94517  0.91328  0.72589  1.0000
  C   C141      1.0  0.43276  0.48993  0.73904  1.0000
  C   C142      1.0  0.57055  0.53592  0.78359  1.0000
  N   N1        1.0  0.34157  0.63476  0.24003  1.0000
  N   N2        1.0  0.29704  0.55021  0.30197  1.0000
  N   N3        1.0  0.24600  0.55378  0.30050  1.0000
  N   N4        1.0  0.28523  0.63760  0.27148  1.0000
  N   N5        1.0  0.65745  0.38668  0.25895  1.0000
  N   N6        1.0  0.70256  0.47254  0.21003  1.0000
  N   N7        1.0  0.75354  0.46978  0.20447  1.0000
  N   N8        1.0  0.71676  0.38742  0.25215  1.0000
  N   N9        1.0  0.54733  0.46745  0.27523  1.0000
  N   N10       1.0  0.43966  0.53887  0.18392  1.0000
  N   N11       1.0  0.54435  0.12959  0.20880  1.0000
  N   N12       1.0  0.44835  0.88791  0.22017  1.0000
  N   N13       1.0  0.89916  0.44872  0.19420  1.0000
  N   N14       1.0  0.10209  0.57567  0.33155  1.0000
  N   N15       1.0  0.84222  0.63265  0.73069  1.0000
  N   N16       1.0  0.79720  0.54834  0.78731  1.0000
  N   N17       1.0  0.74701  0.55275  0.79823  1.0000
  N   N18       1.0  0.78645  0.63620  0.77261  1.0000
  N   N19       1.0  0.15668  0.38307  0.74647  1.0000
  N   N20       1.0  0.20309  0.46988  0.71107  1.0000
  N   N21       1.0  0.25440  0.46748  0.71040  1.0000
  N   N22       1.0  0.21656  0.38416  0.74488  1.0000
  N   N23       1.0  0.04868  0.46575  0.77865  1.0000
  N   N24       1.0  0.94170  0.54015  0.65752  1.0000
  N   N25       1.0  0.04649  0.12527  0.68862  1.0000
  N   N26       1.0  0.95021  0.88510  0.71320  1.0000
  N   N27       1.0  0.40070  0.44779  0.69654  1.0000
  N   N28       1.0  0.60481  0.57687  0.84224  1.0000
  C   C143      1.0  0.48229  0.02451  0.71003  1.0000
  C   C144      1.0  0.52114  0.05108  0.74794  1.0000
  C  Sn1       1.0  0.53688  0.03091  0.77304  1.0000
  C  Sn2       1.0  0.51321  0.98325  0.75980  1.0000
  C   C145      1.0  0.47438  0.95696  0.72169  1.0000
  C   C146      1.0  0.45893  0.97749  0.69688  1.0000
  H   H93       1.0  0.47033  0.04039  0.69072  1.0000
  O  Te1       1.0  0.07439  0.05797  0.81089  1.0000
  O  Te2       1.0  0.52820  0.96221  0.78421  1.0000
  H   H94       1.0  0.42884  0.95690  0.66740  1.0000
  Mg  Mg1       1.0  0.58285  0.01354  0.83330  1.0000
  C   C147      1.0  0.52885  0.54636  0.36702  1.0000
  C   C148      1.0  0.49172  0.53085  0.30195  1.0000
  C  Sn3       1.0  0.45864  0.48596  0.17927  1.0000
  C  Sn4       1.0  0.46289  0.45612  0.12095  1.0000
  C   C149      1.0  0.50015  0.47195  0.18696  1.0000
  C   C150      1.0  0.53306  0.51694  0.30963  1.0000
  H   H95       1.0  0.55431  0.58115  0.46201  1.0000
  O  Te3       1.0  0.42177  0.47103  0.11555  1.0000
  O  Te4       1.0  0.51995  0.48023  0.99850  1.0000
  H   H96       1.0  0.56180  0.52893  0.36009  1.0000
  Mg  Mg2       1.0  0.47585  0.47582  0.95022  1.0000
  C   C151      1.0  0.62754  0.54435  0.65062  1.0000
  C   C152      1.0  0.63021  0.57073  0.78802  1.0000
  C  Sn5       1.0  0.66662  0.60949  0.93498  1.0000
  C  Sn6       1.0  0.70095  0.62199  0.94414  1.0000
  C   C153      1.0  0.69797  0.59539  0.80591  1.0000
  C   C154      1.0  0.66138  0.55666  0.65950  1.0000
  H   H97       1.0  0.59923  0.51440  0.53728  1.0000
  O  Te5       1.0  0.57913  0.56632  0.07113  1.0000
  O  Te6       1.0  0.64809  0.59143  0.08944  1.0000
  H   H98       1.0  0.65932  0.53625  0.55307  1.0000
  Mg  Mg3       1.0  0.63592  0.61588  0.24170  1.0000
  C   C155      1.0  0.19736  0.62862  0.44687  1.0000
  C   C156      1.0  0.19487  0.59782  0.33665  1.0000
  C  Sn7       1.0  0.15858  0.55706  0.19837  1.0000
  C  Sn8       1.0  0.12418  0.54704  0.17021  1.0000
  C   C157      1.0  0.12698  0.57808  0.28111  1.0000
  C   C158      1.0  0.16345  0.61877  0.41913  1.0000
  H   H99       1.0  0.22558  0.66011  0.55359  1.0000
  O  Te7       1.0  0.15662  0.52666  0.08955  1.0000
  O  Te8       1.0  0.08753  0.50655  0.03294  1.0000
  H   H100      1.0  0.16537  0.64262  0.50435  1.0000
  Mg  Mg4       1.0  0.18956  0.54510  0.92016  1.0000
  C   C159      1.0  0.90470  0.54053  0.86085  1.0000
  C   C160      1.0  0.92038  0.55010  0.72853  1.0000
  C  Sn9       1.0  0.91757  0.57492  0.60184  1.0000
  C  Sn10      1.0  0.89870  0.59043  0.60811  1.0000
  C   C161      1.0  0.88313  0.58071  0.74112  1.0000
  C   C162      1.0  0.88610  0.55583  0.86719  1.0000
  H   H101      1.0  0.90701  0.52130  0.95848  1.0000
  O  Te9       1.0  0.93338  0.58417  0.47049  1.0000
  O  Te10      1.0  0.89549  0.61533  0.48319  1.0000
  H   H102      1.0  0.87398  0.54845  0.96971  1.0000
  Mg  Mg5       1.0  0.92165  0.61931  0.32986  1.0000
  C   C163      1.0  0.56577  0.20042  0.03431  1.0000
  C   C164      1.0  0.57021  0.17838  0.17212  1.0000
  C  Sn11      1.0  0.60395  0.20389  0.35070  1.0000
  C  Sn12      1.0  0.63376  0.25236  0.39169  1.0000
  C   C165      1.0  0.62903  0.27409  0.25291  1.0000
  C   C166      1.0  0.59515  0.24823  0.07465  1.0000
  H   H103      1.0  0.62918  0.24956  0.89643  1.0000
  O  Te11      1.0  0.60792  0.18132  0.48671  1.0000
  O  Te12      1.0  0.66778  0.27870  0.56904  1.0000
  H   H104      1.0  0.68134  0.33445  0.96804  1.0000
  Mg  Mg6       1.0  0.65964  0.23217  0.70754  1.0000
  C   C167      1.0  0.51468  0.55674  0.85722  1.0000
  C   C168      1.0  0.47617  0.51450  0.75963  1.0000
  C  Sn13      1.0  0.46795  0.47586  0.67325  1.0000
  C  Sn14      1.0  0.49893  0.47969  0.68507  1.0000
  C   C169      1.0  0.53736  0.52210  0.78315  1.0000
  C   C170      1.0  0.54525  0.56055  0.86902  1.0000
  H   H105      1.0  0.52079  0.58649  0.92376  1.0000
  O  Te13      1.0  0.42931  0.43392  0.57624  1.0000
  O  Te14      1.0  0.49155  0.44162  0.60010  1.0000
  H   H106      1.0  0.57507  0.59324  0.94468  1.0000
  Mg  Mg7       1.0  0.43404  0.39189  0.48378  1.0000
  C   C171      1.0  0.09142  0.47175  0.60000  1.0000
  C   C172      1.0  0.06940  0.45513  0.70386  1.0000
  C  Sn15      1.0  0.07240  0.43123  0.83537  1.0000
  C  Sn16      1.0  0.09795  0.42390  0.86314  1.0000
  C   C173      1.0  0.11987  0.44070  0.75864  1.0000
  C   C174      1.0  0.11664  0.46456  0.62737  1.0000
  H   H107      1.0  0.08894  0.49024  0.49851  1.0000
  O  Te15      1.0  0.05018  0.41483  0.93789  1.0000
  O  Te16      1.0  0.10152  0.40014  0.99372  1.0000
  H   H108      1.0  0.13371  0.47745  0.54707  1.0000
  Mg  Mg8       1.0  0.97552  0.31531  0.09943  1.0000
  C   C175      1.0  0.82958  0.45815  0.04768  1.0000
  C   C176      1.0  0.80938  0.43699  0.15906  1.0000
  C  Sn17      1.0  0.82014  0.41927  0.29885  1.0000
  C  Sn18      1.0  0.85174  0.42286  0.32737  1.0000
  C   C177      1.0  0.87178  0.44412  0.21530  1.0000
  C   C178      1.0  0.86076  0.46172  0.07577  1.0000
  H   H109      1.0  0.91070  0.54093  0.93980  1.0000
  O  Te17      1.0  0.79963  0.39822  0.40881  1.0000
  O  Te18      1.0  0.86312  0.40546  0.46614  1.0000
  H   H110      1.0  0.96606  0.54727  0.98965  1.0000
  Mg  Mg9       1.0  0.82614  0.37978  0.58007  1.0000
