data_image0
_chemical_formula_structural       H92C142N28SnCSn2CSnTe4Mg2SnCSn2CSnTe4Mg2SnCSn2CSnTe4Mg2SnCSn2CSnTe4Mg2SnCSn2CSnTe4Mg2SnCSn2CSnTe4Mg2SnCSn2CSnTe4Mg2SnCSn2CSnTe4Mg2SnCSn2CSnTe4Mg2
_chemical_formula_sum              "H92 C160 N28 Sn36 Te36 Mg18"
_cell_length_a       49.7604
_cell_length_b       39.2264
_cell_length_c       7.64536
_cell_angle_alpha    89.0686
_cell_angle_beta     110.962
_cell_angle_gamma    129.494

_symmetry_space_group_name_H-M    'P1'
_space_group_IT_number       1

loop_
  _space_group_symop_operation_xyz
  'x, y, z'

loop_
  _atom_site_type_symbol
  _atom_site_label
  _atom_site_symmetry_multiplicity
  _atom_site_fract_x
  _atom_site_fract_y
  _atom_site_fract_z
  _atom_site_occupancy
  H   H1        1.0  0.42491  0.58537  0.98256  1.0000
  H   H2        1.0  0.38917  0.60624  0.02419  1.0000
  H   H3        1.0  0.38056  0.54705  0.50135  1.0000
  H   H4        1.0  0.41943  0.53006  0.47054  1.0000
  H   H5        1.0  0.30179  0.47917  0.12929  1.0000
  H   H6        1.0  0.23423  0.43680  0.14230  1.0000
  H   H7        1.0  0.42924  0.67578  0.35049  1.0000
  H   H8        1.0  0.42343  0.73955  0.32860  1.0000
  H   H9        1.0  0.37908  0.73461  0.99236  1.0000
  H   H10       1.0  0.42577  0.81670  0.99718  1.0000
  H   H11       1.0  0.41158  0.85710  0.45257  1.0000
  H   H12       1.0  0.36617  0.77560  0.45313  1.0000
  H   H13       1.0  0.30117  0.72916  0.14849  1.0000
  H   H14       1.0  0.23581  0.67157  0.19441  1.0000
  H   H15       1.0  0.16104  0.49286  0.30265  1.0000
  H   H16       1.0  0.18010  0.44381  0.26026  1.0000
  H   H17       1.0  0.31225  0.61023  0.19056  1.0000
  H   H18       1.0  0.57940  0.49047  0.03098  1.0000
  H   H19       1.0  0.62454  0.48150  0.03223  1.0000
  H   H20       1.0  0.60518  0.40946  0.46708  1.0000
  H   H21       1.0  0.56071  0.41938  0.47020  1.0000
  H   H22       1.0  0.69685  0.54307  0.37767  1.0000
  H   H23       1.0  0.76388  0.58586  0.35846  1.0000
  H   H24       1.0  0.57181  0.34716  0.18850  1.0000
  H   H25       1.0  0.57683  0.28308  0.19869  1.0000
  H   H26       1.0  0.58333  0.24834  0.93788  1.0000
  H   H27       1.0  0.53579  0.16612  0.92915  1.0000
  H   H28       1.0  0.61608  0.19692  0.51014  1.0000
  H   H29       1.0  0.66303  0.27930  0.52127  1.0000
  H   H30       1.0  0.68394  0.28071  0.20155  1.0000
  H   H31       1.0  0.75165  0.34140  0.18038  1.0000
  H   H32       1.0  0.81346  0.40533  0.44005  1.0000
  H   H33       1.0  0.86401  0.40918  0.42054  1.0000
  H   H34       1.0  0.80925  0.46367  0.96111  1.0000
  H   H35       1.0  0.86178  0.47064  0.95132  1.0000
  H   H36       1.0  0.84083  0.53328  0.22962  1.0000
  H   H37       1.0  0.81952  0.58054  0.25816  1.0000
  H   H38       1.0  0.68685  0.41041  0.30892  1.0000
  H   H39       1.0  0.42240  0.46032  0.10840  1.0000
  H   H40       1.0  0.44099  0.41934  0.02213  1.0000
  H   H41       1.0  0.56217  0.54194  0.36232  1.0000
  H   H42       1.0  0.54322  0.58168  0.45389  1.0000
  H   H43       1.0  0.49666  0.42799  0.00720  1.0000
  H   H44       1.0  0.48713  0.57294  0.46322  1.0000
  H   H45       1.0  0.58368  0.12039  0.29768  1.0000
  H   H46       1.0  0.41767  0.90516  0.24743  1.0000
  H   H47       1.0  0.93356  0.51995  0.26943  1.0000
  H   H48       1.0  0.06170  0.50370  0.22006  1.0000
  H   H49       1.0  0.80042  0.47572  0.61532  1.0000
  H   H50       1.0  0.73435  0.43488  0.64211  1.0000
  H   H51       1.0  0.92995  0.67280  0.85034  1.0000
  H   H52       1.0  0.92590  0.73805  0.84891  1.0000
  H   H53       1.0  0.80507  0.73035  0.66803  1.0000
  H   H54       1.0  0.73910  0.67259  0.70912  1.0000
  H   H55       1.0  0.66122  0.49126  0.79094  1.0000
  H   H56       1.0  0.68021  0.44223  0.74595  1.0000
  H   H57       1.0  0.81263  0.60840  0.66676  1.0000
  H   H58       1.0  0.07930  0.48787  0.52735  1.0000
  H   H59       1.0  0.12258  0.47648  0.51726  1.0000
  H   H60       1.0  0.10535  0.40646  0.96018  1.0000
  H   H61       1.0  0.06225  0.41820  0.97079  1.0000
  H   H62       1.0  0.19548  0.53908  0.87095  1.0000
  H   H63       1.0  0.26404  0.58311  0.86529  1.0000
  H   H64       1.0  0.06982  0.34253  0.65660  1.0000
  H   H65       1.0  0.07514  0.27854  0.66873  1.0000
  H   H66       1.0  0.18313  0.27710  0.68423  1.0000
  H   H67       1.0  0.25108  0.33824  0.66622  1.0000
  H   H68       1.0  0.34170  0.53072  0.73672  1.0000
  H   H69       1.0  0.32094  0.57845  0.76940  1.0000
  H   H70       1.0  0.18626  0.40714  0.80693  1.0000
  H   H71       1.0  0.92479  0.46103  0.57987  1.0000
  H   H72       1.0  0.94537  0.42210  0.49916  1.0000
  H   H73       1.0  0.06521  0.54316  0.87518  1.0000
  H   H74       1.0  0.04458  0.58230  0.94940  1.0000
  H   H75       1.0  0.00403  0.43562  0.49238  1.0000
  H   H76       1.0  0.98471  0.56881  0.94753  1.0000
  H   H77       1.0  0.01852  0.96020  0.77812  1.0000
  H   H78       1.0  0.06725  0.04319  0.79239  1.0000
  H   H79       1.0  0.98415  0.05607  0.70365  1.0000
  H   H80       1.0  0.93584  0.97361  0.69673  1.0000
  H   H81       1.0  0.08654  0.11700  0.79074  1.0000
  H   H82       1.0  0.91846  0.90185  0.72614  1.0000
  H   H83       1.0  0.43557  0.51903  0.78302  1.0000
  H   H84       1.0  0.56477  0.50503  0.72888  1.0000
  H   H85       1.0  0.19100  0.44126  0.61297  1.0000
  H   H86       1.0  0.23233  0.43704  0.73002  1.0000
  H   H87       1.0  0.31004  0.57871  0.40482  1.0000
  H   H88       1.0  0.26877  0.58436  0.28493  1.0000
  H   H89       1.0  0.81024  0.57840  0.87879  1.0000
  H   H90       1.0  0.76996  0.58377  0.78471  1.0000
  H   H91       1.0  0.68976  0.44362  0.11092  1.0000
  H   H92       1.0  0.73195  0.43983  0.22846  1.0000
  C   C1        1.0  0.42100  0.84228  0.22065  1.0000
  C   C2        1.0  0.41220  0.80720  0.09479  1.0000
  C   C3        1.0  0.38635  0.76145  0.09400  1.0000
  C   C4        1.0  0.36926  0.74891  0.22317  1.0000
  C   C5        1.0  0.37834  0.78425  0.34941  1.0000
  C   C6        1.0  0.40359  0.83004  0.34813  1.0000
  C   C7        1.0  0.40021  0.70285  0.30018  1.0000
  C   C8        1.0  0.36096  0.68074  0.25366  1.0000
  C   C9        1.0  0.36599  0.62627  0.27113  1.0000
  C   C10       1.0  0.25912  0.47373  0.19262  1.0000
  C   C11       1.0  0.29467  0.49576  0.18885  1.0000
  C   C12       1.0  0.31875  0.54428  0.25781  1.0000
  C   C13       1.0  0.26063  0.50820  0.26353  1.0000
  C   C14       1.0  0.35523  0.58307  0.26671  1.0000
  C   C15       1.0  0.18723  0.50569  0.29528  1.0000
  C   C16       1.0  0.19717  0.48031  0.27453  1.0000
  C   C17       1.0  0.23439  0.51098  0.27720  1.0000
  C   C18       1.0  0.21781  0.55215  0.30328  1.0000
  C   C19       1.0  0.29026  0.69805  0.19264  1.0000
  C   C20       1.0  0.25690  0.66865  0.21503  1.0000
  C   C21       1.0  0.25392  0.63099  0.26583  1.0000
  C   C22       1.0  0.30821  0.67886  0.23171  1.0000
  C   C23       1.0  0.34465  0.70064  0.23325  1.0000
  C   C24       1.0  0.22231  0.59159  0.29205  1.0000
  C   C25       1.0  0.40321  0.67010  0.31099  1.0000
  C   C26       1.0  0.38145  0.57716  0.26228  1.0000
  C   C27       1.0  0.39588  0.58959  0.12215  1.0000
  C   C28       1.0  0.41593  0.57811  0.09872  1.0000
  C   C29       1.0  0.42404  0.55574  0.22255  1.0000
  C   C30       1.0  0.41247  0.54660  0.37303  1.0000
  C   C31       1.0  0.39072  0.55611  0.38938  1.0000
  C   C32       1.0  0.57283  0.17582  0.21756  1.0000
  C   C33       1.0  0.56376  0.19109  0.05778  1.0000
  C   C34       1.0  0.59052  0.23710  0.06340  1.0000
  C   C35       1.0  0.62651  0.26981  0.23093  1.0000
  C   C36       1.0  0.63554  0.25438  0.38969  1.0000
  C   C37       1.0  0.60930  0.20803  0.38324  1.0000
  C   C38       1.0  0.59972  0.31935  0.21751  1.0000
  C   C39       1.0  0.63776  0.34046  0.24334  1.0000
  C   C40       1.0  0.63394  0.39597  0.24331  1.0000
  C   C41       1.0  0.73945  0.54886  0.31262  1.0000
  C   C42       1.0  0.70417  0.52653  0.31985  1.0000
  C   C43       1.0  0.68076  0.47809  0.25499  1.0000
  C   C44       1.0  0.73845  0.51470  0.24435  1.0000
  C   C45       1.0  0.64461  0.43917  0.24864  1.0000
  C   C46       1.0  0.81346  0.51938  0.22405  1.0000
  C   C47       1.0  0.80266  0.54397  0.24038  1.0000
  C   C48       1.0  0.76497  0.51250  0.23111  1.0000
  C   C49       1.0  0.78246  0.47236  0.20656  1.0000
  C   C50       1.0  0.70074  0.31721  0.21722  1.0000
  C   C51       1.0  0.73531  0.34821  0.20723  1.0000
  C   C52       1.0  0.74539  0.39218  0.22882  1.0000
  C   C53       1.0  0.68914  0.34183  0.24361  1.0000
  C   C54       1.0  0.65284  0.31990  0.24308  1.0000
  C   C55       1.0  0.77808  0.43296  0.21400  1.0000
  C   C56       1.0  0.59724  0.35249  0.21376  1.0000
  C   C57       1.0  0.61763  0.44412  0.24773  1.0000
  C   C58       1.0  0.80818  0.43509  0.20481  1.0000
  C   C59       1.0  0.61005  0.46715  0.12570  1.0000
  C   C60       1.0  0.58430  0.47167  0.12257  1.0000
  C   C61       1.0  0.56631  0.45459  0.24721  1.0000
  C   C62       1.0  0.57386  0.43169  0.37054  1.0000
  C   C63       1.0  0.59875  0.42624  0.36849  1.0000
  C   C64       1.0  0.82224  0.45334  0.06682  1.0000
  C   C65       1.0  0.85182  0.45746  0.06140  1.0000
  C   C66       1.0  0.86806  0.44281  0.19219  1.0000
  C   C67       1.0  0.85244  0.42178  0.32207  1.0000
  C   C68       1.0  0.82379  0.41918  0.33148  1.0000
  C   C69       1.0  0.48135  0.52344  0.28261  1.0000
  C   C70       1.0  0.45278  0.47742  0.16334  1.0000
  C   C71       1.0  0.46335  0.45489  0.11617  1.0000
  C   C72       1.0  0.50296  0.47809  0.18927  1.0000
  C   C73       1.0  0.53161  0.52406  0.31021  1.0000
  C   C74       1.0  0.52092  0.54626  0.35904  1.0000
  C   C75       1.0  0.51536  0.45519  0.14693  1.0000
  C   C76       1.0  0.46950  0.54750  0.31906  1.0000
  C   C77       1.0  0.55415  0.10607  0.26039  1.0000
  C   C78       1.0  0.44393  0.91643  0.24155  1.0000
  C   C79       1.0  0.93079  0.49071  0.22955  1.0000
  C   C80       1.0  0.06774  0.53488  0.27293  1.0000
  C   C81       1.0  0.90201  0.70111  0.80963  1.0000
  C   C82       1.0  0.86262  0.67922  0.75734  1.0000
  C   C83       1.0  0.86627  0.62368  0.75843  1.0000
  C   C84       1.0  0.75910  0.47175  0.68587  1.0000
  C   C85       1.0  0.79393  0.49303  0.67548  1.0000
  C   C86       1.0  0.81827  0.54171  0.74026  1.0000
  C   C87       1.0  0.76112  0.50684  0.75528  1.0000
  C   C88       1.0  0.85469  0.57993  0.74667  1.0000
  C   C89       1.0  0.68775  0.50429  0.78739  1.0000
  C   C90       1.0  0.69764  0.47894  0.76518  1.0000
  C   C91       1.0  0.73516  0.50986  0.77136  1.0000
  C   C92       1.0  0.71875  0.55102  0.80070  1.0000
  C   C93       1.0  0.79329  0.69837  0.70574  1.0000
  C   C94       1.0  0.75971  0.66902  0.72642  1.0000
  C   C95       1.0  0.75563  0.63032  0.77004  1.0000
  C   C96       1.0  0.81026  0.67802  0.73847  1.0000
  C   C97       1.0  0.84672  0.69950  0.74121  1.0000
  C   C98       1.0  0.72371  0.59083  0.79407  1.0000
  C   C99       1.0  0.90413  0.66762  0.80987  1.0000
  C   C100      1.0  0.09825  0.31511  0.69322  1.0000
  C   C101      1.0  0.13682  0.33667  0.72754  1.0000
  C   C102      1.0  0.13280  0.39203  0.72670  1.0000
  C   C103      1.0  0.23961  0.54606  0.81668  1.0000
  C   C104      1.0  0.20366  0.52321  0.81694  1.0000
  C   C105      1.0  0.18046  0.47484  0.74978  1.0000
  C   C106      1.0  0.23923  0.51229  0.75067  1.0000
  C   C107      1.0  0.14386  0.43550  0.73741  1.0000
  C   C108      1.0  0.31442  0.51704  0.73155  1.0000
  C   C109      1.0  0.30379  0.54177  0.74956  1.0000
  C   C110      1.0  0.26600  0.51030  0.73927  1.0000
  C   C111      1.0  0.28320  0.46995  0.71122  1.0000
  C   C112      1.0  0.20003  0.31369  0.70277  1.0000
  C   C113      1.0  0.23483  0.34491  0.69537  1.0000
  C   C114      1.0  0.24528  0.38904  0.72232  1.0000
  C   C115      1.0  0.18864  0.33839  0.73236  1.0000
  C   C116      1.0  0.15224  0.31639  0.73054  1.0000
  C   C117      1.0  0.27846  0.43024  0.71307  1.0000
  C   C118      1.0  0.09563  0.34816  0.68862  1.0000
  C   C119      1.0  0.11687  0.44037  0.73732  1.0000
  C   C120      1.0  0.10902  0.46316  0.61496  1.0000
  C   C121      1.0  0.08430  0.46896  0.61766  1.0000
  C   C122      1.0  0.06748  0.45300  0.74723  1.0000
  C   C123      1.0  0.07496  0.42991  0.86928  1.0000
  C   C124      1.0  0.09891  0.42333  0.86231  1.0000
  C   C125      1.0  0.98311  0.52412  0.76513  1.0000
  C   C126      1.0  0.95536  0.47861  0.64152  1.0000
  C   C127      1.0  0.96697  0.45706  0.59813  1.0000
  C   C128      1.0  0.00668  0.48029  0.68317  1.0000
  C   C129      1.0  0.03449  0.52539  0.81145  1.0000
  C   C130      1.0  0.02284  0.54713  0.85227  1.0000
  C   C131      1.0  0.01964  0.45811  0.64149  1.0000
  C   C132      1.0  0.96994  0.54678  0.79849  1.0000
  C   C133      1.0  0.97406  0.96155  0.73476  1.0000
  C   C134      1.0  0.01141  0.98154  0.76226  1.0000
  C   C135      1.0  0.03824  0.02753  0.76936  1.0000
  C   C136      1.0  0.02840  0.05455  0.74544  1.0000
  C   C137      1.0  0.99120  0.03469  0.71980  1.0000
  C   C138      1.0  0.96456  0.98892  0.71584  1.0000
  C   C139      1.0  0.05662  0.10228  0.74528  1.0000
  C   C140      1.0  0.94517  0.91328  0.72589  1.0000
  C   C141      1.0  0.43276  0.48993  0.73904  1.0000
  C   C142      1.0  0.57055  0.53592  0.78359  1.0000
  N   N1        1.0  0.34157  0.63476  0.24003  1.0000
  N   N2        1.0  0.29704  0.55021  0.30197  1.0000
  N   N3        1.0  0.24600  0.55378  0.30050  1.0000
  N   N4        1.0  0.28523  0.63760  0.27148  1.0000
  N   N5        1.0  0.65745  0.38668  0.25895  1.0000
  N   N6        1.0  0.70256  0.47254  0.21003  1.0000
  N   N7        1.0  0.75354  0.46978  0.20447  1.0000
  N   N8        1.0  0.71676  0.38742  0.25215  1.0000
  N   N9        1.0  0.54733  0.46745  0.27523  1.0000
  N   N10       1.0  0.43966  0.53887  0.18392  1.0000
  N   N11       1.0  0.54435  0.12959  0.20880  1.0000
  N   N12       1.0  0.44835  0.88791  0.22017  1.0000
  N   N13       1.0  0.89916  0.44872  0.19420  1.0000
  N   N14       1.0  0.10209  0.57567  0.33155  1.0000
  N   N15       1.0  0.84222  0.63265  0.73069  1.0000
  N   N16       1.0  0.79720  0.54834  0.78731  1.0000
  N   N17       1.0  0.74701  0.55275  0.79823  1.0000
  N   N18       1.0  0.78645  0.63620  0.77261  1.0000
  N   N19       1.0  0.15668  0.38307  0.74647  1.0000
  N   N20       1.0  0.20309  0.46988  0.71107  1.0000
  N   N21       1.0  0.25440  0.46748  0.71040  1.0000
  N   N22       1.0  0.21656  0.38416  0.74488  1.0000
  N   N23       1.0  0.04868  0.46575  0.77865  1.0000
  N   N24       1.0  0.94170  0.54015  0.65752  1.0000
  N   N25       1.0  0.04649  0.12527  0.68862  1.0000
  N   N26       1.0  0.95021  0.88510  0.71320  1.0000
  N   N27       1.0  0.40070  0.44779  0.69654  1.0000
  N   N28       1.0  0.60481  0.57687  0.84224  1.0000
  C  Sn1       1.0  0.33786  0.42659  0.87413  1.0000
  C   C143      1.0  0.31989  0.44135  0.76342  1.0000
  C  Sn2       1.0  0.32292  0.45157  0.59187  1.0000
  C  Sn3       1.0  0.34435  0.44689  0.52958  1.0000
  C   C144      1.0  0.36230  0.43213  0.64024  1.0000
  C  Sn4       1.0  0.35929  0.42192  0.81185  1.0000
  O  Te1       1.0  0.24481  0.34742  0.04514  1.0000
  O  Te2       1.0  0.30471  0.46628  0.48367  1.0000
  O  Te3       1.0  0.34776  0.45693  0.35842  1.0000
  O  Te4       1.0  0.37747  0.40720  0.91999  1.0000
  Mg  Mg1       1.0  0.31776  0.47576  0.26103  1.0000
  Mg  Mg2       1.0  0.27480  0.32855  0.14258  1.0000
  C  Sn5       1.0  0.87743  0.79214  0.82467  1.0000
  C   C145      1.0  0.86577  0.75296  0.71585  1.0000
  C  Sn6       1.0  0.88590  0.75748  0.61502  1.0000
  C  Sn7       1.0  0.91837  0.80209  0.62321  1.0000
  C   C146      1.0  0.93002  0.84124  0.73200  1.0000
  C  Sn8       1.0  0.90990  0.83675  0.83286  1.0000
  O  Te5       1.0  0.85687  0.78681  0.92433  1.0000
  O  Te6       1.0  0.87369  0.71780  0.50715  1.0000
  O  Te7       1.0  0.93893  0.80740  0.52343  1.0000
  O  Te8       1.0  0.92210  0.87640  0.94070  1.0000
  Mg  Mg3       1.0  0.91111  0.74294  0.39648  1.0000
  Mg  Mg4       1.0  0.79508  0.78216  0.05151  1.0000
  C  Sn9       1.0  0.89477  0.52905  0.80423  1.0000
  C   C147      1.0  0.91360  0.54317  0.68483  1.0000
  C  Sn10      1.0  0.91950  0.57787  0.60066  1.0000
  C  Sn11      1.0  0.90633  0.59892  0.63666  1.0000
  C   C148      1.0  0.88753  0.58481  0.75602  1.0000
  C  Sn12      1.0  0.88161  0.55011  0.84024  1.0000
  O  Te9       1.0  0.88919  0.49430  0.88687  1.0000
  O  Te10      1.0  0.93838  0.59138  0.48175  1.0000
  O  Te11      1.0  0.91194  0.63369  0.55390  1.0000
  O  Te12      1.0  0.86274  0.53659  0.95911  1.0000
  Mg  Mg5       1.0  0.93919  0.64021  0.40245  1.0000
  Mg  Mg6       1.0  0.77231  0.41864  0.03856  1.0000
  C  Sn13      1.0  0.52766  0.01744  0.21671  1.0000
  C   C149      1.0  0.52391  0.04985  0.21671  1.0000
  C  Sn14      1.0  0.49466  0.04096  0.25250  1.0000
  C  Sn15      1.0  0.96998  0.99880  0.28918  1.0000
  C   C150      1.0  0.97374  0.96642  0.28921  1.0000
  C  Sn16      1.0  0.00298  0.97528  0.25339  1.0000
  O  Te13      1.0  0.55712  0.02706  0.18058  1.0000
  O  Te14      1.0  0.49148  0.07388  0.25167  1.0000
  O  Te15      1.0  0.94051  0.98920  0.32532  1.0000
  O  Te16      1.0  0.00617  0.94238  0.25424  1.0000
  Mg  Mg7       1.0  0.44662  0.04489  0.30882  1.0000
  Mg  Mg8       1.0  0.05103  0.97135  0.19722  1.0000
  C  Sn17      1.0  0.47396  0.46472  0.71851  1.0000
  C   C151      1.0  0.46985  0.49378  0.78092  1.0000
  C  Sn18      1.0  0.49941  0.54168  0.82799  1.0000
  C  Sn19      1.0  0.53378  0.56094  0.81225  1.0000
  C   C152      1.0  0.53788  0.53189  0.74983  1.0000
  C  Sn20      1.0  0.50834  0.48398  0.70276  1.0000
  O  Te17      1.0  0.44404  0.41693  0.67220  1.0000
  O  Te18      1.0  0.49464  0.57003  0.89012  1.0000
  O  Te19      1.0  0.56371  0.60877  0.85862  1.0000
  O  Te20      1.0  0.51309  0.45563  0.64063  1.0000
  Mg  Mg9       1.0  0.54359  0.63302  0.93640  1.0000
  Mg  Mg10      1.0  0.46415  0.39264  0.59422  1.0000
  C  Sn21      1.0  0.12653  0.53721  0.20618  1.0000
  C   C153      1.0  0.12971  0.56725  0.32643  1.0000
  C  Sn22      1.0  0.16532  0.61252  0.42690  1.0000
  C  Sn23      1.0  0.19844  0.62810  0.40667  1.0000
  C   C154      1.0  0.19525  0.59807  0.28646  1.0000
  C  Sn24      1.0  0.15965  0.55279  0.18595  1.0000
  O  Te21      1.0  0.09064  0.49210  0.10711  1.0000
  O  Te22      1.0  0.16778  0.64191  0.54633  1.0000
  O  Te23      1.0  0.23434  0.67325  0.50588  1.0000
  O  Te24      1.0  0.15718  0.52341  0.06656  1.0000
  Mg  Mg11      1.0  0.22304  0.70027  0.65119  1.0000
  Mg  Mg12      1.0  0.19156  0.53420  0.96155  1.0000
  C  Sn25      1.0  0.07846  0.22522  0.55737  1.0000
  C   C155      1.0  0.11552  0.26163  0.70832  1.0000
  C  Sn26      1.0  0.13451  0.25271  0.85734  1.0000
  C  Sn27      1.0  0.11609  0.20642  0.85540  1.0000
  C   C156      1.0  0.07906  0.17003  0.70450  1.0000
  C  Sn28      1.0  0.06004  0.17893  0.55543  1.0000
  O  Te25      1.0  0.06002  0.23495  0.40990  1.0000
  O  Te26      1.0  0.08191  0.22054  0.00674  1.0000
  O  Te27      1.0  0.04494  0.12756  0.00305  1.0000
  O  Te28      1.0  0.02304  0.14198  0.40609  1.0000
  Mg  Mg13      1.0  0.09520  0.18965  0.17491  1.0000
  Mg  Mg14      1.0  0.00973  0.17283  0.23780  1.0000
  C  Sn29      1.0  0.62798  0.53871  0.70263  1.0000
  C   C157      1.0  0.63177  0.56836  0.82929  1.0000
  C  Sn30      1.0  0.66798  0.61271  0.93776  1.0000
  C  Sn31      1.0  0.70109  0.62774  0.91915  1.0000
  C   C158      1.0  0.69729  0.59811  0.79253  1.0000
  C  Sn32      1.0  0.66109  0.55375  0.68402  1.0000
  O  Te29      1.0  0.59149  0.49452  0.59562  1.0000
  O  Te30      1.0  0.58142  0.57258  0.06349  1.0000
  O  Te31      1.0  0.64796  0.60283  0.02630  1.0000
  O  Te32      1.0  0.65801  0.52474  0.55833  1.0000
  Mg  Mg15      1.0  0.63736  0.62965  0.17815  1.0000
  Mg  Mg16      1.0  0.60209  0.46768  0.44353  1.0000
  C  Sn33      1.0  0.98689  0.47750  0.10931  1.0000
  C   C159      1.0  0.02510  0.52039  0.20046  1.0000
  C  Sn34      1.0  0.03485  0.55517  0.33120  1.0000
  C  Sn35      1.0  0.00580  0.54690  0.37179  1.0000
  C   C160      1.0  0.96762  0.50402  0.28070  1.0000
  C  Sn36      1.0  0.95784  0.46922  0.14990  1.0000
  O  Te33      1.0  0.06743  0.51237  0.97912  1.0000
  O  Te34      1.0  0.07325  0.59779  0.42048  1.0000
  O  Te35      1.0  0.01492  0.58121  0.50210  1.0000
  O  Te36      1.0  0.91947  0.42663  0.06068  1.0000
  Mg  Mg17      1.0  0.07128  0.63353  0.58709  1.0000
  Mg  Mg18      1.0  0.01104  0.46000  0.89413  1.0000
