data_image0
_chemical_formula_structural       H56C88N28SnCSn2CSnTe4Mg2SnCSn2CSnTe4Mg2SnCSn2CSnTe4Mg2SnCSn2CSnTe4Mg2SnCSn2CSnTe4Mg2SnCSn2CSnTe4Mg2SnCSn2CSnTe4Mg2SnCSn2CSnTe4Mg2SnCSn2CSnTe4Mg2SnCSn2CSnTe4Mg2SnCSn2CSnTe4Mg2SnCSn2CSnTe4Mg2SnCSn2CSnTe4Mg2SnCSn2CSnTe4Mg2SnCSn2CSnTe4Mg2SnCSn2CSnTe4Mg2SnCSn2CSnTe4Mg2SnCSn2CSnTe4Mg2
_chemical_formula_sum              "H56 C124 N28 Sn72 Te72 Mg36"
_cell_length_a       49.7604
_cell_length_b       39.2264
_cell_length_c       7.64536
_cell_angle_alpha    89.0686
_cell_angle_beta     110.962
_cell_angle_gamma    129.494

_symmetry_space_group_name_H-M    'P1'
_space_group_IT_number       1

loop_
  _space_group_symop_operation_xyz
  'x, y, z'

loop_
  _atom_site_type_symbol
  _atom_site_label
  _atom_site_symmetry_multiplicity
  _atom_site_fract_x
  _atom_site_fract_y
  _atom_site_fract_z
  _atom_site_occupancy
  H   H1        1.0  0.30179  0.47917  0.12929  1.0000
  H   H2        1.0  0.23423  0.43680  0.14230  1.0000
  H   H3        1.0  0.42924  0.67578  0.35049  1.0000
  H   H4        1.0  0.42343  0.73955  0.32860  1.0000
  H   H5        1.0  0.30117  0.72916  0.14849  1.0000
  H   H6        1.0  0.23581  0.67157  0.19441  1.0000
  H   H7        1.0  0.16104  0.49286  0.30265  1.0000
  H   H8        1.0  0.18010  0.44381  0.26026  1.0000
  H   H9        1.0  0.31225  0.61023  0.19056  1.0000
  H   H10       1.0  0.69685  0.54307  0.37767  1.0000
  H   H11       1.0  0.76388  0.58586  0.35846  1.0000
  H   H12       1.0  0.57181  0.34716  0.18850  1.0000
  H   H13       1.0  0.57683  0.28308  0.19869  1.0000
  H   H14       1.0  0.68394  0.28071  0.20155  1.0000
  H   H15       1.0  0.75165  0.34140  0.18038  1.0000
  H   H16       1.0  0.84083  0.53328  0.22962  1.0000
  H   H17       1.0  0.81952  0.58054  0.25816  1.0000
  H   H18       1.0  0.68685  0.41041  0.30892  1.0000
  H   H19       1.0  0.49666  0.42799  0.00720  1.0000
  H   H20       1.0  0.48713  0.57294  0.46322  1.0000
  H   H21       1.0  0.58368  0.12039  0.29768  1.0000
  H   H22       1.0  0.41767  0.90516  0.24743  1.0000
  H   H23       1.0  0.93356  0.51995  0.26943  1.0000
  H   H24       1.0  0.06170  0.50370  0.22006  1.0000
  H   H25       1.0  0.80042  0.47572  0.61532  1.0000
  H   H26       1.0  0.73435  0.43488  0.64211  1.0000
  H   H27       1.0  0.92995  0.67280  0.85034  1.0000
  H   H28       1.0  0.92590  0.73805  0.84891  1.0000
  H   H29       1.0  0.80507  0.73035  0.66803  1.0000
  H   H30       1.0  0.73910  0.67259  0.70912  1.0000
  H   H31       1.0  0.66122  0.49126  0.79094  1.0000
  H   H32       1.0  0.68021  0.44223  0.74595  1.0000
  H   H33       1.0  0.81263  0.60840  0.66676  1.0000
  H   H34       1.0  0.19548  0.53908  0.87095  1.0000
  H   H35       1.0  0.26404  0.58311  0.86529  1.0000
  H   H36       1.0  0.06982  0.34253  0.65660  1.0000
  H   H37       1.0  0.07514  0.27854  0.66873  1.0000
  H   H38       1.0  0.18313  0.27710  0.68423  1.0000
  H   H39       1.0  0.25108  0.33824  0.66622  1.0000
  H   H40       1.0  0.34170  0.53072  0.73672  1.0000
  H   H41       1.0  0.32094  0.57845  0.76940  1.0000
  H   H42       1.0  0.18626  0.40714  0.80693  1.0000
  H   H43       1.0  0.00403  0.43562  0.49238  1.0000
  H   H44       1.0  0.98471  0.56881  0.94753  1.0000
  H   H45       1.0  0.08654  0.11700  0.79074  1.0000
  H   H46       1.0  0.91846  0.90185  0.72614  1.0000
  H   H47       1.0  0.43557  0.51903  0.78302  1.0000
  H   H48       1.0  0.56477  0.50503  0.72888  1.0000
  H   H49       1.0  0.19100  0.44126  0.61297  1.0000
  H   H50       1.0  0.23233  0.43704  0.73002  1.0000
  H   H51       1.0  0.31004  0.57871  0.40482  1.0000
  H   H52       1.0  0.26877  0.58436  0.28493  1.0000
  H   H53       1.0  0.81024  0.57840  0.87879  1.0000
  H   H54       1.0  0.76996  0.58377  0.78471  1.0000
  H   H55       1.0  0.68976  0.44362  0.11092  1.0000
  H   H56       1.0  0.73195  0.43983  0.22846  1.0000
  C   C1        1.0  0.40021  0.70285  0.30018  1.0000
  C   C2        1.0  0.36096  0.68074  0.25366  1.0000
  C   C3        1.0  0.36599  0.62627  0.27113  1.0000
  C   C4        1.0  0.25912  0.47373  0.19262  1.0000
  C   C5        1.0  0.29467  0.49576  0.18885  1.0000
  C   C6        1.0  0.31875  0.54428  0.25781  1.0000
  C   C7        1.0  0.26063  0.50820  0.26353  1.0000
  C   C8        1.0  0.35523  0.58307  0.26671  1.0000
  C   C9        1.0  0.18723  0.50569  0.29528  1.0000
  C   C10       1.0  0.19717  0.48031  0.27453  1.0000
  C   C11       1.0  0.23439  0.51098  0.27720  1.0000
  C   C12       1.0  0.21781  0.55215  0.30328  1.0000
  C   C13       1.0  0.29026  0.69805  0.19264  1.0000
  C   C14       1.0  0.25690  0.66865  0.21503  1.0000
  C   C15       1.0  0.25392  0.63099  0.26583  1.0000
  C   C16       1.0  0.30821  0.67886  0.23171  1.0000
  C   C17       1.0  0.34465  0.70064  0.23325  1.0000
  C   C18       1.0  0.22231  0.59159  0.29205  1.0000
  C   C19       1.0  0.40321  0.67010  0.31099  1.0000
  C   C20       1.0  0.59972  0.31935  0.21751  1.0000
  C   C21       1.0  0.63776  0.34046  0.24334  1.0000
  C   C22       1.0  0.63394  0.39597  0.24331  1.0000
  C   C23       1.0  0.73945  0.54886  0.31262  1.0000
  C   C24       1.0  0.70417  0.52653  0.31985  1.0000
  C   C25       1.0  0.68076  0.47809  0.25499  1.0000
  C   C26       1.0  0.73845  0.51470  0.24435  1.0000
  C   C27       1.0  0.64461  0.43917  0.24864  1.0000
  C   C28       1.0  0.81346  0.51938  0.22405  1.0000
  C   C29       1.0  0.80266  0.54397  0.24038  1.0000
  C   C30       1.0  0.76497  0.51250  0.23111  1.0000
  C   C31       1.0  0.78246  0.47236  0.20656  1.0000
  C   C32       1.0  0.70074  0.31721  0.21722  1.0000
  C   C33       1.0  0.73531  0.34821  0.20723  1.0000
  C   C34       1.0  0.74539  0.39218  0.22882  1.0000
  C   C35       1.0  0.68914  0.34183  0.24361  1.0000
  C   C36       1.0  0.65284  0.31990  0.24308  1.0000
  C   C37       1.0  0.77808  0.43296  0.21400  1.0000
  C   C38       1.0  0.59724  0.35249  0.21376  1.0000
  C   C39       1.0  0.51536  0.45519  0.14693  1.0000
  C   C40       1.0  0.46950  0.54750  0.31906  1.0000
  C   C41       1.0  0.55415  0.10607  0.26039  1.0000
  C   C42       1.0  0.44393  0.91643  0.24155  1.0000
  C   C43       1.0  0.93079  0.49071  0.22955  1.0000
  C   C44       1.0  0.06774  0.53488  0.27293  1.0000
  C   C45       1.0  0.90201  0.70111  0.80963  1.0000
  C   C46       1.0  0.86262  0.67922  0.75734  1.0000
  C   C47       1.0  0.86627  0.62368  0.75843  1.0000
  C   C48       1.0  0.75910  0.47175  0.68587  1.0000
  C   C49       1.0  0.79393  0.49303  0.67548  1.0000
  C   C50       1.0  0.81827  0.54171  0.74026  1.0000
  C   C51       1.0  0.76112  0.50684  0.75528  1.0000
  C   C52       1.0  0.85469  0.57993  0.74667  1.0000
  C   C53       1.0  0.68775  0.50429  0.78739  1.0000
  C   C54       1.0  0.69764  0.47894  0.76518  1.0000
  C   C55       1.0  0.73516  0.50986  0.77136  1.0000
  C   C56       1.0  0.71875  0.55102  0.80070  1.0000
  C   C57       1.0  0.79329  0.69837  0.70574  1.0000
  C   C58       1.0  0.75971  0.66902  0.72642  1.0000
  C   C59       1.0  0.75563  0.63032  0.77004  1.0000
  C   C60       1.0  0.81026  0.67802  0.73847  1.0000
  C   C61       1.0  0.84672  0.69950  0.74121  1.0000
  C   C62       1.0  0.72371  0.59083  0.79407  1.0000
  C   C63       1.0  0.90413  0.66762  0.80987  1.0000
  C   C64       1.0  0.09825  0.31511  0.69322  1.0000
  C   C65       1.0  0.13682  0.33667  0.72754  1.0000
  C   C66       1.0  0.13280  0.39203  0.72670  1.0000
  C   C67       1.0  0.23961  0.54606  0.81668  1.0000
  C   C68       1.0  0.20366  0.52321  0.81694  1.0000
  C   C69       1.0  0.18046  0.47484  0.74978  1.0000
  C   C70       1.0  0.23923  0.51229  0.75067  1.0000
  C   C71       1.0  0.14386  0.43550  0.73741  1.0000
  C   C72       1.0  0.31442  0.51704  0.73155  1.0000
  C   C73       1.0  0.30379  0.54177  0.74956  1.0000
  C   C74       1.0  0.26600  0.51030  0.73927  1.0000
  C   C75       1.0  0.28320  0.46995  0.71122  1.0000
  C   C76       1.0  0.20003  0.31369  0.70277  1.0000
  C   C77       1.0  0.23483  0.34491  0.69537  1.0000
  C   C78       1.0  0.24528  0.38904  0.72232  1.0000
  C   C79       1.0  0.18864  0.33839  0.73236  1.0000
  C   C80       1.0  0.15224  0.31639  0.73054  1.0000
  C   C81       1.0  0.27846  0.43024  0.71307  1.0000
  C   C82       1.0  0.09563  0.34816  0.68862  1.0000
  C   C83       1.0  0.01964  0.45811  0.64149  1.0000
  C   C84       1.0  0.96994  0.54678  0.79849  1.0000
  C   C85       1.0  0.05662  0.10228  0.74528  1.0000
  C   C86       1.0  0.94517  0.91328  0.72589  1.0000
  C   C87       1.0  0.43276  0.48993  0.73904  1.0000
  C   C88       1.0  0.57055  0.53592  0.78359  1.0000
  N   N1        1.0  0.34157  0.63476  0.24003  1.0000
  N   N2        1.0  0.29704  0.55021  0.30197  1.0000
  N   N3        1.0  0.24600  0.55378  0.30050  1.0000
  N   N4        1.0  0.28523  0.63760  0.27148  1.0000
  N   N5        1.0  0.65745  0.38668  0.25895  1.0000
  N   N6        1.0  0.70256  0.47254  0.21003  1.0000
  N   N7        1.0  0.75354  0.46978  0.20447  1.0000
  N   N8        1.0  0.71676  0.38742  0.25215  1.0000
  N   N9        1.0  0.54733  0.46745  0.27523  1.0000
  N   N10       1.0  0.43966  0.53887  0.18392  1.0000
  N   N11       1.0  0.54435  0.12959  0.20880  1.0000
  N   N12       1.0  0.44835  0.88791  0.22017  1.0000
  N   N13       1.0  0.89916  0.44872  0.19420  1.0000
  N   N14       1.0  0.10209  0.57567  0.33155  1.0000
  N   N15       1.0  0.84222  0.63265  0.73069  1.0000
  N   N16       1.0  0.79720  0.54834  0.78731  1.0000
  N   N17       1.0  0.74701  0.55275  0.79823  1.0000
  N   N18       1.0  0.78645  0.63620  0.77261  1.0000
  N   N19       1.0  0.15668  0.38307  0.74647  1.0000
  N   N20       1.0  0.20309  0.46988  0.71107  1.0000
  N   N21       1.0  0.25440  0.46748  0.71040  1.0000
  N   N22       1.0  0.21656  0.38416  0.74488  1.0000
  N   N23       1.0  0.04868  0.46575  0.77865  1.0000
  N   N24       1.0  0.94170  0.54015  0.65752  1.0000
  N   N25       1.0  0.04649  0.12527  0.68862  1.0000
  N   N26       1.0  0.95021  0.88510  0.71320  1.0000
  N   N27       1.0  0.40070  0.44779  0.69654  1.0000
  N   N28       1.0  0.60481  0.57687  0.84224  1.0000
  C  Sn1       1.0  0.40115  0.77196  0.12532  1.0000
  C   C89       1.0  0.38057  0.75373  0.23644  1.0000
  C  Sn2       1.0  0.37771  0.78003  0.33574  1.0000
  C  Sn3       1.0  0.39576  0.82549  0.32363  1.0000
  C   C90       1.0  0.41632  0.84369  0.21253  1.0000
  C  Sn4       1.0  0.41921  0.81741  0.11320  1.0000
  O  Te1       1.0  0.40364  0.74504  0.02725  1.0000
  O  Te2       1.0  0.35699  0.76107  0.44597  1.0000
  O  Te3       1.0  0.39326  0.85240  0.42182  1.0000
  O  Te4       1.0  0.43991  0.83635  0.00300  1.0000
  Mg  Mg1       1.0  0.36182  0.81130  0.55314  1.0000
  Mg  Mg2       1.0  0.52471  0.85529  0.89569  1.0000
  C  Sn5       1.0  0.39772  0.53475  0.34893  1.0000
  C   C91       1.0  0.41420  0.54512  0.21987  1.0000
  C  Sn6       1.0  0.41779  0.57669  0.11859  1.0000
  C  Sn7       1.0  0.40465  0.59836  0.14699  1.0000
  C   C92       1.0  0.38819  0.58799  0.27601  1.0000
  C  Sn8       1.0  0.38459  0.55642  0.37734  1.0000
  O  Te5       1.0  0.39443  0.50308  0.44864  1.0000
  O  Te6       1.0  0.52398  0.65564  0.99028  1.0000
  O  Te7       1.0  0.40795  0.63004  0.04714  1.0000
  O  Te8       1.0  0.36804  0.54661  0.50560  1.0000
  Mg  Mg3       1.0  0.52216  0.70119  0.88816  1.0000
  Mg  Mg4       1.0  0.36986  0.50109  0.60787  1.0000
  C  Sn9       1.0  0.17927  0.62950  0.40522  1.0000
  C   C93       1.0  0.13901  0.59351  0.29368  1.0000
  C  Sn10      1.0  0.12370  0.55150  0.18845  1.0000
  C  Sn11      1.0  0.14917  0.54532  0.19493  1.0000
  C   C94       1.0  0.18940  0.58130  0.30645  1.0000
  C  Sn12      1.0  0.20473  0.62333  0.41171  1.0000
  O  Te9       1.0  0.19392  0.67121  0.50927  1.0000
  O  Te10      1.0  0.08335  0.51602  0.07793  1.0000
  O  Te11      1.0  0.13447  0.50358  0.09076  1.0000
  O  Te12      1.0  0.24505  0.65879  0.52220  1.0000
  Mg  Mg5       1.0  0.16704  0.53472  0.96150  1.0000
  Mg  Mg6       1.0  0.25102  0.70924  0.63876  1.0000
  C  Sn13      1.0  0.57832  0.22957  0.07218  1.0000
  C   C95       1.0  0.61572  0.26564  0.22169  1.0000
  C  Sn14      1.0  0.63422  0.25626  0.37097  1.0000
  C  Sn15      1.0  0.61496  0.20985  0.37076  1.0000
  C   C96       1.0  0.57758  0.17381  0.22131  1.0000
  C  Sn16      1.0  0.55905  0.18317  0.07198  1.0000
  O  Te13      1.0  0.65001  0.30890  0.92441  1.0000
  O  Te14      1.0  0.67161  0.29289  0.51890  1.0000
  O  Te15      1.0  0.63293  0.19969  0.51871  1.0000
  O  Te16      1.0  0.61132  0.21570  0.92410  1.0000
  Mg  Mg7       1.0  0.68397  0.26143  0.68815  1.0000
  Mg  Mg8       1.0  0.59895  0.24712  0.75473  1.0000
  C  Sn17      1.0  0.58104  0.46007  0.06997  1.0000
  C   C97       1.0  0.56121  0.44586  0.18446  1.0000
  C  Sn18      1.0  0.57209  0.43345  0.34969  1.0000
  C  Sn19      1.0  0.60345  0.43531  0.40165  1.0000
  C   C98       1.0  0.62327  0.44952  0.28722  1.0000
  C  Sn20      1.0  0.61241  0.46192  0.12194  1.0000
  O  Te17      1.0  0.65930  0.54146  0.90542  1.0000
  O  Te18      1.0  0.55181  0.41934  0.46183  1.0000
  O  Te19      1.0  0.61481  0.42305  0.56635  1.0000
  O  Te20      1.0  0.63266  0.47603  0.00985  1.0000
  Mg  Mg9       1.0  0.57823  0.40612  0.67267  1.0000
  Mg  Mg10      1.0  0.69591  0.55843  0.79906  1.0000
  C  Sn21      1.0  0.82032  0.44286  0.01549  1.0000
  C   C99       1.0  0.80332  0.42583  0.14250  1.0000
  C  Sn22      1.0  0.82115  0.42008  0.31277  1.0000
  C  Sn23      1.0  0.85673  0.43162  0.35710  1.0000
  C   C100      1.0  0.87372  0.44864  0.23016  1.0000
  C  Sn24      1.0  0.85591  0.45440  0.05983  1.0000
  O  Te21      1.0  0.89162  0.51748  0.84610  1.0000
  O  Te22      1.0  0.80358  0.40299  0.43745  1.0000
  O  Te23      1.0  0.87506  0.42613  0.52665  1.0000
  O  Te24      1.0  0.96309  0.54064  0.93521  1.0000
  Mg  Mg11      1.0  0.83978  0.40166  0.65058  1.0000
  Mg  Mg12      1.0  0.92693  0.54200  0.72211  1.0000
  C  Sn25      1.0  0.52597  0.54895  0.30812  1.0000
  C   C101      1.0  0.48842  0.53100  0.25721  1.0000
  C  Sn26      1.0  0.45649  0.48338  0.18106  1.0000
  C  Sn27      1.0  0.46220  0.45306  0.15537  1.0000
  C   C102      1.0  0.49973  0.47101  0.20629  1.0000
  C  Sn28      1.0  0.53168  0.51863  0.28243  1.0000
  O  Te25      1.0  0.55746  0.59668  0.38401  1.0000
  O  Te26      1.0  0.41923  0.46625  0.13116  1.0000
  O  Te27      1.0  0.43066  0.40530  0.07941  1.0000
  O  Te28      1.0  0.56892  0.53576  0.33234  1.0000
  Mg  Mg13      1.0  0.38556  0.39861  0.03330  1.0000
  Mg  Mg14      1.0  0.60261  0.60339  0.43030  1.0000
  C  Sn29      1.0  0.48705  0.03309  0.30529  1.0000
  C   C103      1.0  0.52367  0.05752  0.31224  1.0000
  C  Sn30      1.0  0.53421  0.03406  0.27249  1.0000
  C  Sn31      1.0  0.00895  0.98517  0.22467  1.0000
  C   C104      1.0  0.97235  0.96077  0.21771  1.0000
  C  Sn32      1.0  0.96179  0.98420  0.25748  1.0000
  O  Te29      1.0  0.47713  0.05726  0.34555  1.0000
  O  Te30      1.0  0.57100  0.05924  0.28041  1.0000
  O  Te31      1.0  0.01890  0.96101  0.18441  1.0000
  O  Te32      1.0  0.92503  0.95905  0.24954  1.0000
  Mg  Mg15      1.0  0.07237  0.01069  0.21378  1.0000
  Mg  Mg16      1.0  0.92498  0.00756  0.31604  1.0000
  C  Sn33      1.0  0.97104  0.46464  0.20211  1.0000
  C   C105      1.0  0.96749  0.49384  0.26973  1.0000
  C  Sn34      1.0  0.99749  0.54176  0.32109  1.0000
  C  Sn35      1.0  0.03176  0.56090  0.30440  1.0000
  C   C106      1.0  0.03530  0.53170  0.23679  1.0000
  C  Sn36      1.0  0.00531  0.48378  0.18543  1.0000
  O  Te33      1.0  0.94068  0.41684  0.15159  1.0000
  O  Te34      1.0  0.99327  0.57025  0.38838  1.0000
  O  Te35      1.0  0.06213  0.60874  0.35500  1.0000
  O  Te36      1.0  0.00951  0.45529  0.11814  1.0000
  Mg  Mg17      1.0  0.04269  0.63321  0.43909  1.0000
  Mg  Mg18      1.0  0.96011  0.39234  0.06729  1.0000
  C  Sn37      1.0  0.91031  0.82258  0.90154  1.0000
  C   C107      1.0  0.92756  0.83897  0.77527  1.0000
  C  Sn38      1.0  0.91385  0.80833  0.60657  1.0000
  C  Sn39      1.0  0.88221  0.76030  0.56308  1.0000
  C   C108      1.0  0.86497  0.74393  0.68928  1.0000
  C  Sn40      1.0  0.87867  0.77455  0.85805  1.0000
  O  Te37      1.0  0.83486  0.78469  0.06937  1.0000
  O  Te38      1.0  0.93158  0.82554  0.48259  1.0000
  O  Te39      1.0  0.86804  0.72904  0.39509  1.0000
  O  Te40      1.0  0.86096  0.75736  0.98196  1.0000
  Mg  Mg19      1.0  0.90181  0.76923  0.27162  1.0000
  Mg  Mg20      1.0  0.80105  0.74450  0.19291  1.0000
  C  Sn41      1.0  0.89477  0.52905  0.80423  1.0000
  C   C109      1.0  0.91360  0.54317  0.68483  1.0000
  C  Sn42      1.0  0.91950  0.57787  0.60066  1.0000
  C  Sn43      1.0  0.90633  0.59892  0.63666  1.0000
  C   C110      1.0  0.88753  0.58481  0.75602  1.0000
  C  Sn44      1.0  0.88161  0.55011  0.84024  1.0000
  O  Te41      1.0  0.88919  0.49430  0.88687  1.0000
  O  Te42      1.0  0.93838  0.59138  0.48175  1.0000
  O  Te43      1.0  0.91194  0.63369  0.55390  1.0000
  O  Te44      1.0  0.86274  0.53659  0.95911  1.0000
  Mg  Mg21      1.0  0.93919  0.64021  0.40245  1.0000
  Mg  Mg22      1.0  0.77231  0.41864  0.03856  1.0000
  C  Sn45      1.0  0.69733  0.61674  0.98927  1.0000
  C   C111      1.0  0.69371  0.58847  0.85590  1.0000
  C  Sn46      1.0  0.65916  0.55747  0.68278  1.0000
  C  Sn47      1.0  0.62757  0.55468  0.64204  1.0000
  C   C112      1.0  0.63120  0.58294  0.77534  1.0000
  C  Sn48      1.0  0.66574  0.61395  0.94853  1.0000
  O  Te45      1.0  0.64251  0.57834  0.16141  1.0000
  O  Te46      1.0  0.65623  0.52956  0.55172  1.0000
  O  Te47      1.0  0.59275  0.52391  0.46973  1.0000
  O  Te48      1.0  0.57905  0.57272  0.07952  1.0000
  Mg  Mg23      1.0  0.60286  0.49314  0.33697  1.0000
  Mg  Mg24      1.0  0.63241  0.60916  0.29425  1.0000
  C  Sn49      1.0  0.07369  0.19362  0.50765  1.0000
  C   C113      1.0  0.07759  0.17341  0.65545  1.0000
  C  Sn50      1.0  0.10551  0.20089  0.84858  1.0000
  C  Sn51      1.0  0.13002  0.24959  0.89499  1.0000
  C   C114      1.0  0.12611  0.26978  0.74725  1.0000
  C  Sn52      1.0  0.09821  0.24233  0.55406  1.0000
  O  Te49      1.0  0.04559  0.16548  0.31559  1.0000
  O  Te50      1.0  0.10887  0.17989  0.99382  1.0000
  O  Te51      1.0  0.06851  0.20858  0.08724  1.0000
  O  Te52      1.0  0.09484  0.26330  0.40888  1.0000
  Mg  Mg25      1.0  0.06190  0.16377  0.23378  1.0000
  Mg  Mg26      1.0  0.05218  0.21031  0.16890  1.0000
  C  Sn53      1.0  0.08905  0.43915  0.92024  1.0000
  C   C115      1.0  0.07771  0.46001  0.80700  1.0000
  C  Sn54      1.0  0.08300  0.46775  0.63841  1.0000
  C  Sn55      1.0  0.09996  0.45433  0.58174  1.0000
  C   C116      1.0  0.11128  0.43347  0.69492  1.0000
  C  Sn56      1.0  0.10601  0.42572  0.86357  1.0000
  O  Te53      1.0  0.99385  0.36260  0.08821  1.0000
  O  Te54      1.0  0.07144  0.48868  0.52759  1.0000
  O  Te55      1.0  0.10552  0.46175  0.41362  1.0000
  O  Te56      1.0  0.11755  0.40480  0.97434  1.0000
  Mg  Mg27      1.0  0.08504  0.49142  0.31083  1.0000
  Mg  Mg28      1.0  0.01432  0.33287  0.19105  1.0000
  C  Sn57      1.0  0.33781  0.40361  0.78715  1.0000
  C   C117      1.0  0.35608  0.42286  0.66643  1.0000
  C  Sn58      1.0  0.35339  0.45193  0.57069  1.0000
  C  Sn59      1.0  0.33201  0.46200  0.59623  1.0000
  C   C118      1.0  0.31376  0.44276  0.71691  1.0000
  C  Sn60      1.0  0.31643  0.41368  0.81269  1.0000
  O  Te57      1.0  0.34089  0.37464  0.88144  1.0000
  O  Te58      1.0  0.37189  0.47075  0.45069  1.0000
  O  Te59      1.0  0.32894  0.49099  0.50181  1.0000
  O  Te60      1.0  0.29795  0.39487  0.93266  1.0000
  Mg  Mg29      1.0  0.35926  0.50827  0.35357  1.0000
  Mg  Mg30      1.0  0.22095  0.28822  0.02992  1.0000
  C  Sn61      1.0  0.95426  0.46610  0.66953  1.0000
  C   C119      1.0  0.97777  0.51077  0.78894  1.0000
  C  Sn62      1.0  0.01775  0.54331  0.84413  1.0000
  C  Sn63      1.0  0.03457  0.53096  0.77850  1.0000
  C   C120      1.0  0.01106  0.48631  0.65914  1.0000
  C  Sn64      1.0  0.97108  0.45374  0.60390  1.0000
  O  Te61      1.0  0.91437  0.43412  0.61616  1.0000
  O  Te62      1.0  0.04066  0.58776  0.96366  1.0000
  O  Te63      1.0  0.07450  0.56298  0.83199  1.0000
  O  Te64      1.0  0.94817  0.40933  0.48442  1.0000
  Mg  Mg31      1.0  0.09356  0.61915  0.99678  1.0000
  Mg  Mg32      1.0  0.89527  0.37792  0.45113  1.0000
  C  Sn65      1.0  0.53169  0.01369  0.71068  1.0000
  C   C121      1.0  0.52760  0.04587  0.69999  1.0000
  C  Sn66      1.0  0.49734  0.03696  0.72416  1.0000
  C  Sn67      1.0  0.47062  0.99502  0.75988  1.0000
  C   C122      1.0  0.47472  0.96288  0.77059  1.0000
  C  Sn68      1.0  0.50497  0.97176  0.74641  1.0000
  O  Te65      1.0  0.56217  0.02333  0.68608  1.0000
  O  Te66      1.0  0.99248  0.06965  0.71279  1.0000
  O  Te67      1.0  0.44013  0.98541  0.78448  1.0000
  O  Te68      1.0  0.50849  0.93910  0.75780  1.0000
  Mg  Mg33      1.0  0.44752  0.04073  0.75631  1.0000
  Mg  Mg34      1.0  0.55480  0.96799  0.71440  1.0000
  C  Sn69      1.0  0.53409  0.55805  0.90813  1.0000
  C   C123      1.0  0.53789  0.52943  0.83723  1.0000
  C  Sn70      1.0  0.50506  0.48624  0.70001  1.0000
  C  Sn71      1.0  0.46764  0.47134  0.63211  1.0000
  C   C124      1.0  0.46385  0.49995  0.70296  1.0000
  C  Sn72      1.0  0.49667  0.54316  0.84023  1.0000
  O  Te69      1.0  0.47768  0.53196  0.04526  1.0000
  O  Te70      1.0  0.50959  0.45823  0.63133  1.0000
  O  Te71      1.0  0.43441  0.42825  0.49487  1.0000
  O  Te72      1.0  0.49216  0.57116  0.90887  1.0000
  Mg  Mg35      1.0  0.45555  0.40254  0.44511  1.0000
  Mg  Mg36      1.0  0.45654  0.55772  0.09501  1.0000
