data_image0
_chemical_formula_structural       H56C88N28C2Sn2C2HTe2HMgC2Sn2C2HTe2HMgC2Sn2C2HTe2HMgC2Sn2C2HTe2HMgC2Sn2C2HTe2HMgC2Sn2C2HTe2HMgC2Sn2C2HTe2HMgC2Sn2C2HTe2HMgC2Sn2C2HTe2HMgC2Sn2C2HTe2HMgC2Sn2C2HTe2HMgC2Sn2C2HTe2HMgC2Sn2C2HTe2HMgC2Sn2C2HTe2HMgC2Sn2C2HTe2HMgC2Sn2C2HTe2HMgC2Sn2C2HTe2HMgC2Sn2C2HTe2HMg
_chemical_formula_sum              "H92 C160 N28 Sn36 Te36 Mg18"
_cell_length_a       49.7604
_cell_length_b       39.2264
_cell_length_c       7.64536
_cell_angle_alpha    89.0686
_cell_angle_beta     110.962
_cell_angle_gamma    129.494

_symmetry_space_group_name_H-M    'P1'
_space_group_IT_number       1

loop_
  _space_group_symop_operation_xyz
  'x, y, z'

loop_
  _atom_site_type_symbol
  _atom_site_label
  _atom_site_symmetry_multiplicity
  _atom_site_fract_x
  _atom_site_fract_y
  _atom_site_fract_z
  _atom_site_occupancy
  H   H1        1.0  0.30179  0.47917  0.12929  1.0000
  H   H2        1.0  0.23423  0.43680  0.14230  1.0000
  H   H3        1.0  0.42924  0.67578  0.35049  1.0000
  H   H4        1.0  0.42343  0.73955  0.32860  1.0000
  H   H5        1.0  0.30117  0.72916  0.14849  1.0000
  H   H6        1.0  0.23581  0.67157  0.19441  1.0000
  H   H7        1.0  0.16104  0.49286  0.30265  1.0000
  H   H8        1.0  0.18010  0.44381  0.26026  1.0000
  H   H9        1.0  0.31225  0.61023  0.19056  1.0000
  H   H10       1.0  0.69685  0.54307  0.37767  1.0000
  H   H11       1.0  0.76388  0.58586  0.35846  1.0000
  H   H12       1.0  0.57181  0.34716  0.18850  1.0000
  H   H13       1.0  0.57683  0.28308  0.19869  1.0000
  H   H14       1.0  0.68394  0.28071  0.20155  1.0000
  H   H15       1.0  0.75165  0.34140  0.18038  1.0000
  H   H16       1.0  0.84083  0.53328  0.22962  1.0000
  H   H17       1.0  0.81952  0.58054  0.25816  1.0000
  H   H18       1.0  0.68685  0.41041  0.30892  1.0000
  H   H19       1.0  0.49666  0.42799  0.00720  1.0000
  H   H20       1.0  0.48713  0.57294  0.46322  1.0000
  H   H21       1.0  0.58368  0.12039  0.29768  1.0000
  H   H22       1.0  0.41767  0.90516  0.24743  1.0000
  H   H23       1.0  0.93356  0.51995  0.26943  1.0000
  H   H24       1.0  0.06170  0.50370  0.22006  1.0000
  H   H25       1.0  0.80042  0.47572  0.61532  1.0000
  H   H26       1.0  0.73435  0.43488  0.64211  1.0000
  H   H27       1.0  0.92995  0.67280  0.85034  1.0000
  H   H28       1.0  0.92590  0.73805  0.84891  1.0000
  H   H29       1.0  0.80507  0.73035  0.66803  1.0000
  H   H30       1.0  0.73910  0.67259  0.70912  1.0000
  H   H31       1.0  0.66122  0.49126  0.79094  1.0000
  H   H32       1.0  0.68021  0.44223  0.74595  1.0000
  H   H33       1.0  0.81263  0.60840  0.66676  1.0000
  H   H34       1.0  0.19548  0.53908  0.87095  1.0000
  H   H35       1.0  0.26404  0.58311  0.86529  1.0000
  H   H36       1.0  0.06982  0.34253  0.65660  1.0000
  H   H37       1.0  0.07514  0.27854  0.66873  1.0000
  H   H38       1.0  0.18313  0.27710  0.68423  1.0000
  H   H39       1.0  0.25108  0.33824  0.66622  1.0000
  H   H40       1.0  0.34170  0.53072  0.73672  1.0000
  H   H41       1.0  0.32094  0.57845  0.76940  1.0000
  H   H42       1.0  0.18626  0.40714  0.80693  1.0000
  H   H43       1.0  0.00403  0.43562  0.49238  1.0000
  H   H44       1.0  0.98471  0.56881  0.94753  1.0000
  H   H45       1.0  0.08654  0.11700  0.79074  1.0000
  H   H46       1.0  0.91846  0.90185  0.72614  1.0000
  H   H47       1.0  0.43557  0.51903  0.78302  1.0000
  H   H48       1.0  0.56477  0.50503  0.72888  1.0000
  H   H49       1.0  0.19100  0.44126  0.61297  1.0000
  H   H50       1.0  0.23233  0.43704  0.73002  1.0000
  H   H51       1.0  0.31004  0.57871  0.40482  1.0000
  H   H52       1.0  0.26877  0.58436  0.28493  1.0000
  H   H53       1.0  0.81024  0.57840  0.87879  1.0000
  H   H54       1.0  0.76996  0.58377  0.78471  1.0000
  H   H55       1.0  0.68976  0.44362  0.11092  1.0000
  H   H56       1.0  0.73195  0.43983  0.22846  1.0000
  C   C1        1.0  0.40021  0.70285  0.30018  1.0000
  C   C2        1.0  0.36096  0.68074  0.25366  1.0000
  C   C3        1.0  0.36599  0.62627  0.27113  1.0000
  C   C4        1.0  0.25912  0.47373  0.19262  1.0000
  C   C5        1.0  0.29467  0.49576  0.18885  1.0000
  C   C6        1.0  0.31875  0.54428  0.25781  1.0000
  C   C7        1.0  0.26063  0.50820  0.26353  1.0000
  C   C8        1.0  0.35523  0.58307  0.26671  1.0000
  C   C9        1.0  0.18723  0.50569  0.29528  1.0000
  C   C10       1.0  0.19717  0.48031  0.27453  1.0000
  C   C11       1.0  0.23439  0.51098  0.27720  1.0000
  C   C12       1.0  0.21781  0.55215  0.30328  1.0000
  C   C13       1.0  0.29026  0.69805  0.19264  1.0000
  C   C14       1.0  0.25690  0.66865  0.21503  1.0000
  C   C15       1.0  0.25392  0.63099  0.26583  1.0000
  C   C16       1.0  0.30821  0.67886  0.23171  1.0000
  C   C17       1.0  0.34465  0.70064  0.23325  1.0000
  C   C18       1.0  0.22231  0.59159  0.29205  1.0000
  C   C19       1.0  0.40321  0.67010  0.31099  1.0000
  C   C20       1.0  0.59972  0.31935  0.21751  1.0000
  C   C21       1.0  0.63776  0.34046  0.24334  1.0000
  C   C22       1.0  0.63394  0.39597  0.24331  1.0000
  C   C23       1.0  0.73945  0.54886  0.31262  1.0000
  C   C24       1.0  0.70417  0.52653  0.31985  1.0000
  C   C25       1.0  0.68076  0.47809  0.25499  1.0000
  C   C26       1.0  0.73845  0.51470  0.24435  1.0000
  C   C27       1.0  0.64461  0.43917  0.24864  1.0000
  C   C28       1.0  0.81346  0.51938  0.22405  1.0000
  C   C29       1.0  0.80266  0.54397  0.24038  1.0000
  C   C30       1.0  0.76497  0.51250  0.23111  1.0000
  C   C31       1.0  0.78246  0.47236  0.20656  1.0000
  C   C32       1.0  0.70074  0.31721  0.21722  1.0000
  C   C33       1.0  0.73531  0.34821  0.20723  1.0000
  C   C34       1.0  0.74539  0.39218  0.22882  1.0000
  C   C35       1.0  0.68914  0.34183  0.24361  1.0000
  C   C36       1.0  0.65284  0.31990  0.24308  1.0000
  C   C37       1.0  0.77808  0.43296  0.21400  1.0000
  C   C38       1.0  0.59724  0.35249  0.21376  1.0000
  C   C39       1.0  0.51536  0.45519  0.14693  1.0000
  C   C40       1.0  0.46950  0.54750  0.31906  1.0000
  C   C41       1.0  0.55415  0.10607  0.26039  1.0000
  C   C42       1.0  0.44393  0.91643  0.24155  1.0000
  C   C43       1.0  0.93079  0.49071  0.22955  1.0000
  C   C44       1.0  0.06774  0.53488  0.27293  1.0000
  C   C45       1.0  0.90201  0.70111  0.80963  1.0000
  C   C46       1.0  0.86262  0.67922  0.75734  1.0000
  C   C47       1.0  0.86627  0.62368  0.75843  1.0000
  C   C48       1.0  0.75910  0.47175  0.68587  1.0000
  C   C49       1.0  0.79393  0.49303  0.67548  1.0000
  C   C50       1.0  0.81827  0.54171  0.74026  1.0000
  C   C51       1.0  0.76112  0.50684  0.75528  1.0000
  C   C52       1.0  0.85469  0.57993  0.74667  1.0000
  C   C53       1.0  0.68775  0.50429  0.78739  1.0000
  C   C54       1.0  0.69764  0.47894  0.76518  1.0000
  C   C55       1.0  0.73516  0.50986  0.77136  1.0000
  C   C56       1.0  0.71875  0.55102  0.80070  1.0000
  C   C57       1.0  0.79329  0.69837  0.70574  1.0000
  C   C58       1.0  0.75971  0.66902  0.72642  1.0000
  C   C59       1.0  0.75563  0.63032  0.77004  1.0000
  C   C60       1.0  0.81026  0.67802  0.73847  1.0000
  C   C61       1.0  0.84672  0.69950  0.74121  1.0000
  C   C62       1.0  0.72371  0.59083  0.79407  1.0000
  C   C63       1.0  0.90413  0.66762  0.80987  1.0000
  C   C64       1.0  0.09825  0.31511  0.69322  1.0000
  C   C65       1.0  0.13682  0.33667  0.72754  1.0000
  C   C66       1.0  0.13280  0.39203  0.72670  1.0000
  C   C67       1.0  0.23961  0.54606  0.81668  1.0000
  C   C68       1.0  0.20366  0.52321  0.81694  1.0000
  C   C69       1.0  0.18046  0.47484  0.74978  1.0000
  C   C70       1.0  0.23923  0.51229  0.75067  1.0000
  C   C71       1.0  0.14386  0.43550  0.73741  1.0000
  C   C72       1.0  0.31442  0.51704  0.73155  1.0000
  C   C73       1.0  0.30379  0.54177  0.74956  1.0000
  C   C74       1.0  0.26600  0.51030  0.73927  1.0000
  C   C75       1.0  0.28320  0.46995  0.71122  1.0000
  C   C76       1.0  0.20003  0.31369  0.70277  1.0000
  C   C77       1.0  0.23483  0.34491  0.69537  1.0000
  C   C78       1.0  0.24528  0.38904  0.72232  1.0000
  C   C79       1.0  0.18864  0.33839  0.73236  1.0000
  C   C80       1.0  0.15224  0.31639  0.73054  1.0000
  C   C81       1.0  0.27846  0.43024  0.71307  1.0000
  C   C82       1.0  0.09563  0.34816  0.68862  1.0000
  C   C83       1.0  0.01964  0.45811  0.64149  1.0000
  C   C84       1.0  0.96994  0.54678  0.79849  1.0000
  C   C85       1.0  0.05662  0.10228  0.74528  1.0000
  C   C86       1.0  0.94517  0.91328  0.72589  1.0000
  C   C87       1.0  0.43276  0.48993  0.73904  1.0000
  C   C88       1.0  0.57055  0.53592  0.78359  1.0000
  N   N1        1.0  0.34157  0.63476  0.24003  1.0000
  N   N2        1.0  0.29704  0.55021  0.30197  1.0000
  N   N3        1.0  0.24600  0.55378  0.30050  1.0000
  N   N4        1.0  0.28523  0.63760  0.27148  1.0000
  N   N5        1.0  0.65745  0.38668  0.25895  1.0000
  N   N6        1.0  0.70256  0.47254  0.21003  1.0000
  N   N7        1.0  0.75354  0.46978  0.20447  1.0000
  N   N8        1.0  0.71676  0.38742  0.25215  1.0000
  N   N9        1.0  0.54733  0.46745  0.27523  1.0000
  N   N10       1.0  0.43966  0.53887  0.18392  1.0000
  N   N11       1.0  0.54435  0.12959  0.20880  1.0000
  N   N12       1.0  0.44835  0.88791  0.22017  1.0000
  N   N13       1.0  0.89916  0.44872  0.19420  1.0000
  N   N14       1.0  0.10209  0.57567  0.33155  1.0000
  N   N15       1.0  0.84222  0.63265  0.73069  1.0000
  N   N16       1.0  0.79720  0.54834  0.78731  1.0000
  N   N17       1.0  0.74701  0.55275  0.79823  1.0000
  N   N18       1.0  0.78645  0.63620  0.77261  1.0000
  N   N19       1.0  0.15668  0.38307  0.74647  1.0000
  N   N20       1.0  0.20309  0.46988  0.71107  1.0000
  N   N21       1.0  0.25440  0.46748  0.71040  1.0000
  N   N22       1.0  0.21656  0.38416  0.74488  1.0000
  N   N23       1.0  0.04868  0.46575  0.77865  1.0000
  N   N24       1.0  0.94170  0.54015  0.65752  1.0000
  N   N25       1.0  0.04649  0.12527  0.68862  1.0000
  N   N26       1.0  0.95021  0.88510  0.71320  1.0000
  N   N27       1.0  0.40070  0.44779  0.69654  1.0000
  N   N28       1.0  0.60481  0.57687  0.84224  1.0000
  C   C89       1.0  0.39216  0.76993  0.07031  1.0000
  C   C90       1.0  0.37436  0.75148  0.19341  1.0000
  C  Sn1       1.0  0.37950  0.77998  0.33415  1.0000
  C  Sn2       1.0  0.40289  0.82782  0.35159  1.0000
  C   C91       1.0  0.42055  0.84594  0.22763  1.0000
  C   C92       1.0  0.41523  0.81711  0.08735  1.0000
  H   H57       1.0  0.47766  0.81677  0.96169  1.0000
  O  Te1       1.0  0.36152  0.76098  0.45602  1.0000
  O  Te2       1.0  0.40850  0.85708  0.49094  1.0000
  H   H58       1.0  0.51862  0.90054  0.99197  1.0000
  Mg  Mg1       1.0  0.37792  0.81493  0.62329  1.0000
  C   C93       1.0  0.40158  0.59055  0.09786  1.0000
  C   C94       1.0  0.38498  0.58081  0.22598  1.0000
  C  Sn3       1.0  0.39007  0.55944  0.36551  1.0000
  C  Sn4       1.0  0.41221  0.54767  0.37668  1.0000
  C   C95       1.0  0.42872  0.55760  0.24794  1.0000
  C   C96       1.0  0.42344  0.57897  0.10883  1.0000
  H   H59       1.0  0.48714  0.67626  0.99030  1.0000
  O  Te3       1.0  0.37327  0.54994  0.49233  1.0000
  O  Te4       1.0  0.41776  0.52631  0.51478  1.0000
  H   H60       1.0  0.43631  0.58654  0.00974  1.0000
  Mg  Mg2       1.0  0.38906  0.52042  0.65544  1.0000
  C   C97       1.0  0.12556  0.54207  0.15209  1.0000
  C   C98       1.0  0.12779  0.56904  0.28398  1.0000
  C  Sn5       1.0  0.16406  0.60934  0.42485  1.0000
  C  Sn6       1.0  0.19868  0.62282  0.43345  1.0000
  C   C99       1.0  0.19613  0.59562  0.30076  1.0000
  C   C100      1.0  0.15969  0.55534  0.16042  1.0000
  H   H61       1.0  0.09736  0.51092  0.04343  1.0000
  O  Te5       1.0  0.16577  0.63588  0.55555  1.0000
  O  Te6       1.0  0.23531  0.66295  0.57273  1.0000
  H   H62       1.0  0.15797  0.53449  0.05824  1.0000
  Mg  Mg3       1.0  0.22252  0.68764  0.71898  1.0000
  C   C101      1.0  0.63276  0.24549  0.41671  1.0000
  C   C102      1.0  0.63049  0.26630  0.26885  1.0000
  C  Sn7       1.0  0.59697  0.24065  0.08920  1.0000
  C  Sn8       1.0  0.56519  0.19331  0.05743  1.0000
  C   C103      1.0  0.56774  0.17282  0.20634  1.0000
  C   C104      1.0  0.60142  0.19880  0.38553  1.0000
  H   H63       1.0  0.65882  0.26559  0.55541  1.0000
  O  Te7       1.0  0.68482  0.33112  0.94302  1.0000
  O  Te8       1.0  0.62097  0.23602  0.87929  1.0000
  H   H64       1.0  0.60316  0.18269  0.50003  1.0000
  Mg  Mg4       1.0  0.63247  0.28064  0.72517  1.0000
  C   C105      1.0  0.57785  0.42607  0.38622  1.0000
  C   C106      1.0  0.56929  0.45080  0.28881  1.0000
  C  Sn9       1.0  0.58417  0.47112  0.15724  1.0000
  C  Sn10      1.0  0.60806  0.46652  0.12280  1.0000
  C   C107      1.0  0.61644  0.44168  0.22087  1.0000
  C   C108      1.0  0.60140  0.42150  0.35228  1.0000
  H   H65       1.0  0.56620  0.41043  0.48781  1.0000
  O  Te9       1.0  0.57534  0.49573  0.06122  1.0000
  O  Te10      1.0  0.71294  0.55560  0.99200  1.0000
  H   H66       1.0  0.60801  0.40233  0.42757  1.0000
  Mg  Mg5       1.0  0.69265  0.58579  0.89658  1.0000
  C   C109      1.0  0.82961  0.41577  0.34680  1.0000
  C   C110      1.0  0.81326  0.43306  0.24602  1.0000
  C  Sn11      1.0  0.82279  0.45292  0.10034  1.0000
  C  Sn12      1.0  0.84918  0.45546  0.05502  1.0000
  C   C111      1.0  0.86536  0.43803  0.15660  1.0000
  C   C112      1.0  0.85564  0.41824  0.30214  1.0000
  H   H67       1.0  0.82207  0.40043  0.45934  1.0000
  O  Te11      1.0  0.80619  0.47005  0.00113  1.0000
  O  Te12      1.0  0.94883  0.54427  0.91005  1.0000
  H   H68       1.0  0.86829  0.40482  0.38006  1.0000
  Mg  Mg6       1.0  0.91857  0.56284  0.81560  1.0000
  C   C113      1.0  0.53472  0.53508  0.33349  1.0000
  C   C114      1.0  0.51095  0.48925  0.22615  1.0000
  C  Sn13      1.0  0.47038  0.45996  0.14030  1.0000
  C  Sn14      1.0  0.45339  0.47696  0.16253  1.0000
  C   C115      1.0  0.47743  0.52288  0.27008  1.0000
  C   C116      1.0  0.51798  0.55189  0.35542  1.0000
  H   H69       1.0  0.56610  0.55754  0.39943  1.0000
  O  Te13      1.0  0.44706  0.41426  0.03360  1.0000
  O  Te14      1.0  0.41293  0.44844  0.07821  1.0000
  H   H70       1.0  0.53638  0.58738  0.43842  1.0000
  Mg  Mg7       1.0  0.48305  0.45793  0.94641  1.0000
  C   C117      1.0  0.53397  0.02032  0.28192  1.0000
  C   C118      1.0  0.52941  0.05206  0.26191  1.0000
  C  Sn15      1.0  0.49515  0.03981  0.24430  1.0000
  C  Sn16      1.0  0.96630  0.99493  0.24688  1.0000
  C   C119      1.0  0.97115  0.96344  0.26711  1.0000
  C   C120      1.0  0.00555  0.97605  0.28455  1.0000
  H   H71       1.0  0.56059  0.03008  0.29552  1.0000
  O  Te15      1.0  0.49107  0.07193  0.22435  1.0000
  O  Te16      1.0  0.93175  0.98178  0.22963  1.0000
  H   H72       1.0  0.00908  0.95148  0.30017  1.0000
  Mg  Mg8       1.0  0.43858  0.03773  0.20561  1.0000
  C   C121      1.0  0.98682  0.47086  0.15827  1.0000
  C   C122      1.0  0.02455  0.51430  0.23046  1.0000
  C  Sn17      1.0  0.03315  0.55313  0.31816  1.0000
  C  Sn18      1.0  0.00337  0.54828  0.33371  1.0000
  C   C123      1.0  0.96572  0.50467  0.26116  1.0000
  C   C124      1.0  0.95743  0.46604  0.17362  1.0000
  H   H73       1.0  0.98040  0.44096  0.09064  1.0000
  O  Te17      1.0  0.07100  0.59628  0.38944  1.0000
  O  Te18      1.0  0.01117  0.58652  0.42074  1.0000
  H   H74       1.0  0.92822  0.43241  0.11785  1.0000
  Mg  Mg9       1.0  0.06726  0.63807  0.49583  1.0000
  C   C125      1.0  0.88760  0.79627  0.87955  1.0000
  C   C126      1.0  0.87238  0.75593  0.75883  1.0000
  C  Sn19      1.0  0.88453  0.75828  0.61659  1.0000
  C  Sn20      1.0  0.91244  0.80189  0.59520  1.0000
  C   C127      1.0  0.92751  0.84205  0.71679  1.0000
  C   C128      1.0  0.91514  0.83930  0.85860  1.0000
  H   H75       1.0  0.87805  0.79415  0.98934  1.0000
  O  Te19      1.0  0.86901  0.71763  0.49716  1.0000
  O  Te20      1.0  0.92509  0.80524  0.45429  1.0000
  H   H76       1.0  0.92695  0.87054  0.95213  1.0000
  Mg  Mg10      1.0  0.89541  0.74005  0.32640  1.0000
  C   C129      1.0  0.90470  0.54053  0.86085  1.0000
  C   C130      1.0  0.92038  0.55010  0.72853  1.0000
  C  Sn21      1.0  0.91757  0.57492  0.60184  1.0000
  C  Sn22      1.0  0.89870  0.59043  0.60811  1.0000
  C   C131      1.0  0.88313  0.58071  0.74112  1.0000
  C   C132      1.0  0.88610  0.55583  0.86719  1.0000
  H   H77       1.0  0.90701  0.52130  0.95848  1.0000
  O  Te21      1.0  0.93338  0.58417  0.47049  1.0000
  O  Te22      1.0  0.89549  0.61533  0.48319  1.0000
  H   H78       1.0  0.87398  0.54845  0.96971  1.0000
  Mg  Mg11      1.0  0.92165  0.61931  0.32986  1.0000
  C   C133      1.0  0.62754  0.54435  0.65062  1.0000
  C   C134      1.0  0.63021  0.57073  0.78802  1.0000
  C  Sn23      1.0  0.66662  0.60949  0.93498  1.0000
  C  Sn24      1.0  0.70095  0.62199  0.94414  1.0000
  C   C135      1.0  0.69797  0.59539  0.80591  1.0000
  C   C136      1.0  0.66138  0.55666  0.65950  1.0000
  H   H79       1.0  0.59923  0.51440  0.53728  1.0000
  O  Te23      1.0  0.57913  0.56632  0.07113  1.0000
  O  Te24      1.0  0.64809  0.59143  0.08944  1.0000
  H   H80       1.0  0.65932  0.53625  0.55307  1.0000
  Mg  Mg12      1.0  0.63592  0.61588  0.24170  1.0000
  C   C137      1.0  0.13323  0.24210  0.90333  1.0000
  C   C138      1.0  0.13038  0.26301  0.75674  1.0000
  C  Sn25      1.0  0.09709  0.23699  0.57604  1.0000
  C  Sn26      1.0  0.06613  0.18916  0.54193  1.0000
  C   C139      1.0  0.06925  0.16858  0.68959  1.0000
  C   C140      1.0  0.10269  0.19494  0.86984  1.0000
  H   H81       1.0  0.06946  0.19335  0.04284  1.0000
  O  Te25      1.0  0.09473  0.25842  0.43116  1.0000
  O  Te26      1.0  0.03252  0.16235  0.36272  1.0000
  H   H82       1.0  0.10488  0.17875  0.98335  1.0000
  Mg  Mg13      1.0  0.04300  0.20729  0.21107  1.0000
  C   C141      1.0  0.09347  0.42273  0.88754  1.0000
  C   C142      1.0  0.11060  0.43298  0.76165  1.0000
  C  Sn27      1.0  0.10703  0.45613  0.62756  1.0000
  C  Sn28      1.0  0.08591  0.46923  0.61973  1.0000
  C   C143      1.0  0.06890  0.45885  0.74639  1.0000
  C   C144      1.0  0.07264  0.43565  0.87996  1.0000
  H   H83       1.0  0.09638  0.40481  0.99097  1.0000
  O  Te27      1.0  0.12431  0.46608  0.50280  1.0000
  O  Te28      1.0  0.08190  0.49242  0.48717  1.0000
  H   H84       1.0  0.05940  0.42775  0.97750  1.0000
  Mg  Mg14      1.0  0.11070  0.49824  0.34740  1.0000
  C   C145      1.0  0.32912  0.41156  0.83884  1.0000
  C   C146      1.0  0.31364  0.43024  0.74462  1.0000
  C  Sn29      1.0  0.32439  0.45228  0.60558  1.0000
  C  Sn30      1.0  0.35112  0.45561  0.56029  1.0000
  C   C147      1.0  0.36641  0.43678  0.65526  1.0000
  C   C148      1.0  0.35547  0.41481  0.79420  1.0000
  H   H85       1.0  0.32064  0.39454  0.94626  1.0000
  O  Te29      1.0  0.30866  0.47077  0.51288  1.0000
  O  Te30      1.0  0.36234  0.47744  0.42186  1.0000
  H   H86       1.0  0.36744  0.40032  0.86703  1.0000
  Mg  Mg15      1.0  0.33293  0.49724  0.33487  1.0000
  C   C149      1.0  0.03086  0.54720  0.86398  1.0000
  C   C150      1.0  0.99365  0.53196  0.78407  1.0000
  C  Sn31      1.0  0.96132  0.48767  0.65395  1.0000
  C  Sn32      1.0  0.96643  0.45817  0.60322  1.0000
  C   C151      1.0  0.00377  0.47373  0.68408  1.0000
  C   C152      1.0  0.03592  0.51812  0.81409  1.0000
  H   H87       1.0  0.05573  0.58154  0.96466  1.0000
  O  Te31      1.0  0.92436  0.47299  0.57540  1.0000
  O  Te32      1.0  0.93462  0.41373  0.47359  1.0000
  H   H88       1.0  0.06472  0.52990  0.87604  1.0000
  Mg  Mg16      1.0  0.89005  0.40947  0.40508  1.0000
  C   C153      1.0  0.96723  0.00029  0.71782  1.0000
  C   C154      1.0  0.97021  0.96714  0.72280  1.0000
  C  Sn33      1.0  0.00492  0.97938  0.74945  1.0000
  C  Sn34      1.0  0.03720  0.02569  0.77153  1.0000
  C   C155      1.0  0.53259  0.05860  0.76647  1.0000
  C   C156      1.0  0.99907  0.04598  0.73967  1.0000
  H   H89       1.0  0.94026  0.99053  0.69719  1.0000
  O  Te33      1.0  0.00738  0.94583  0.75399  1.0000
  O  Te34      1.0  0.07224  0.03886  0.79843  1.0000
  H   H90       1.0  0.49543  0.07166  0.73594  1.0000
  Mg  Mg17      1.0  0.06132  0.98066  0.79419  1.0000
  C   C157      1.0  0.48979  0.47094  0.67425  1.0000
  C   C158      1.0  0.52731  0.51461  0.74447  1.0000
  C  Sn35      1.0  0.53540  0.55342  0.82763  1.0000
  C  Sn36      1.0  0.50533  0.54829  0.84058  1.0000
  C   C159      1.0  0.46790  0.50445  0.77004  1.0000
  C   C160      1.0  0.46011  0.46585  0.68704  1.0000
  H   H91       1.0  0.48377  0.44107  0.61013  1.0000
  O  Te35      1.0  0.57304  0.59680  0.89699  1.0000
  O  Te36      1.0  0.51262  0.58650  0.92308  1.0000
  H   H92       1.0  0.43107  0.43204  0.63281  1.0000
  Mg  Mg18      1.0  0.56859  0.63843  0.99707  1.0000
