data_image0
_chemical_formula_structural       Cu4H144C256N32O16SnCSn2CSnTe4Mg2SnCSn2CSnTe4Mg2SnCSn2CSnTe4Mg2SnCSn2CSnTe4Mg2SnCSn2CSnTe4Mg2SnCSn2CSnTe4Mg2SnCSn2CSnTe4Mg2SnCSn2CSnTe4Mg2
_chemical_formula_sum              "Cu4 H144 C272 N32 O16 Sn32 Te32 Mg16"
_cell_length_a       45.9137
_cell_length_b       45.9842
_cell_length_c       8.12482
_cell_angle_alpha    89.8805
_cell_angle_beta     95.9666
_cell_angle_gamma    90.0081

_symmetry_space_group_name_H-M    'P1'
_space_group_IT_number       1

loop_
  _space_group_symop_operation_xyz
  'x, y, z'

loop_
  _atom_site_type_symbol
  _atom_site_label
  _atom_site_symmetry_multiplicity
  _atom_site_fract_x
  _atom_site_fract_y
  _atom_site_fract_z
  _atom_site_occupancy
  Cu  Cu1       1.0  0.00285  0.50142  0.26276  1.0000
  Cu  Cu2       1.0  0.50280  0.00174  0.24554  1.0000
  Cu  Cu3       1.0  0.99654  0.49842  0.75978  1.0000
  Cu  Cu4       1.0  0.49621  0.99845  0.74517  1.0000
  H   H1        1.0  0.13712  0.33525  0.40145  1.0000
  H   H2        1.0  0.17970  0.36697  0.14431  1.0000
  H   H3        1.0  0.25535  0.81385  0.40861  1.0000
  H   H4        1.0  0.20128  0.25485  0.40886  1.0000
  H   H5        1.0  0.34749  0.20730  0.03276  1.0000
  H   H6        1.0  0.94822  0.60580  0.39572  1.0000
  H   H7        1.0  0.28389  0.15123  0.43553  1.0000
  H   H8        1.0  0.96821  0.60795  0.14282  1.0000
  H   H9        1.0  0.60856  0.03519  0.15630  1.0000
  H   H10       1.0  0.90842  0.64126  0.39406  1.0000
  H   H11       1.0  0.16063  0.28912  0.44606  1.0000
  H   H12       1.0  0.31245  0.24787  0.05329  1.0000
  H   H13       1.0  0.19393  0.74461  0.40256  1.0000
  H   H14       1.0  0.02679  0.61005  0.15520  1.0000
  H   H15       1.0  0.40356  0.14237  0.10880  1.0000
  H   H16       1.0  0.80596  0.26587  0.36982  1.0000
  H   H17       1.0  0.71378  0.16351  0.47009  1.0000
  H   H18       1.0  0.74693  0.20505  0.42817  1.0000
  H   H19       1.0  0.26326  0.19379  0.35909  1.0000
  H   H20       1.0  0.79244  0.35261  0.00865  1.0000
  H   H21       1.0  0.44270  0.10628  0.09493  1.0000
  H   H22       1.0  0.85776  0.40927  0.12530  1.0000
  H   H23       1.0  0.75862  0.68500  0.11762  1.0000
  H   H24       1.0  0.35708  0.08274  0.39505  1.0000
  H   H25       1.0  0.68060  0.24212  0.07086  1.0000
  H   H26       1.0  0.72585  0.84916  0.48552  1.0000
  H   H27       1.0  0.65081  0.79596  0.04920  1.0000
  H   H28       1.0  0.84912  0.28466  0.45973  1.0000
  H   H29       1.0  0.68657  0.75533  0.07201  1.0000
  H   H30       1.0  0.74386  0.80693  0.40951  1.0000
  H   H31       1.0  0.84088  0.36624  0.06362  1.0000
  H   H32       1.0  0.81849  0.63485  0.14743  1.0000
  H   H33       1.0  0.85036  0.70876  0.47443  1.0000
  H   H34       1.0  0.75131  0.31789  0.01972  1.0000
  H   H35       1.0  0.61097  0.97669  0.16174  1.0000
  H   H36       1.0  0.33552  0.87606  0.36094  1.0000
  H   H37       1.0  0.63390  0.18097  0.12392  1.0000
  H   H38       1.0  0.89242  0.54782  0.09463  1.0000
  H   H39       1.0  0.63779  0.84400  0.08788  1.0000
  H   H40       1.0  0.31605  0.76145  0.16274  1.0000
  H   H41       1.0  0.80928  0.74425  0.44727  1.0000
  H   H42       1.0  0.89943  0.46852  0.38921  1.0000
  H   H43       1.0  0.24816  0.69001  0.12930  1.0000
  H   H44       1.0  0.03364  0.39550  0.13922  1.0000
  H   H45       1.0  0.91931  0.35512  0.41892  1.0000
  H   H46       1.0  0.89670  0.52687  0.37783  1.0000
  H   H47       1.0  0.23928  0.31850  0.10071  1.0000
  H   H48       1.0  0.97548  0.39296  0.14703  1.0000
  H   H49       1.0  0.15222  0.72468  0.46763  1.0000
  H   H50       1.0  0.11088  0.53403  0.40643  1.0000
  H   H51       1.0  0.87143  0.66365  0.41185  1.0000
  H   H52       1.0  0.39735  0.04669  0.38569  1.0000
  H   H53       1.0  0.16042  0.63866  0.11871  1.0000
  H   H54       1.0  0.29029  0.85533  0.41595  1.0000
  H   H55       1.0  0.52865  0.11103  0.34770  1.0000
  H   H56       1.0  0.53812  0.89613  0.38079  1.0000
  H   H57       1.0  0.11302  0.47570  0.39802  1.0000
  H   H58       1.0  0.36161  0.15957  0.06578  1.0000
  H   H59       1.0  0.47038  0.10764  0.35764  1.0000
  H   H60       1.0  0.47946  0.89411  0.37716  1.0000
  H   H61       1.0  0.20861  0.65303  0.10313  1.0000
  H   H62       1.0  0.36624  0.82109  0.17323  1.0000
  H   H63       1.0  0.85162  0.58332  0.09405  1.0000
  H   H64       1.0  0.66824  0.13864  0.41436  1.0000
  H   H65       1.0  0.39212  0.02616  0.11259  1.0000
  H   H66       1.0  0.39487  0.96787  0.10738  1.0000
  H   H67       1.0  0.89561  0.44717  0.11579  1.0000
  H   H68       1.0  0.95745  0.39359  0.40911  1.0000
  H   H69       1.0  0.12585  0.32954  0.87441  1.0000
  H   H70       1.0  0.17681  0.36470  0.68847  1.0000
  H   H71       1.0  0.25310  0.80334  0.91309  1.0000
  H   H72       1.0  0.18863  0.24829  0.90053  1.0000
  H   H73       1.0  0.34151  0.20650  0.56365  1.0000
  H   H74       1.0  0.27580  0.14391  0.92792  1.0000
  H   H75       1.0  0.96253  0.60510  0.64237  1.0000
  H   H76       1.0  0.39481  0.94291  0.88583  1.0000
  H   H77       1.0  0.59995  0.03170  0.62312  1.0000
  H   H78       1.0  0.35775  0.90449  0.88240  1.0000
  H   H79       1.0  0.14776  0.28324  0.92170  1.0000
  H   H80       1.0  0.30554  0.24589  0.59394  1.0000
  H   H81       1.0  0.19407  0.73774  0.89651  1.0000
  H   H82       1.0  0.02122  0.60665  0.64726  1.0000
  H   H83       1.0  0.81239  0.25594  0.91467  1.0000
  H   H84       1.0  0.71378  0.14677  0.97888  1.0000
  H   H85       1.0  0.74959  0.18680  0.95479  1.0000
  H   H86       1.0  0.25545  0.18699  0.86717  1.0000
  H   H87       1.0  0.55264  0.89343  0.62732  1.0000
  H   H88       1.0  0.78974  0.33855  0.53074  1.0000
  H   H89       1.0  0.85415  0.40032  0.60456  1.0000
  H   H90       1.0  0.75911  0.68966  0.63219  1.0000
  H   H91       1.0  0.68491  0.23295  0.62729  1.0000
  H   H92       1.0  0.72445  0.85327  0.99414  1.0000
  H   H93       1.0  0.65197  0.79803  0.55292  1.0000
  H   H94       1.0  0.85487  0.27825  0.98671  1.0000
  H   H95       1.0  0.68884  0.75842  0.58000  1.0000
  H   H96       1.0  0.13823  0.59174  0.66792  1.0000
  H   H97       1.0  0.74355  0.81147  0.92288  1.0000
  H   H98       1.0  0.83913  0.35466  0.56526  1.0000
  H   H99       1.0  0.81790  0.63833  0.65644  1.0000
  H   H100      1.0  0.85186  0.71161  0.98369  1.0000
  H   H101      1.0  0.04574  0.60591  0.92371  1.0000
  H   H102      1.0  0.75176  0.30114  0.56214  1.0000
  H   H103      1.0  0.60298  0.97336  0.63845  1.0000
  H   H104      1.0  0.33186  0.86844  0.88236  1.0000
  H   H105      1.0  0.63374  0.17513  0.65992  1.0000
  H   H106      1.0  0.59355  0.85846  0.64309  1.0000
  H   H107      1.0  0.64754  0.91883  0.94009  1.0000
  H   H108      1.0  0.14229  0.41551  0.62190  1.0000
  H   H109      1.0  0.05570  0.39451  0.91880  1.0000
  H   H110      1.0  0.63680  0.84476  0.59195  1.0000
  H   H111      1.0  0.31312  0.75674  0.63142  1.0000
  H   H112      1.0  0.81143  0.74784  0.96043  1.0000
  H   H113      1.0  0.89090  0.46572  0.85347  1.0000
  H   H114      1.0  0.08330  0.64525  0.93999  1.0000
  H   H115      1.0  0.24321  0.68119  0.60511  1.0000
  H   H116      1.0  0.02801  0.39186  0.65089  1.0000
  H   H117      1.0  0.91491  0.35387  0.94755  1.0000
  H   H118      1.0  0.88871  0.52423  0.84745  1.0000
  H   H119      1.0  0.23624  0.31479  0.66236  1.0000
  H   H120      1.0  0.10060  0.55346  0.64710  1.0000
  H   H121      1.0  0.96967  0.38918  0.66168  1.0000
  H   H122      1.0  0.09501  0.35854  0.92134  1.0000
  H   H123      1.0  0.15240  0.71964  0.97146  1.0000
  H   H124      1.0  0.10458  0.53092  0.90971  1.0000
  H   H125      1.0  0.87222  0.66613  0.91529  1.0000
  H   H126      1.0  0.10194  0.45157  0.61837  1.0000
  H   H127      1.0  0.41042  0.85017  0.59914  1.0000
  H   H128      1.0  0.15526  0.63275  0.62071  1.0000
  H   H129      1.0  0.44705  0.88982  0.59650  1.0000
  H   H130      1.0  0.28707  0.84555  0.93428  1.0000
  H   H131      1.0  0.52297  0.10681  0.86214  1.0000
  H   H132      1.0  0.60610  0.95416  0.92265  1.0000
  H   H133      1.0  0.53207  0.89291  0.88199  1.0000
  H   H134      1.0  0.10695  0.47265  0.89310  1.0000
  H   H135      1.0  0.35443  0.15638  0.57104  1.0000
  H   H136      1.0  0.46475  0.10393  0.86886  1.0000
  H   H137      1.0  0.47348  0.89029  0.87104  1.0000
  H   H138      1.0  0.20244  0.64561  0.59179  1.0000
  H   H139      1.0  0.36126  0.81824  0.65538  1.0000
  H   H140      1.0  0.66638  0.12558  0.91521  1.0000
  H   H141      1.0  0.38578  0.02307  0.61147  1.0000
  H   H142      1.0  0.38822  0.96470  0.61465  1.0000
  H   H143      1.0  0.89021  0.43972  0.59033  1.0000
  H   H144      1.0  0.95129  0.39377  0.93193  1.0000
  C   C1        1.0  0.02436  0.56350  0.23696  1.0000
  C   C2        1.0  0.05418  0.55639  0.27534  1.0000
  C   C3        1.0  0.06378  0.52763  0.30737  1.0000
  C   C4        1.0  0.09325  0.51922  0.36679  1.0000
  C   C5        1.0  0.15257  0.34222  0.31477  1.0000
  C   C6        1.0  0.19900  0.33104  0.19330  1.0000
  C   C7        1.0  0.22281  0.28431  0.25137  1.0000
  C   C8        1.0  0.20015  0.27594  0.34810  1.0000
  C   C9        1.0  0.17767  0.29511  0.36857  1.0000
  C   C10       1.0  0.17628  0.32277  0.29186  1.0000
  C   C11       1.0  0.24562  0.26436  0.23272  1.0000
  C   C12       1.0  0.97591  0.56174  0.22651  1.0000
  C   C13       1.0  0.09433  0.48951  0.36270  1.0000
  C   C14       1.0  0.06549  0.47947  0.30149  1.0000
  C   C15       1.0  0.05787  0.45033  0.26459  1.0000
  C   C16       1.0  0.01342  0.59171  0.18328  1.0000
  C   C17       1.0  0.22219  0.31189  0.17588  1.0000
  C   C18       1.0  0.98356  0.59060  0.17679  1.0000
  C   C19       1.0  0.30190  0.17422  0.27872  1.0000
  C   C20       1.0  0.28176  0.19673  0.28708  1.0000
  C   C21       1.0  0.28533  0.22367  0.20810  1.0000
  C   C22       1.0  0.30965  0.22745  0.11717  1.0000
  C   C23       1.0  0.32911  0.20465  0.10597  1.0000
  C   C24       1.0  0.32632  0.17772  0.18697  1.0000
  C   C25       1.0  0.15790  0.65305  0.22435  1.0000
  C   C26       1.0  0.26448  0.24591  0.22058  1.0000
  C   C27       1.0  0.98038  0.43933  0.23115  1.0000
  C   C28       1.0  0.95168  0.44649  0.26302  1.0000
  C   C29       1.0  0.94325  0.47516  0.29556  1.0000
  C   C30       1.0  0.91559  0.48343  0.35032  1.0000
  C   C31       1.0  0.92941  0.42323  0.26216  1.0000
  C   C32       1.0  0.02859  0.44122  0.22963  1.0000
  C   C33       1.0  0.91425  0.51309  0.34509  1.0000
  C   C34       1.0  0.94121  0.52324  0.28891  1.0000
  C   C35       1.0  0.94755  0.55242  0.25362  1.0000
  C   C36       1.0  0.92339  0.57386  0.24804  1.0000
  C   C37       1.0  0.93579  0.39665  0.34427  1.0000
  C   C38       1.0  0.89565  0.56804  0.16325  1.0000
  C   C39       1.0  0.87277  0.58792  0.16224  1.0000
  C   C40       1.0  0.90441  0.62088  0.32805  1.0000
  C   C41       1.0  0.92710  0.60091  0.32872  1.0000
  C   C42       1.0  0.98970  0.41132  0.17747  1.0000
  C   C43       1.0  0.01938  0.41255  0.17483  1.0000
  C   C44       1.0  0.91464  0.37520  0.35022  1.0000
  C   C45       1.0  0.90085  0.42703  0.18277  1.0000
  C   C46       1.0  0.87655  0.61463  0.24597  1.0000
  C   C47       1.0  0.88622  0.37907  0.27014  1.0000
  C   C48       1.0  0.87963  0.40554  0.18692  1.0000
  C   C49       1.0  0.85258  0.65740  0.32502  1.0000
  C   C50       1.0  0.80177  0.67041  0.20885  1.0000
  C   C51       1.0  0.78130  0.71699  0.28013  1.0000
  C   C52       1.0  0.80761  0.72376  0.38083  1.0000
  C   C53       1.0  0.83030  0.70394  0.39558  1.0000
  C   C54       1.0  0.82824  0.67713  0.31029  1.0000
  C   C55       1.0  0.75827  0.73750  0.26542  1.0000
  C   C56       1.0  0.84435  0.35261  0.17532  1.0000
  C   C57       1.0  0.70279  0.82698  0.32215  1.0000
  C   C58       1.0  0.72333  0.80453  0.33068  1.0000
  C   C59       1.0  0.71775  0.77829  0.24336  1.0000
  C   C60       1.0  0.69097  0.77518  0.14250  1.0000
  C   C61       1.0  0.67114  0.79802  0.13018  1.0000
  C   C62       1.0  0.67594  0.82416  0.21981  1.0000
  C   C63       1.0  0.73914  0.75611  0.25511  1.0000
  C   C64       1.0  0.77854  0.69029  0.19605  1.0000
  C   C65       1.0  0.43988  0.02306  0.20296  1.0000
  C   C66       1.0  0.44713  0.05231  0.23781  1.0000
  C   C67       1.0  0.47629  0.06177  0.27260  1.0000
  C   C68       1.0  0.48501  0.09077  0.32342  1.0000
  C   C69       1.0  0.42304  0.07366  0.23918  1.0000
  C   C70       1.0  0.44208  0.97497  0.20188  1.0000
  C   C71       1.0  0.51467  0.09239  0.32033  1.0000
  C   C72       1.0  0.52450  0.06415  0.27259  1.0000
  C   C73       1.0  0.55363  0.05710  0.24877  1.0000
  C   C74       1.0  0.39819  0.06731  0.32074  1.0000
  C   C75       1.0  0.41104  0.01259  0.14548  1.0000
  C   C76       1.0  0.41244  0.98292  0.14362  1.0000
  C   C77       1.0  0.37573  0.08740  0.32696  1.0000
  C   C78       1.0  0.42411  0.10112  0.16226  1.0000
  C   C79       1.0  0.37700  0.11484  0.25084  1.0000
  C   C80       1.0  0.40180  0.12138  0.16888  1.0000
  C   C81       1.0  0.66027  0.15427  0.31767  1.0000
  C   C82       1.0  0.66945  0.20140  0.17885  1.0000
  C   C83       1.0  0.71602  0.22618  0.24576  1.0000
  C   C84       1.0  0.72552  0.20356  0.35807  1.0000
  C   C85       1.0  0.70697  0.18059  0.38129  1.0000
  C   C86       1.0  0.67889  0.17868  0.29266  1.0000
  C   C87       1.0  0.73539  0.24942  0.22363  1.0000
  C   C88       1.0  0.34882  0.15583  0.17090  1.0000
  C   C89       1.0  0.82578  0.30500  0.28843  1.0000
  C   C90       1.0  0.80298  0.28503  0.29086  1.0000
  C   C91       1.0  0.77573  0.28941  0.19672  1.0000
  C   C92       1.0  0.77199  0.31432  0.09479  1.0000
  C   C93       1.0  0.79508  0.33366  0.08944  1.0000
  C   C94       1.0  0.82220  0.33017  0.18684  1.0000
  C   C95       1.0  0.75336  0.26861  0.20782  1.0000
  C   C96       1.0  0.68798  0.22505  0.15798  1.0000
  C   C97       1.0  0.56497  0.98017  0.22995  1.0000
  C   C98       1.0  0.55828  0.95093  0.26212  1.0000
  C   C99       1.0  0.52991  0.94169  0.28864  1.0000
  C   C100      1.0  0.52250  0.91311  0.34425  1.0000
  C   C101      1.0  0.56292  0.02836  0.22494  1.0000
  C   C102      1.0  0.49271  0.91202  0.34111  1.0000
  C   C103      1.0  0.48163  0.93978  0.28086  1.0000
  C   C104      1.0  0.45187  0.94651  0.24001  1.0000
  C   C105      1.0  0.59282  0.99044  0.18645  1.0000
  C   C106      1.0  0.59158  0.02016  0.18369  1.0000
  C   C107      1.0  0.34253  0.85632  0.30046  1.0000
  C   C108      1.0  0.33016  0.80501  0.22318  1.0000
  C   C109      1.0  0.28337  0.78499  0.28437  1.0000
  C   C110      1.0  0.27603  0.81189  0.35568  1.0000
  C   C111      1.0  0.29558  0.83474  0.36001  1.0000
  C   C112      1.0  0.32283  0.83210  0.29457  1.0000
  C   C113      1.0  0.26319  0.76174  0.27894  1.0000
  C   C114      1.0  0.65289  0.84611  0.20152  1.0000
  C   C115      1.0  0.17557  0.70290  0.33050  1.0000
  C   C116      1.0  0.19722  0.72432  0.33824  1.0000
  C   C117      1.0  0.22374  0.71995  0.26810  1.0000
  C   C118      1.0  0.22804  0.69348  0.18619  1.0000
  C   C119      1.0  0.20584  0.67289  0.17258  1.0000
  C   C120      1.0  0.17940  0.67650  0.24468  1.0000
  C   C121      1.0  0.24507  0.74217  0.27531  1.0000
  C   C122      1.0  0.31037  0.78179  0.21937  1.0000
  C   C123      1.0  0.01848  0.56034  0.73265  1.0000
  C   C124      1.0  0.04817  0.55326  0.77442  1.0000
  C   C125      1.0  0.05758  0.52455  0.80845  1.0000
  C   C126      1.0  0.08703  0.51614  0.86819  1.0000
  C   C127      1.0  0.14445  0.33810  0.81507  1.0000
  C   C128      1.0  0.11301  0.62176  0.80255  1.0000
  C   C129      1.0  0.07025  0.57678  0.78323  1.0000
  C   C130      1.0  0.19394  0.32747  0.72948  1.0000
  C   C131      1.0  0.21509  0.27933  0.78045  1.0000
  C   C132      1.0  0.18977  0.27033  0.85349  1.0000
  C   C133      1.0  0.16717  0.28980  0.86474  1.0000
  C   C134      1.0  0.16845  0.31848  0.80301  1.0000
  C   C135      1.0  0.23777  0.25912  0.76451  1.0000
  C   C136      1.0  0.97013  0.55887  0.72354  1.0000
  C   C137      1.0  0.08820  0.48650  0.86094  1.0000
  C   C138      1.0  0.05933  0.47650  0.80021  1.0000
  C   C139      1.0  0.05173  0.44735  0.76508  1.0000
  C   C140      1.0  0.00775  0.58856  0.67822  1.0000
  C   C141      1.0  0.07558  0.42569  0.76659  1.0000
  C   C142      1.0  0.06565  0.60323  0.86386  1.0000
  C   C143      1.0  0.21705  0.30786  0.72007  1.0000
  C   C144      1.0  0.97793  0.58773  0.67448  1.0000
  C   C145      1.0  0.11798  0.59520  0.72372  1.0000
  C   C146      1.0  0.08656  0.62518  0.87373  1.0000
  C   C147      1.0  0.09691  0.57340  0.71343  1.0000
  C   C148      1.0  0.12149  0.38412  0.76776  1.0000
  C   C149      1.0  0.29539  0.16958  0.79090  1.0000
  C   C150      1.0  0.27452  0.19134  0.80182  1.0000
  C   C151      1.0  0.27809  0.21926  0.73453  1.0000
  C   C152      1.0  0.30294  0.22476  0.65058  1.0000
  C   C153      1.0  0.32289  0.20257  0.63366  1.0000
  C   C154      1.0  0.32026  0.17477  0.70465  1.0000
  C   C155      1.0  0.15314  0.64777  0.72395  1.0000
  C   C156      1.0  0.25671  0.24088  0.74988  1.0000
  C   C157      1.0  0.10074  0.43132  0.68650  1.0000
  C   C158      1.0  0.12329  0.41111  0.68772  1.0000
  C   C159      1.0  0.09661  0.37847  0.85073  1.0000
  C   C160      1.0  0.07430  0.39885  0.85006  1.0000
  C   C161      1.0  0.97430  0.43619  0.73214  1.0000
  C   C162      1.0  0.94529  0.44352  0.75699  1.0000
  C   C163      1.0  0.93629  0.47234  0.78107  1.0000
  C   C164      1.0  0.90780  0.48068  0.82423  1.0000
  C   C165      1.0  0.92358  0.41970  0.76015  1.0000
  C   C166      1.0  0.02251  0.43810  0.73125  1.0000
  C   C167      1.0  0.90671  0.51040  0.82129  1.0000
  C   C168      1.0  0.93455  0.52052  0.77667  1.0000
  C   C169      1.0  0.94161  0.54978  0.74812  1.0000
  C   C170      1.0  0.93021  0.39484  0.85824  1.0000
  C   C171      1.0  0.98389  0.40772  0.68686  1.0000
  C   C172      1.0  0.01355  0.40903  0.68331  1.0000
  C   C173      1.0  0.91004  0.37258  0.86738  1.0000
  C   C174      1.0  0.89575  0.42097  0.66910  1.0000
  C   C175      1.0  0.88235  0.37387  0.77528  1.0000
  C   C176      1.0  0.87544  0.39861  0.67633  1.0000
  C   C177      1.0  0.85288  0.66025  0.83114  1.0000
  C   C178      1.0  0.80210  0.67425  0.71990  1.0000
  C   C179      1.0  0.78264  0.72116  0.79417  1.0000
  C   C180      1.0  0.80927  0.72744  0.89313  1.0000
  C   C181      1.0  0.83162  0.70720  0.90544  1.0000
  C   C182      1.0  0.82891  0.68046  0.81948  1.0000
  C   C183      1.0  0.75986  0.74194  0.78033  1.0000
  C   C184      1.0  0.84265  0.34350  0.68592  1.0000
  C   C185      1.0  0.70224  0.83043  0.83023  1.0000
  C   C186      1.0  0.72337  0.80853  0.84161  1.0000
  C   C187      1.0  0.71879  0.78218  0.75413  1.0000
  C   C188      1.0  0.69244  0.77838  0.65035  1.0000
  C   C189      1.0  0.67198  0.80063  0.63583  1.0000
  C   C190      1.0  0.67576  0.82689  0.72517  1.0000
  C   C191      1.0  0.74060  0.76044  0.76847  1.0000
  C   C192      1.0  0.77922  0.69453  0.70983  1.0000
  C   C193      1.0  0.43347  0.01997  0.70517  1.0000
  C   C194      1.0  0.44085  0.04923  0.74052  1.0000
  C   C195      1.0  0.47008  0.05847  0.77566  1.0000
  C   C196      1.0  0.47915  0.08708  0.83213  1.0000
  C   C197      1.0  0.43556  0.97178  0.70691  1.0000
  C   C198      1.0  0.50882  0.08848  0.82977  1.0000
  C   C199      1.0  0.51826  0.06062  0.77465  1.0000
  C   C200      1.0  0.54703  0.05362  0.74387  1.0000
  C   C201      1.0  0.40462  0.00951  0.64769  1.0000
  C   C202      1.0  0.40588  0.97978  0.64907  1.0000
  C   C203      1.0  0.65899  0.14352  0.83190  1.0000
  C   C204      1.0  0.67106  0.19193  0.71835  1.0000
  C   C205      1.0  0.71964  0.21251  0.78930  1.0000
  C   C206      1.0  0.72780  0.18780  0.88886  1.0000
  C   C207      1.0  0.70777  0.16570  0.90208  1.0000
  C   C208      1.0  0.67925  0.16696  0.81771  1.0000
  C   C209      1.0  0.74021  0.23489  0.77249  1.0000
  C   C210      1.0  0.34300  0.15328  0.68238  1.0000
  C   C211      1.0  0.82828  0.29597  0.81953  1.0000
  C   C212      1.0  0.80733  0.27430  0.83189  1.0000
  C   C213      1.0  0.77934  0.27604  0.74232  1.0000
  C   C214      1.0  0.77297  0.29987  0.63481  1.0000
  C   C215      1.0  0.79436  0.32066  0.61773  1.0000
  C   C216      1.0  0.82216  0.31988  0.71008  1.0000
  C   C217      1.0  0.75836  0.25401  0.75878  1.0000
  C   C218      1.0  0.69132  0.21437  0.70563  1.0000
  C   C219      1.0  0.55808  0.97693  0.72168  1.0000
  C   C220      1.0  0.55197  0.94782  0.76001  1.0000
  C   C221      1.0  0.52375  0.93847  0.78888  1.0000
  C   C222      1.0  0.51645  0.90986  0.84421  1.0000
  C   C223      1.0  0.57641  0.92667  0.77065  1.0000
  C   C224      1.0  0.55575  0.02499  0.71243  1.0000
  C   C225      1.0  0.48662  0.90852  0.83845  1.0000
  C   C226      1.0  0.47538  0.93637  0.77988  1.0000
  C   C227      1.0  0.44551  0.94323  0.74241  1.0000
  C   C228      1.0  0.42376  0.91947  0.74146  1.0000
  C   C229      1.0  0.60366  0.93347  0.85831  1.0000
  C   C230      1.0  0.42784  0.89274  0.66256  1.0000
  C   C231      1.0  0.40731  0.87052  0.66310  1.0000
  C   C232      1.0  0.37712  0.90090  0.81867  1.0000
  C   C233      1.0  0.39794  0.92282  0.81970  1.0000
  C   C234      1.0  0.58517  0.98714  0.66744  1.0000
  C   C235      1.0  0.58367  0.01679  0.66074  1.0000
  C   C236      1.0  0.62680  0.91390  0.86840  1.0000
  C   C237      1.0  0.57348  0.89911  0.69517  1.0000
  C   C238      1.0  0.38157  0.87412  0.74091  1.0000
  C   C239      1.0  0.62399  0.88674  0.78879  1.0000
  C   C240      1.0  0.59665  0.87950  0.70333  1.0000
  C   C241      1.0  0.33826  0.85013  0.80756  1.0000
  C   C242      1.0  0.32636  0.79987  0.70732  1.0000
  C   C243      1.0  0.28087  0.77724  0.77065  1.0000
  C   C244      1.0  0.27335  0.80280  0.85500  1.0000
  C   C245      1.0  0.29238  0.82613  0.86692  1.0000
  C   C246      1.0  0.31905  0.82544  0.79433  1.0000
  C   C247      1.0  0.26128  0.75345  0.76129  1.0000
  C   C248      1.0  0.65195  0.84797  0.70451  1.0000
  C   C249      1.0  0.17327  0.69710  0.82561  1.0000
  C   C250      1.0  0.19586  0.71744  0.82956  1.0000
  C   C251      1.0  0.22144  0.71208  0.75207  1.0000
  C   C252      1.0  0.22389  0.68549  0.66780  1.0000
  C   C253      1.0  0.20097  0.66575  0.66074  1.0000
  C   C254      1.0  0.17533  0.67052  0.73905  1.0000
  C   C255      1.0  0.24334  0.73372  0.75663  1.0000
  C   C256      1.0  0.30733  0.77598  0.69820  1.0000
  N   N1        1.0  0.00107  0.54513  0.25555  1.0000
  N   N2        1.0  0.04683  0.50300  0.27585  1.0000
  N   N3        1.0  0.14991  0.36712  0.23645  1.0000
  N   N4        1.0  0.13756  0.64944  0.32123  1.0000
  N   N5        1.0  0.00431  0.45768  0.25566  1.0000
  N   N6        1.0  0.95926  0.49982  0.26724  1.0000
  N   N7        1.0  0.85230  0.63336  0.23867  1.0000
  N   N8        1.0  0.86636  0.35637  0.28609  1.0000
  N   N9        1.0  0.45884  0.99979  0.22940  1.0000
  N   N10       1.0  0.50086  0.04545  0.24988  1.0000
  N   N11       1.0  0.63502  0.15120  0.22886  1.0000
  N   N12       1.0  0.35383  0.13400  0.27063  1.0000
  N   N13       1.0  0.54659  0.00361  0.24602  1.0000
  N   N14       1.0  0.50472  0.95810  0.25756  1.0000
  N   N15       1.0  0.36753  0.85481  0.23651  1.0000
  N   N16       1.0  0.65020  0.86629  0.30943  1.0000
  N   N17       1.0  0.99512  0.54208  0.75155  1.0000
  N   N18       1.0  0.04061  0.49997  0.77566  1.0000
  N   N19       1.0  0.14478  0.36467  0.75724  1.0000
  N   N20       1.0  0.13278  0.64508  0.82176  1.0000
  N   N21       1.0  0.99810  0.45473  0.75294  1.0000
  N   N22       1.0  0.95273  0.49700  0.75909  1.0000
  N   N23       1.0  0.85151  0.63617  0.74508  1.0000
  N   N24       1.0  0.86350  0.35058  0.79766  1.0000
  N   N25       1.0  0.45235  0.99663  0.73282  1.0000
  N   N26       1.0  0.49446  0.04216  0.74929  1.0000
  N   N27       1.0  0.63297  0.14385  0.74901  1.0000
  N   N28       1.0  0.34911  0.13207  0.78475  1.0000
  N   N29       1.0  0.53980  0.00030  0.74050  1.0000
  N   N30       1.0  0.49843  0.95476  0.75732  1.0000
  N   N31       1.0  0.36227  0.85045  0.73373  1.0000
  N   N32       1.0  0.64849  0.86845  0.80952  1.0000
  O   O1        1.0  0.19861  0.35699  0.11684  1.0000
  O   O2        1.0  0.29830  0.14833  0.35726  1.0000
  O   O3        1.0  0.79874  0.64523  0.12527  1.0000
  O   O4        1.0  0.70845  0.85225  0.40827  1.0000
  O   O5        1.0  0.64304  0.20033  0.09123  1.0000
  O   O6        1.0  0.85191  0.30034  0.38222  1.0000
  O   O7        1.0  0.35566  0.80145  0.15854  1.0000
  O   O8        1.0  0.15002  0.70722  0.39993  1.0000
  O   O9        1.0  0.19590  0.35432  0.66683  1.0000
  O   O10       1.0  0.29178  0.14271  0.85839  1.0000
  O   O11       1.0  0.79848  0.64939  0.63402  1.0000
  O   O12       1.0  0.70696  0.85576  0.91682  1.0000
  O   O13       1.0  0.64442  0.19408  0.63416  1.0000
  O   O14       1.0  0.85525  0.29423  0.90825  1.0000
  O   O15       1.0  0.35121  0.79838  0.63417  1.0000
  O   O16       1.0  0.14854  0.70278  0.90026  1.0000
  C  Sn1       1.0  0.57601  0.12546  0.70480  1.0000
  C   C257      1.0  0.60477  0.12450  0.78028  1.0000
  C  Sn2       1.0  0.61747  0.09802  0.83273  1.0000
  C  Sn3       1.0  0.60108  0.07194  0.80915  1.0000
  C   C258      1.0  0.57235  0.07290  0.73369  1.0000
  C  Sn4       1.0  0.55963  0.09938  0.68123  1.0000
  O  Te1       1.0  0.56376  0.15218  0.65334  1.0000
  O  Te2       1.0  0.64625  0.09761  0.90793  1.0000
  O  Te3       1.0  0.61336  0.04520  0.86070  1.0000
  O  Te4       1.0  0.53087  0.09979  0.60604  1.0000
  Mg  Mg1       1.0  0.65331  0.05586  0.95681  1.0000
  Mg  Mg2       1.0  0.52379  0.14153  0.55705  1.0000
  C  Sn5       1.0  0.57518  0.10830  0.10659  1.0000
  C   C259      1.0  0.57772  0.08261  0.19918  1.0000
  C  Sn6       1.0  0.59932  0.07986  0.33264  1.0000
  C  Sn7       1.0  0.61877  0.10329  0.37451  1.0000
  C   C260      1.0  0.61622  0.12896  0.28197  1.0000
  C  Sn8       1.0  0.59463  0.13172  0.14846  1.0000
  O  Te5       1.0  0.57181  0.11020  0.97367  1.0000
  O  Te6       1.0  0.60145  0.05396  0.42333  1.0000
  O  Te7       1.0  0.64054  0.10100  0.50754  1.0000
  O  Te8       1.0  0.59250  0.15760  0.05781  1.0000
  Mg  Mg3       1.0  0.63467  0.06136  0.59359  1.0000
  Mg  Mg4       1.0  0.57766  0.14987  0.88759  1.0000
  C  Sn9       1.0  0.11205  0.57732  0.24880  1.0000
  C   C261      1.0  0.08469  0.57719  0.30969  1.0000
  C  Sn10      1.0  0.07238  0.60308  0.35971  1.0000
  C  Sn11      1.0  0.08774  0.62965  0.34855  1.0000
  C   C262      1.0  0.11509  0.62977  0.28766  1.0000
  C  Sn12      1.0  0.12742  0.60389  0.23764  1.0000
  O  Te9       1.0  0.12394  0.55118  0.19950  1.0000
  O  Te10      1.0  0.04500  0.60240  0.42023  1.0000
  O  Te11      1.0  0.07584  0.65580  0.39792  1.0000
  O  Te12      1.0  0.15478  0.60456  0.17713  1.0000
  Mg  Mg5       1.0  0.03792  0.64370  0.47191  1.0000
  Mg  Mg6       1.0  0.16187  0.56328  0.12533  1.0000
  C  Sn13      1.0  0.62427  0.91476  0.41970  1.0000
  C   C263      1.0  0.62377  0.88776  0.34082  1.0000
  C  Sn14      1.0  0.60269  0.88178  0.20861  1.0000
  C  Sn15      1.0  0.58167  0.90324  0.15402  1.0000
  C   C264      1.0  0.58218  0.93023  0.23285  1.0000
  C  Sn16      1.0  0.60325  0.93622  0.36510  1.0000
  O  Te13      1.0  0.64554  0.92026  0.55161  1.0000
  O  Te14      1.0  0.60263  0.85462  0.13175  1.0000
  O  Te15      1.0  0.56039  0.89772  0.02199  1.0000
  O  Te16      1.0  0.60332  0.96336  0.44192  1.0000
  Mg  Mg7       1.0  0.58768  0.85711  0.95721  1.0000
  Mg  Mg8       1.0  0.63666  0.96054  0.61641  1.0000
  C  Sn17      1.0  0.91707  0.59974  0.88665  1.0000
  C   C265      1.0  0.91568  0.57382  0.79671  1.0000
  C  Sn18      1.0  0.89394  0.56974  0.66528  1.0000
  C  Sn19      1.0  0.87316  0.59204  0.62278  1.0000
  C   C266      1.0  0.87456  0.61794  0.71267  1.0000
  C  Sn20      1.0  0.89629  0.62204  0.84415  1.0000
  O  Te17      1.0  0.92060  0.60371  0.01756  1.0000
  O  Te18      1.0  0.89299  0.54363  0.57722  1.0000
  O  Te19      1.0  0.85122  0.58841  0.49175  1.0000
  O  Te20      1.0  0.89725  0.64813  0.93216  1.0000
  Mg  Mg9       1.0  0.85900  0.54901  0.40899  1.0000
  Mg  Mg10      1.0  0.91284  0.64315  0.10035  1.0000
  C  Sn21      1.0  0.09148  0.38014  0.29389  1.0000
  C   C267      1.0  0.11772  0.38262  0.22191  1.0000
  C  Sn22      1.0  0.12819  0.40993  0.18066  1.0000
  C  Sn23      1.0  0.11210  0.43529  0.21211  1.0000
  C   C268      1.0  0.08588  0.43280  0.28407  1.0000
  C  Sn24      1.0  0.07539  0.40550  0.32533  1.0000
  O  Te21      1.0  0.08143  0.35263  0.33412  1.0000
  O  Te22      1.0  0.15448  0.41186  0.10876  1.0000
  O  Te23      1.0  0.12217  0.46282  0.17180  1.0000
  O  Te24      1.0  0.04912  0.40357  0.39722  1.0000
  Mg  Mg11      1.0  0.15914  0.45422  0.07612  1.0000
  Mg  Mg12      1.0  0.04445  0.36122  0.42998  1.0000
  C  Sn25      1.0  0.42651  0.89316  0.11554  1.0000
  C   C269      1.0  0.42656  0.92059  0.18931  1.0000
  C  Sn26      1.0  0.40759  0.92666  0.30848  1.0000
  C  Sn27      1.0  0.38816  0.90486  0.35499  1.0000
  C   C270      1.0  0.38812  0.87745  0.28126  1.0000
  C  Sn28      1.0  0.40709  0.87136  0.16204  1.0000
  O  Te25      1.0  0.46407  0.88721  0.99668  1.0000
  O  Te26      1.0  0.40803  0.95425  0.38045  1.0000
  O  Te27      1.0  0.36899  0.91047  0.47395  1.0000
  O  Te28      1.0  0.40665  0.84379  0.09012  1.0000
  Mg  Mg13      1.0  0.37780  0.95136  0.53659  1.0000
  Mg  Mg14      1.0  0.45528  0.84629  0.93404  1.0000
  C  Sn29      1.0  0.38201  0.06447  0.78761  1.0000
  C   C271      1.0  0.40831  0.06762  0.71698  1.0000
  C  Sn30      1.0  0.41842  0.09522  0.67863  1.0000
  C  Sn31      1.0  0.40189  0.12020  0.71166  1.0000
  C   C272      1.0  0.37560  0.11705  0.78228  1.0000
  C  Sn32      1.0  0.36548  0.08946  0.82064  1.0000
  O  Te29      1.0  0.37233  0.03667  0.82495  1.0000
  O  Te30      1.0  0.44478  0.09781  0.60802  1.0000
  O  Te31      1.0  0.41159  0.14802  0.67426  1.0000
  O  Te32      1.0  0.33914  0.08686  0.89123  1.0000
  Mg  Mg15      1.0  0.44883  0.14034  0.57938  1.0000
  Mg  Mg16      1.0  0.33507  0.04435  0.92000  1.0000
