data_image0
_chemical_formula_structural       Ni4H112C208N32O16SnCSn2CSnTe4Mg2SnCSn2CSnTe4Mg2SnCSn2CSnTe4Mg2SnCSn2CSnTe4Mg2SnCSn2CSnTe4Mg2SnCSn2CSnTe4Mg2SnCSn2CSnTe4Mg2SnCSn2CSnTe4Mg2SnCSn2CSnTe4Mg2SnCSn2CSnTe4Mg2SnCSn2CSnTe4Mg2SnCSn2CSnTe4Mg2SnCSn2CSnTe4Mg2SnCSn2CSnTe4Mg2SnCSn2CSnTe4Mg2SnCSn2CSnTe4Mg2
_chemical_formula_sum              "Ni4 H112 C240 N32 O16 Sn64 Te64 Mg32"
_cell_length_a       45.7316
_cell_length_b       46.0391
_cell_length_c       8.14434
_cell_angle_alpha    89.3402
_cell_angle_beta     93.9899
_cell_angle_gamma    90.046

_symmetry_space_group_name_H-M    'P1'
_space_group_IT_number       1

loop_
  _space_group_symop_operation_xyz
  'x, y, z'

loop_
  _atom_site_type_symbol
  _atom_site_label
  _atom_site_symmetry_multiplicity
  _atom_site_fract_x
  _atom_site_fract_y
  _atom_site_fract_z
  _atom_site_occupancy
  Ni  Ni1       1.0  0.00118  0.50190  0.26685  1.0000
  Ni  Ni2       1.0  0.50044  0.00116  0.25162  1.0000
  Ni  Ni3       1.0  0.99909  0.49917  0.76359  1.0000
  Ni  Ni4       1.0  0.49851  0.99906  0.75376  1.0000
  H   H1        1.0  0.13217  0.33466  0.37976  1.0000
  H   H2        1.0  0.17946  0.36737  0.14564  1.0000
  H   H3        1.0  0.24940  0.81568  0.38040  1.0000
  H   H4        1.0  0.19497  0.25342  0.39307  1.0000
  H   H5        1.0  0.34762  0.20758  0.05586  1.0000
  H   H6        1.0  0.28266  0.15298  0.47281  1.0000
  H   H7        1.0  0.96726  0.60702  0.13475  1.0000
  H   H8        1.0  0.60393  0.03550  0.12438  1.0000
  H   H9        1.0  0.15421  0.28824  0.42415  1.0000
  H   H10       1.0  0.31091  0.24697  0.06155  1.0000
  H   H11       1.0  0.18625  0.74231  0.37891  1.0000
  H   H12       1.0  0.02633  0.60913  0.15295  1.0000
  H   H13       1.0  0.80724  0.26274  0.39290  1.0000
  H   H14       1.0  0.71085  0.15918  0.46845  1.0000
  H   H15       1.0  0.74602  0.19951  0.43177  1.0000
  H   H16       1.0  0.26135  0.19382  0.38214  1.0000
  H   H17       1.0  0.79347  0.35103  0.04454  1.0000
  H   H18       1.0  0.75919  0.68839  0.10953  1.0000
  H   H19       1.0  0.68370  0.23999  0.07552  1.0000
  H   H20       1.0  0.72445  0.85176  0.48037  1.0000
  H   H21       1.0  0.64962  0.79609  0.07181  1.0000
  H   H22       1.0  0.84916  0.28254  0.48775  1.0000
  H   H23       1.0  0.68593  0.75595  0.09316  1.0000
  H   H24       1.0  0.74337  0.80955  0.40380  1.0000
  H   H25       1.0  0.84134  0.36491  0.09392  1.0000
  H   H26       1.0  0.81807  0.63742  0.13282  1.0000
  H   H27       1.0  0.85029  0.71036  0.45681  1.0000
  H   H28       1.0  0.75316  0.31499  0.05027  1.0000
  H   H29       1.0  0.60718  0.97699  0.13818  1.0000
  H   H30       1.0  0.33107  0.87681  0.33410  1.0000
  H   H31       1.0  0.63429  0.18064  0.11563  1.0000
  H   H32       1.0  0.63751  0.84514  0.09594  1.0000
  H   H33       1.0  0.31354  0.76095  0.16919  1.0000
  H   H34       1.0  0.80966  0.74637  0.43408  1.0000
  H   H35       1.0  0.89809  0.46887  0.40265  1.0000
  H   H36       1.0  0.25216  0.69003  0.16604  1.0000
  H   H37       1.0  0.03237  0.39796  0.12668  1.0000
  H   H38       1.0  0.89499  0.52741  0.38160  1.0000
  H   H39       1.0  0.23866  0.31763  0.10449  1.0000
  H   H40       1.0  0.97389  0.39505  0.14790  1.0000
  H   H41       1.0  0.13704  0.68143  0.36638  1.0000
  H   H42       1.0  0.10789  0.53399  0.40849  1.0000
  H   H43       1.0  0.87067  0.66510  0.39540  1.0000
  H   H44       1.0  0.17110  0.62713  0.19074  1.0000
  H   H45       1.0  0.28469  0.85680  0.38401  1.0000
  H   H46       1.0  0.52586  0.10903  0.35909  1.0000
  H   H47       1.0  0.53632  0.89744  0.39572  1.0000
  H   H48       1.0  0.11029  0.47565  0.38936  1.0000
  H   H49       1.0  0.36540  0.16351  0.11467  1.0000
  H   H50       1.0  0.46753  0.10482  0.38498  1.0000
  H   H51       1.0  0.47729  0.89403  0.38077  1.0000
  H   H52       1.0  0.21756  0.64824  0.15206  1.0000
  H   H53       1.0  0.36446  0.81999  0.17402  1.0000
  H   H54       1.0  0.66471  0.13608  0.40704  1.0000
  H   H55       1.0  0.39071  0.02528  0.13710  1.0000
  H   H56       1.0  0.39436  0.96709  0.11250  1.0000
  H   H57       1.0  0.12897  0.33214  0.87381  1.0000
  H   H58       1.0  0.17940  0.36500  0.65598  1.0000
  H   H59       1.0  0.25419  0.80523  0.90948  1.0000
  H   H60       1.0  0.18970  0.24976  0.89279  1.0000
  H   H61       1.0  0.34860  0.20904  0.61155  1.0000
  H   H62       1.0  0.27610  0.14415  0.93673  1.0000
  H   H63       1.0  0.96422  0.60366  0.62767  1.0000
  H   H64       1.0  0.60094  0.03303  0.60938  1.0000
  H   H65       1.0  0.14976  0.28574  0.92027  1.0000
  H   H66       1.0  0.30972  0.24661  0.60907  1.0000
  H   H67       1.0  0.19569  0.73747  0.92171  1.0000
  H   H68       1.0  0.02319  0.60607  0.63616  1.0000
  H   H69       1.0  0.80979  0.25721  0.91274  1.0000
  H   H70       1.0  0.71413  0.14775  0.93767  1.0000
  H   H71       1.0  0.74953  0.18851  0.91640  1.0000
  H   H72       1.0  0.25536  0.18643  0.85928  1.0000
  H   H73       1.0  0.79291  0.34417  0.55587  1.0000
  H   H74       1.0  0.75913  0.68741  0.63576  1.0000
  H   H75       1.0  0.68339  0.23773  0.62758  1.0000
  H   H76       1.0  0.72368  0.84966  0.01013  1.0000
  H   H77       1.0  0.65339  0.79937  0.55777  1.0000
  H   H78       1.0  0.85215  0.27805  0.99704  1.0000
  H   H79       1.0  0.68920  0.75890  0.57829  1.0000
  H   H80       1.0  0.74312  0.80832  0.92954  1.0000
  H   H81       1.0  0.84292  0.35743  0.59237  1.0000
  H   H82       1.0  0.81821  0.63642  0.65859  1.0000
  H   H83       1.0  0.85356  0.71294  0.94157  1.0000
  H   H84       1.0  0.75323  0.30779  0.57392  1.0000
  H   H85       1.0  0.60459  0.97448  0.63053  1.0000
  H   H86       1.0  0.33461  0.86822  0.87603  1.0000
  H   H87       1.0  0.63272  0.17889  0.65448  1.0000
  H   H88       1.0  0.64009  0.84676  0.59769  1.0000
  H   H89       1.0  0.31281  0.75920  0.60792  1.0000
  H   H90       1.0  0.81261  0.74855  0.92334  1.0000
  H   H91       1.0  0.89547  0.46548  0.88985  1.0000
  H   H92       1.0  0.24401  0.68507  0.59802  1.0000
  H   H93       1.0  0.03147  0.39506  0.63432  1.0000
  H   H94       1.0  0.89245  0.52403  0.87707  1.0000
  H   H95       1.0  0.23736  0.31379  0.62390  1.0000
  H   H96       1.0  0.97289  0.39165  0.65422  1.0000
  H   H97       1.0  0.15435  0.71805  0.00504  1.0000
  H   H98       1.0  0.10496  0.53219  0.91475  1.0000
  H   H99       1.0  0.87387  0.66707  0.88159  1.0000
  H   H100      1.0  0.15574  0.63605  0.62416  1.0000
  H   H101      1.0  0.28911  0.84665  0.92793  1.0000
  H   H102      1.0  0.52473  0.10643  0.86267  1.0000
  H   H103      1.0  0.53424  0.89487  0.89101  1.0000
  H   H104      1.0  0.10826  0.47401  0.88977  1.0000
  H   H105      1.0  0.36790  0.16547  0.67026  1.0000
  H   H106      1.0  0.46630  0.10281  0.88800  1.0000
  H   H107      1.0  0.47523  0.89164  0.87474  1.0000
  H   H108      1.0  0.20382  0.64888  0.58931  1.0000
  H   H109      1.0  0.36264  0.81939  0.63044  1.0000
  H   H110      1.0  0.66726  0.12658  0.87995  1.0000
  H   H111      1.0  0.38907  0.02383  0.63494  1.0000
  H   H112      1.0  0.39211  0.96560  0.61499  1.0000
  C   C1        1.0  0.02288  0.56285  0.23599  1.0000
  C   C2        1.0  0.05223  0.55628  0.28059  1.0000
  C   C3        1.0  0.06106  0.52770  0.31609  1.0000
  C   C4        1.0  0.09039  0.51918  0.37104  1.0000
  C   C5        1.0  0.14920  0.34210  0.30063  1.0000
  C   C6        1.0  0.19737  0.33072  0.19053  1.0000
  C   C7        1.0  0.21933  0.28315  0.24569  1.0000
  C   C8        1.0  0.19506  0.27479  0.33534  1.0000
  C   C9        1.0  0.17258  0.29428  0.35254  1.0000
  C   C10       1.0  0.17295  0.32239  0.28098  1.0000
  C   C11       1.0  0.24231  0.26304  0.23134  1.0000
  C   C12       1.0  0.97445  0.56106  0.22163  1.0000
  C   C13       1.0  0.09159  0.48964  0.36179  1.0000
  C   C14       1.0  0.06295  0.47987  0.30294  1.0000
  C   C15       1.0  0.05604  0.45130  0.25827  1.0000
  C   C16       1.0  0.01242  0.59091  0.17957  1.0000
  C   C17       1.0  0.22033  0.31108  0.17452  1.0000
  C   C18       1.0  0.98253  0.58978  0.17009  1.0000
  C   C19       1.0  0.30121  0.17483  0.30911  1.0000
  C   C20       1.0  0.28028  0.19684  0.30978  1.0000
  C   C21       1.0  0.28343  0.22315  0.22249  1.0000
  C   C22       1.0  0.30839  0.22704  0.13175  1.0000
  C   C23       1.0  0.32872  0.20482  0.12869  1.0000
  C   C24       1.0  0.32613  0.17824  0.21539  1.0000
  C   C25       1.0  0.16303  0.64673  0.24816  1.0000
  C   C26       1.0  0.26163  0.24478  0.22628  1.0000
  C   C27       1.0  0.97886  0.44099  0.23092  1.0000
  C   C28       1.0  0.95040  0.44723  0.27291  1.0000
  C   C29       1.0  0.94248  0.47565  0.30940  1.0000
  C   C30       1.0  0.91448  0.48391  0.36383  1.0000
  C   C31       1.0  0.02694  0.44311  0.21987  1.0000
  C   C32       1.0  0.91296  0.51347  0.35401  1.0000
  C   C33       1.0  0.94023  0.52355  0.29653  1.0000
  C   C34       1.0  0.94607  0.55241  0.25411  1.0000
  C   C35       1.0  0.98822  0.41332  0.17403  1.0000
  C   C36       1.0  0.01785  0.41474  0.16482  1.0000
  C   C37       1.0  0.85217  0.65917  0.30920  1.0000
  C   C38       1.0  0.80194  0.67322  0.19523  1.0000
  C   C39       1.0  0.78173  0.71973  0.27044  1.0000
  C   C40       1.0  0.80788  0.72601  0.36820  1.0000
  C   C41       1.0  0.83037  0.70593  0.37981  1.0000
  C   C42       1.0  0.82818  0.67933  0.29459  1.0000
  C   C43       1.0  0.75863  0.74017  0.26070  1.0000
  C   C44       1.0  0.84487  0.35122  0.20505  1.0000
  C   C45       1.0  0.70164  0.82864  0.32602  1.0000
  C   C46       1.0  0.72267  0.80664  0.33141  1.0000
  C   C47       1.0  0.71730  0.78012  0.24940  1.0000
  C   C48       1.0  0.69022  0.77615  0.15819  1.0000
  C   C49       1.0  0.67006  0.79868  0.14707  1.0000
  C   C50       1.0  0.67476  0.82518  0.23017  1.0000
  C   C51       1.0  0.73920  0.75848  0.25593  1.0000
  C   C52       1.0  0.77900  0.69339  0.18521  1.0000
  C   C53       1.0  0.43834  0.02196  0.21829  1.0000
  C   C54       1.0  0.44486  0.05070  0.26057  1.0000
  C   C55       1.0  0.47386  0.05957  0.29577  1.0000
  C   C56       1.0  0.48239  0.08831  0.34719  1.0000
  C   C57       1.0  0.44108  0.97419  0.20420  1.0000
  C   C58       1.0  0.51193  0.09035  0.33562  1.0000
  C   C59       1.0  0.52185  0.06265  0.28166  1.0000
  C   C60       1.0  0.55052  0.05666  0.24254  1.0000
  C   C61       1.0  0.40978  0.01166  0.16122  1.0000
  C   C62       1.0  0.41159  0.98220  0.15000  1.0000
  C   C63       1.0  0.65815  0.15209  0.31055  1.0000
  C   C64       1.0  0.67029  0.19931  0.17720  1.0000
  C   C65       1.0  0.71725  0.22233  0.25071  1.0000
  C   C66       1.0  0.72502  0.19901  0.36079  1.0000
  C   C67       1.0  0.70540  0.17661  0.38002  1.0000
  C   C68       1.0  0.67792  0.17591  0.28907  1.0000
  C   C69       1.0  0.73732  0.24538  0.23493  1.0000
  C   C70       1.0  0.34926  0.15692  0.20232  1.0000
  C   C71       1.0  0.82652  0.30293  0.31767  1.0000
  C   C72       1.0  0.80428  0.28217  0.31609  1.0000
  C   C73       1.0  0.77748  0.28623  0.22206  1.0000
  C   C74       1.0  0.77351  0.31174  0.12518  1.0000
  C   C75       1.0  0.79618  0.33173  0.12265  1.0000
  C   C76       1.0  0.82299  0.32839  0.21816  1.0000
  C   C77       1.0  0.75552  0.26472  0.22673  1.0000
  C   C78       1.0  0.68990  0.22234  0.16050  1.0000
  C   C79       1.0  0.56161  0.98030  0.21982  1.0000
  C   C80       1.0  0.55606  0.95143  0.26332  1.0000
  C   C81       1.0  0.52796  0.94266  0.30028  1.0000
  C   C82       1.0  0.52057  0.91410  0.35761  1.0000
  C   C83       1.0  0.55901  0.02824  0.20959  1.0000
  C   C84       1.0  0.49073  0.91237  0.34983  1.0000
  C   C85       1.0  0.47968  0.93992  0.28859  1.0000
  C   C86       1.0  0.45027  0.94581  0.24237  1.0000
  C   C87       1.0  0.58896  0.99068  0.16504  1.0000
  C   C88       1.0  0.58733  0.02026  0.15831  1.0000
  C   C89       1.0  0.33901  0.85650  0.28364  1.0000
  C   C90       1.0  0.32717  0.80482  0.21823  1.0000
  C   C91       1.0  0.27917  0.78561  0.27448  1.0000
  C   C92       1.0  0.27096  0.81308  0.33442  1.0000
  C   C93       1.0  0.29074  0.83577  0.33676  1.0000
  C   C94       1.0  0.31904  0.83244  0.27945  1.0000
  C   C95       1.0  0.25901  0.76234  0.27385  1.0000
  C   C96       1.0  0.65176  0.84715  0.20978  1.0000
  C   C97       1.0  0.17374  0.69826  0.32360  1.0000
  C   C98       1.0  0.19310  0.72188  0.32807  1.0000
  C   C99       1.0  0.22142  0.71894  0.27247  1.0000
  C   C100      1.0  0.23038  0.69194  0.21026  1.0000
  C   C101      1.0  0.21103  0.66885  0.20268  1.0000
  C   C102      1.0  0.18256  0.67121  0.25817  1.0000
  C   C103      1.0  0.24112  0.74259  0.27586  1.0000
  C   C104      1.0  0.30716  0.78176  0.21705  1.0000
  C   C105      1.0  0.02038  0.56008  0.72651  1.0000
  C   C106      1.0  0.04971  0.55397  0.77484  1.0000
  C   C107      1.0  0.05855  0.52556  0.81529  1.0000
  C   C108      1.0  0.08777  0.51728  0.87397  1.0000
  C   C109      1.0  0.14701  0.33989  0.80271  1.0000
  C   C110      1.0  0.19585  0.32775  0.70224  1.0000
  C   C111      1.0  0.21616  0.27946  0.75718  1.0000
  C   C112      1.0  0.19097  0.27143  0.83975  1.0000
  C   C113      1.0  0.16890  0.29149  0.85426  1.0000
  C   C114      1.0  0.17058  0.31981  0.78641  1.0000
  C   C115      1.0  0.23868  0.25884  0.74400  1.0000
  C   C116      1.0  0.97202  0.55803  0.71724  1.0000
  C   C117      1.0  0.08940  0.48781  0.86257  1.0000
  C   C118      1.0  0.06098  0.47778  0.80167  1.0000
  C   C119      1.0  0.05439  0.44910  0.75865  1.0000
  C   C120      1.0  0.00961  0.58785  0.66712  1.0000
  C   C121      1.0  0.21842  0.30755  0.68967  1.0000
  C   C122      1.0  0.97976  0.58662  0.66214  1.0000
  C   C123      1.0  0.29758  0.17003  0.80504  1.0000
  C   C124      1.0  0.27576  0.19121  0.80314  1.0000
  C   C125      1.0  0.27987  0.21910  0.73484  1.0000
  C   C126      1.0  0.30660  0.22541  0.66517  1.0000
  C   C127      1.0  0.32805  0.20419  0.66619  1.0000
  C   C128      1.0  0.32459  0.17615  0.73479  1.0000
  C   C129      1.0  0.15467  0.64933  0.73547  1.0000
  C   C130      1.0  0.25765  0.24026  0.73805  1.0000
  C   C131      1.0  0.97727  0.43798  0.73126  1.0000
  C   C132      1.0  0.94859  0.44415  0.76965  1.0000
  C   C133      1.0  0.94026  0.47260  0.80288  1.0000
  C   C134      1.0  0.91202  0.48068  0.85509  1.0000
  C   C135      1.0  0.02538  0.44049  0.72153  1.0000
  C   C136      1.0  0.91053  0.51028  0.84870  1.0000
  C   C137      1.0  0.93791  0.52056  0.79367  1.0000
  C   C138      1.0  0.94376  0.54947  0.75281  1.0000
  C   C139      1.0  0.98704  0.41013  0.67871  1.0000
  C   C140      1.0  0.01667  0.41181  0.67001  1.0000
  C   C141      1.0  0.85399  0.66008  0.80952  1.0000
  C   C142      1.0  0.80262  0.67296  0.71247  1.0000
  C   C143      1.0  0.78320  0.72037  0.77763  1.0000
  C   C144      1.0  0.81027  0.72759  0.86408  1.0000
  C   C145      1.0  0.83291  0.70768  0.87368  1.0000
  C   C146      1.0  0.82992  0.68017  0.79866  1.0000
  C   C147      1.0  0.76005  0.74077  0.76855  1.0000
  C   C148      1.0  0.84516  0.34570  0.71118  1.0000
  C   C149      1.0  0.70263  0.82867  0.84023  1.0000
  C   C150      1.0  0.72331  0.80635  0.84819  1.0000
  C   C151      1.0  0.71876  0.78079  0.75606  1.0000
  C   C152      1.0  0.69279  0.77815  0.65285  1.0000
  C   C153      1.0  0.67291  0.80092  0.64155  1.0000
  C   C154      1.0  0.67676  0.82649  0.73441  1.0000
  C   C155      1.0  0.74053  0.75897  0.76352  1.0000
  C   C156      1.0  0.77963  0.69312  0.70306  1.0000
  C   C157      1.0  0.43655  0.02014  0.71966  1.0000
  C   C158      1.0  0.44320  0.04883  0.76298  1.0000
  C   C159      1.0  0.47222  0.05752  0.79848  1.0000
  C   C160      1.0  0.48101  0.08616  0.85042  1.0000
  C   C161      1.0  0.43898  0.97230  0.70656  1.0000
  C   C162      1.0  0.51057  0.08793  0.83891  1.0000
  C   C163      1.0  0.52016  0.06024  0.78334  1.0000
  C   C164      1.0  0.54853  0.05415  0.74024  1.0000
  C   C165      1.0  0.40797  0.01005  0.66160  1.0000
  C   C166      1.0  0.40953  0.98054  0.65205  1.0000
  C   C167      1.0  0.65912  0.14542  0.80676  1.0000
  C   C168      1.0  0.67013  0.19540  0.70710  1.0000
  C   C169      1.0  0.71870  0.21577  0.77091  1.0000
  C   C170      1.0  0.72749  0.18997  0.85806  1.0000
  C   C171      1.0  0.70772  0.16747  0.86927  1.0000
  C   C172      1.0  0.67892  0.16939  0.79462  1.0000
  C   C173      1.0  0.73902  0.23868  0.75886  1.0000
  C   C174      1.0  0.34895  0.15606  0.72840  1.0000
  C   C175      1.0  0.82775  0.29774  0.83190  1.0000
  C   C176      1.0  0.80603  0.27650  0.83554  1.0000
  C   C177      1.0  0.77879  0.27992  0.74502  1.0000
  C   C178      1.0  0.77393  0.30510  0.64639  1.0000
  C   C179      1.0  0.79624  0.32538  0.63741  1.0000
  C   C180      1.0  0.82339  0.32281  0.73003  1.0000
  C   C181      1.0  0.75724  0.25805  0.75179  1.0000
  C   C182      1.0  0.69013  0.21826  0.69670  1.0000
  C   C183      1.0  0.55952  0.97797  0.71787  1.0000
  C   C184      1.0  0.55418  0.94917  0.76335  1.0000
  C   C185      1.0  0.52606  0.94034  0.79936  1.0000
  C   C186      1.0  0.51857  0.91168  0.85427  1.0000
  C   C187      1.0  0.55675  0.02582  0.70427  1.0000
  C   C188      1.0  0.48871  0.91005  0.84586  1.0000
  C   C189      1.0  0.47773  0.93779  0.78712  1.0000
  C   C190      1.0  0.44826  0.94386  0.74261  1.0000
  C   C191      1.0  0.58656  0.98829  0.65866  1.0000
  C   C192      1.0  0.58475  0.01783  0.64875  1.0000
  C   C193      1.0  0.34046  0.85069  0.79425  1.0000
  C   C194      1.0  0.32709  0.80166  0.68576  1.0000
  C   C195      1.0  0.28130  0.77948  0.75794  1.0000
  C   C196      1.0  0.27436  0.80467  0.84671  1.0000
  C   C197      1.0  0.29387  0.82756  0.85670  1.0000
  C   C198      1.0  0.32047  0.82674  0.77832  1.0000
  C   C199      1.0  0.26170  0.75575  0.75514  1.0000
  C   C200      1.0  0.65372  0.84842  0.71398  1.0000
  C   C201      1.0  0.17526  0.69709  0.84915  1.0000
  C   C202      1.0  0.19752  0.71784  0.84997  1.0000
  C   C203      1.0  0.22253  0.71384  0.76085  1.0000
  C   C204      1.0  0.22504  0.68820  0.66907  1.0000
  C   C205      1.0  0.20237  0.66820  0.66414  1.0000
  C   C206      1.0  0.17712  0.67172  0.75256  1.0000
  C   C207      1.0  0.24398  0.73588  0.75947  1.0000
  C   C208      1.0  0.30749  0.77825  0.67748  1.0000
  N   N1        1.0  0.99944  0.54410  0.25253  1.0000
  N   N2        1.0  0.04381  0.50327  0.28429  1.0000
  N   N3        1.0  0.14819  0.36769  0.22873  1.0000
  N   N4        1.0  0.13714  0.64790  0.30646  1.0000
  N   N5        1.0  0.00260  0.45978  0.25012  1.0000
  N   N6        1.0  0.95900  0.50026  0.27885  1.0000
  N   N7        1.0  0.85191  0.63505  0.22557  1.0000
  N   N8        1.0  0.86669  0.35524  0.31206  1.0000
  N   N9        1.0  0.45791  0.99892  0.23565  1.0000
  N   N10       1.0  0.49848  0.04332  0.26540  1.0000
  N   N11       1.0  0.63349  0.14990  0.22005  1.0000
  N   N12       1.0  0.35117  0.13263  0.28399  1.0000
  N   N13       1.0  0.54264  0.00344  0.23790  1.0000
  N   N14       1.0  0.50268  0.95906  0.26844  1.0000
  N   N15       1.0  0.36520  0.85433  0.22942  1.0000
  N   N16       1.0  0.64841  0.86741  0.31534  1.0000
  N   N17       1.0  0.99711  0.54125  0.74686  1.0000
  N   N18       1.0  0.04162  0.50096  0.78204  1.0000
  N   N19       1.0  0.14707  0.36589  0.73631  1.0000
  N   N20       1.0  0.13474  0.64506  0.83832  1.0000
  N   N21       1.0  0.00082  0.45703  0.74945  1.0000
  N   N22       1.0  0.95677  0.49733  0.77494  1.0000
  N   N23       1.0  0.85223  0.63486  0.73683  1.0000
  N   N24       1.0  0.86572  0.35165  0.82264  1.0000
  N   N25       1.0  0.45594  0.99696  0.73797  1.0000
  N   N26       1.0  0.49667  0.04111  0.76750  1.0000
  N   N27       1.0  0.63274  0.14613  0.73356  1.0000
  N   N28       1.0  0.34880  0.12972  0.78509  1.0000
  N   N29       1.0  0.54059  0.00109  0.73641  1.0000
  N   N30       1.0  0.50080  0.95687  0.76832  1.0000
  N   N31       1.0  0.36457  0.85129  0.71666  1.0000
  N   N32       1.0  0.64934  0.86815  0.82124  1.0000
  O   O1        1.0  0.19857  0.35715  0.12001  1.0000
  O   O2        1.0  0.29794  0.14979  0.39736  1.0000
  O   O3        1.0  0.79873  0.64831  0.11148  1.0000
  O   O4        1.0  0.70677  0.85413  0.40786  1.0000
  O   O5        1.0  0.64443  0.19978  0.08810  1.0000
  O   O6        1.0  0.85204  0.29879  0.41299  1.0000
  O   O7        1.0  0.35365  0.80057  0.16085  1.0000
  O   O8        1.0  0.14696  0.70145  0.37980  1.0000
  O   O9        1.0  0.19824  0.35422  0.63306  1.0000
  O   O10       1.0  0.29333  0.14319  0.87317  1.0000
  O   O11       1.0  0.79860  0.64715  0.63946  1.0000
  O   O12       1.0  0.70722  0.85331  0.93019  1.0000
  O   O13       1.0  0.64312  0.19820  0.63277  1.0000
  O   O14       1.0  0.85395  0.29437  0.92139  1.0000
  O   O15       1.0  0.35206  0.80001  0.60853  1.0000
  O   O16       1.0  0.15104  0.70118  0.93515  1.0000
  C  Sn1       1.0  0.06951  0.61520  0.33754  1.0000
  C   C209      1.0  0.07028  0.58817  0.26161  1.0000
  C  Sn2       1.0  0.09656  0.57740  0.20906  1.0000
  C  Sn3       1.0  0.12263  0.59399  0.23301  1.0000
  C   C210      1.0  0.12185  0.62100  0.30893  1.0000
  C  Sn4       1.0  0.09557  0.63178  0.36148  1.0000
  O  Te1       1.0  0.04298  0.62554  0.38910  1.0000
  O  Te2       1.0  0.09678  0.55033  0.13340  1.0000
  O  Te3       1.0  0.14916  0.58363  0.18137  1.0000
  O  Te4       1.0  0.09534  0.65884  0.43713  1.0000
  Mg  Mg1       1.0  0.13830  0.54554  0.08459  1.0000
  Mg  Mg2       1.0  0.05384  0.66364  0.48607  1.0000
  C  Sn5       1.0  0.08480  0.39917  0.37639  1.0000
  C   C211      1.0  0.08357  0.42696  0.30530  1.0000
  C  Sn6       1.0  0.10247  0.43465  0.18444  1.0000
  C  Sn7       1.0  0.12302  0.41414  0.13350  1.0000
  C   C212      1.0  0.12424  0.38638  0.20455  1.0000
  C  Sn8       1.0  0.10535  0.37867  0.32545  1.0000
  O  Te5       1.0  0.06570  0.39196  0.49700  1.0000
  O  Te6       1.0  0.10084  0.46256  0.11520  1.0000
  O  Te7       1.0  0.14214  0.42138  0.01279  1.0000
  O  Te8       1.0  0.10698  0.35077  0.39465  1.0000
  Mg  Mg3       1.0  0.14388  0.46006  0.95517  1.0000
  Mg  Mg4       1.0  0.07632  0.35122  0.55462  1.0000
  C  Sn9       1.0  0.88487  0.40708  0.15789  1.0000
  C   C213      1.0  0.88778  0.38029  0.23978  1.0000
  C  Sn10      1.0  0.91108  0.37531  0.35686  1.0000
  C  Sn11      1.0  0.93191  0.39759  0.39293  1.0000
  C   C214      1.0  0.92900  0.42436  0.31109  1.0000
  C  Sn12      1.0  0.90570  0.42936  0.19396  1.0000
  O  Te9       1.0  0.86140  0.41158  0.04131  1.0000
  O  Te10      1.0  0.91353  0.34835  0.43709  1.0000
  O  Te11      1.0  0.95539  0.39307  0.50961  1.0000
  O  Te12      1.0  0.90325  0.45631  0.11378  1.0000
  Mg  Mg5       1.0  0.94931  0.35270  0.58616  1.0000
  Mg  Mg6       1.0  0.87986  0.44996  0.96476  1.0000
  C  Sn13      1.0  0.91905  0.60313  0.37261  1.0000
  C   C215      1.0  0.91911  0.57608  0.29659  1.0000
  C  Sn14      1.0  0.89773  0.56931  0.17201  1.0000
  C  Sn15      1.0  0.87584  0.59002  0.12230  1.0000
  C   C216      1.0  0.87579  0.61706  0.19828  1.0000
  C  Sn16      1.0  0.89717  0.62385  0.32290  1.0000
  O  Te13      1.0  0.94064  0.60943  0.49687  1.0000
  O  Te14      1.0  0.89824  0.54211  0.09788  1.0000
  O  Te15      1.0  0.86663  0.58167  0.99794  1.0000
  O  Te16      1.0  0.89667  0.65103  0.39699  1.0000
  Mg  Mg7       1.0  0.87655  0.54170  0.93418  1.0000
  Mg  Mg8       1.0  0.93074  0.64944  0.56063  1.0000
  C  Sn17      1.0  0.38551  0.06557  0.30860  1.0000
  C   C217      1.0  0.41225  0.06824  0.23657  1.0000
  C  Sn18      1.0  0.42214  0.09545  0.18681  1.0000
  C  Sn19      1.0  0.40495  0.12052  0.20961  1.0000
  C   C218      1.0  0.37823  0.11785  0.28162  1.0000
  C  Sn20      1.0  0.36832  0.09064  0.33140  1.0000
  O  Te17      1.0  0.37605  0.03815  0.35742  1.0000
  O  Te18      1.0  0.44895  0.09757  0.11504  1.0000
  O  Te19      1.0  0.41443  0.14796  0.16071  1.0000
  O  Te20      1.0  0.34153  0.08851  0.40315  1.0000
  Mg  Mg9       1.0  0.45246  0.13970  0.06886  1.0000
  Mg  Mg10      1.0  0.33800  0.04640  0.44945  1.0000
  C  Sn21      1.0  0.60297  0.08503  0.36965  1.0000
  C   C219      1.0  0.57483  0.08406  0.29112  1.0000
  C  Sn22      1.0  0.56658  0.10385  0.16506  1.0000
  C  Sn23      1.0  0.58689  0.12504  0.11640  1.0000
  C   C220      1.0  0.61501  0.12599  0.19489  1.0000
  C  Sn24      1.0  0.62328  0.10621  0.32099  1.0000
  O  Te21      1.0  0.61074  0.06503  0.49537  1.0000
  O  Te22      1.0  0.53832  0.10246  0.08841  1.0000
  O  Te23      1.0  0.59148  0.14301  0.99058  1.0000
  O  Te24      1.0  0.65151  0.10759  0.39759  1.0000
  Mg  Mg11      1.0  0.55047  0.13239  0.92351  1.0000
  Mg  Mg12      1.0  0.65179  0.07564  0.56245  1.0000
  C  Sn25      1.0  0.62262  0.91705  0.41286  1.0000
  C   C221      1.0  0.62211  0.88939  0.34384  1.0000
  C  Sn26      1.0  0.60092  0.88229  0.21886  1.0000
  C  Sn27      1.0  0.57982  0.90328  0.16159  1.0000
  C   C222      1.0  0.58033  0.93092  0.23057  1.0000
  C  Sn28      1.0  0.60151  0.93804  0.35559  1.0000
  O  Te25      1.0  0.64399  0.92367  0.53766  1.0000
  O  Te26      1.0  0.60085  0.85449  0.15181  1.0000
  O  Te27      1.0  0.55843  0.89663  0.03668  1.0000
  O  Te28      1.0  0.60159  0.96582  0.42261  1.0000
  Mg  Mg13      1.0  0.57974  0.85382  0.98426  1.0000
  Mg  Mg14      1.0  0.63509  0.96449  0.59008  1.0000
  C  Sn29      1.0  0.42547  0.89309  0.11396  1.0000
  C   C223      1.0  0.42525  0.92006  0.19088  1.0000
  C  Sn30      1.0  0.40557  0.92549  0.31059  1.0000
  C  Sn31      1.0  0.38571  0.90351  0.35442  1.0000
  C   C224      1.0  0.38594  0.87656  0.27754  1.0000
  C  Sn32      1.0  0.40561  0.87111  0.15778  1.0000
  O  Te29      1.0  0.45772  0.88610  0.99462  1.0000
  O  Te30      1.0  0.40575  0.95263  0.38574  1.0000
  O  Te31      1.0  0.36584  0.90849  0.47386  1.0000
  O  Te32      1.0  0.40544  0.84399  0.08268  1.0000
  Mg  Mg15      1.0  0.37452  0.94893  0.54128  1.0000
  Mg  Mg16      1.0  0.44906  0.84563  0.92719  1.0000
  C  Sn33      1.0  0.08438  0.61894  0.92152  1.0000
  C   C225      1.0  0.11216  0.61931  0.86007  1.0000
  C  Sn34      1.0  0.11933  0.59936  0.74134  1.0000
  C  Sn35      1.0  0.09828  0.57861  0.68272  1.0000
  C   C226      1.0  0.07052  0.57825  0.74415  1.0000
  C  Sn36      1.0  0.06334  0.59819  0.86291  1.0000
  O  Te33      1.0  0.06530  0.64112  0.04018  1.0000
  O  Te34      1.0  0.14724  0.60015  0.68179  1.0000
  O  Te35      1.0  0.10499  0.55845  0.56398  1.0000
  O  Te36      1.0  0.03544  0.59741  0.92242  1.0000
  Mg  Mg17      1.0  0.14593  0.56821  0.52073  1.0000
  Mg  Mg18      1.0  0.02433  0.63137  0.08341  1.0000
  C  Sn37      1.0  0.08404  0.39815  0.88510  1.0000
  C   C227      1.0  0.08236  0.42541  0.80775  1.0000
  C  Sn38      1.0  0.10091  0.43239  0.68393  1.0000
  C  Sn39      1.0  0.12156  0.41169  0.63632  1.0000
  C   C228      1.0  0.12323  0.38444  0.71362  1.0000
  C  Sn40      1.0  0.10469  0.37744  0.83749  1.0000
  O  Te37      1.0  0.05289  0.39366  0.00858  1.0000
  O  Te38      1.0  0.09883  0.45979  0.60844  1.0000
  O  Te39      1.0  0.14033  0.41822  0.51273  1.0000
  O  Te40      1.0  0.10677  0.35006  0.91294  1.0000
  Mg  Mg19      1.0  0.12913  0.45842  0.44653  1.0000
  Mg  Mg20      1.0  0.06407  0.35343  0.07479  1.0000
  C  Sn41      1.0  0.88375  0.40237  0.65820  1.0000
  C   C229      1.0  0.88683  0.37627  0.74705  1.0000
  C  Sn42      1.0  0.90996  0.37246  0.86661  1.0000
  C  Sn43      1.0  0.93044  0.39521  0.89811  1.0000
  C   C230      1.0  0.92736  0.42129  0.80932  1.0000
  C  Sn44      1.0  0.90424  0.42512  0.68971  1.0000
  O  Te41      1.0  0.86046  0.40570  0.53925  1.0000
  O  Te42      1.0  0.91259  0.34617  0.95381  1.0000
  O  Te43      1.0  0.94136  0.39388  0.01718  1.0000
  O  Te44      1.0  0.90160  0.45139  0.60256  1.0000
  Mg  Mg21      1.0  0.93563  0.35408  0.10365  1.0000
  Mg  Mg22      1.0  0.86618  0.44554  0.45276  1.0000
  C  Sn45      1.0  0.91212  0.61972  0.79587  1.0000
  C   C231      1.0  0.88366  0.61874  0.72164  1.0000
  C  Sn46      1.0  0.87142  0.59234  0.66913  1.0000
  C  Sn47      1.0  0.88796  0.56637  0.69137  1.0000
  C   C232      1.0  0.91640  0.56736  0.76559  1.0000
  C  Sn48      1.0  0.92867  0.59376  0.81812  1.0000
  O  Te45      1.0  0.92392  0.64635  0.84743  1.0000
  O  Te46      1.0  0.84292  0.59190  0.59518  1.0000
  O  Te47      1.0  0.87614  0.53973  0.63973  1.0000
  O  Te48      1.0  0.95714  0.59420  0.89205  1.0000
  Mg  Mg23      1.0  0.83645  0.55030  0.54563  1.0000
  Mg  Mg24      1.0  0.96363  0.63579  0.94171  1.0000
  C  Sn49      1.0  0.37873  0.08192  0.89788  1.0000
  C   C233      1.0  0.37666  0.10920  0.82098  1.0000
  C  Sn50      1.0  0.39521  0.11659  0.69782  1.0000
  C  Sn51      1.0  0.41625  0.09627  0.65046  1.0000
  C   C234      1.0  0.41831  0.06900  0.72732  1.0000
  C  Sn52      1.0  0.39977  0.06160  0.85052  1.0000
  O  Te49      1.0  0.34757  0.07703  0.02070  1.0000
  O  Te50      1.0  0.39273  0.14400  0.62277  1.0000
  O  Te51      1.0  0.43503  0.10321  0.52754  1.0000
  O  Te52      1.0  0.40224  0.03420  0.92553  1.0000
  Mg  Mg25      1.0  0.42321  0.14326  0.46173  1.0000
  Mg  Mg26      1.0  0.35937  0.03694  0.08651  1.0000
  C  Sn53      1.0  0.57645  0.12627  0.69262  1.0000
  C   C235      1.0  0.60506  0.12585  0.76514  1.0000
  C  Sn54      1.0  0.61817  0.09961  0.81703  1.0000
  C  Sn55      1.0  0.60236  0.07324  0.79591  1.0000
  C   C236      1.0  0.57377  0.07368  0.72341  1.0000
  C  Sn56      1.0  0.56064  0.09991  0.67150  1.0000
  O  Te53      1.0  0.56378  0.15275  0.64165  1.0000
  O  Te54      1.0  0.64679  0.09973  0.88925  1.0000
  O  Te55      1.0  0.61506  0.04675  0.84696  1.0000
  O  Te56      1.0  0.53204  0.09979  0.59930  1.0000
  Mg  Mg27      1.0  0.65458  0.05813  0.93860  1.0000
  Mg  Mg28      1.0  0.52424  0.14137  0.54983  1.0000
  C  Sn57      1.0  0.62156  0.91689  0.91724  1.0000
  C   C237      1.0  0.62226  0.88923  0.84860  1.0000
  C  Sn58      1.0  0.60150  0.88130  0.72317  1.0000
  C  Sn59      1.0  0.57960  0.90143  0.66505  1.0000
  C   C238      1.0  0.57891  0.92906  0.73365  1.0000
  C  Sn60      1.0  0.59966  0.93701  0.85912  1.0000
  O  Te57      1.0  0.63015  0.92638  0.04251  1.0000
  O  Te58      1.0  0.60264  0.85353  0.65651  1.0000
  O  Te59      1.0  0.55862  0.89394  0.53968  1.0000
  O  Te60      1.0  0.59853  0.96477  0.92574  1.0000
  Mg  Mg29      1.0  0.56926  0.85356  0.48808  1.0000
  Mg  Mg30      1.0  0.61951  0.96679  0.09411  1.0000
  C  Sn61      1.0  0.42440  0.89122  0.60886  1.0000
  C   C239      1.0  0.42349  0.91807  0.68663  1.0000
  C  Sn62      1.0  0.40337  0.92299  0.80475  1.0000
  C  Sn63      1.0  0.38377  0.90060  0.84607  1.0000
  C   C240      1.0  0.38469  0.87377  0.76834  1.0000
  C  Sn64      1.0  0.40480  0.86883  0.65018  1.0000
  O  Te61      1.0  0.44469  0.88678  0.49115  1.0000
  O  Te62      1.0  0.40287  0.95002  0.88079  1.0000
  O  Te63      1.0  0.36347  0.90507  0.96388  1.0000
  O  Te64      1.0  0.40531  0.84182  0.57418  1.0000
  Mg  Mg31      1.0  0.35887  0.94759  0.03340  1.0000
  Mg  Mg32      1.0  0.43692  0.84625  0.42163  1.0000
