data_image0
_chemical_formula_structural       H152C256N32O16SnCSn2CSnTe4Mg2SnCSn2CSnTe4Mg2SnCSn2CSnTe4Mg2SnCSn2CSnTe4Mg2SnCSn2CSnTe4Mg2SnCSn2CSnTe4Mg2SnCSn2CSnTe4Mg2SnCSn2CSnTe4Mg2
_chemical_formula_sum              "H152 C272 N32 O16 Sn32 Te32 Mg16"
_cell_length_a       45.8499
_cell_length_b       46.201
_cell_length_c       8.16949
_cell_angle_alpha    92.3449
_cell_angle_beta     87.3167
_cell_angle_gamma    90.0321

_symmetry_space_group_name_H-M    'P1'
_space_group_IT_number       1

loop_
  _space_group_symop_operation_xyz
  'x, y, z'

loop_
  _atom_site_type_symbol
  _atom_site_label
  _atom_site_symmetry_multiplicity
  _atom_site_fract_x
  _atom_site_fract_y
  _atom_site_fract_z
  _atom_site_occupancy
  H   H1        1.0  0.12866  0.33289  0.37081  1.0000
  H   H2        1.0  0.18181  0.36312  0.14214  1.0000
  H   H3        1.0  0.25413  0.80531  0.44646  1.0000
  H   H4        1.0  0.19074  0.25236  0.39783  1.0000
  H   H5        1.0  0.35141  0.20398  0.07050  1.0000
  H   H6        1.0  0.94457  0.60480  0.42140  1.0000
  H   H7        1.0  0.28095  0.15632  0.51104  1.0000
  H   H8        1.0  0.96935  0.60637  0.15417  1.0000
  H   H9        1.0  0.39799  0.94483  0.40085  1.0000
  H   H10       1.0  0.60896  0.03359  0.12308  1.0000
  H   H11       1.0  0.36028  0.90705  0.40352  1.0000
  H   H12       1.0  0.90586  0.64140  0.42243  1.0000
  H   H13       1.0  0.14937  0.28737  0.41945  1.0000
  H   H14       1.0  0.31454  0.24317  0.07421  1.0000
  H   H15       1.0  0.19225  0.74245  0.38963  1.0000
  H   H16       1.0  0.02773  0.60891  0.16288  1.0000
  H   H17       1.0  0.40428  0.13748  0.11984  1.0000
  H   H18       1.0  0.80621  0.26243  0.38327  1.0000
  H   H19       1.0  0.71155  0.15570  0.43860  1.0000
  H   H20       1.0  0.74655  0.19638  0.40537  1.0000
  H   H21       1.0  0.25968  0.19463  0.40701  1.0000
  H   H22       1.0  0.56237  0.89611  0.08625  1.0000
  H   H23       1.0  0.79485  0.34918  0.05659  1.0000
  H   H24       1.0  0.44349  0.10141  0.10795  1.0000
  H   H25       1.0  0.85883  0.40631  0.14716  1.0000
  H   H26       1.0  0.76337  0.68436  0.14172  1.0000
  H   H27       1.0  0.35159  0.08290  0.42855  1.0000
  H   H28       1.0  0.68518  0.23938  0.10926  1.0000
  H   H29       1.0  0.72005  0.85132  0.48192  1.0000
  H   H30       1.0  0.65488  0.79109  0.07547  1.0000
  H   H31       1.0  0.84739  0.28245  0.46247  1.0000
  H   H32       1.0  0.69169  0.75227  0.09506  1.0000
  H   H33       1.0  0.74190  0.80989  0.39991  1.0000
  H   H34       1.0  0.84503  0.36109  0.08097  1.0000
  H   H35       1.0  0.82223  0.63455  0.17766  1.0000
  H   H36       1.0  0.84911  0.71424  0.46063  1.0000
  H   H37       1.0  0.75483  0.31323  0.07164  1.0000
  H   H38       1.0  0.61232  0.97574  0.12871  1.0000
  H   H39       1.0  0.33377  0.87092  0.41419  1.0000
  H   H40       1.0  0.63589  0.17953  0.14629  1.0000
  H   H41       1.0  0.60120  0.86017  0.10301  1.0000
  H   H42       1.0  0.64811  0.91930  0.41443  1.0000
  H   H43       1.0  0.89486  0.54723  0.11787  1.0000
  H   H44       1.0  0.63700  0.83552  0.12217  1.0000
  H   H45       1.0  0.31486  0.76495  0.08476  1.0000
  H   H46       1.0  0.80842  0.74910  0.43265  1.0000
  H   H47       1.0  0.89422  0.46805  0.39033  1.0000
  H   H48       1.0  0.25079  0.68639  0.09599  1.0000
  H   H49       1.0  0.03530  0.39329  0.12209  1.0000
  H   H50       1.0  0.91641  0.35425  0.41362  1.0000
  H   H51       1.0  0.89195  0.52603  0.38672  1.0000
  H   H52       1.0  0.24165  0.31319  0.11394  1.0000
  H   H53       1.0  0.97688  0.39125  0.12756  1.0000
  H   H54       1.0  0.15068  0.72225  0.48050  1.0000
  H   H55       1.0  0.10883  0.53350  0.35969  1.0000
  H   H56       1.0  0.87114  0.66813  0.41000  1.0000
  H   H57       1.0  0.39201  0.04649  0.41811  1.0000
  H   H58       1.0  0.41597  0.85243  0.08213  1.0000
  H   H59       1.0  0.16913  0.63028  0.16039  1.0000
  H   H60       1.0  0.45339  0.89121  0.07823  1.0000
  H   H61       1.0  0.28793  0.84681  0.48227  1.0000
  H   H62       1.0  0.52427  0.10959  0.36497  1.0000
  H   H63       1.0  0.60801  0.95552  0.40023  1.0000
  H   H64       1.0  0.53530  0.89416  0.34768  1.0000
  H   H65       1.0  0.11123  0.47536  0.34679  1.0000
  H   H66       1.0  0.36939  0.16266  0.14352  1.0000
  H   H67       1.0  0.46581  0.10650  0.37097  1.0000
  H   H68       1.0  0.47690  0.89096  0.34261  1.0000
  H   H69       1.0  0.21251  0.64840  0.09580  1.0000
  H   H70       1.0  0.36686  0.83500  0.15808  1.0000
  H   H71       1.0  0.54916  0.10712  0.09845  1.0000
  H   H72       1.0  0.85501  0.58373  0.12163  1.0000
  H   H73       1.0  0.66613  0.13297  0.39042  1.0000
  H   H74       1.0  0.39209  0.02300  0.14142  1.0000
  H   H75       1.0  0.60474  0.05729  0.38859  1.0000
  H   H76       1.0  0.39529  0.96509  0.13169  1.0000
  H   H77       1.0  0.58513  0.14724  0.10249  1.0000
  H   H78       1.0  0.89676  0.44408  0.12605  1.0000
  H   H79       1.0  0.95419  0.39286  0.39704  1.0000
  H   H80       1.0  0.64129  0.09602  0.38477  1.0000
  H   H81       1.0  0.97752  0.49892  0.23320  1.0000
  H   H82       1.0  0.50299  0.97570  0.21951  1.0000
  H   H83       1.0  0.50012  0.02377  0.22556  1.0000
  H   H84       1.0  0.02589  0.50116  0.23520  1.0000
  H   H85       1.0  0.12679  0.33520  0.89323  1.0000
  H   H86       1.0  0.17792  0.36105  0.63429  1.0000
  H   H87       1.0  0.24838  0.81076  0.91562  1.0000
  H   H88       1.0  0.18752  0.25345  0.92699  1.0000
  H   H89       1.0  0.35057  0.20796  0.63176  1.0000
  H   H90       1.0  0.27256  0.14883  0.97465  1.0000
  H   H91       1.0  0.96570  0.60559  0.65189  1.0000
  H   H92       1.0  0.60569  0.03388  0.61784  1.0000
  H   H93       1.0  0.14716  0.28948  0.95053  1.0000
  H   H94       1.0  0.31216  0.24559  0.62833  1.0000
  H   H95       1.0  0.19190  0.73819  0.93780  1.0000
  H   H96       1.0  0.02398  0.60830  0.65178  1.0000
  H   H97       1.0  0.39944  0.13653  0.61912  1.0000
  H   H98       1.0  0.80928  0.25671  0.87239  1.0000
  H   H99       1.0  0.71180  0.14917  0.91741  1.0000
  H   H100      1.0  0.74733  0.18974  0.89593  1.0000
  H   H101      1.0  0.25283  0.18907  0.88705  1.0000
  H   H102      1.0  0.79174  0.34733  0.59000  1.0000
  H   H103      1.0  0.43933  0.10108  0.60605  1.0000
  H   H104      1.0  0.76183  0.68588  0.63201  1.0000
  H   H105      1.0  0.34849  0.08180  0.93565  1.0000
  H   H106      1.0  0.68450  0.23842  0.63833  1.0000
  H   H107      1.0  0.71900  0.85257  0.97947  1.0000
  H   H108      1.0  0.65260  0.79215  0.58065  1.0000
  H   H109      1.0  0.84981  0.27797  0.95685  1.0000
  H   H110      1.0  0.68952  0.75333  0.59650  1.0000
  H   H111      1.0  0.14200  0.59445  0.64004  1.0000
  H   H112      1.0  0.74070  0.81119  0.89487  1.0000
  H   H113      1.0  0.83726  0.36370  0.62183  1.0000
  H   H114      1.0  0.82045  0.63565  0.66692  1.0000
  H   H115      1.0  0.84555  0.71326  0.97300  1.0000
  H   H116      1.0  0.04405  0.60767  0.91754  1.0000
  H   H117      1.0  0.75257  0.31038  0.60650  1.0000
  H   H118      1.0  0.60932  0.97606  0.62478  1.0000
  H   H119      1.0  0.32960  0.87312  0.87387  1.0000
  H   H120      1.0  0.63403  0.17938  0.66254  1.0000
  H   H121      1.0  0.63450  0.83590  0.62994  1.0000
  H   H122      1.0  0.31441  0.75975  0.63928  1.0000
  H   H123      1.0  0.80555  0.74874  0.94230  1.0000
  H   H124      1.0  0.89133  0.46659  0.88094  1.0000
  H   H125      1.0  0.08156  0.64649  0.94282  1.0000
  H   H126      1.0  0.24417  0.69015  0.56716  1.0000
  H   H127      1.0  0.03295  0.39293  0.61668  1.0000
  H   H128      1.0  0.88847  0.52464  0.88158  1.0000
  H   H129      1.0  0.23673  0.30995  0.60634  1.0000
  H   H130      1.0  0.10462  0.55617  0.61416  1.0000
  H   H131      1.0  0.97455  0.39053  0.62906  1.0000
  H   H132      1.0  0.15069  0.71651  0.02645  1.0000
  H   H133      1.0  0.10466  0.53344  0.87279  1.0000
  H   H134      1.0  0.86745  0.66711  0.91904  1.0000
  H   H135      1.0  0.38930  0.04593  0.92257  1.0000
  H   H136      1.0  0.15506  0.64099  0.58690  1.0000
  H   H137      1.0  0.28313  0.85209  0.93115  1.0000
  H   H138      1.0  0.52128  0.10964  0.86285  1.0000
  H   H139      1.0  0.53299  0.89434  0.84851  1.0000
  H   H140      1.0  0.10748  0.47540  0.85866  1.0000
  H   H141      1.0  0.36922  0.16617  0.70602  1.0000
  H   H142      1.0  0.46282  0.10665  0.86706  1.0000
  H   H143      1.0  0.47462  0.89071  0.84083  1.0000
  H   H144      1.0  0.20449  0.65400  0.54642  1.0000
  H   H145      1.0  0.36416  0.81944  0.66222  1.0000
  H   H146      1.0  0.66597  0.12795  0.86736  1.0000
  H   H147      1.0  0.38900  0.02259  0.64492  1.0000
  H   H148      1.0  0.39233  0.96461  0.63792  1.0000
  H   H149      1.0  0.97475  0.49868  0.73507  1.0000
  H   H150      1.0  0.50023  0.97578  0.72181  1.0000
  H   H151      1.0  0.49715  0.02382  0.72383  1.0000
  H   H152      1.0  0.02331  0.50058  0.72445  1.0000
  C   C1        1.0  0.02331  0.56252  0.24003  1.0000
  C   C2        1.0  0.05285  0.55557  0.26412  1.0000
  C   C3        1.0  0.06318  0.52719  0.28312  1.0000
  C   C4        1.0  0.09167  0.51859  0.32691  1.0000
  C   C5        1.0  0.14764  0.33962  0.29484  1.0000
  C   C6        1.0  0.19839  0.32715  0.19215  1.0000
  C   C7        1.0  0.21891  0.28045  0.25386  1.0000
  C   C8        1.0  0.19240  0.27302  0.33928  1.0000
  C   C9        1.0  0.16960  0.29261  0.35168  1.0000
  C   C10       1.0  0.17182  0.31985  0.27949  1.0000
  C   C11       1.0  0.24235  0.26053  0.24460  1.0000
  C   C12       1.0  0.97572  0.56063  0.23790  1.0000
  C   C13       1.0  0.09286  0.48878  0.32014  1.0000
  C   C14       1.0  0.06510  0.47801  0.27206  1.0000
  C   C15       1.0  0.05693  0.44888  0.24111  1.0000
  C   C16       1.0  0.01367  0.59084  0.19152  1.0000
  C   C17       1.0  0.22164  0.30744  0.18127  1.0000
  C   C18       1.0  0.98404  0.58956  0.18833  1.0000
  C   C19       1.0  0.30095  0.17484  0.33444  1.0000
  C   C20       1.0  0.27985  0.19659  0.33259  1.0000
  C   C21       1.0  0.28427  0.22146  0.23999  1.0000
  C   C22       1.0  0.31079  0.22424  0.14671  1.0000
  C   C23       1.0  0.33128  0.20223  0.14555  1.0000
  C   C24       1.0  0.32730  0.17698  0.23633  1.0000
  C   C25       1.0  0.15994  0.64940  0.22942  1.0000
  C   C26       1.0  0.26211  0.24270  0.24117  1.0000
  C   C27       1.0  0.98012  0.43789  0.22287  1.0000
  C   C28       1.0  0.95030  0.44492  0.25773  1.0000
  C   C29       1.0  0.94006  0.47348  0.29177  1.0000
  C   C30       1.0  0.91150  0.48250  0.35128  1.0000
  C   C31       1.0  0.92834  0.42147  0.26103  1.0000
  C   C32       1.0  0.02787  0.43967  0.21668  1.0000
  C   C33       1.0  0.91036  0.51226  0.35056  1.0000
  C   C34       1.0  0.93826  0.52258  0.29299  1.0000
  C   C35       1.0  0.94649  0.55153  0.26603  1.0000
  C   C36       1.0  0.92277  0.57322  0.26922  1.0000
  C   C37       1.0  0.93360  0.39541  0.33864  1.0000
  C   C38       1.0  0.89686  0.56763  0.18752  1.0000
  C   C39       1.0  0.87459  0.58804  0.18890  1.0000
  C   C40       1.0  0.90307  0.62095  0.35421  1.0000
  C   C41       1.0  0.92513  0.60035  0.35344  1.0000
  C   C42       1.0  0.99043  0.40941  0.16304  1.0000
  C   C43       1.0  0.02014  0.41048  0.15982  1.0000
  C   C44       1.0  0.91255  0.37387  0.34877  1.0000
  C   C45       1.0  0.90099  0.42458  0.19128  1.0000
  C   C46       1.0  0.87727  0.61517  0.27137  1.0000
  C   C47       1.0  0.88522  0.37725  0.28015  1.0000
  C   C48       1.0  0.87977  0.40312  0.20124  1.0000
  C   C49       1.0  0.85348  0.66030  0.33363  1.0000
  C   C50       1.0  0.80476  0.67125  0.22679  1.0000
  C   C51       1.0  0.78323  0.71895  0.28597  1.0000
  C   C52       1.0  0.80790  0.72752  0.37491  1.0000
  C   C53       1.0  0.83036  0.70806  0.38995  1.0000
  C   C54       1.0  0.82957  0.67980  0.31697  1.0000
  C   C55       1.0  0.76041  0.73901  0.27005  1.0000
  C   C56       1.0  0.84549  0.34955  0.19613  1.0000
  C   C57       1.0  0.70136  0.82728  0.32350  1.0000
  C   C58       1.0  0.72269  0.80584  0.32880  1.0000
  C   C59       1.0  0.71948  0.77849  0.24847  1.0000
  C   C60       1.0  0.69432  0.77314  0.15871  1.0000
  C   C61       1.0  0.67382  0.79494  0.14895  1.0000
  C   C62       1.0  0.67630  0.82243  0.22979  1.0000
  C   C63       1.0  0.74126  0.75716  0.25907  1.0000
  C   C64       1.0  0.78185  0.69089  0.21319  1.0000
  C   C65       1.0  0.43855  0.02029  0.22376  1.0000
  C   C66       1.0  0.44490  0.04994  0.25547  1.0000
  C   C67       1.0  0.47320  0.06071  0.28171  1.0000
  C   C68       1.0  0.48118  0.08940  0.33507  1.0000
  C   C69       1.0  0.42078  0.07124  0.26206  1.0000
  C   C70       1.0  0.44115  0.97304  0.21591  1.0000
  C   C71       1.0  0.51119  0.09095  0.33191  1.0000
  C   C72       1.0  0.52271  0.06325  0.27661  1.0000
  C   C73       1.0  0.55231  0.05541  0.24508  1.0000
  C   C74       1.0  0.57398  0.07917  0.24492  1.0000
  C   C75       1.0  0.39428  0.06616  0.35014  1.0000
  C   C76       1.0  0.56890  0.10512  0.16584  1.0000
  C   C77       1.0  0.58913  0.12753  0.16641  1.0000
  C   C78       1.0  0.62119  0.09890  0.32174  1.0000
  C   C79       1.0  0.60063  0.07679  0.32323  1.0000
  C   C80       1.0  0.41040  0.00976  0.17118  1.0000
  C   C81       1.0  0.41203  0.98033  0.16631  1.0000
  C   C82       1.0  0.37177  0.08637  0.35674  1.0000
  C   C83       1.0  0.42354  0.09754  0.18075  1.0000
  C   C84       1.0  0.61571  0.12489  0.24391  1.0000
  C   C85       1.0  0.37468  0.11267  0.27636  1.0000
  C   C86       1.0  0.40119  0.11784  0.18747  1.0000
  C   C87       1.0  0.65947  0.14985  0.30919  1.0000
  C   C88       1.0  0.67159  0.19800  0.19601  1.0000
  C   C89       1.0  0.71817  0.22061  0.25517  1.0000
  C   C90       1.0  0.72579  0.19644  0.34662  1.0000
  C   C91       1.0  0.70628  0.17388  0.36440  1.0000
  C   C92       1.0  0.67904  0.17386  0.29008  1.0000
  C   C93       1.0  0.73809  0.24385  0.24131  1.0000
  C   C94       1.0  0.35081  0.15586  0.22325  1.0000
  C   C95       1.0  0.82571  0.30237  0.30840  1.0000
  C   C96       1.0  0.80366  0.28157  0.31185  1.0000
  C   C97       1.0  0.77769  0.28519  0.22904  1.0000
  C   C98       1.0  0.77442  0.31035  0.13900  1.0000
  C   C99       1.0  0.79700  0.33032  0.13075  1.0000
  C   C100      1.0  0.82299  0.32732  0.21463  1.0000
  C   C101      1.0  0.75605  0.26342  0.23508  1.0000
  C   C102      1.0  0.69108  0.22121  0.18130  1.0000
  C   C103      1.0  0.56468  0.97919  0.21488  1.0000
  C   C104      1.0  0.55791  0.94972  0.24093  1.0000
  C   C105      1.0  0.52919  0.93917  0.26604  1.0000
  C   C106      1.0  0.52045  0.91090  0.31461  1.0000
  C   C107      1.0  0.58198  0.92848  0.24442  1.0000
  C   C108      1.0  0.56208  0.02648  0.21457  1.0000
  C   C109      1.0  0.49048  0.90930  0.31239  1.0000
  C   C110      1.0  0.47977  0.93658  0.26361  1.0000
  C   C111      1.0  0.45060  0.94435  0.23868  1.0000
  C   C112      1.0  0.42857  0.92098  0.23978  1.0000
  C   C113      1.0  0.60696  0.93480  0.33305  1.0000
  C   C114      1.0  0.43321  0.89440  0.15186  1.0000
  C   C115      1.0  0.41222  0.87266  0.15312  1.0000
  C   C116      1.0  0.38050  0.90331  0.33090  1.0000
  C   C117      1.0  0.40174  0.92473  0.32941  1.0000
  C   C118      1.0  0.59353  0.98930  0.16110  1.0000
  C   C119      1.0  0.59184  0.01871  0.15928  1.0000
  C   C120      1.0  0.62929  0.91467  0.34156  1.0000
  C   C121      1.0  0.58079  0.90107  0.16176  1.0000
  C   C122      1.0  0.38552  0.87692  0.24248  1.0000
  C   C123      1.0  0.62775  0.88712  0.26196  1.0000
  C   C124      1.0  0.60298  0.88080  0.17070  1.0000
  C   C125      1.0  0.33951  0.85349  0.32453  1.0000
  C   C126      1.0  0.32893  0.80636  0.18503  1.0000
  C   C127      1.0  0.28256  0.78266  0.26248  1.0000
  C   C128      1.0  0.27458  0.80636  0.37462  1.0000
  C   C129      1.0  0.29338  0.82915  0.39387  1.0000
  C   C130      1.0  0.32053  0.83001  0.30225  1.0000
  C   C131      1.0  0.26297  0.75917  0.24951  1.0000
  C   C132      1.0  0.65308  0.84326  0.20987  1.0000
  C   C133      1.0  0.17492  0.70059  0.32341  1.0000
  C   C134      1.0  0.19646  0.72191  0.32276  1.0000
  C   C135      1.0  0.22410  0.71720  0.24282  1.0000
  C   C136      1.0  0.22980  0.69017  0.16057  1.0000
  C   C137      1.0  0.20818  0.66922  0.15976  1.0000
  C   C138      1.0  0.18029  0.67345  0.23867  1.0000
  C   C139      1.0  0.24522  0.73940  0.24606  1.0000
  C   C140      1.0  0.30893  0.78276  0.17076  1.0000
  C   C141      1.0  0.02018  0.56206  0.73365  1.0000
  C   C142      1.0  0.04976  0.55530  0.75883  1.0000
  C   C143      1.0  0.05995  0.52696  0.78179  1.0000
  C   C144      1.0  0.08797  0.51850  0.83381  1.0000
  C   C145      1.0  0.14510  0.34034  0.80813  1.0000
  C   C146      1.0  0.11405  0.62357  0.79113  1.0000
  C   C147      1.0  0.07151  0.57892  0.76489  1.0000
  C   C148      1.0  0.19448  0.32557  0.69291  1.0000
  C   C149      1.0  0.21476  0.27932  0.76489  1.0000
  C   C150      1.0  0.18898  0.27340  0.86120  1.0000
  C   C151      1.0  0.16672  0.29358  0.87433  1.0000
  C   C152      1.0  0.16871  0.31989  0.79192  1.0000
  C   C153      1.0  0.23771  0.25884  0.75573  1.0000
  C   C154      1.0  0.97250  0.55999  0.73614  1.0000
  C   C155      1.0  0.08938  0.48872  0.82668  1.0000
  C   C156      1.0  0.06222  0.47783  0.77075  1.0000
  C   C157      1.0  0.05441  0.44867  0.73794  1.0000
  C   C158      1.0  0.01025  0.59016  0.68365  1.0000
  C   C159      1.0  0.06526  0.60516  0.85376  1.0000
  C   C160      1.0  0.21730  0.30535  0.68210  1.0000
  C   C161      1.0  0.98058  0.58884  0.68446  1.0000
  C   C162      1.0  0.12047  0.59760  0.70003  1.0000
  C   C163      1.0  0.08606  0.62684  0.86817  1.0000
  C   C164      1.0  0.09954  0.57589  0.68716  1.0000
  C   C165      1.0  0.29600  0.17193  0.83296  1.0000
  C   C166      1.0  0.27429  0.19306  0.82971  1.0000
  C   C167      1.0  0.27964  0.21988  0.75717  1.0000
  C   C168      1.0  0.30775  0.22521  0.68650  1.0000
  C   C169      1.0  0.32908  0.20404  0.68892  1.0000
  C   C170      1.0  0.32423  0.17697  0.75997  1.0000
  C   C171      1.0  0.15384  0.65206  0.70913  1.0000
  C   C172      1.0  0.25719  0.24072  0.75509  1.0000
  C   C173      1.0  0.97781  0.43734  0.72131  1.0000
  C   C174      1.0  0.94800  0.44419  0.75741  1.0000
  C   C175      1.0  0.93739  0.47267  0.78891  1.0000
  C   C176      1.0  0.90857  0.48136  0.84544  1.0000
  C   C177      1.0  0.02550  0.43933  0.71164  1.0000
  C   C178      1.0  0.90715  0.51114  0.84612  1.0000
  C   C179      1.0  0.93510  0.52182  0.79137  1.0000
  C   C180      1.0  0.94326  0.55084  0.76552  1.0000
  C   C181      1.0  0.98813  0.40882  0.66192  1.0000
  C   C182      1.0  0.01782  0.41008  0.65557  1.0000
  C   C183      1.0  0.85051  0.66003  0.83575  1.0000
  C   C184      1.0  0.80276  0.67211  0.72048  1.0000
  C   C185      1.0  0.78123  0.71968  0.78401  1.0000
  C   C186      1.0  0.80528  0.72753  0.87981  1.0000
  C   C187      1.0  0.82738  0.70771  0.89639  1.0000
  C   C188      1.0  0.82693  0.67990  0.81755  1.0000
  C   C189      1.0  0.75870  0.74004  0.76742  1.0000
  C   C190      1.0  0.84326  0.34785  0.71147  1.0000
  C   C191      1.0  0.70010  0.82866  0.82103  1.0000
  C   C192      1.0  0.72132  0.80710  0.82539  1.0000
  C   C193      1.0  0.71784  0.77963  0.74668  1.0000
  C   C194      1.0  0.69238  0.77423  0.65954  1.0000
  C   C195      1.0  0.67186  0.79605  0.65147  1.0000
  C   C196      1.0  0.67469  0.82369  0.73033  1.0000
  C   C197      1.0  0.73958  0.75825  0.75658  1.0000
  C   C198      1.0  0.78005  0.69198  0.70640  1.0000
  C   C199      1.0  0.43557  0.02011  0.72545  1.0000
  C   C200      1.0  0.44184  0.04982  0.75620  1.0000
  C   C201      1.0  0.47016  0.06075  0.77984  1.0000
  C   C202      1.0  0.47817  0.08950  0.83214  1.0000
  C   C203      1.0  0.41760  0.07101  0.76539  1.0000
  C   C204      1.0  0.43834  0.97285  0.71888  1.0000
  C   C205      1.0  0.50818  0.09104  0.82930  1.0000
  C   C206      1.0  0.51962  0.06333  0.77408  1.0000
  C   C207      1.0  0.54915  0.05548  0.74216  1.0000
  C   C208      1.0  0.39134  0.06574  0.85580  1.0000
  C   C209      1.0  0.40736  0.00941  0.67459  1.0000
  C   C210      1.0  0.40908  0.97997  0.67075  1.0000
  C   C211      1.0  0.36860  0.08570  0.86397  1.0000
  C   C212      1.0  0.41984  0.09722  0.68287  1.0000
  C   C213      1.0  0.37114  0.11203  0.78352  1.0000
  C   C214      1.0  0.39725  0.11730  0.69115  1.0000
  C   C215      1.0  0.65858  0.14656  0.80100  1.0000
  C   C216      1.0  0.67060  0.19618  0.70971  1.0000
  C   C217      1.0  0.71820  0.21674  0.76582  1.0000
  C   C218      1.0  0.72606  0.19110  0.84367  1.0000
  C   C219      1.0  0.70625  0.16868  0.85514  1.0000
  C   C220      1.0  0.67840  0.17044  0.78888  1.0000
  C   C221      1.0  0.73860  0.23956  0.75394  1.0000
  C   C222      1.0  0.34858  0.15681  0.75405  1.0000
  C   C223      1.0  0.82667  0.29830  0.81061  1.0000
  C   C224      1.0  0.80538  0.27672  0.81082  1.0000
  C   C225      1.0  0.77831  0.28074  0.73956  1.0000
  C   C226      1.0  0.77325  0.30698  0.66261  1.0000
  C   C227      1.0  0.79520  0.32758  0.65476  1.0000
  C   C228      1.0  0.82229  0.32433  0.72785  1.0000
  C   C229      1.0  0.75694  0.25876  0.74605  1.0000
  C   C230      1.0  0.69051  0.21910  0.70048  1.0000
  C   C231      1.0  0.56180  0.97941  0.71291  1.0000
  C   C232      1.0  0.55528  0.94997  0.74096  1.0000
  C   C233      1.0  0.52664  0.93932  0.76733  1.0000
  C   C234      1.0  0.51806  0.91099  0.81536  1.0000
  C   C235      1.0  0.55897  0.02661  0.71127  1.0000
  C   C236      1.0  0.48810  0.90921  0.81252  1.0000
  C   C237      1.0  0.47721  0.93652  0.76503  1.0000
  C   C238      1.0  0.44795  0.94419  0.74116  1.0000
  C   C239      1.0  0.59052  0.98957  0.65745  1.0000
  C   C240      1.0  0.58869  0.01894  0.65488  1.0000
  C   C241      1.0  0.33779  0.85364  0.80533  1.0000
  C   C242      1.0  0.32713  0.80295  0.71198  1.0000
  C   C243      1.0  0.27913  0.78258  0.77552  1.0000
  C   C244      1.0  0.27020  0.80901  0.85824  1.0000
  C   C245      1.0  0.28961  0.83181  0.86710  1.0000
  C   C246      1.0  0.31821  0.82955  0.79501  1.0000
  C   C247      1.0  0.25928  0.75922  0.76627  1.0000
  C   C248      1.0  0.65125  0.84431  0.71173  1.0000
  C   C249      1.0  0.17294  0.69849  0.84630  1.0000
  C   C250      1.0  0.19475  0.71952  0.85294  1.0000
  C   C251      1.0  0.22072  0.71692  0.75378  1.0000
  C   C252      1.0  0.22446  0.69240  0.64570  1.0000
  C   C253      1.0  0.20212  0.67224  0.63480  1.0000
  C   C254      1.0  0.17601  0.67437  0.73323  1.0000
  C   C255      1.0  0.24184  0.73920  0.76022  1.0000
  C   C256      1.0  0.30747  0.77979  0.70358  1.0000
  N   N1        1.0  0.00000  0.54422  0.26202  1.0000
  N   N2        1.0  0.04770  0.50197  0.25534  1.0000
  N   N3        1.0  0.14845  0.36433  0.22182  1.0000
  N   N4        1.0  0.13379  0.64977  0.29643  1.0000
  N   N5        1.0  0.00323  0.45624  0.24834  1.0000
  N   N6        1.0  0.95567  0.49846  0.26336  1.0000
  N   N7        1.0  0.85396  0.63454  0.26088  1.0000
  N   N8        1.0  0.86482  0.35501  0.30330  1.0000
  N   N9        1.0  0.45727  0.99764  0.24405  1.0000
  N   N10       1.0  0.49895  0.04554  0.25229  1.0000
  N   N11       1.0  0.63496  0.14842  0.23335  1.0000
  N   N12       1.0  0.35062  0.13146  0.29563  1.0000
  N   N13       1.0  0.54565  0.00207  0.24086  1.0000
  N   N14       1.0  0.50386  0.95409  0.24064  1.0000
  N   N15       1.0  0.36485  0.85464  0.23771  1.0000
  N   N16       1.0  0.65109  0.86837  0.28579  1.0000
  N   N17       1.0  0.99693  0.54373  0.75892  1.0000
  N   N18       1.0  0.04490  0.50164  0.74961  1.0000
  N   N19       1.0  0.14562  0.36405  0.72562  1.0000
  N   N20       1.0  0.13403  0.64590  0.81969  1.0000
  N   N21       1.0  0.00084  0.45584  0.74419  1.0000
  N   N22       1.0  0.95280  0.49785  0.76229  1.0000
  N   N23       1.0  0.85150  0.63480  0.75681  1.0000
  N   N24       1.0  0.86663  0.35029  0.79397  1.0000
  N   N25       1.0  0.45442  0.99755  0.74533  1.0000
  N   N26       1.0  0.49589  0.04560  0.75011  1.0000
  N   N27       1.0  0.63309  0.14711  0.73541  1.0000
  N   N28       1.0  0.34675  0.13034  0.79922  1.0000
  N   N29       1.0  0.54267  0.00219  0.73902  1.0000
  N   N30       1.0  0.50121  0.95417  0.74274  1.0000
  N   N31       1.0  0.36408  0.85238  0.73528  1.0000
  N   N32       1.0  0.64969  0.86989  0.78226  1.0000
  O   O1        1.0  0.20143  0.35265  0.12004  1.0000
  O   O2        1.0  0.29651  0.15141  0.42925  1.0000
  O   O3        1.0  0.80314  0.64479  0.15288  1.0000
  O   O4        1.0  0.70418  0.85319  0.40775  1.0000
  O   O5        1.0  0.64613  0.19873  0.12105  1.0000
  O   O6        1.0  0.85057  0.29861  0.39100  1.0000
  O   O7        1.0  0.35316  0.80694  0.09924  1.0000
  O   O8        1.0  0.14858  0.70541  0.40637  1.0000
  O   O9        1.0  0.19713  0.34996  0.60953  1.0000
  O   O10       1.0  0.29041  0.14629  0.90623  1.0000
  O   O11       1.0  0.80153  0.64610  0.64119  1.0000
  O   O12       1.0  0.70348  0.85470  0.90345  1.0000
  O   O13       1.0  0.64462  0.19860  0.64198  1.0000
  O   O14       1.0  0.85212  0.29458  0.88785  1.0000
  O   O15       1.0  0.35393  0.79992  0.64045  1.0000
  O   O16       1.0  0.14789  0.70128  0.94283  1.0000
  C  Sn1       1.0  0.08002  0.39866  0.86418  1.0000
  C   C257      1.0  0.08083  0.42509  0.78681  1.0000
  C  Sn2       1.0  0.10226  0.43030  0.66435  1.0000
  C  Sn3       1.0  0.12331  0.40863  0.61819  1.0000
  C   C258      1.0  0.12249  0.38222  0.69552  1.0000
  C  Sn4       1.0  0.10107  0.37699  0.81802  1.0000
  O  Te1       1.0  0.05841  0.39391  0.98628  1.0000
  O  Te2       1.0  0.10263  0.45689  0.58880  1.0000
  O  Te3       1.0  0.14494  0.41339  0.49599  1.0000
  O  Te4       1.0  0.10069  0.35041  0.89353  1.0000
  Mg  Mg1       1.0  0.13638  0.45308  0.42911  1.0000
  Mg  Mg2       1.0  0.07528  0.34696  0.05317  1.0000
  C  Sn5       1.0  0.06777  0.61436  0.33863  1.0000
  C   C259      1.0  0.07008  0.58789  0.24988  1.0000
  C  Sn6       1.0  0.09706  0.57840  0.18141  1.0000
  C  Sn7       1.0  0.12227  0.59573  0.20217  1.0000
  C   C260      1.0  0.11996  0.62218  0.29090  1.0000
  C  Sn8       1.0  0.09299  0.63169  0.35939  1.0000
  O  Te5       1.0  0.04058  0.62342  0.40601  1.0000
  O  Te6       1.0  0.09882  0.55187  0.09314  1.0000
  O  Te7       1.0  0.14948  0.58665  0.13470  1.0000
  O  Te8       1.0  0.09122  0.65820  0.44764  1.0000
  Mg  Mg3       1.0  0.14075  0.54887  0.02482  1.0000
  Mg  Mg4       1.0  0.04931  0.66122  0.51608  1.0000
  C  Sn9       1.0  0.61967  0.91815  0.88314  1.0000
  C   C261      1.0  0.62222  0.89073  0.80496  1.0000
  C  Sn10      1.0  0.60421  0.88281  0.67733  1.0000
  C  Sn11      1.0  0.58323  0.90272  0.62670  1.0000
  C   C262      1.0  0.58070  0.93012  0.70483  1.0000
  C  Sn12      1.0  0.59869  0.93806  0.83250  1.0000
  O  Te9       1.0  0.64623  0.91837  0.01044  1.0000
  O  Te10      1.0  0.60716  0.85528  0.60108  1.0000
  O  Te11      1.0  0.56500  0.89525  0.49929  1.0000
  O  Te12      1.0  0.59575  0.96558  0.90871  1.0000
  Mg  Mg5       1.0  0.57733  0.85523  0.43351  1.0000
  Mg  Mg6       1.0  0.63391  0.95842  0.07623  1.0000
  C  Sn13      1.0  0.61886  0.08845  0.78699  1.0000
  C   C263      1.0  0.61774  0.11539  0.71571  1.0000
  C  Sn14      1.0  0.59125  0.12622  0.66638  1.0000
  C  Sn15      1.0  0.56534  0.10980  0.68885  1.0000
  C   C264      1.0  0.56646  0.08288  0.76012  1.0000
  C  Sn16      1.0  0.59295  0.07202  0.80946  1.0000
  O  Te13      1.0  0.64559  0.07804  0.83540  1.0000
  O  Te14      1.0  0.59068  0.15321  0.59536  1.0000
  O  Te15      1.0  0.53860  0.12023  0.64037  1.0000
  O  Te16      1.0  0.59352  0.04506  0.88047  1.0000
  Mg  Mg7       1.0  0.54900  0.15814  0.54952  1.0000
  Mg  Mg8       1.0  0.63519  0.04011  0.92643  1.0000
  C  Sn17      1.0  0.10968  0.42329  0.10157  1.0000
  C   C265      1.0  0.08245  0.42338  0.18587  1.0000
  C  Sn18      1.0  0.07677  0.40440  0.31226  1.0000
  C  Sn19      1.0  0.09879  0.38494  0.35537  1.0000
  C   C266      1.0  0.12601  0.38486  0.27112  1.0000
  C  Sn20      1.0  0.13170  0.40383  0.14468  1.0000
  O  Te17      1.0  0.10654  0.44968  0.97563  1.0000
  O  Te18      1.0  0.04937  0.40488  0.39472  1.0000
  O  Te19      1.0  0.09358  0.36576  0.48142  1.0000
  O  Te20      1.0  0.15908  0.40336  0.06226  1.0000
  Mg  Mg9       1.0  0.05282  0.37462  0.55752  1.0000
  Mg  Mg10      1.0  0.14733  0.44084  0.89951  1.0000
  C  Sn21      1.0  0.89173  0.57384  0.63868  1.0000
  C   C267      1.0  0.91800  0.57530  0.71867  1.0000
  C  Sn22      1.0  0.92210  0.59641  0.84275  1.0000
  C  Sn23      1.0  0.89945  0.61649  0.88790  1.0000
  C   C268      1.0  0.87319  0.61502  0.80795  1.0000
  C  Sn24      1.0  0.86908  0.59391  0.68382  1.0000
  O  Te21      1.0  0.88811  0.55255  0.51499  1.0000
  O  Te22      1.0  0.94856  0.59744  0.92092  1.0000
  O  Te23      1.0  0.91142  0.63056  0.01169  1.0000
  O  Te24      1.0  0.84263  0.59287  0.60570  1.0000
  Mg  Mg11      1.0  0.95138  0.62317  0.08200  1.0000
  Mg  Mg12      1.0  0.84812  0.55992  0.44467  1.0000
  C  Sn25      1.0  0.88629  0.40148  0.64429  1.0000
  C   C269      1.0  0.88783  0.37581  0.72817  1.0000
  C  Sn26      1.0  0.90833  0.37275  0.84753  1.0000
  C  Sn27      1.0  0.92768  0.39585  0.88391  1.0000
  C   C270      1.0  0.92613  0.42151  0.80008  1.0000
  C  Sn28      1.0  0.90564  0.42458  0.68067  1.0000
  O  Te25      1.0  0.86563  0.40406  0.52544  1.0000
  O  Te26      1.0  0.90946  0.34687  0.92972  1.0000
  O  Te27      1.0  0.95669  0.38602  0.00287  1.0000
  O  Te28      1.0  0.90450  0.45044  0.59854  1.0000
  Mg  Mg13      1.0  0.94973  0.34654  0.08152  1.0000
  Mg  Mg14      1.0  0.87257  0.44358  0.44678  1.0000
  C  Sn29      1.0  0.37804  0.91107  0.80327  1.0000
  C   C271      1.0  0.37960  0.88385  0.72209  1.0000
  C  Sn30      1.0  0.40632  0.87306  0.65694  1.0000
  C  Sn31      1.0  0.43203  0.88981  0.67336  1.0000
  C   C272      1.0  0.43047  0.91700  0.75452  1.0000
  C  Sn32      1.0  0.40375  0.92781  0.81969  1.0000
  O  Te29      1.0  0.35109  0.92142  0.86746  1.0000
  O  Te30      1.0  0.40733  0.84580  0.57624  1.0000
  O  Te31      1.0  0.45900  0.87943  0.60909  1.0000
  O  Te32      1.0  0.40273  0.95505  0.90037  1.0000
  Mg  Mg15      1.0  0.44919  0.84107  0.50974  1.0000
  Mg  Mg16      1.0  0.36089  0.95980  0.96699  1.0000
