data_image0
_chemical_formula_structural       Cu4H112C208N32O16SnCSn2CSnTe4Mg2SnCSn2CSnTe4Mg2SnCSn2CSnTe4Mg2SnCSn2CSnTe4Mg2SnCSn2CSnTe4Mg2SnCSn2CSnTe4Mg2SnCSn2CSnTe4Mg2SnCSn2CSnTe4Mg2SnCSn2CSnTe4Mg2SnCSn2CSnTe4Mg2SnCSn2CSnTe4Mg2SnCSn2CSnTe4Mg2SnCSn2CSnTe4Mg2SnCSn2CSnTe4Mg2SnCSn2CSnTe4Mg2SnCSn2CSnTe4Mg2
_chemical_formula_sum              "Cu4 H112 C240 N32 O16 Sn64 Te64 Mg32"
_cell_length_a       45.9137
_cell_length_b       45.9842
_cell_length_c       8.12482
_cell_angle_alpha    89.8805
_cell_angle_beta     95.9666
_cell_angle_gamma    90.0081

_symmetry_space_group_name_H-M    'P1'
_space_group_IT_number       1

loop_
  _space_group_symop_operation_xyz
  'x, y, z'

loop_
  _atom_site_type_symbol
  _atom_site_label
  _atom_site_symmetry_multiplicity
  _atom_site_fract_x
  _atom_site_fract_y
  _atom_site_fract_z
  _atom_site_occupancy
  Cu  Cu1       1.0  0.00285  0.50142  0.26276  1.0000
  Cu  Cu2       1.0  0.50280  0.00174  0.24554  1.0000
  Cu  Cu3       1.0  0.99654  0.49842  0.75978  1.0000
  Cu  Cu4       1.0  0.49621  0.99845  0.74517  1.0000
  H   H1        1.0  0.13712  0.33525  0.40145  1.0000
  H   H2        1.0  0.17970  0.36697  0.14431  1.0000
  H   H3        1.0  0.25535  0.81385  0.40861  1.0000
  H   H4        1.0  0.20128  0.25485  0.40886  1.0000
  H   H5        1.0  0.34749  0.20730  0.03276  1.0000
  H   H6        1.0  0.28389  0.15123  0.43553  1.0000
  H   H7        1.0  0.96821  0.60795  0.14282  1.0000
  H   H8        1.0  0.60856  0.03519  0.15630  1.0000
  H   H9        1.0  0.16063  0.28912  0.44606  1.0000
  H   H10       1.0  0.31245  0.24787  0.05329  1.0000
  H   H11       1.0  0.19393  0.74461  0.40256  1.0000
  H   H12       1.0  0.02679  0.61005  0.15520  1.0000
  H   H13       1.0  0.80596  0.26587  0.36982  1.0000
  H   H14       1.0  0.71378  0.16351  0.47009  1.0000
  H   H15       1.0  0.74693  0.20505  0.42817  1.0000
  H   H16       1.0  0.26326  0.19379  0.35909  1.0000
  H   H17       1.0  0.79244  0.35261  0.00865  1.0000
  H   H18       1.0  0.75862  0.68500  0.11762  1.0000
  H   H19       1.0  0.68060  0.24212  0.07086  1.0000
  H   H20       1.0  0.72585  0.84916  0.48552  1.0000
  H   H21       1.0  0.65081  0.79596  0.04920  1.0000
  H   H22       1.0  0.84912  0.28466  0.45973  1.0000
  H   H23       1.0  0.68657  0.75533  0.07201  1.0000
  H   H24       1.0  0.74386  0.80693  0.40951  1.0000
  H   H25       1.0  0.84088  0.36624  0.06362  1.0000
  H   H26       1.0  0.81849  0.63485  0.14743  1.0000
  H   H27       1.0  0.85036  0.70876  0.47443  1.0000
  H   H28       1.0  0.75131  0.31789  0.01972  1.0000
  H   H29       1.0  0.61097  0.97669  0.16174  1.0000
  H   H30       1.0  0.33552  0.87606  0.36094  1.0000
  H   H31       1.0  0.63390  0.18097  0.12392  1.0000
  H   H32       1.0  0.63779  0.84400  0.08788  1.0000
  H   H33       1.0  0.31605  0.76145  0.16274  1.0000
  H   H34       1.0  0.80928  0.74425  0.44727  1.0000
  H   H35       1.0  0.89943  0.46852  0.38921  1.0000
  H   H36       1.0  0.24816  0.69001  0.12930  1.0000
  H   H37       1.0  0.03364  0.39550  0.13922  1.0000
  H   H38       1.0  0.89670  0.52687  0.37783  1.0000
  H   H39       1.0  0.23928  0.31850  0.10071  1.0000
  H   H40       1.0  0.97548  0.39296  0.14703  1.0000
  H   H41       1.0  0.15222  0.72468  0.46763  1.0000
  H   H42       1.0  0.11088  0.53403  0.40643  1.0000
  H   H43       1.0  0.87143  0.66365  0.41185  1.0000
  H   H44       1.0  0.16042  0.63866  0.11871  1.0000
  H   H45       1.0  0.29029  0.85533  0.41595  1.0000
  H   H46       1.0  0.52865  0.11103  0.34770  1.0000
  H   H47       1.0  0.53812  0.89613  0.38079  1.0000
  H   H48       1.0  0.11302  0.47570  0.39802  1.0000
  H   H49       1.0  0.36161  0.15957  0.06578  1.0000
  H   H50       1.0  0.47038  0.10764  0.35764  1.0000
  H   H51       1.0  0.47946  0.89411  0.37716  1.0000
  H   H52       1.0  0.20861  0.65303  0.10313  1.0000
  H   H53       1.0  0.36624  0.82109  0.17323  1.0000
  H   H54       1.0  0.66824  0.13864  0.41436  1.0000
  H   H55       1.0  0.39212  0.02616  0.11259  1.0000
  H   H56       1.0  0.39487  0.96787  0.10738  1.0000
  H   H57       1.0  0.12585  0.32954  0.87441  1.0000
  H   H58       1.0  0.17681  0.36470  0.68847  1.0000
  H   H59       1.0  0.25310  0.80334  0.91309  1.0000
  H   H60       1.0  0.18863  0.24829  0.90053  1.0000
  H   H61       1.0  0.34151  0.20650  0.56365  1.0000
  H   H62       1.0  0.27580  0.14391  0.92792  1.0000
  H   H63       1.0  0.96253  0.60510  0.64237  1.0000
  H   H64       1.0  0.59995  0.03170  0.62312  1.0000
  H   H65       1.0  0.14776  0.28324  0.92170  1.0000
  H   H66       1.0  0.30554  0.24589  0.59394  1.0000
  H   H67       1.0  0.19407  0.73774  0.89651  1.0000
  H   H68       1.0  0.02122  0.60665  0.64726  1.0000
  H   H69       1.0  0.81239  0.25594  0.91467  1.0000
  H   H70       1.0  0.71378  0.14677  0.97888  1.0000
  H   H71       1.0  0.74959  0.18680  0.95479  1.0000
  H   H72       1.0  0.25545  0.18699  0.86717  1.0000
  H   H73       1.0  0.78974  0.33855  0.53074  1.0000
  H   H74       1.0  0.75911  0.68966  0.63219  1.0000
  H   H75       1.0  0.68491  0.23295  0.62729  1.0000
  H   H76       1.0  0.72445  0.85327  0.99414  1.0000
  H   H77       1.0  0.65197  0.79803  0.55292  1.0000
  H   H78       1.0  0.85487  0.27825  0.98671  1.0000
  H   H79       1.0  0.68884  0.75842  0.58000  1.0000
  H   H80       1.0  0.74355  0.81147  0.92288  1.0000
  H   H81       1.0  0.83913  0.35466  0.56526  1.0000
  H   H82       1.0  0.81790  0.63833  0.65644  1.0000
  H   H83       1.0  0.85186  0.71161  0.98369  1.0000
  H   H84       1.0  0.75176  0.30114  0.56214  1.0000
  H   H85       1.0  0.60298  0.97336  0.63845  1.0000
  H   H86       1.0  0.33186  0.86844  0.88236  1.0000
  H   H87       1.0  0.63374  0.17513  0.65992  1.0000
  H   H88       1.0  0.63680  0.84476  0.59195  1.0000
  H   H89       1.0  0.31312  0.75674  0.63142  1.0000
  H   H90       1.0  0.81143  0.74784  0.96043  1.0000
  H   H91       1.0  0.89090  0.46572  0.85347  1.0000
  H   H92       1.0  0.24321  0.68119  0.60511  1.0000
  H   H93       1.0  0.02801  0.39186  0.65089  1.0000
  H   H94       1.0  0.88871  0.52423  0.84745  1.0000
  H   H95       1.0  0.23624  0.31479  0.66236  1.0000
  H   H96       1.0  0.96967  0.38918  0.66168  1.0000
  H   H97       1.0  0.15240  0.71964  0.97146  1.0000
  H   H98       1.0  0.10458  0.53092  0.90971  1.0000
  H   H99       1.0  0.87222  0.66613  0.91529  1.0000
  H   H100      1.0  0.15526  0.63275  0.62071  1.0000
  H   H101      1.0  0.28707  0.84555  0.93428  1.0000
  H   H102      1.0  0.52297  0.10681  0.86214  1.0000
  H   H103      1.0  0.53207  0.89291  0.88199  1.0000
  H   H104      1.0  0.10695  0.47265  0.89310  1.0000
  H   H105      1.0  0.35443  0.15638  0.57104  1.0000
  H   H106      1.0  0.46475  0.10393  0.86886  1.0000
  H   H107      1.0  0.47348  0.89029  0.87104  1.0000
  H   H108      1.0  0.20244  0.64561  0.59179  1.0000
  H   H109      1.0  0.36126  0.81824  0.65538  1.0000
  H   H110      1.0  0.66638  0.12558  0.91521  1.0000
  H   H111      1.0  0.38578  0.02307  0.61147  1.0000
  H   H112      1.0  0.38822  0.96470  0.61465  1.0000
  C   C1        1.0  0.02436  0.56350  0.23696  1.0000
  C   C2        1.0  0.05418  0.55639  0.27534  1.0000
  C   C3        1.0  0.06378  0.52763  0.30737  1.0000
  C   C4        1.0  0.09325  0.51922  0.36679  1.0000
  C   C5        1.0  0.15257  0.34222  0.31477  1.0000
  C   C6        1.0  0.19900  0.33104  0.19330  1.0000
  C   C7        1.0  0.22281  0.28431  0.25137  1.0000
  C   C8        1.0  0.20015  0.27594  0.34810  1.0000
  C   C9        1.0  0.17767  0.29511  0.36857  1.0000
  C   C10       1.0  0.17628  0.32277  0.29186  1.0000
  C   C11       1.0  0.24562  0.26436  0.23272  1.0000
  C   C12       1.0  0.97591  0.56174  0.22651  1.0000
  C   C13       1.0  0.09433  0.48951  0.36270  1.0000
  C   C14       1.0  0.06549  0.47947  0.30149  1.0000
  C   C15       1.0  0.05787  0.45033  0.26459  1.0000
  C   C16       1.0  0.01342  0.59171  0.18328  1.0000
  C   C17       1.0  0.22219  0.31189  0.17588  1.0000
  C   C18       1.0  0.98356  0.59060  0.17679  1.0000
  C   C19       1.0  0.30190  0.17422  0.27872  1.0000
  C   C20       1.0  0.28176  0.19673  0.28708  1.0000
  C   C21       1.0  0.28533  0.22367  0.20810  1.0000
  C   C22       1.0  0.30965  0.22745  0.11717  1.0000
  C   C23       1.0  0.32911  0.20465  0.10597  1.0000
  C   C24       1.0  0.32632  0.17772  0.18697  1.0000
  C   C25       1.0  0.15790  0.65305  0.22435  1.0000
  C   C26       1.0  0.26448  0.24591  0.22058  1.0000
  C   C27       1.0  0.98038  0.43933  0.23115  1.0000
  C   C28       1.0  0.95168  0.44649  0.26302  1.0000
  C   C29       1.0  0.94325  0.47516  0.29556  1.0000
  C   C30       1.0  0.91559  0.48343  0.35032  1.0000
  C   C31       1.0  0.02859  0.44122  0.22963  1.0000
  C   C32       1.0  0.91425  0.51309  0.34509  1.0000
  C   C33       1.0  0.94121  0.52324  0.28891  1.0000
  C   C34       1.0  0.94755  0.55242  0.25362  1.0000
  C   C35       1.0  0.98970  0.41132  0.17747  1.0000
  C   C36       1.0  0.01938  0.41255  0.17483  1.0000
  C   C37       1.0  0.85258  0.65740  0.32502  1.0000
  C   C38       1.0  0.80177  0.67041  0.20885  1.0000
  C   C39       1.0  0.78130  0.71699  0.28013  1.0000
  C   C40       1.0  0.80761  0.72376  0.38083  1.0000
  C   C41       1.0  0.83030  0.70394  0.39558  1.0000
  C   C42       1.0  0.82824  0.67713  0.31029  1.0000
  C   C43       1.0  0.75827  0.73750  0.26542  1.0000
  C   C44       1.0  0.84435  0.35261  0.17532  1.0000
  C   C45       1.0  0.70279  0.82698  0.32215  1.0000
  C   C46       1.0  0.72333  0.80453  0.33068  1.0000
  C   C47       1.0  0.71775  0.77829  0.24336  1.0000
  C   C48       1.0  0.69097  0.77518  0.14250  1.0000
  C   C49       1.0  0.67114  0.79802  0.13018  1.0000
  C   C50       1.0  0.67594  0.82416  0.21981  1.0000
  C   C51       1.0  0.73914  0.75611  0.25511  1.0000
  C   C52       1.0  0.77854  0.69029  0.19605  1.0000
  C   C53       1.0  0.43988  0.02306  0.20296  1.0000
  C   C54       1.0  0.44713  0.05231  0.23781  1.0000
  C   C55       1.0  0.47629  0.06177  0.27260  1.0000
  C   C56       1.0  0.48501  0.09077  0.32342  1.0000
  C   C57       1.0  0.44208  0.97497  0.20188  1.0000
  C   C58       1.0  0.51467  0.09239  0.32033  1.0000
  C   C59       1.0  0.52450  0.06415  0.27259  1.0000
  C   C60       1.0  0.55363  0.05710  0.24877  1.0000
  C   C61       1.0  0.41104  0.01259  0.14548  1.0000
  C   C62       1.0  0.41244  0.98292  0.14362  1.0000
  C   C63       1.0  0.66027  0.15427  0.31767  1.0000
  C   C64       1.0  0.66945  0.20140  0.17885  1.0000
  C   C65       1.0  0.71602  0.22618  0.24576  1.0000
  C   C66       1.0  0.72552  0.20356  0.35807  1.0000
  C   C67       1.0  0.70697  0.18059  0.38129  1.0000
  C   C68       1.0  0.67889  0.17868  0.29266  1.0000
  C   C69       1.0  0.73539  0.24942  0.22363  1.0000
  C   C70       1.0  0.34882  0.15583  0.17090  1.0000
  C   C71       1.0  0.82578  0.30500  0.28843  1.0000
  C   C72       1.0  0.80298  0.28503  0.29086  1.0000
  C   C73       1.0  0.77573  0.28941  0.19672  1.0000
  C   C74       1.0  0.77199  0.31432  0.09479  1.0000
  C   C75       1.0  0.79508  0.33366  0.08944  1.0000
  C   C76       1.0  0.82220  0.33017  0.18684  1.0000
  C   C77       1.0  0.75336  0.26861  0.20782  1.0000
  C   C78       1.0  0.68798  0.22505  0.15798  1.0000
  C   C79       1.0  0.56497  0.98017  0.22995  1.0000
  C   C80       1.0  0.55828  0.95093  0.26212  1.0000
  C   C81       1.0  0.52991  0.94169  0.28864  1.0000
  C   C82       1.0  0.52250  0.91311  0.34425  1.0000
  C   C83       1.0  0.56292  0.02836  0.22494  1.0000
  C   C84       1.0  0.49271  0.91202  0.34111  1.0000
  C   C85       1.0  0.48163  0.93978  0.28086  1.0000
  C   C86       1.0  0.45187  0.94651  0.24001  1.0000
  C   C87       1.0  0.59282  0.99044  0.18645  1.0000
  C   C88       1.0  0.59158  0.02016  0.18369  1.0000
  C   C89       1.0  0.34253  0.85632  0.30046  1.0000
  C   C90       1.0  0.33016  0.80501  0.22318  1.0000
  C   C91       1.0  0.28337  0.78499  0.28437  1.0000
  C   C92       1.0  0.27603  0.81189  0.35568  1.0000
  C   C93       1.0  0.29558  0.83474  0.36001  1.0000
  C   C94       1.0  0.32283  0.83210  0.29457  1.0000
  C   C95       1.0  0.26319  0.76174  0.27894  1.0000
  C   C96       1.0  0.65289  0.84611  0.20152  1.0000
  C   C97       1.0  0.17557  0.70290  0.33050  1.0000
  C   C98       1.0  0.19722  0.72432  0.33824  1.0000
  C   C99       1.0  0.22374  0.71995  0.26810  1.0000
  C   C100      1.0  0.22804  0.69348  0.18619  1.0000
  C   C101      1.0  0.20584  0.67289  0.17258  1.0000
  C   C102      1.0  0.17940  0.67650  0.24468  1.0000
  C   C103      1.0  0.24507  0.74217  0.27531  1.0000
  C   C104      1.0  0.31037  0.78179  0.21937  1.0000
  C   C105      1.0  0.01848  0.56034  0.73265  1.0000
  C   C106      1.0  0.04817  0.55326  0.77442  1.0000
  C   C107      1.0  0.05758  0.52455  0.80845  1.0000
  C   C108      1.0  0.08703  0.51614  0.86819  1.0000
  C   C109      1.0  0.14445  0.33810  0.81507  1.0000
  C   C110      1.0  0.19394  0.32747  0.72948  1.0000
  C   C111      1.0  0.21509  0.27933  0.78045  1.0000
  C   C112      1.0  0.18977  0.27033  0.85349  1.0000
  C   C113      1.0  0.16717  0.28980  0.86474  1.0000
  C   C114      1.0  0.16845  0.31848  0.80301  1.0000
  C   C115      1.0  0.23777  0.25912  0.76451  1.0000
  C   C116      1.0  0.97013  0.55887  0.72354  1.0000
  C   C117      1.0  0.08820  0.48650  0.86094  1.0000
  C   C118      1.0  0.05933  0.47650  0.80021  1.0000
  C   C119      1.0  0.05173  0.44735  0.76508  1.0000
  C   C120      1.0  0.00775  0.58856  0.67822  1.0000
  C   C121      1.0  0.21705  0.30786  0.72007  1.0000
  C   C122      1.0  0.97793  0.58773  0.67448  1.0000
  C   C123      1.0  0.29539  0.16958  0.79090  1.0000
  C   C124      1.0  0.27452  0.19134  0.80182  1.0000
  C   C125      1.0  0.27809  0.21926  0.73453  1.0000
  C   C126      1.0  0.30294  0.22476  0.65058  1.0000
  C   C127      1.0  0.32289  0.20257  0.63366  1.0000
  C   C128      1.0  0.32026  0.17477  0.70465  1.0000
  C   C129      1.0  0.15314  0.64777  0.72395  1.0000
  C   C130      1.0  0.25671  0.24088  0.74988  1.0000
  C   C131      1.0  0.97430  0.43619  0.73214  1.0000
  C   C132      1.0  0.94529  0.44352  0.75699  1.0000
  C   C133      1.0  0.93629  0.47234  0.78107  1.0000
  C   C134      1.0  0.90780  0.48068  0.82423  1.0000
  C   C135      1.0  0.02251  0.43810  0.73125  1.0000
  C   C136      1.0  0.90671  0.51040  0.82129  1.0000
  C   C137      1.0  0.93455  0.52052  0.77667  1.0000
  C   C138      1.0  0.94161  0.54978  0.74812  1.0000
  C   C139      1.0  0.98389  0.40772  0.68686  1.0000
  C   C140      1.0  0.01355  0.40903  0.68331  1.0000
  C   C141      1.0  0.85288  0.66025  0.83114  1.0000
  C   C142      1.0  0.80210  0.67425  0.71990  1.0000
  C   C143      1.0  0.78264  0.72116  0.79417  1.0000
  C   C144      1.0  0.80927  0.72744  0.89313  1.0000
  C   C145      1.0  0.83162  0.70720  0.90544  1.0000
  C   C146      1.0  0.82891  0.68046  0.81948  1.0000
  C   C147      1.0  0.75986  0.74194  0.78033  1.0000
  C   C148      1.0  0.84265  0.34350  0.68592  1.0000
  C   C149      1.0  0.70224  0.83043  0.83023  1.0000
  C   C150      1.0  0.72337  0.80853  0.84161  1.0000
  C   C151      1.0  0.71879  0.78218  0.75413  1.0000
  C   C152      1.0  0.69244  0.77838  0.65035  1.0000
  C   C153      1.0  0.67198  0.80063  0.63583  1.0000
  C   C154      1.0  0.67576  0.82689  0.72517  1.0000
  C   C155      1.0  0.74060  0.76044  0.76847  1.0000
  C   C156      1.0  0.77922  0.69453  0.70983  1.0000
  C   C157      1.0  0.43347  0.01997  0.70517  1.0000
  C   C158      1.0  0.44085  0.04923  0.74052  1.0000
  C   C159      1.0  0.47008  0.05847  0.77566  1.0000
  C   C160      1.0  0.47915  0.08708  0.83213  1.0000
  C   C161      1.0  0.43556  0.97178  0.70691  1.0000
  C   C162      1.0  0.50882  0.08848  0.82977  1.0000
  C   C163      1.0  0.51826  0.06062  0.77465  1.0000
  C   C164      1.0  0.54703  0.05362  0.74387  1.0000
  C   C165      1.0  0.40462  0.00951  0.64769  1.0000
  C   C166      1.0  0.40588  0.97978  0.64907  1.0000
  C   C167      1.0  0.65899  0.14352  0.83190  1.0000
  C   C168      1.0  0.67106  0.19193  0.71835  1.0000
  C   C169      1.0  0.71964  0.21251  0.78930  1.0000
  C   C170      1.0  0.72780  0.18780  0.88886  1.0000
  C   C171      1.0  0.70777  0.16570  0.90208  1.0000
  C   C172      1.0  0.67925  0.16696  0.81771  1.0000
  C   C173      1.0  0.74021  0.23489  0.77249  1.0000
  C   C174      1.0  0.34300  0.15328  0.68238  1.0000
  C   C175      1.0  0.82828  0.29597  0.81953  1.0000
  C   C176      1.0  0.80733  0.27430  0.83189  1.0000
  C   C177      1.0  0.77934  0.27604  0.74232  1.0000
  C   C178      1.0  0.77297  0.29987  0.63481  1.0000
  C   C179      1.0  0.79436  0.32066  0.61773  1.0000
  C   C180      1.0  0.82216  0.31988  0.71008  1.0000
  C   C181      1.0  0.75836  0.25401  0.75878  1.0000
  C   C182      1.0  0.69132  0.21437  0.70563  1.0000
  C   C183      1.0  0.55808  0.97693  0.72168  1.0000
  C   C184      1.0  0.55197  0.94782  0.76001  1.0000
  C   C185      1.0  0.52375  0.93847  0.78888  1.0000
  C   C186      1.0  0.51645  0.90986  0.84421  1.0000
  C   C187      1.0  0.55575  0.02499  0.71243  1.0000
  C   C188      1.0  0.48662  0.90852  0.83845  1.0000
  C   C189      1.0  0.47538  0.93637  0.77988  1.0000
  C   C190      1.0  0.44551  0.94323  0.74241  1.0000
  C   C191      1.0  0.58517  0.98714  0.66744  1.0000
  C   C192      1.0  0.58367  0.01679  0.66074  1.0000
  C   C193      1.0  0.33826  0.85013  0.80756  1.0000
  C   C194      1.0  0.32636  0.79987  0.70732  1.0000
  C   C195      1.0  0.28087  0.77724  0.77065  1.0000
  C   C196      1.0  0.27335  0.80280  0.85500  1.0000
  C   C197      1.0  0.29238  0.82613  0.86692  1.0000
  C   C198      1.0  0.31905  0.82544  0.79433  1.0000
  C   C199      1.0  0.26128  0.75345  0.76129  1.0000
  C   C200      1.0  0.65195  0.84797  0.70451  1.0000
  C   C201      1.0  0.17327  0.69710  0.82561  1.0000
  C   C202      1.0  0.19586  0.71744  0.82956  1.0000
  C   C203      1.0  0.22144  0.71208  0.75207  1.0000
  C   C204      1.0  0.22389  0.68549  0.66780  1.0000
  C   C205      1.0  0.20097  0.66575  0.66074  1.0000
  C   C206      1.0  0.17533  0.67052  0.73905  1.0000
  C   C207      1.0  0.24334  0.73372  0.75663  1.0000
  C   C208      1.0  0.30733  0.77598  0.69820  1.0000
  N   N1        1.0  0.00107  0.54513  0.25555  1.0000
  N   N2        1.0  0.04683  0.50300  0.27585  1.0000
  N   N3        1.0  0.14991  0.36712  0.23645  1.0000
  N   N4        1.0  0.13756  0.64944  0.32123  1.0000
  N   N5        1.0  0.00431  0.45768  0.25566  1.0000
  N   N6        1.0  0.95926  0.49982  0.26724  1.0000
  N   N7        1.0  0.85230  0.63336  0.23867  1.0000
  N   N8        1.0  0.86636  0.35637  0.28609  1.0000
  N   N9        1.0  0.45884  0.99979  0.22940  1.0000
  N   N10       1.0  0.50086  0.04545  0.24988  1.0000
  N   N11       1.0  0.63502  0.15120  0.22886  1.0000
  N   N12       1.0  0.35383  0.13400  0.27063  1.0000
  N   N13       1.0  0.54659  0.00361  0.24602  1.0000
  N   N14       1.0  0.50472  0.95810  0.25756  1.0000
  N   N15       1.0  0.36753  0.85481  0.23651  1.0000
  N   N16       1.0  0.65020  0.86629  0.30943  1.0000
  N   N17       1.0  0.99512  0.54208  0.75155  1.0000
  N   N18       1.0  0.04061  0.49997  0.77566  1.0000
  N   N19       1.0  0.14478  0.36467  0.75724  1.0000
  N   N20       1.0  0.13278  0.64508  0.82176  1.0000
  N   N21       1.0  0.99810  0.45473  0.75294  1.0000
  N   N22       1.0  0.95273  0.49700  0.75909  1.0000
  N   N23       1.0  0.85151  0.63617  0.74508  1.0000
  N   N24       1.0  0.86350  0.35058  0.79766  1.0000
  N   N25       1.0  0.45235  0.99663  0.73282  1.0000
  N   N26       1.0  0.49446  0.04216  0.74929  1.0000
  N   N27       1.0  0.63297  0.14385  0.74901  1.0000
  N   N28       1.0  0.34911  0.13207  0.78475  1.0000
  N   N29       1.0  0.53980  0.00030  0.74050  1.0000
  N   N30       1.0  0.49843  0.95476  0.75732  1.0000
  N   N31       1.0  0.36227  0.85045  0.73373  1.0000
  N   N32       1.0  0.64849  0.86845  0.80952  1.0000
  O   O1        1.0  0.19861  0.35699  0.11684  1.0000
  O   O2        1.0  0.29830  0.14833  0.35726  1.0000
  O   O3        1.0  0.79874  0.64523  0.12527  1.0000
  O   O4        1.0  0.70845  0.85225  0.40827  1.0000
  O   O5        1.0  0.64304  0.20033  0.09123  1.0000
  O   O6        1.0  0.85191  0.30034  0.38222  1.0000
  O   O7        1.0  0.35566  0.80145  0.15854  1.0000
  O   O8        1.0  0.15002  0.70722  0.39993  1.0000
  O   O9        1.0  0.19590  0.35432  0.66683  1.0000
  O   O10       1.0  0.29178  0.14271  0.85839  1.0000
  O   O11       1.0  0.79848  0.64939  0.63402  1.0000
  O   O12       1.0  0.70696  0.85576  0.91682  1.0000
  O   O13       1.0  0.64442  0.19408  0.63416  1.0000
  O   O14       1.0  0.85525  0.29423  0.90825  1.0000
  O   O15       1.0  0.35121  0.79838  0.63417  1.0000
  O   O16       1.0  0.14854  0.70278  0.90026  1.0000
  C  Sn1       1.0  0.11614  0.59738  0.16895  1.0000
  C   C209      1.0  0.11561  0.62376  0.25371  1.0000
  C  Sn2       1.0  0.09586  0.62804  0.37109  1.0000
  C  Sn3       1.0  0.07623  0.60548  0.40454  1.0000
  C   C210      1.0  0.07676  0.57912  0.31982  1.0000
  C  Sn4       1.0  0.09651  0.57482  0.20239  1.0000
  O  Te1       1.0  0.13607  0.59358  0.05212  1.0000
  O  Te2       1.0  0.09575  0.65460  0.45422  1.0000
  O  Te3       1.0  0.05630  0.60931  0.52147  1.0000
  O  Te4       1.0  0.09663  0.54828  0.11932  1.0000
  Mg  Mg1       1.0  0.06454  0.64934  0.60245  1.0000
  Mg  Mg2       1.0  0.14623  0.55315  0.97113  1.0000
  C  Sn5       1.0  0.08719  0.39798  0.38271  1.0000
  C   C211      1.0  0.08586  0.42602  0.31574  1.0000
  C  Sn6       1.0  0.10418  0.43401  0.19638  1.0000
  C  Sn7       1.0  0.12425  0.41352  0.14275  1.0000
  C   C212      1.0  0.12558  0.38550  0.20968  1.0000
  C  Sn8       1.0  0.10726  0.37750  0.32908  1.0000
  O  Te5       1.0  0.06866  0.39048  0.50189  1.0000
  O  Te6       1.0  0.10245  0.46217  0.13129  1.0000
  O  Te7       1.0  0.14279  0.42105  0.02348  1.0000
  O  Te8       1.0  0.10898  0.34935  0.39414  1.0000
  Mg  Mg3       1.0  0.15064  0.46167  0.97175  1.0000
  Mg  Mg4       1.0  0.07919  0.34946  0.55361  1.0000
  C  Sn9       1.0  0.93520  0.38731  0.31025  1.0000
  C   C213      1.0  0.93235  0.41470  0.23551  1.0000
  C  Sn10      1.0  0.90464  0.42626  0.18711  1.0000
  C  Sn11      1.0  0.87924  0.41010  0.21407  1.0000
  C   C214      1.0  0.88210  0.38273  0.28880  1.0000
  C  Sn12      1.0  0.90980  0.37115  0.33721  1.0000
  O  Te9       1.0  0.96312  0.37618  0.35765  1.0000
  O  Te10      1.0  0.90234  0.45368  0.11257  1.0000
  O  Te11      1.0  0.85130  0.42125  0.16660  1.0000
  O  Te12      1.0  0.91210  0.34375  0.41174  1.0000
  Mg  Mg5       1.0  0.85950  0.45955  0.06981  1.0000
  Mg  Mg6       1.0  0.95493  0.33786  0.45463  1.0000
  C  Sn13      1.0  0.87381  0.57862  0.19681  1.0000
  C   C215      1.0  0.87421  0.60611  0.27010  1.0000
  C  Sn14      1.0  0.90080  0.61956  0.32331  1.0000
  C  Sn15      1.0  0.92754  0.60526  0.30274  1.0000
  C   C216      1.0  0.92713  0.57780  0.22946  1.0000
  C  Sn16      1.0  0.90055  0.56432  0.17623  1.0000
  O  Te13      1.0  0.84697  0.56558  0.14453  1.0000
  O  Te14      1.0  0.90065  0.64704  0.39629  1.0000
  O  Te15      1.0  0.95439  0.61833  0.35510  1.0000
  O  Te16      1.0  0.90069  0.53686  0.10327  1.0000
  Mg  Mg7       1.0  0.94282  0.65590  0.44738  1.0000
  Mg  Mg8       1.0  0.85854  0.52799  0.05206  1.0000
  C  Sn17      1.0  0.38827  0.06687  0.28600  1.0000
  C   C217      1.0  0.41440  0.06994  0.21347  1.0000
  C  Sn18      1.0  0.42381  0.09740  0.16759  1.0000
  C  Sn19      1.0  0.40676  0.12231  0.19487  1.0000
  C   C218      1.0  0.38065  0.11923  0.26738  1.0000
  C  Sn20      1.0  0.37122  0.09178  0.31328  1.0000
  O  Te17      1.0  0.37929  0.03920  0.33090  1.0000
  O  Te18      1.0  0.45000  0.09993  0.09523  1.0000
  O  Te19      1.0  0.41576  0.14999  0.14990  1.0000
  O  Te20      1.0  0.34505  0.08924  0.38563  1.0000
  Mg  Mg9       1.0  0.45303  0.14226  0.05546  1.0000
  Mg  Mg10      1.0  0.34201  0.04693  0.42552  1.0000
  C  Sn21      1.0  0.57960  0.12905  0.18103  1.0000
  C   C219      1.0  0.60775  0.13082  0.26432  1.0000
  C  Sn22      1.0  0.62157  0.10596  0.33383  1.0000
  C  Sn23      1.0  0.60696  0.07877  0.31972  1.0000
  C   C220      1.0  0.57884  0.07701  0.23644  1.0000
  C  Sn24      1.0  0.56499  0.10186  0.16691  1.0000
  O  Te21      1.0  0.56620  0.15419  0.11249  1.0000
  O  Te22      1.0  0.64971  0.10828  0.41657  1.0000
  O  Te23      1.0  0.62039  0.05363  0.38835  1.0000
  O  Te24      1.0  0.53687  0.09955  0.08420  1.0000
  Mg  Mg11      1.0  0.65884  0.06787  0.48905  1.0000
  Mg  Mg12      1.0  0.52773  0.13994  0.01159  1.0000
  C  Sn25      1.0  0.62427  0.91476  0.41970  1.0000
  C   C221      1.0  0.62377  0.88776  0.34082  1.0000
  C  Sn26      1.0  0.60269  0.88178  0.20861  1.0000
  C  Sn27      1.0  0.58167  0.90324  0.15402  1.0000
  C   C222      1.0  0.58218  0.93023  0.23285  1.0000
  C  Sn28      1.0  0.60325  0.93622  0.36510  1.0000
  O  Te25      1.0  0.64554  0.92026  0.55161  1.0000
  O  Te26      1.0  0.60263  0.85462  0.13175  1.0000
  O  Te27      1.0  0.56039  0.89772  0.02199  1.0000
  O  Te28      1.0  0.60332  0.96336  0.44192  1.0000
  Mg  Mg13      1.0  0.58768  0.85711  0.95721  1.0000
  Mg  Mg14      1.0  0.63666  0.96054  0.61641  1.0000
  C  Sn29      1.0  0.42651  0.89316  0.11554  1.0000
  C   C223      1.0  0.42656  0.92059  0.18931  1.0000
  C  Sn30      1.0  0.40759  0.92666  0.30848  1.0000
  C  Sn31      1.0  0.38816  0.90486  0.35499  1.0000
  C   C224      1.0  0.38812  0.87745  0.28126  1.0000
  C  Sn32      1.0  0.40709  0.87136  0.16204  1.0000
  O  Te29      1.0  0.46407  0.88721  0.99668  1.0000
  O  Te30      1.0  0.40803  0.95425  0.38045  1.0000
  O  Te31      1.0  0.36899  0.91047  0.47395  1.0000
  O  Te32      1.0  0.40665  0.84379  0.09012  1.0000
  Mg  Mg15      1.0  0.37780  0.95136  0.53659  1.0000
  Mg  Mg16      1.0  0.45528  0.84629  0.93404  1.0000
  C  Sn33      1.0  0.06505  0.61249  0.82887  1.0000
  C   C225      1.0  0.06648  0.58496  0.75759  1.0000
  C  Sn34      1.0  0.09321  0.57391  0.71792  1.0000
  C  Sn35      1.0  0.11906  0.59073  0.75026  1.0000
  C   C226      1.0  0.11763  0.61823  0.82152  1.0000
  C  Sn36      1.0  0.09091  0.62930  0.86121  1.0000
  O  Te33      1.0  0.03809  0.62309  0.86752  1.0000
  O  Te34      1.0  0.09408  0.54634  0.64669  1.0000
  O  Te35      1.0  0.14604  0.58010  0.71153  1.0000
  O  Te36      1.0  0.09003  0.65685  0.93242  1.0000
  Mg  Mg17      1.0  0.13601  0.54135  0.61625  1.0000
  Mg  Mg18      1.0  0.04812  0.66186  0.96299  1.0000
  C  Sn37      1.0  0.10256  0.42457  0.63882  1.0000
  C   C227      1.0  0.07693  0.42294  0.71730  1.0000
  C  Sn38      1.0  0.07432  0.40241  0.84190  1.0000
  C  Sn39      1.0  0.09783  0.38312  0.88912  1.0000
  C   C228      1.0  0.12344  0.38477  0.81069  1.0000
  C  Sn40      1.0  0.12607  0.40528  0.68604  1.0000
  O  Te37      1.0  0.10469  0.44526  0.51458  1.0000
  O  Te38      1.0  0.04848  0.40119  0.91852  1.0000
  O  Te39      1.0  0.07729  0.36279  0.01347  1.0000
  O  Te40      1.0  0.15190  0.40652  0.60946  1.0000
  Mg  Mg19      1.0  0.03767  0.36962  0.08113  1.0000
  Mg  Mg20      1.0  0.14433  0.43845  0.44691  1.0000
  C  Sn41      1.0  0.88164  0.40031  0.62855  1.0000
  C   C229      1.0  0.88436  0.37503  0.72466  1.0000
  C  Sn42      1.0  0.90648  0.37262  0.85562  1.0000
  C  Sn43      1.0  0.92630  0.39598  0.89133  1.0000
  C   C230      1.0  0.92357  0.42124  0.79527  1.0000
  C  Sn44      1.0  0.90145  0.42367  0.66427  1.0000
  O  Te41      1.0  0.85935  0.40224  0.49824  1.0000
  O  Te42      1.0  0.90877  0.34712  0.94992  1.0000
  O  Te43      1.0  0.93020  0.39439  0.02176  1.0000
  O  Te44      1.0  0.89916  0.44915  0.57002  1.0000
  Mg  Mg21      1.0  0.92437  0.35524  0.11457  1.0000
  Mg  Mg22      1.0  0.86517  0.44143  0.40540  1.0000
  C  Sn45      1.0  0.91124  0.62003  0.81025  1.0000
  C   C231      1.0  0.88283  0.62018  0.72961  1.0000
  C  Sn46      1.0  0.87019  0.59451  0.66419  1.0000
  C  Sn47      1.0  0.88626  0.56814  0.67978  1.0000
  C   C232      1.0  0.91465  0.56800  0.76039  1.0000
  C  Sn48      1.0  0.92732  0.59366  0.82583  1.0000
  O  Te45      1.0  0.92345  0.64595  0.87471  1.0000
  O  Te46      1.0  0.84175  0.59520  0.58406  1.0000
  O  Te47      1.0  0.87403  0.54221  0.61522  1.0000
  O  Te48      1.0  0.95573  0.59298  0.90595  1.0000
  Mg  Mg23      1.0  0.83461  0.55424  0.51688  1.0000
  Mg  Mg24      1.0  0.96289  0.63392  0.97325  1.0000
  C  Sn49      1.0  0.37768  0.08220  0.88005  1.0000
  C   C233      1.0  0.37578  0.11015  0.81198  1.0000
  C  Sn50      1.0  0.39371  0.11828  0.69096  1.0000
  C  Sn51      1.0  0.41396  0.09804  0.63677  1.0000
  C   C234      1.0  0.41586  0.07011  0.70482  1.0000
  C  Sn52      1.0  0.39793  0.06196  0.82587  1.0000
  O  Te49      1.0  0.34114  0.07491  0.00088  1.0000
  O  Te50      1.0  0.39142  0.14636  0.62477  1.0000
  O  Te51      1.0  0.43212  0.10572  0.51585  1.0000
  O  Te52      1.0  0.40022  0.03390  0.89202  1.0000
  Mg  Mg25      1.0  0.42085  0.14650  0.46311  1.0000
  Mg  Mg26      1.0  0.35240  0.03410  0.05362  1.0000
  C  Sn53      1.0  0.57601  0.12546  0.70480  1.0000
  C   C235      1.0  0.60477  0.12450  0.78028  1.0000
  C  Sn54      1.0  0.61747  0.09802  0.83273  1.0000
  C  Sn55      1.0  0.60108  0.07194  0.80915  1.0000
  C   C236      1.0  0.57235  0.07290  0.73369  1.0000
  C  Sn56      1.0  0.55963  0.09938  0.68123  1.0000
  O  Te53      1.0  0.56376  0.15218  0.65334  1.0000
  O  Te54      1.0  0.64625  0.09761  0.90793  1.0000
  O  Te55      1.0  0.61336  0.04520  0.86070  1.0000
  O  Te56      1.0  0.53087  0.09979  0.60604  1.0000
  Mg  Mg27      1.0  0.65331  0.05586  0.95681  1.0000
  Mg  Mg28      1.0  0.52379  0.14153  0.55705  1.0000
  C  Sn57      1.0  0.62036  0.91597  0.91458  1.0000
  C   C237      1.0  0.62114  0.88856  0.84117  1.0000
  C  Sn58      1.0  0.59970  0.88055  0.71478  1.0000
  C  Sn59      1.0  0.57700  0.90034  0.66056  1.0000
  C   C238      1.0  0.57622  0.92773  0.73394  1.0000
  C  Sn60      1.0  0.59766  0.93576  0.86036  1.0000
  O  Te57      1.0  0.62363  0.92389  0.04072  1.0000
  O  Te58      1.0  0.60094  0.85302  0.64332  1.0000
  O  Te59      1.0  0.55532  0.89276  0.53432  1.0000
  O  Te60      1.0  0.59643  0.96327  0.93179  1.0000
  Mg  Mg29      1.0  0.56643  0.85281  0.47554  1.0000
  Mg  Mg30      1.0  0.61254  0.96388  0.09950  1.0000
  C  Sn61      1.0  0.39642  0.91606  0.86798  1.0000
  C   C239      1.0  0.42254  0.91621  0.79366  1.0000
  C  Sn62      1.0  0.42734  0.89568  0.67291  1.0000
  C  Sn63      1.0  0.40557  0.87456  0.62537  1.0000
  C   C240      1.0  0.37948  0.87442  0.69965  1.0000
  C  Sn64      1.0  0.37466  0.89494  0.82044  1.0000
  O  Te61      1.0  0.39209  0.93679  0.98841  1.0000
  O  Te62      1.0  0.45363  0.89626  0.60041  1.0000
  O  Te63      1.0  0.40993  0.85382  0.50483  1.0000
  O  Te64      1.0  0.34839  0.89437  0.89290  1.0000
  Mg  Mg31      1.0  0.44931  0.86350  0.44202  1.0000
  Mg  Mg32      1.0  0.33428  0.92749  0.05122  1.0000
