data_image0
_chemical_formula_structural       H120C208N32O16SnCSn2CSnTe4Mg2SnCSn2CSnTe4Mg2SnCSn2CSnTe4Mg2SnCSn2CSnTe4Mg2SnCSn2CSnTe4Mg2SnCSn2CSnTe4Mg2SnCSn2CSnTe4Mg2SnCSn2CSnTe4Mg2SnCSn2CSnTe4Mg2SnCSn2CSnTe4Mg2SnCSn2CSnTe4Mg2SnCSn2CSnTe4Mg2SnCSn2CSnTe4Mg2SnCSn2CSnTe4Mg2SnCSn2CSnTe4Mg2SnCSn2CSnTe4Mg2
_chemical_formula_sum              "H120 C240 N32 O16 Sn64 Te64 Mg32"
_cell_length_a       45.8499
_cell_length_b       46.201
_cell_length_c       8.16949
_cell_angle_alpha    92.3449
_cell_angle_beta     87.3167
_cell_angle_gamma    90.0321

_symmetry_space_group_name_H-M    'P1'
_space_group_IT_number       1

loop_
  _space_group_symop_operation_xyz
  'x, y, z'

loop_
  _atom_site_type_symbol
  _atom_site_label
  _atom_site_symmetry_multiplicity
  _atom_site_fract_x
  _atom_site_fract_y
  _atom_site_fract_z
  _atom_site_occupancy
  H   H1        1.0  0.12866  0.33289  0.37081  1.0000
  H   H2        1.0  0.18181  0.36312  0.14214  1.0000
  H   H3        1.0  0.25413  0.80531  0.44646  1.0000
  H   H4        1.0  0.19074  0.25236  0.39783  1.0000
  H   H5        1.0  0.35141  0.20398  0.07050  1.0000
  H   H6        1.0  0.28095  0.15632  0.51104  1.0000
  H   H7        1.0  0.96935  0.60637  0.15417  1.0000
  H   H8        1.0  0.60896  0.03359  0.12308  1.0000
  H   H9        1.0  0.14937  0.28737  0.41945  1.0000
  H   H10       1.0  0.31454  0.24317  0.07421  1.0000
  H   H11       1.0  0.19225  0.74245  0.38963  1.0000
  H   H12       1.0  0.02773  0.60891  0.16288  1.0000
  H   H13       1.0  0.80621  0.26243  0.38327  1.0000
  H   H14       1.0  0.71155  0.15570  0.43860  1.0000
  H   H15       1.0  0.74655  0.19638  0.40537  1.0000
  H   H16       1.0  0.25968  0.19463  0.40701  1.0000
  H   H17       1.0  0.79485  0.34918  0.05659  1.0000
  H   H18       1.0  0.76337  0.68436  0.14172  1.0000
  H   H19       1.0  0.68518  0.23938  0.10926  1.0000
  H   H20       1.0  0.72005  0.85132  0.48192  1.0000
  H   H21       1.0  0.65488  0.79109  0.07547  1.0000
  H   H22       1.0  0.84739  0.28245  0.46247  1.0000
  H   H23       1.0  0.69169  0.75227  0.09506  1.0000
  H   H24       1.0  0.74190  0.80989  0.39991  1.0000
  H   H25       1.0  0.84503  0.36109  0.08097  1.0000
  H   H26       1.0  0.82223  0.63455  0.17766  1.0000
  H   H27       1.0  0.84911  0.71424  0.46063  1.0000
  H   H28       1.0  0.75483  0.31323  0.07164  1.0000
  H   H29       1.0  0.61232  0.97574  0.12871  1.0000
  H   H30       1.0  0.33377  0.87092  0.41419  1.0000
  H   H31       1.0  0.63589  0.17953  0.14629  1.0000
  H   H32       1.0  0.63700  0.83552  0.12217  1.0000
  H   H33       1.0  0.31486  0.76495  0.08476  1.0000
  H   H34       1.0  0.80842  0.74910  0.43265  1.0000
  H   H35       1.0  0.89422  0.46805  0.39033  1.0000
  H   H36       1.0  0.25079  0.68639  0.09599  1.0000
  H   H37       1.0  0.03530  0.39329  0.12209  1.0000
  H   H38       1.0  0.89195  0.52603  0.38672  1.0000
  H   H39       1.0  0.24165  0.31319  0.11394  1.0000
  H   H40       1.0  0.97688  0.39125  0.12756  1.0000
  H   H41       1.0  0.15068  0.72225  0.48050  1.0000
  H   H42       1.0  0.10883  0.53350  0.35969  1.0000
  H   H43       1.0  0.87114  0.66813  0.41000  1.0000
  H   H44       1.0  0.16913  0.63028  0.16039  1.0000
  H   H45       1.0  0.28793  0.84681  0.48227  1.0000
  H   H46       1.0  0.52427  0.10959  0.36497  1.0000
  H   H47       1.0  0.53530  0.89416  0.34768  1.0000
  H   H48       1.0  0.11123  0.47536  0.34679  1.0000
  H   H49       1.0  0.36939  0.16266  0.14352  1.0000
  H   H50       1.0  0.46581  0.10650  0.37097  1.0000
  H   H51       1.0  0.47690  0.89096  0.34261  1.0000
  H   H52       1.0  0.21251  0.64840  0.09580  1.0000
  H   H53       1.0  0.36686  0.83500  0.15808  1.0000
  H   H54       1.0  0.66613  0.13297  0.39042  1.0000
  H   H55       1.0  0.39209  0.02300  0.14142  1.0000
  H   H56       1.0  0.39529  0.96509  0.13169  1.0000
  H   H57       1.0  0.97752  0.49892  0.23320  1.0000
  H   H58       1.0  0.50299  0.97570  0.21951  1.0000
  H   H59       1.0  0.50012  0.02377  0.22556  1.0000
  H   H60       1.0  0.02589  0.50116  0.23520  1.0000
  H   H61       1.0  0.12679  0.33520  0.89323  1.0000
  H   H62       1.0  0.17792  0.36105  0.63429  1.0000
  H   H63       1.0  0.24838  0.81076  0.91562  1.0000
  H   H64       1.0  0.18752  0.25345  0.92699  1.0000
  H   H65       1.0  0.35057  0.20796  0.63176  1.0000
  H   H66       1.0  0.27256  0.14883  0.97465  1.0000
  H   H67       1.0  0.96570  0.60559  0.65189  1.0000
  H   H68       1.0  0.60569  0.03388  0.61784  1.0000
  H   H69       1.0  0.14716  0.28948  0.95053  1.0000
  H   H70       1.0  0.31216  0.24559  0.62833  1.0000
  H   H71       1.0  0.19190  0.73819  0.93780  1.0000
  H   H72       1.0  0.02398  0.60830  0.65178  1.0000
  H   H73       1.0  0.80928  0.25671  0.87239  1.0000
  H   H74       1.0  0.71180  0.14917  0.91741  1.0000
  H   H75       1.0  0.74733  0.18974  0.89593  1.0000
  H   H76       1.0  0.25283  0.18907  0.88705  1.0000
  H   H77       1.0  0.79174  0.34733  0.59000  1.0000
  H   H78       1.0  0.76183  0.68588  0.63201  1.0000
  H   H79       1.0  0.68450  0.23842  0.63833  1.0000
  H   H80       1.0  0.71900  0.85257  0.97947  1.0000
  H   H81       1.0  0.65260  0.79215  0.58065  1.0000
  H   H82       1.0  0.84981  0.27797  0.95685  1.0000
  H   H83       1.0  0.68952  0.75333  0.59650  1.0000
  H   H84       1.0  0.74070  0.81119  0.89487  1.0000
  H   H85       1.0  0.83726  0.36370  0.62183  1.0000
  H   H86       1.0  0.82045  0.63565  0.66692  1.0000
  H   H87       1.0  0.84555  0.71326  0.97300  1.0000
  H   H88       1.0  0.75257  0.31038  0.60650  1.0000
  H   H89       1.0  0.60932  0.97606  0.62478  1.0000
  H   H90       1.0  0.32960  0.87312  0.87387  1.0000
  H   H91       1.0  0.63403  0.17938  0.66254  1.0000
  H   H92       1.0  0.63450  0.83590  0.62994  1.0000
  H   H93       1.0  0.31441  0.75975  0.63928  1.0000
  H   H94       1.0  0.80555  0.74874  0.94230  1.0000
  H   H95       1.0  0.89133  0.46659  0.88094  1.0000
  H   H96       1.0  0.24417  0.69015  0.56716  1.0000
  H   H97       1.0  0.03295  0.39293  0.61668  1.0000
  H   H98       1.0  0.88847  0.52464  0.88158  1.0000
  H   H99       1.0  0.23673  0.30995  0.60634  1.0000
  H   H100      1.0  0.97455  0.39053  0.62906  1.0000
  H   H101      1.0  0.15069  0.71651  0.02645  1.0000
  H   H102      1.0  0.10466  0.53344  0.87279  1.0000
  H   H103      1.0  0.86745  0.66711  0.91904  1.0000
  H   H104      1.0  0.15506  0.64099  0.58690  1.0000
  H   H105      1.0  0.28313  0.85209  0.93115  1.0000
  H   H106      1.0  0.52128  0.10964  0.86285  1.0000
  H   H107      1.0  0.53299  0.89434  0.84851  1.0000
  H   H108      1.0  0.10748  0.47540  0.85866  1.0000
  H   H109      1.0  0.36922  0.16617  0.70602  1.0000
  H   H110      1.0  0.46282  0.10665  0.86706  1.0000
  H   H111      1.0  0.47462  0.89071  0.84083  1.0000
  H   H112      1.0  0.20449  0.65400  0.54642  1.0000
  H   H113      1.0  0.36416  0.81944  0.66222  1.0000
  H   H114      1.0  0.66597  0.12795  0.86736  1.0000
  H   H115      1.0  0.38900  0.02259  0.64492  1.0000
  H   H116      1.0  0.39233  0.96461  0.63792  1.0000
  H   H117      1.0  0.97475  0.49868  0.73507  1.0000
  H   H118      1.0  0.50023  0.97578  0.72181  1.0000
  H   H119      1.0  0.49715  0.02382  0.72383  1.0000
  H   H120      1.0  0.02331  0.50058  0.72445  1.0000
  C   C1        1.0  0.02331  0.56252  0.24003  1.0000
  C   C2        1.0  0.05285  0.55557  0.26412  1.0000
  C   C3        1.0  0.06318  0.52719  0.28312  1.0000
  C   C4        1.0  0.09167  0.51859  0.32691  1.0000
  C   C5        1.0  0.14764  0.33962  0.29484  1.0000
  C   C6        1.0  0.19839  0.32715  0.19215  1.0000
  C   C7        1.0  0.21891  0.28045  0.25386  1.0000
  C   C8        1.0  0.19240  0.27302  0.33928  1.0000
  C   C9        1.0  0.16960  0.29261  0.35168  1.0000
  C   C10       1.0  0.17182  0.31985  0.27949  1.0000
  C   C11       1.0  0.24235  0.26053  0.24460  1.0000
  C   C12       1.0  0.97572  0.56063  0.23790  1.0000
  C   C13       1.0  0.09286  0.48878  0.32014  1.0000
  C   C14       1.0  0.06510  0.47801  0.27206  1.0000
  C   C15       1.0  0.05693  0.44888  0.24111  1.0000
  C   C16       1.0  0.01367  0.59084  0.19152  1.0000
  C   C17       1.0  0.22164  0.30744  0.18127  1.0000
  C   C18       1.0  0.98404  0.58956  0.18833  1.0000
  C   C19       1.0  0.30095  0.17484  0.33444  1.0000
  C   C20       1.0  0.27985  0.19659  0.33259  1.0000
  C   C21       1.0  0.28427  0.22146  0.23999  1.0000
  C   C22       1.0  0.31079  0.22424  0.14671  1.0000
  C   C23       1.0  0.33128  0.20223  0.14555  1.0000
  C   C24       1.0  0.32730  0.17698  0.23633  1.0000
  C   C25       1.0  0.15994  0.64940  0.22942  1.0000
  C   C26       1.0  0.26211  0.24270  0.24117  1.0000
  C   C27       1.0  0.98012  0.43789  0.22287  1.0000
  C   C28       1.0  0.95030  0.44492  0.25773  1.0000
  C   C29       1.0  0.94006  0.47348  0.29177  1.0000
  C   C30       1.0  0.91150  0.48250  0.35128  1.0000
  C   C31       1.0  0.02787  0.43967  0.21668  1.0000
  C   C32       1.0  0.91036  0.51226  0.35056  1.0000
  C   C33       1.0  0.93826  0.52258  0.29299  1.0000
  C   C34       1.0  0.94649  0.55153  0.26603  1.0000
  C   C35       1.0  0.99043  0.40941  0.16304  1.0000
  C   C36       1.0  0.02014  0.41048  0.15982  1.0000
  C   C37       1.0  0.85348  0.66030  0.33363  1.0000
  C   C38       1.0  0.80476  0.67125  0.22679  1.0000
  C   C39       1.0  0.78323  0.71895  0.28597  1.0000
  C   C40       1.0  0.80790  0.72752  0.37491  1.0000
  C   C41       1.0  0.83036  0.70806  0.38995  1.0000
  C   C42       1.0  0.82957  0.67980  0.31697  1.0000
  C   C43       1.0  0.76041  0.73901  0.27005  1.0000
  C   C44       1.0  0.84549  0.34955  0.19613  1.0000
  C   C45       1.0  0.70136  0.82728  0.32350  1.0000
  C   C46       1.0  0.72269  0.80584  0.32880  1.0000
  C   C47       1.0  0.71948  0.77849  0.24847  1.0000
  C   C48       1.0  0.69432  0.77314  0.15871  1.0000
  C   C49       1.0  0.67382  0.79494  0.14895  1.0000
  C   C50       1.0  0.67630  0.82243  0.22979  1.0000
  C   C51       1.0  0.74126  0.75716  0.25907  1.0000
  C   C52       1.0  0.78185  0.69089  0.21319  1.0000
  C   C53       1.0  0.43855  0.02029  0.22376  1.0000
  C   C54       1.0  0.44490  0.04994  0.25547  1.0000
  C   C55       1.0  0.47320  0.06071  0.28171  1.0000
  C   C56       1.0  0.48118  0.08940  0.33507  1.0000
  C   C57       1.0  0.44115  0.97304  0.21591  1.0000
  C   C58       1.0  0.51119  0.09095  0.33191  1.0000
  C   C59       1.0  0.52271  0.06325  0.27661  1.0000
  C   C60       1.0  0.55231  0.05541  0.24508  1.0000
  C   C61       1.0  0.41040  0.00976  0.17118  1.0000
  C   C62       1.0  0.41203  0.98033  0.16631  1.0000
  C   C63       1.0  0.65947  0.14985  0.30919  1.0000
  C   C64       1.0  0.67159  0.19800  0.19601  1.0000
  C   C65       1.0  0.71817  0.22061  0.25517  1.0000
  C   C66       1.0  0.72579  0.19644  0.34662  1.0000
  C   C67       1.0  0.70628  0.17388  0.36440  1.0000
  C   C68       1.0  0.67904  0.17386  0.29008  1.0000
  C   C69       1.0  0.73809  0.24385  0.24131  1.0000
  C   C70       1.0  0.35081  0.15586  0.22325  1.0000
  C   C71       1.0  0.82571  0.30237  0.30840  1.0000
  C   C72       1.0  0.80366  0.28157  0.31185  1.0000
  C   C73       1.0  0.77769  0.28519  0.22904  1.0000
  C   C74       1.0  0.77442  0.31035  0.13900  1.0000
  C   C75       1.0  0.79700  0.33032  0.13075  1.0000
  C   C76       1.0  0.82299  0.32732  0.21463  1.0000
  C   C77       1.0  0.75605  0.26342  0.23508  1.0000
  C   C78       1.0  0.69108  0.22121  0.18130  1.0000
  C   C79       1.0  0.56468  0.97919  0.21488  1.0000
  C   C80       1.0  0.55791  0.94972  0.24093  1.0000
  C   C81       1.0  0.52919  0.93917  0.26604  1.0000
  C   C82       1.0  0.52045  0.91090  0.31461  1.0000
  C   C83       1.0  0.56208  0.02648  0.21457  1.0000
  C   C84       1.0  0.49048  0.90930  0.31239  1.0000
  C   C85       1.0  0.47977  0.93658  0.26361  1.0000
  C   C86       1.0  0.45060  0.94435  0.23868  1.0000
  C   C87       1.0  0.59353  0.98930  0.16110  1.0000
  C   C88       1.0  0.59184  0.01871  0.15928  1.0000
  C   C89       1.0  0.33951  0.85349  0.32453  1.0000
  C   C90       1.0  0.32893  0.80636  0.18503  1.0000
  C   C91       1.0  0.28256  0.78266  0.26248  1.0000
  C   C92       1.0  0.27458  0.80636  0.37462  1.0000
  C   C93       1.0  0.29338  0.82915  0.39387  1.0000
  C   C94       1.0  0.32053  0.83001  0.30225  1.0000
  C   C95       1.0  0.26297  0.75917  0.24951  1.0000
  C   C96       1.0  0.65308  0.84326  0.20987  1.0000
  C   C97       1.0  0.17492  0.70059  0.32341  1.0000
  C   C98       1.0  0.19646  0.72191  0.32276  1.0000
  C   C99       1.0  0.22410  0.71720  0.24282  1.0000
  C   C100      1.0  0.22980  0.69017  0.16057  1.0000
  C   C101      1.0  0.20818  0.66922  0.15976  1.0000
  C   C102      1.0  0.18029  0.67345  0.23867  1.0000
  C   C103      1.0  0.24522  0.73940  0.24606  1.0000
  C   C104      1.0  0.30893  0.78276  0.17076  1.0000
  C   C105      1.0  0.02018  0.56206  0.73365  1.0000
  C   C106      1.0  0.04976  0.55530  0.75883  1.0000
  C   C107      1.0  0.05995  0.52696  0.78179  1.0000
  C   C108      1.0  0.08797  0.51850  0.83381  1.0000
  C   C109      1.0  0.14510  0.34034  0.80813  1.0000
  C   C110      1.0  0.19448  0.32557  0.69291  1.0000
  C   C111      1.0  0.21476  0.27932  0.76489  1.0000
  C   C112      1.0  0.18898  0.27340  0.86120  1.0000
  C   C113      1.0  0.16672  0.29358  0.87433  1.0000
  C   C114      1.0  0.16871  0.31989  0.79192  1.0000
  C   C115      1.0  0.23771  0.25884  0.75573  1.0000
  C   C116      1.0  0.97250  0.55999  0.73614  1.0000
  C   C117      1.0  0.08938  0.48872  0.82668  1.0000
  C   C118      1.0  0.06222  0.47783  0.77075  1.0000
  C   C119      1.0  0.05441  0.44867  0.73794  1.0000
  C   C120      1.0  0.01025  0.59016  0.68365  1.0000
  C   C121      1.0  0.21730  0.30535  0.68210  1.0000
  C   C122      1.0  0.98058  0.58884  0.68446  1.0000
  C   C123      1.0  0.29600  0.17193  0.83296  1.0000
  C   C124      1.0  0.27429  0.19306  0.82971  1.0000
  C   C125      1.0  0.27964  0.21988  0.75717  1.0000
  C   C126      1.0  0.30775  0.22521  0.68650  1.0000
  C   C127      1.0  0.32908  0.20404  0.68892  1.0000
  C   C128      1.0  0.32423  0.17697  0.75997  1.0000
  C   C129      1.0  0.15384  0.65206  0.70913  1.0000
  C   C130      1.0  0.25719  0.24072  0.75509  1.0000
  C   C131      1.0  0.97781  0.43734  0.72131  1.0000
  C   C132      1.0  0.94800  0.44419  0.75741  1.0000
  C   C133      1.0  0.93739  0.47267  0.78891  1.0000
  C   C134      1.0  0.90857  0.48136  0.84544  1.0000
  C   C135      1.0  0.02550  0.43933  0.71164  1.0000
  C   C136      1.0  0.90715  0.51114  0.84612  1.0000
  C   C137      1.0  0.93510  0.52182  0.79137  1.0000
  C   C138      1.0  0.94326  0.55084  0.76552  1.0000
  C   C139      1.0  0.98813  0.40882  0.66192  1.0000
  C   C140      1.0  0.01782  0.41008  0.65557  1.0000
  C   C141      1.0  0.85051  0.66003  0.83575  1.0000
  C   C142      1.0  0.80276  0.67211  0.72048  1.0000
  C   C143      1.0  0.78123  0.71968  0.78401  1.0000
  C   C144      1.0  0.80528  0.72753  0.87981  1.0000
  C   C145      1.0  0.82738  0.70771  0.89639  1.0000
  C   C146      1.0  0.82693  0.67990  0.81755  1.0000
  C   C147      1.0  0.75870  0.74004  0.76742  1.0000
  C   C148      1.0  0.84326  0.34785  0.71147  1.0000
  C   C149      1.0  0.70010  0.82866  0.82103  1.0000
  C   C150      1.0  0.72132  0.80710  0.82539  1.0000
  C   C151      1.0  0.71784  0.77963  0.74668  1.0000
  C   C152      1.0  0.69238  0.77423  0.65954  1.0000
  C   C153      1.0  0.67186  0.79605  0.65147  1.0000
  C   C154      1.0  0.67469  0.82369  0.73033  1.0000
  C   C155      1.0  0.73958  0.75825  0.75658  1.0000
  C   C156      1.0  0.78005  0.69198  0.70640  1.0000
  C   C157      1.0  0.43557  0.02011  0.72545  1.0000
  C   C158      1.0  0.44184  0.04982  0.75620  1.0000
  C   C159      1.0  0.47016  0.06075  0.77984  1.0000
  C   C160      1.0  0.47817  0.08950  0.83214  1.0000
  C   C161      1.0  0.43834  0.97285  0.71888  1.0000
  C   C162      1.0  0.50818  0.09104  0.82930  1.0000
  C   C163      1.0  0.51962  0.06333  0.77408  1.0000
  C   C164      1.0  0.54915  0.05548  0.74216  1.0000
  C   C165      1.0  0.40736  0.00941  0.67459  1.0000
  C   C166      1.0  0.40908  0.97997  0.67075  1.0000
  C   C167      1.0  0.65858  0.14656  0.80100  1.0000
  C   C168      1.0  0.67060  0.19618  0.70971  1.0000
  C   C169      1.0  0.71820  0.21674  0.76582  1.0000
  C   C170      1.0  0.72606  0.19110  0.84367  1.0000
  C   C171      1.0  0.70625  0.16868  0.85514  1.0000
  C   C172      1.0  0.67840  0.17044  0.78888  1.0000
  C   C173      1.0  0.73860  0.23956  0.75394  1.0000
  C   C174      1.0  0.34858  0.15681  0.75405  1.0000
  C   C175      1.0  0.82667  0.29830  0.81061  1.0000
  C   C176      1.0  0.80538  0.27672  0.81082  1.0000
  C   C177      1.0  0.77831  0.28074  0.73956  1.0000
  C   C178      1.0  0.77325  0.30698  0.66261  1.0000
  C   C179      1.0  0.79520  0.32758  0.65476  1.0000
  C   C180      1.0  0.82229  0.32433  0.72785  1.0000
  C   C181      1.0  0.75694  0.25876  0.74605  1.0000
  C   C182      1.0  0.69051  0.21910  0.70048  1.0000
  C   C183      1.0  0.56180  0.97941  0.71291  1.0000
  C   C184      1.0  0.55528  0.94997  0.74096  1.0000
  C   C185      1.0  0.52664  0.93932  0.76733  1.0000
  C   C186      1.0  0.51806  0.91099  0.81536  1.0000
  C   C187      1.0  0.55897  0.02661  0.71127  1.0000
  C   C188      1.0  0.48810  0.90921  0.81252  1.0000
  C   C189      1.0  0.47721  0.93652  0.76503  1.0000
  C   C190      1.0  0.44795  0.94419  0.74116  1.0000
  C   C191      1.0  0.59052  0.98957  0.65745  1.0000
  C   C192      1.0  0.58869  0.01894  0.65488  1.0000
  C   C193      1.0  0.33779  0.85364  0.80533  1.0000
  C   C194      1.0  0.32713  0.80295  0.71198  1.0000
  C   C195      1.0  0.27913  0.78258  0.77552  1.0000
  C   C196      1.0  0.27020  0.80901  0.85824  1.0000
  C   C197      1.0  0.28961  0.83181  0.86710  1.0000
  C   C198      1.0  0.31821  0.82955  0.79501  1.0000
  C   C199      1.0  0.25928  0.75922  0.76627  1.0000
  C   C200      1.0  0.65125  0.84431  0.71173  1.0000
  C   C201      1.0  0.17294  0.69849  0.84630  1.0000
  C   C202      1.0  0.19475  0.71952  0.85294  1.0000
  C   C203      1.0  0.22072  0.71692  0.75378  1.0000
  C   C204      1.0  0.22446  0.69240  0.64570  1.0000
  C   C205      1.0  0.20212  0.67224  0.63480  1.0000
  C   C206      1.0  0.17601  0.67437  0.73323  1.0000
  C   C207      1.0  0.24184  0.73920  0.76022  1.0000
  C   C208      1.0  0.30747  0.77979  0.70358  1.0000
  N   N1        1.0  0.00000  0.54422  0.26202  1.0000
  N   N2        1.0  0.04770  0.50197  0.25534  1.0000
  N   N3        1.0  0.14845  0.36433  0.22182  1.0000
  N   N4        1.0  0.13379  0.64977  0.29643  1.0000
  N   N5        1.0  0.00323  0.45624  0.24834  1.0000
  N   N6        1.0  0.95567  0.49846  0.26336  1.0000
  N   N7        1.0  0.85396  0.63454  0.26088  1.0000
  N   N8        1.0  0.86482  0.35501  0.30330  1.0000
  N   N9        1.0  0.45727  0.99764  0.24405  1.0000
  N   N10       1.0  0.49895  0.04554  0.25229  1.0000
  N   N11       1.0  0.63496  0.14842  0.23335  1.0000
  N   N12       1.0  0.35062  0.13146  0.29563  1.0000
  N   N13       1.0  0.54565  0.00207  0.24086  1.0000
  N   N14       1.0  0.50386  0.95409  0.24064  1.0000
  N   N15       1.0  0.36485  0.85464  0.23771  1.0000
  N   N16       1.0  0.65109  0.86837  0.28579  1.0000
  N   N17       1.0  0.99693  0.54373  0.75892  1.0000
  N   N18       1.0  0.04490  0.50164  0.74961  1.0000
  N   N19       1.0  0.14562  0.36405  0.72562  1.0000
  N   N20       1.0  0.13403  0.64590  0.81969  1.0000
  N   N21       1.0  0.00084  0.45584  0.74419  1.0000
  N   N22       1.0  0.95280  0.49785  0.76229  1.0000
  N   N23       1.0  0.85150  0.63480  0.75681  1.0000
  N   N24       1.0  0.86663  0.35029  0.79397  1.0000
  N   N25       1.0  0.45442  0.99755  0.74533  1.0000
  N   N26       1.0  0.49589  0.04560  0.75011  1.0000
  N   N27       1.0  0.63309  0.14711  0.73541  1.0000
  N   N28       1.0  0.34675  0.13034  0.79922  1.0000
  N   N29       1.0  0.54267  0.00219  0.73902  1.0000
  N   N30       1.0  0.50121  0.95417  0.74274  1.0000
  N   N31       1.0  0.36408  0.85238  0.73528  1.0000
  N   N32       1.0  0.64969  0.86989  0.78226  1.0000
  O   O1        1.0  0.20143  0.35265  0.12004  1.0000
  O   O2        1.0  0.29651  0.15141  0.42925  1.0000
  O   O3        1.0  0.80314  0.64479  0.15288  1.0000
  O   O4        1.0  0.70418  0.85319  0.40775  1.0000
  O   O5        1.0  0.64613  0.19873  0.12105  1.0000
  O   O6        1.0  0.85057  0.29861  0.39100  1.0000
  O   O7        1.0  0.35316  0.80694  0.09924  1.0000
  O   O8        1.0  0.14858  0.70541  0.40637  1.0000
  O   O9        1.0  0.19713  0.34996  0.60953  1.0000
  O   O10       1.0  0.29041  0.14629  0.90623  1.0000
  O   O11       1.0  0.80153  0.64610  0.64119  1.0000
  O   O12       1.0  0.70348  0.85470  0.90345  1.0000
  O   O13       1.0  0.64462  0.19860  0.64198  1.0000
  O   O14       1.0  0.85212  0.29458  0.88785  1.0000
  O   O15       1.0  0.35393  0.79992  0.64045  1.0000
  O   O16       1.0  0.14789  0.70128  0.94283  1.0000
  C  Sn1       1.0  0.11431  0.59807  0.13533  1.0000
  C   C209      1.0  0.11254  0.62404  0.22918  1.0000
  C  Sn2       1.0  0.09233  0.62719  0.36205  1.0000
  C  Sn3       1.0  0.07350  0.60389  0.40202  1.0000
  C   C210      1.0  0.07528  0.57794  0.30822  1.0000
  C  Sn4       1.0  0.09548  0.57477  0.17530  1.0000
  O  Te1       1.0  0.13468  0.59540  0.00304  1.0000
  O  Te2       1.0  0.09096  0.65336  0.45404  1.0000
  O  Te3       1.0  0.05312  0.60658  0.53443  1.0000
  O  Te4       1.0  0.09686  0.54862  0.08336  1.0000
  Mg  Mg1       1.0  0.05959  0.64649  0.62278  1.0000
  Mg  Mg2       1.0  0.11989  0.56270  0.91466  1.0000
  C  Sn5       1.0  0.08904  0.37932  0.28691  1.0000
  C   C211      1.0  0.11676  0.37980  0.20827  1.0000
  C  Sn6       1.0  0.12827  0.40566  0.15057  1.0000
  C  Sn7       1.0  0.11175  0.43160  0.17202  1.0000
  C   C212      1.0  0.08405  0.43111  0.25065  1.0000
  C  Sn8       1.0  0.07252  0.40525  0.30836  1.0000
  O  Te5       1.0  0.07796  0.35321  0.34362  1.0000
  O  Te6       1.0  0.15603  0.40560  0.07228  1.0000
  O  Te7       1.0  0.12286  0.45771  0.11523  1.0000
  O  Te8       1.0  0.04478  0.40531  0.38663  1.0000
  Mg  Mg3       1.0  0.16169  0.44659  0.01650  1.0000
  Mg  Mg4       1.0  0.03910  0.36434  0.44254  1.0000
  C  Sn9       1.0  0.93371  0.38598  0.30380  1.0000
  C   C213      1.0  0.93176  0.41296  0.23375  1.0000
  C  Sn10      1.0  0.90465  0.42397  0.19557  1.0000
  C  Sn11      1.0  0.87895  0.40769  0.22819  1.0000
  C   C214      1.0  0.88091  0.38072  0.29822  1.0000
  C  Sn12      1.0  0.90801  0.36969  0.33641  1.0000
  O  Te9       1.0  0.96105  0.37539  0.34096  1.0000
  O  Te10      1.0  0.90324  0.45100  0.12555  1.0000
  O  Te11      1.0  0.85160  0.41829  0.19095  1.0000
  O  Te12      1.0  0.90942  0.34269  0.40641  1.0000
  Mg  Mg5       1.0  0.86095  0.45619  0.09693  1.0000
  Mg  Mg6       1.0  0.95170  0.33748  0.43517  1.0000
  C  Sn13      1.0  0.89470  0.57412  0.14045  1.0000
  C   C215      1.0  0.92109  0.57581  0.21918  1.0000
  C  Sn14      1.0  0.92512  0.59687  0.34365  1.0000
  C  Sn15      1.0  0.90229  0.61664  0.39049  1.0000
  C   C216      1.0  0.87591  0.61494  0.31180  1.0000
  C  Sn16      1.0  0.87187  0.59389  0.18729  1.0000
  O  Te13      1.0  0.89115  0.55289  0.01635  1.0000
  O  Te14      1.0  0.95171  0.59815  0.42052  1.0000
  O  Te15      1.0  0.90586  0.63788  0.51470  1.0000
  O  Te16      1.0  0.84530  0.59261  0.11046  1.0000
  Mg  Mg7       1.0  0.94604  0.63091  0.58281  1.0000
  Mg  Mg8       1.0  0.84260  0.56708  0.94823  1.0000
  C  Sn17      1.0  0.40368  0.11084  0.13886  1.0000
  C   C217      1.0  0.37679  0.10990  0.22641  1.0000
  C  Sn18      1.0  0.37214  0.09018  0.35005  1.0000
  C  Sn19      1.0  0.39483  0.07100  0.38704  1.0000
  C   C218      1.0  0.42170  0.07195  0.29954  1.0000
  C  Sn20      1.0  0.42638  0.09166  0.17585  1.0000
  O  Te17      1.0  0.40785  0.13074  0.01577  1.0000
  O  Te18      1.0  0.34507  0.08964  0.43585  1.0000
  O  Te19      1.0  0.39064  0.05109  0.51025  1.0000
  O  Te20      1.0  0.45343  0.09221  0.09010  1.0000
  Mg  Mg9       1.0  0.34997  0.05866  0.59278  1.0000
  Mg  Mg10      1.0  0.44022  0.13042  0.93322  1.0000
  C  Sn21      1.0  0.62188  0.08943  0.28730  1.0000
  C   C219      1.0  0.62027  0.11627  0.21529  1.0000
  C  Sn22      1.0  0.59356  0.12665  0.16648  1.0000
  C  Sn23      1.0  0.56791  0.10987  0.19022  1.0000
  C   C220      1.0  0.56953  0.08305  0.26221  1.0000
  C  Sn24      1.0  0.59623  0.07265  0.31104  1.0000
  O  Te21      1.0  0.64882  0.07948  0.33517  1.0000
  O  Te22      1.0  0.59250  0.15355  0.09470  1.0000
  O  Te23      1.0  0.54096  0.11984  0.14227  1.0000
  O  Te24      1.0  0.59730  0.04577  0.38279  1.0000
  Mg  Mg11      1.0  0.55068  0.15780  0.05002  1.0000
  Mg  Mg12      1.0  0.63910  0.04151  0.42760  1.0000
  C  Sn25      1.0  0.62146  0.91691  0.38678  1.0000
  C   C221      1.0  0.62391  0.88956  0.30772  1.0000
  C  Sn26      1.0  0.60622  0.88202  0.17804  1.0000
  C  Sn27      1.0  0.58567  0.90225  0.12620  1.0000
  C   C222      1.0  0.58323  0.92958  0.20522  1.0000
  C  Sn28      1.0  0.60090  0.93714  0.33495  1.0000
  O  Te25      1.0  0.63936  0.92398  0.51615  1.0000
  O  Te26      1.0  0.60907  0.85455  0.10094  1.0000
  O  Te27      1.0  0.55942  0.90239  0.99673  1.0000
  O  Te28      1.0  0.59807  0.96460  0.41200  1.0000
  Mg  Mg13      1.0  0.57145  0.86230  0.93049  1.0000
  Mg  Mg14      1.0  0.62735  0.96410  0.58240  1.0000
  C  Sn29      1.0  0.39952  0.91796  0.37624  1.0000
  C   C223      1.0  0.42662  0.91781  0.29050  1.0000
  C  Sn30      1.0  0.43266  0.89742  0.16242  1.0000
  C  Sn31      1.0  0.41116  0.87677  0.11906  1.0000
  C   C224      1.0  0.38408  0.87693  0.20476  1.0000
  C  Sn32      1.0  0.37802  0.89731  0.33288  1.0000
  O  Te29      1.0  0.39395  0.93854  0.50385  1.0000
  O  Te30      1.0  0.45992  0.89768  0.07853  1.0000
  O  Te31      1.0  0.40842  0.86341  0.99134  1.0000
  O  Te32      1.0  0.35078  0.89705  0.41673  1.0000
  Mg  Mg15      1.0  0.44879  0.87252  0.91371  1.0000
  Mg  Mg16      1.0  0.35354  0.92944  0.58150  1.0000
  C  Sn33      1.0  0.08318  0.61976  0.91245  1.0000
  C   C225      1.0  0.11137  0.62024  0.83976  1.0000
  C  Sn34      1.0  0.11939  0.60069  0.71056  1.0000
  C  Sn35      1.0  0.09880  0.58023  0.65273  1.0000
  C   C226      1.0  0.07063  0.57976  0.72539  1.0000
  C  Sn36      1.0  0.06259  0.59930  0.85462  1.0000
  O  Te33      1.0  0.08397  0.63228  0.04145  1.0000
  O  Te34      1.0  0.14771  0.60158  0.63988  1.0000
  O  Te35      1.0  0.10637  0.56048  0.52363  1.0000
  O  Te36      1.0  0.03429  0.59842  0.92527  1.0000
  Mg  Mg17      1.0  0.14757  0.57023  0.46730  1.0000
  Mg  Mg18      1.0  0.04274  0.62254  0.09779  1.0000
  C  Sn37      1.0  0.08002  0.39866  0.86418  1.0000
  C   C227      1.0  0.08083  0.42509  0.78681  1.0000
  C  Sn38      1.0  0.10226  0.43030  0.66435  1.0000
  C  Sn39      1.0  0.12331  0.40863  0.61819  1.0000
  C   C228      1.0  0.12249  0.38222  0.69552  1.0000
  C  Sn40      1.0  0.10107  0.37699  0.81802  1.0000
  O  Te37      1.0  0.05841  0.39391  0.98628  1.0000
  O  Te38      1.0  0.10263  0.45689  0.58880  1.0000
  O  Te39      1.0  0.14494  0.41339  0.49599  1.0000
  O  Te40      1.0  0.10069  0.35041  0.89353  1.0000
  Mg  Mg19      1.0  0.13638  0.45308  0.42911  1.0000
  Mg  Mg20      1.0  0.07528  0.34696  0.05317  1.0000
  C  Sn41      1.0  0.89038  0.42202  0.72363  1.0000
  C   C229      1.0  0.91801  0.42322  0.78889  1.0000
  C  Sn42      1.0  0.93108  0.39812  0.84110  1.0000
  C  Sn43      1.0  0.91623  0.37125  0.82772  1.0000
  C   C230      1.0  0.88862  0.37005  0.76247  1.0000
  C  Sn44      1.0  0.87553  0.39515  0.71025  1.0000
  O  Te41      1.0  0.87773  0.44739  0.67220  1.0000
  O  Te42      1.0  0.95872  0.39986  0.90598  1.0000
  O  Te43      1.0  0.92891  0.34587  0.87923  1.0000
  O  Te44      1.0  0.84792  0.39341  0.64538  1.0000
  Mg  Mg21      1.0  0.96689  0.35932  0.95916  1.0000
  Mg  Mg22      1.0  0.83973  0.43393  0.59209  1.0000
  C  Sn45      1.0  0.91000  0.62081  0.81856  1.0000
  C   C231      1.0  0.88329  0.61899  0.74309  1.0000
  C  Sn46      1.0  0.87254  0.59215  0.68885  1.0000
  C  Sn47      1.0  0.88881  0.56661  0.71059  1.0000
  C   C232      1.0  0.91549  0.56844  0.78604  1.0000
  C  Sn48      1.0  0.92627  0.59527  0.84029  1.0000
  O  Te45      1.0  0.92033  0.64787  0.87183  1.0000
  O  Te46      1.0  0.84579  0.59088  0.61370  1.0000
  O  Te47      1.0  0.87845  0.53954  0.65724  1.0000
  O  Te48      1.0  0.95300  0.59655  0.91543  1.0000
  Mg  Mg23      1.0  0.84088  0.54897  0.56197  1.0000
  Mg  Mg24      1.0  0.95792  0.63844  0.96728  1.0000
  C  Sn49      1.0  0.38197  0.06471  0.82472  1.0000
  C   C233      1.0  0.40931  0.06670  0.74297  1.0000
  C  Sn50      1.0  0.41932  0.09324  0.68676  1.0000
  C  Sn51      1.0  0.40164  0.11834  0.71289  1.0000
  C   C234      1.0  0.37431  0.11635  0.79462  1.0000
  C  Sn52      1.0  0.36428  0.08981  0.85085  1.0000
  O  Te49      1.0  0.37240  0.03795  0.87987  1.0000
  O  Te50      1.0  0.44673  0.09469  0.60531  1.0000
  O  Te51      1.0  0.41122  0.14511  0.65766  1.0000
  O  Te52      1.0  0.33689  0.08836  0.93228  1.0000
  Mg  Mg25      1.0  0.45016  0.13607  0.55331  1.0000
  Mg  Mg26      1.0  0.33345  0.04700  0.98441  1.0000
  C  Sn53      1.0  0.61886  0.08845  0.78699  1.0000
  C   C235      1.0  0.61774  0.11539  0.71571  1.0000
  C  Sn54      1.0  0.59125  0.12622  0.66638  1.0000
  C  Sn55      1.0  0.56534  0.10980  0.68885  1.0000
  C   C236      1.0  0.56646  0.08288  0.76012  1.0000
  C  Sn56      1.0  0.59295  0.07202  0.80946  1.0000
  O  Te53      1.0  0.64559  0.07804  0.83540  1.0000
  O  Te54      1.0  0.59068  0.15321  0.59536  1.0000
  O  Te55      1.0  0.53860  0.12023  0.64037  1.0000
  O  Te56      1.0  0.59352  0.04506  0.88047  1.0000
  Mg  Mg27      1.0  0.54900  0.15814  0.54952  1.0000
  Mg  Mg28      1.0  0.63519  0.04011  0.92643  1.0000
  C  Sn57      1.0  0.61967  0.91815  0.88314  1.0000
  C   C237      1.0  0.62222  0.89073  0.80496  1.0000
  C  Sn58      1.0  0.60421  0.88281  0.67733  1.0000
  C  Sn59      1.0  0.58323  0.90272  0.62670  1.0000
  C   C238      1.0  0.58070  0.93012  0.70483  1.0000
  C  Sn60      1.0  0.59869  0.93806  0.83250  1.0000
  O  Te57      1.0  0.64623  0.91837  0.01044  1.0000
  O  Te58      1.0  0.60716  0.85528  0.60108  1.0000
  O  Te59      1.0  0.56500  0.89525  0.49929  1.0000
  O  Te60      1.0  0.59575  0.96558  0.90871  1.0000
  Mg  Mg29      1.0  0.57733  0.85523  0.43351  1.0000
  Mg  Mg30      1.0  0.63391  0.95842  0.07623  1.0000
  C  Sn61      1.0  0.39752  0.91663  0.87982  1.0000
  C   C239      1.0  0.42431  0.91728  0.79111  1.0000
  C  Sn62      1.0  0.43028  0.89742  0.66030  1.0000
  C  Sn63      1.0  0.40903  0.87649  0.61717  1.0000
  C   C240      1.0  0.38226  0.87586  0.70582  1.0000
  C  Sn64      1.0  0.37627  0.89571  0.83668  1.0000
  O  Te61      1.0  0.40035  0.92946  0.01013  1.0000
  O  Te62      1.0  0.45722  0.89848  0.57348  1.0000
  O  Te63      1.0  0.41455  0.85643  0.48674  1.0000
  O  Te64      1.0  0.34934  0.89465  0.92346  1.0000
  Mg  Mg31      1.0  0.45446  0.86657  0.40566  1.0000
  Mg  Mg32      1.0  0.36041  0.91933  0.09123  1.0000
