data_image0
_chemical_formula_structural       P2H26C36N6SnCSn2CSnTe4Mg2SnCSn2CSnTe4Mg2SnCSn2CSnTe4Mg2SnCSn2CSnTe4Mg2
_chemical_formula_sum              "P2 H26 C44 N6 Sn16 Te16 Mg8"
_cell_length_a       32.0476
_cell_length_b       32.3339
_cell_length_c       4.48684
_cell_angle_alpha    90.7978
_cell_angle_beta     89.7757
_cell_angle_gamma    121.65

_symmetry_space_group_name_H-M    'P1'
_space_group_IT_number       1

loop_
  _space_group_symop_operation_xyz
  'x, y, z'

loop_
  _atom_site_type_symbol
  _atom_site_label
  _atom_site_symmetry_multiplicity
  _atom_site_fract_x
  _atom_site_fract_y
  _atom_site_fract_z
  _atom_site_occupancy
  P   P1        1.0  0.67777  0.36487  0.80765  1.0000
  P   P2        1.0  0.35527  0.70086  0.82323  1.0000
  H   H1        1.0  0.22411  0.60425  0.07643  1.0000
  H   H2        1.0  0.58331  0.39772  0.55310  1.0000
  H   H3        1.0  0.38535  0.82442  0.06833  1.0000
  H   H4        1.0  0.64923  0.24202  0.56418  1.0000
  H   H5        1.0  0.30967  0.64483  0.27912  1.0000
  H   H6        1.0  0.62328  0.35406  0.35304  1.0000
  H   H7        1.0  0.34072  0.74102  0.28335  1.0000
  H   H8        1.0  0.69277  0.32584  0.35142  1.0000
  H   H9        1.0  0.58231  0.47988  0.54875  1.0000
  H   H10       1.0  0.46936  0.91223  0.06604  1.0000
  H   H11       1.0  0.56650  0.15338  0.56188  1.0000
  H   H12       1.0  0.13931  0.60357  0.08249  1.0000
  H   H13       1.0  0.89401  0.47143  0.55758  1.0000
  H   H14       1.0  0.54363  0.19290  0.85629  1.0000
  H   H15       1.0  0.64427  0.49766  0.83126  1.0000
  H   H16       1.0  0.58426  0.27761  0.66078  1.0000
  H   H17       1.0  0.68707  0.45630  0.64590  1.0000
  H   H18       1.0  0.49099  0.87252  0.77594  1.0000
  H   H19       1.0  0.18477  0.66400  0.80567  1.0000
  H   H20       1.0  0.44935  0.78798  0.97213  1.0000
  H   H21       1.0  0.27107  0.70771  0.99272  1.0000
  H   H22       1.0  0.45157  0.96490  0.02676  1.0000
  H   H23       1.0  0.58721  0.10213  0.58830  1.0000
  H   H24       1.0  0.48487  0.04947  0.85979  1.0000
  H   H25       1.0  0.55355  0.01734  0.75782  1.0000
  H   H26       1.0  0.45058  0.58486  0.08509  1.0000
  C   C1        1.0  0.48090  0.99499  0.15349  1.0000
  C   C2        1.0  0.55772  0.07188  0.46334  1.0000
  C   C3        1.0  0.23527  0.62946  0.26383  1.0000
  C   C4        1.0  0.60844  0.41220  0.36694  1.0000
  C   C5        1.0  0.40113  0.81565  0.25221  1.0000
  C   C6        1.0  0.63317  0.25076  0.38157  1.0000
  C   C7        1.0  0.28194  0.64864  0.39374  1.0000
  C   C8        1.0  0.62707  0.38519  0.23820  1.0000
  C   C9        1.0  0.37425  0.76974  0.38655  1.0000
  C   C10       1.0  0.65954  0.29677  0.24757  1.0000
  C   C11       1.0  0.50209  0.04201  0.04146  1.0000
  C   C12       1.0  0.53647  0.02488  0.57577  1.0000
  C   C13       1.0  0.61330  0.45201  0.20791  1.0000
  C   C14       1.0  0.44223  0.85337  0.40717  1.0000
  C   C15       1.0  0.59247  0.21284  0.22530  1.0000
  C   C16       1.0  0.19959  0.63379  0.42466  1.0000
  C   C17       1.0  0.49830  0.98571  0.41118  1.0000
  C   C18       1.0  0.53993  0.08118  0.20751  1.0000
  C   C19       1.0  0.44623  0.58988  0.33215  1.0000
  C   C20       1.0  0.58654  0.47536  0.30071  1.0000
  C   C21       1.0  0.46532  0.90397  0.31337  1.0000
  C   C22       1.0  0.57063  0.16220  0.31488  1.0000
  C   C23       1.0  0.14813  0.60771  0.33026  1.0000
  C   C24       1.0  0.88492  0.46700  0.31002  1.0000
  C   C25       1.0  0.57545  0.22271  0.96842  1.0000
  C   C26       1.0  0.64104  0.46702  0.94958  1.0000
  C   C27       1.0  0.60035  0.26902  0.84387  1.0000
  C   C28       1.0  0.66124  0.44126  0.82848  1.0000
  C   C29       1.0  0.65343  0.39928  0.97568  1.0000
  C   C30       1.0  0.64334  0.30636  0.98742  1.0000
  C   C31       1.0  0.45883  0.84309  0.66427  1.0000
  C   C32       1.0  0.21272  0.66108  0.68673  1.0000
  C   C33       1.0  0.43341  0.79676  0.78908  1.0000
  C   C34       1.0  0.25978  0.68186  0.80861  1.0000
  C   C35       1.0  0.39023  0.75970  0.64594  1.0000
  C   C36       1.0  0.29473  0.67510  0.65788  1.0000
  N   N1        1.0  0.46509  0.57616  0.53189  1.0000
  N   N2        1.0  0.56757  0.48922  0.10273  1.0000
  N   N3        1.0  0.47902  0.93778  0.51261  1.0000
  N   N4        1.0  0.55823  0.12920  0.11146  1.0000
  N   N5        1.0  0.11407  0.58937  0.52805  1.0000
  N   N6        1.0  0.91873  0.48659  0.11124  1.0000
  C  Sn1       1.0  0.78334  0.38095  0.88697  1.0000
  C   C37       1.0  0.74159  0.37761  0.00285  1.0000
  C  Sn2       1.0  0.74715  0.41299  0.20867  1.0000
  C  Sn3       1.0  0.79478  0.45024  0.30046  1.0000
  C   C38       1.0  0.83584  0.45130  0.18457  1.0000
  C  Sn4       1.0  0.83097  0.41820  0.97876  1.0000
  O  Te1       1.0  0.77692  0.34521  0.68145  1.0000
  O  Te2       1.0  0.70552  0.41115  0.32148  1.0000
  O  Te3       1.0  0.80117  0.48599  0.50615  1.0000
  O  Te4       1.0  0.87256  0.42002  0.86594  1.0000
  Mg  Mg1       1.0  0.73320  0.46802  0.59610  1.0000
  Mg  Mg2       1.0  0.84493  0.36319  0.59120  1.0000
  C  Sn5       1.0  0.01313  0.50506  0.10079  1.0000
  C   C39       1.0  0.97286  0.50446  0.22657  1.0000
  C  Sn6       1.0  0.97978  0.54009  0.43459  1.0000
  C  Sn7       1.0  0.02797  0.57712  0.51853  1.0000
  C   C40       1.0  0.06821  0.57772  0.39275  1.0000
  C  Sn8       1.0  0.06132  0.54209  0.18473  1.0000
  O  Te5       1.0  0.00600  0.47135  0.89324  1.0000
  O  Te6       1.0  0.93894  0.53872  0.55736  1.0000
  O  Te7       1.0  0.03572  0.61312  0.72627  1.0000
  O  Te8       1.0  0.10212  0.54346  0.06196  1.0000
  Mg  Mg3       1.0  0.96842  0.59578  0.83096  1.0000
  Mg  Mg4       1.0  0.07335  0.48871  0.78824  1.0000
  C  Sn9       1.0  0.51534  0.56018  0.08040  1.0000
  C   C41       1.0  0.48529  0.54804  0.33101  1.0000
  C  Sn10      1.0  0.48707  0.51913  0.55295  1.0000
  C  Sn11      1.0  0.51959  0.50201  0.52391  1.0000
  C   C42       1.0  0.54962  0.51415  0.27345  1.0000
  C  Sn12      1.0  0.54786  0.54306  0.05136  1.0000
  O  Te9       1.0  0.51360  0.59140  0.86128  1.0000
  O  Te10      1.0  0.45666  0.50746  0.80141  1.0000
  O  Te11      1.0  0.52196  0.47303  0.74330  1.0000
  O  Te12      1.0  0.57891  0.55700  0.80305  1.0000
  Mg  Mg5       1.0  0.47263  0.46472  0.04026  1.0000
  Mg  Mg6       1.0  0.56233  0.59749  0.56415  1.0000
  C  Sn13      1.0  0.37338  0.59203  0.66162  1.0000
  C   C43       1.0  0.40638  0.60547  0.42534  1.0000
  C  Sn14      1.0  0.42697  0.65139  0.29947  1.0000
  C  Sn15      1.0  0.41433  0.68459  0.41221  1.0000
  C   C44       1.0  0.38135  0.67115  0.64838  1.0000
  C  Sn16      1.0  0.36074  0.62523  0.77437  1.0000
  O  Te13      1.0  0.35325  0.54594  0.78405  1.0000
  O  Te14      1.0  0.45986  0.66400  0.06334  1.0000
  O  Te15      1.0  0.43449  0.73072  0.28955  1.0000
  O  Te16      1.0  0.32722  0.61036  0.01037  1.0000
  Mg  Mg7       1.0  0.47822  0.73327  0.97117  1.0000
  Mg  Mg8       1.0  0.30951  0.54337  0.10281  1.0000
