data_image0
_chemical_formula_structural       P2H26C36N6C2Sn2C2HTe2HMgC2Sn2C2HTe2HMgC2Sn2C2HTe2HMgC2Sn2C2HTe2HMg
_chemical_formula_sum              "P2 H34 C52 N6 Sn8 Te8 Mg4"
_cell_length_a       32.0476
_cell_length_b       32.3339
_cell_length_c       4.48684
_cell_angle_alpha    90.7978
_cell_angle_beta     89.7757
_cell_angle_gamma    121.65

_symmetry_space_group_name_H-M    'P1'
_space_group_IT_number       1

loop_
  _space_group_symop_operation_xyz
  'x, y, z'

loop_
  _atom_site_type_symbol
  _atom_site_label
  _atom_site_symmetry_multiplicity
  _atom_site_fract_x
  _atom_site_fract_y
  _atom_site_fract_z
  _atom_site_occupancy
  P   P1        1.0  0.67777  0.36487  0.80765  1.0000
  P   P2        1.0  0.35527  0.70086  0.82323  1.0000
  H   H1        1.0  0.52222  0.60167  0.04849  1.0000
  H   H2        1.0  0.51033  0.46352  0.58703  1.0000
  H   H3        1.0  0.95252  0.54251  0.60549  1.0000
  H   H4        1.0  0.58331  0.39772  0.55310  1.0000
  H   H5        1.0  0.64923  0.24202  0.56418  1.0000
  H   H6        1.0  0.62328  0.35406  0.35304  1.0000
  H   H7        1.0  0.69277  0.32584  0.35142  1.0000
  H   H8        1.0  0.56881  0.56452  0.86856  1.0000
  H   H9        1.0  0.46331  0.50047  0.76583  1.0000
  H   H10       1.0  0.58231  0.47988  0.54875  1.0000
  H   H11       1.0  0.46936  0.91223  0.06604  1.0000
  H   H12       1.0  0.56650  0.15338  0.56188  1.0000
  H   H13       1.0  0.13931  0.60357  0.08249  1.0000
  H   H14       1.0  0.89401  0.47143  0.55758  1.0000
  H   H15       1.0  0.54363  0.19290  0.85629  1.0000
  H   H16       1.0  0.64427  0.49766  0.83126  1.0000
  H   H17       1.0  0.58426  0.27761  0.66078  1.0000
  H   H18       1.0  0.68707  0.45630  0.64590  1.0000
  H   H19       1.0  0.45157  0.96490  0.02676  1.0000
  H   H20       1.0  0.58721  0.10213  0.58830  1.0000
  H   H21       1.0  0.08017  0.53387  0.03532  1.0000
  H   H22       1.0  0.48487  0.04947  0.85979  1.0000
  H   H23       1.0  0.55355  0.01734  0.75782  1.0000
  H   H24       1.0  0.99336  0.48689  0.86089  1.0000
  H   H25       1.0  0.03942  0.59062  0.77492  1.0000
  H   H26       1.0  0.45058  0.58486  0.08509  1.0000
  C   C1        1.0  0.52003  0.57172  0.16990  1.0000
  C   C2        1.0  0.51247  0.49344  0.46560  1.0000
  C   C3        1.0  0.48090  0.99499  0.15349  1.0000
  C   C4        1.0  0.55772  0.07188  0.46334  1.0000
  C   C5        1.0  0.05205  0.53537  0.16277  1.0000
  C   C6        1.0  0.98073  0.54163  0.47508  1.0000
  C   C7        1.0  0.60844  0.41220  0.36694  1.0000
  C   C8        1.0  0.63317  0.25076  0.38157  1.0000
  C   C9        1.0  0.62707  0.38519  0.23820  1.0000
  C   C10       1.0  0.65954  0.29677  0.24757  1.0000
  C   C11       1.0  0.54299  0.54847  0.05025  1.0000
  C   C12       1.0  0.48937  0.51660  0.58512  1.0000
  C   C13       1.0  0.50209  0.04201  0.04146  1.0000
  C   C14       1.0  0.53647  0.02488  0.57577  1.0000
  C   C15       1.0  0.00436  0.51222  0.04727  1.0000
  C   C16       1.0  0.02856  0.56515  0.58926  1.0000
  C   C17       1.0  0.61330  0.45201  0.20791  1.0000
  C   C18       1.0  0.59247  0.21284  0.22530  1.0000
  C   C19       1.0  0.49206  0.55547  0.42726  1.0000
  C   C20       1.0  0.54048  0.50971  0.20831  1.0000
  C   C21       1.0  0.49830  0.98571  0.41118  1.0000
  C   C22       1.0  0.53993  0.08118  0.20751  1.0000
  C   C23       1.0  0.06500  0.56289  0.42424  1.0000
  C   C24       1.0  0.96785  0.51416  0.21350  1.0000
  C   C25       1.0  0.44623  0.58988  0.33215  1.0000
  C   C26       1.0  0.58654  0.47536  0.30071  1.0000
  C   C27       1.0  0.46532  0.90397  0.31337  1.0000
  C   C28       1.0  0.57063  0.16220  0.31488  1.0000
  C   C29       1.0  0.14813  0.60771  0.33026  1.0000
  C   C30       1.0  0.88492  0.46700  0.31002  1.0000
  C   C31       1.0  0.57545  0.22271  0.96842  1.0000
  C   C32       1.0  0.64104  0.46702  0.94958  1.0000
  C   C33       1.0  0.60035  0.26902  0.84387  1.0000
  C   C34       1.0  0.66124  0.44126  0.82848  1.0000
  C   C35       1.0  0.65343  0.39928  0.97568  1.0000
  C   C36       1.0  0.64334  0.30636  0.98742  1.0000
  N   N1        1.0  0.46509  0.57616  0.53189  1.0000
  N   N2        1.0  0.56757  0.48922  0.10273  1.0000
  N   N3        1.0  0.47902  0.93778  0.51261  1.0000
  N   N4        1.0  0.55823  0.12920  0.11146  1.0000
  N   N5        1.0  0.11407  0.58937  0.52805  1.0000
  N   N6        1.0  0.91873  0.48659  0.11124  1.0000
  C   C37       1.0  0.22161  0.66848  0.74758  1.0000
  C   C38       1.0  0.20191  0.64021  0.48879  1.0000
  C  Sn1       1.0  0.23092  0.63001  0.30632  1.0000
  C  Sn2       1.0  0.28056  0.64849  0.38502  1.0000
  C   C39       1.0  0.29991  0.67671  0.64449  1.0000
  C   C40       1.0  0.27056  0.68671  0.82542  1.0000
  H   H27       1.0  0.19889  0.67620  0.88767  1.0000
  O  Te1       1.0  0.21066  0.60172  0.04850  1.0000
  O  Te2       1.0  0.31037  0.63883  0.20673  1.0000
  H   H28       1.0  0.28515  0.70630  0.02587  1.0000
  Mg  Mg1       1.0  0.26665  0.60080  0.87750  1.0000
  C   C41       1.0  0.78798  0.39250  0.81711  1.0000
  C   C42       1.0  0.74555  0.38691  0.94561  1.0000
  C  Sn3       1.0  0.74793  0.41056  0.20476  1.0000
  C  Sn4       1.0  0.79436  0.44266  0.33715  1.0000
  C   C43       1.0  0.83660  0.44802  0.20675  1.0000
  C   C44       1.0  0.83379  0.42417  0.94748  1.0000
  H   H29       1.0  0.78531  0.37231  0.61642  1.0000
  O  Te3       1.0  0.70517  0.40452  0.33029  1.0000
  O  Te4       1.0  0.79845  0.46902  0.59612  1.0000
  H   H30       1.0  0.86665  0.42854  0.84793  1.0000
  Mg  Mg2       1.0  0.72964  0.44842  0.68373  1.0000
  C   C45       1.0  0.42108  0.66262  0.24886  1.0000
  C   C46       1.0  0.42146  0.62329  0.37085  1.0000
  C  Sn5       1.0  0.39403  0.60073  0.62542  1.0000
  C  Sn6       1.0  0.36571  0.61794  0.75981  1.0000
  C   C47       1.0  0.36555  0.65730  0.63593  1.0000
  C   C48       1.0  0.39315  0.67961  0.38121  1.0000
  H   H31       1.0  0.44241  0.67987  0.05168  1.0000
  O  Te5       1.0  0.39483  0.56149  0.74446  1.0000
  O  Te6       1.0  0.33728  0.59379  0.01430  1.0000
  H   H32       1.0  0.39282  0.71004  0.28670  1.0000
  Mg  Mg3       1.0  0.35028  0.54146  0.09362  1.0000
  C   C49       1.0  0.37436  0.77840  0.33158  1.0000
  C   C50       1.0  0.38744  0.76046  0.57205  1.0000
  C  Sn7       1.0  0.42881  0.79160  0.74398  1.0000
  C  Sn8       1.0  0.45753  0.84162  0.67337  1.0000
  C   C51       1.0  0.44411  0.85923  0.43248  1.0000
  C   C52       1.0  0.40265  0.82774  0.26185  1.0000
  H   H33       1.0  0.34227  0.75405  0.19965  1.0000
  O  Te7       1.0  0.44137  0.77307  0.98339  1.0000
  O  Te8       1.0  0.49905  0.87356  0.84157  1.0000
  H   H34       1.0  0.39251  0.84165  0.07581  1.0000
  Mg  Mg4       1.0  0.50057  0.82872  0.14617  1.0000
