data_image0
_chemical_formula_structural       P2H6C6N6C2Sn2C2HTe2HMgC2Sn2C2HTe2HMgC2Sn2C2HTe2HMgC2Sn2C2HTe2HMgC2Sn2C2HTe2HMgC2Sn2C2HTe2HMgC2Sn2C2HTe2HMgC2Sn2C2HTe2HMgC2Sn2C2HTe2HMg
_chemical_formula_sum              "P2 H24 C42 N6 Sn18 Te18 Mg9"
_cell_length_a       32.0476
_cell_length_b       32.3339
_cell_length_c       4.48684
_cell_angle_alpha    90.7978
_cell_angle_beta     89.7757
_cell_angle_gamma    121.65

_symmetry_space_group_name_H-M    'P1'
_space_group_IT_number       1

loop_
  _space_group_symop_operation_xyz
  'x, y, z'

loop_
  _atom_site_type_symbol
  _atom_site_label
  _atom_site_symmetry_multiplicity
  _atom_site_fract_x
  _atom_site_fract_y
  _atom_site_fract_z
  _atom_site_occupancy
  P   P1        1.0  0.67777  0.36487  0.80765  1.0000
  P   P2        1.0  0.35527  0.70086  0.82323  1.0000
  H   H1        1.0  0.58231  0.47988  0.54875  1.0000
  H   H2        1.0  0.46936  0.91223  0.06604  1.0000
  H   H3        1.0  0.56650  0.15338  0.56188  1.0000
  H   H4        1.0  0.13931  0.60357  0.08249  1.0000
  H   H5        1.0  0.89401  0.47143  0.55758  1.0000
  H   H6        1.0  0.45058  0.58486  0.08509  1.0000
  C   C1        1.0  0.44623  0.58988  0.33215  1.0000
  C   C2        1.0  0.58654  0.47536  0.30071  1.0000
  C   C3        1.0  0.46532  0.90397  0.31337  1.0000
  C   C4        1.0  0.57063  0.16220  0.31488  1.0000
  C   C5        1.0  0.14813  0.60771  0.33026  1.0000
  C   C6        1.0  0.88492  0.46700  0.31002  1.0000
  N   N1        1.0  0.46509  0.57616  0.53189  1.0000
  N   N2        1.0  0.56757  0.48922  0.10273  1.0000
  N   N3        1.0  0.47902  0.93778  0.51261  1.0000
  N   N4        1.0  0.55823  0.12920  0.11146  1.0000
  N   N5        1.0  0.11407  0.58937  0.52805  1.0000
  N   N6        1.0  0.91873  0.48659  0.11124  1.0000
  C   C7        1.0  0.49166  0.50641  0.59081  1.0000
  C   C8        1.0  0.49275  0.54744  0.48553  1.0000
  C  Sn1       1.0  0.52014  0.57121  0.23315  1.0000
  C  Sn2       1.0  0.54689  0.55348  0.08381  1.0000
  C   C9        1.0  0.54554  0.51239  0.19077  1.0000
  C   C10       1.0  0.51802  0.48889  0.44357  1.0000
  H   H7        1.0  0.47035  0.48822  0.78631  1.0000
  O  Te1       1.0  0.52084  0.61216  0.13103  1.0000
  O  Te2       1.0  0.57521  0.57880  0.83099  1.0000
  H   H8        1.0  0.51716  0.45711  0.52491  1.0000
  Mg  Mg1       1.0  0.56463  0.63332  0.77752  1.0000
  C   C11       1.0  0.49401  0.02870  0.02468  1.0000
  C   C12       1.0  0.52911  0.07224  0.16326  1.0000
  C  Sn3       1.0  0.55331  0.07164  0.41995  1.0000
  C  Sn4       1.0  0.54210  0.02655  0.53954  1.0000
  C   C13       1.0  0.03639  0.98319  0.39912  1.0000
  C   C14       1.0  0.01238  0.98421  0.14242  1.0000
  H   H9        1.0  0.47611  0.03176  0.82598  1.0000
  O  Te3       1.0  0.58826  0.11547  0.55566  1.0000
  O  Te4       1.0  0.56575  0.02489  0.79578  1.0000
  H   H10       1.0  0.98523  0.95050  0.03507  1.0000
  Mg  Mg2       1.0  0.61060  0.09437  0.90052  1.0000
  C   C15       1.0  0.98975  0.54934  0.53462  1.0000
  C   C16       1.0  0.96990  0.52098  0.27628  1.0000
  C  Sn5       1.0  0.99963  0.51351  0.08242  1.0000
  C  Sn6       1.0  0.05016  0.53486  0.14908  1.0000
  C   C17       1.0  0.06966  0.56314  0.40821  1.0000
  C   C18       1.0  0.03958  0.57039  0.60059  1.0000
  H   H11       1.0  0.96648  0.55493  0.68357  1.0000
  O  Te5       1.0  0.97986  0.48737  0.82522  1.0000
  O  Te6       1.0  0.08136  0.53024  0.95926  1.0000
  H   H12       1.0  0.05496  0.59232  0.80069  1.0000
  Mg  Mg3       1.0  0.03641  0.48857  0.63588  1.0000
  C   C19       1.0  0.24821  0.63271  0.25194  1.0000
  C   C20       1.0  0.20747  0.63149  0.37517  1.0000
  C  Sn7       1.0  0.21247  0.65829  0.63391  1.0000
  C  Sn8       1.0  0.25917  0.68681  0.77127  1.0000
  C   C21       1.0  0.29971  0.68782  0.64612  1.0000
  C   C22       1.0  0.29429  0.66085  0.38721  1.0000
  H   H13       1.0  0.24403  0.61187  0.05153  1.0000
  O  Te7       1.0  0.17138  0.65664  0.75414  1.0000
  O  Te8       1.0  0.26455  0.71169  0.02994  1.0000
  H   H14       1.0  0.32585  0.66183  0.29175  1.0000
  Mg  Mg4       1.0  0.19754  0.69765  0.10936  1.0000
  C   C23       1.0  0.75784  0.42600  0.30539  1.0000
  C   C24       1.0  0.74031  0.39963  0.03830  1.0000
  C  Sn9       1.0  0.77182  0.39404  0.85750  1.0000
  C  Sn10      1.0  0.82112  0.41296  0.94639  1.0000
  C   C25       1.0  0.83764  0.43699  0.21412  1.0000
  C   C26       1.0  0.80646  0.44466  0.39329  1.0000
  H   H15       1.0  0.73371  0.43191  0.44412  1.0000
  O  Te9       1.0  0.75371  0.36763  0.59130  1.0000
  O  Te10      1.0  0.85273  0.40562  0.76999  1.0000
  H   H16       1.0  0.82004  0.46505  0.60017  1.0000
  Mg  Mg5       1.0  0.81098  0.36729  0.42681  1.0000
  C   C27       1.0  0.42108  0.66262  0.24886  1.0000
  C   C28       1.0  0.42146  0.62329  0.37085  1.0000
  C  Sn11      1.0  0.39403  0.60073  0.62542  1.0000
  C  Sn12      1.0  0.36571  0.61794  0.75981  1.0000
  C   C29       1.0  0.36555  0.65730  0.63593  1.0000
  C   C30       1.0  0.39315  0.67961  0.38121  1.0000
  H   H17       1.0  0.44241  0.67987  0.05168  1.0000
  O  Te11      1.0  0.39483  0.56149  0.74446  1.0000
  O  Te12      1.0  0.33728  0.59379  0.01430  1.0000
  H   H18       1.0  0.39282  0.71004  0.28670  1.0000
  Mg  Mg6       1.0  0.35028  0.54146  0.09362  1.0000
  C   C31       1.0  0.62032  0.38690  0.30071  1.0000
  C   C32       1.0  0.64652  0.39467  0.03646  1.0000
  C  Sn13      1.0  0.65749  0.43588  0.85431  1.0000
  C  Sn14      1.0  0.64124  0.46757  0.93891  1.0000
  C   C33       1.0  0.61443  0.45724  0.20381  1.0000
  C   C34       1.0  0.60429  0.41815  0.38437  1.0000
  H   H19       1.0  0.61250  0.35668  0.44052  1.0000
  O  Te13      1.0  0.68369  0.44310  0.59099  1.0000
  O  Te14      1.0  0.65106  0.50678  0.76107  1.0000
  H   H20       1.0  0.58404  0.41217  0.58905  1.0000
  Mg  Mg7       1.0  0.68802  0.50156  0.42302  1.0000
  C   C35       1.0  0.44433  0.80945  0.79238  1.0000
  C   C36       1.0  0.40071  0.76827  0.69497  1.0000
  C  Sn15      1.0  0.37651  0.77035  0.44261  1.0000
  C  Sn16      1.0  0.39644  0.81452  0.28528  1.0000
  C   C37       1.0  0.44011  0.85550  0.38442  1.0000
  C   C38       1.0  0.46402  0.85302  0.63727  1.0000
  H   H21       1.0  0.46285  0.80753  0.98792  1.0000
  O  Te15      1.0  0.33296  0.72888  0.34840  1.0000
  O  Te16      1.0  0.37301  0.81761  0.03231  1.0000
  H   H22       1.0  0.49781  0.88490  0.71252  1.0000
  Mg  Mg8       1.0  0.31523  0.75351  0.99131  1.0000
  C   C39       1.0  0.59109  0.25581  0.83117  1.0000
  C   C40       1.0  0.62992  0.29860  0.95587  1.0000
  C  Sn17      1.0  0.65313  0.29468  0.21121  1.0000
  C  Sn18      1.0  0.63777  0.24929  0.34362  1.0000
  C   C41       1.0  0.59891  0.20668  0.21704  1.0000
  C   C42       1.0  0.57593  0.21102  0.96156  1.0000
  H   H23       1.0  0.57282  0.25741  0.63341  1.0000
  O  Te17      1.0  0.69184  0.33778  0.33297  1.0000
  O  Te18      1.0  0.66099  0.24659  0.59883  1.0000
  H   H24       1.0  0.54589  0.17788  0.86496  1.0000
  Mg  Mg9       1.0  0.71192  0.31535  0.68211  1.0000
