data_image0
_chemical_formula_structural       P2H6C6N6SnCSn2CSnTe4Mg2SnCSn2CSnTe4Mg2SnCSn2CSnTe4Mg2SnCSn2CSnTe4Mg2SnCSn2CSnTe4Mg2SnCSn2CSnTe4Mg2SnCSn2CSnTe4Mg2SnCSn2CSnTe4Mg2SnCSn2CSnTe4Mg2
_chemical_formula_sum              "P2 H6 C24 N6 Sn36 Te36 Mg18"
_cell_length_a       32.0476
_cell_length_b       32.3339
_cell_length_c       4.48684
_cell_angle_alpha    90.7978
_cell_angle_beta     89.7757
_cell_angle_gamma    121.65

_symmetry_space_group_name_H-M    'P1'
_space_group_IT_number       1

loop_
  _space_group_symop_operation_xyz
  'x, y, z'

loop_
  _atom_site_type_symbol
  _atom_site_label
  _atom_site_symmetry_multiplicity
  _atom_site_fract_x
  _atom_site_fract_y
  _atom_site_fract_z
  _atom_site_occupancy
  P   P1        1.0  0.67777  0.36487  0.80765  1.0000
  P   P2        1.0  0.35527  0.70086  0.82323  1.0000
  H   H1        1.0  0.58231  0.47988  0.54875  1.0000
  H   H2        1.0  0.46936  0.91223  0.06604  1.0000
  H   H3        1.0  0.56650  0.15338  0.56188  1.0000
  H   H4        1.0  0.13931  0.60357  0.08249  1.0000
  H   H5        1.0  0.89401  0.47143  0.55758  1.0000
  H   H6        1.0  0.45058  0.58486  0.08509  1.0000
  C   C1        1.0  0.44623  0.58988  0.33215  1.0000
  C   C2        1.0  0.58654  0.47536  0.30071  1.0000
  C   C3        1.0  0.46532  0.90397  0.31337  1.0000
  C   C4        1.0  0.57063  0.16220  0.31488  1.0000
  C   C5        1.0  0.14813  0.60771  0.33026  1.0000
  C   C6        1.0  0.88492  0.46700  0.31002  1.0000
  N   N1        1.0  0.46509  0.57616  0.53189  1.0000
  N   N2        1.0  0.56757  0.48922  0.10273  1.0000
  N   N3        1.0  0.47902  0.93778  0.51261  1.0000
  N   N4        1.0  0.55823  0.12920  0.11146  1.0000
  N   N5        1.0  0.11407  0.58937  0.52805  1.0000
  N   N6        1.0  0.91873  0.48659  0.11124  1.0000
  C  Sn1       1.0  0.55032  0.56459  0.10735  1.0000
  C   C7        1.0  0.55031  0.52478  0.22494  1.0000
  C  Sn2       1.0  0.51404  0.49411  0.42546  1.0000
  C  Sn3       1.0  0.47698  0.50338  0.51010  1.0000
  C   C8        1.0  0.47700  0.54316  0.39249  1.0000
  C  Sn4       1.0  0.51327  0.57386  0.19198  1.0000
  O  Te1       1.0  0.58760  0.59704  0.90721  1.0000
  O  Te2       1.0  0.51481  0.45455  0.54012  1.0000
  O  Te3       1.0  0.44035  0.47315  0.71041  1.0000
  O  Te4       1.0  0.51251  0.61339  0.07732  1.0000
  Mg  Mg1       1.0  0.45701  0.42389  0.80552  1.0000
  Mg  Mg2       1.0  0.57092  0.64633  0.81179  1.0000
  C  Sn5       1.0  0.96299  0.00292  0.06539  1.0000
  C   C9        1.0  0.50617  0.98717  0.31403  1.0000
  C  Sn6       1.0  0.00489  0.01997  0.54132  1.0000
  C  Sn7       1.0  0.01957  0.06953  0.51975  1.0000
  C   C10       1.0  0.00582  0.08525  0.27125  1.0000
  C  Sn8       1.0  0.97768  0.05248  0.04382  1.0000
  O  Te5       1.0  0.46493  0.97177  0.84083  1.0000
  O  Te6       1.0  0.01820  0.00337  0.78768  1.0000
  O  Te7       1.0  0.04774  0.10295  0.74457  1.0000
  O  Te8       1.0  0.96502  0.07133  0.79761  1.0000
  Mg  Mg3       1.0  0.05605  0.06054  0.03595  1.0000
  Mg  Mg4       1.0  0.92649  0.01192  0.54929  1.0000
  C  Sn9       1.0  0.99230  0.55988  0.46133  1.0000
  C   C11       1.0  0.97254  0.52776  0.21821  1.0000
  C  Sn10      1.0  0.99960  0.51065  0.07660  1.0000
  C  Sn11      1.0  0.04740  0.52593  0.18025  1.0000
  C   C12       1.0  0.06713  0.55802  0.42326  1.0000
  C  Sn12      1.0  0.04010  0.57516  0.56498  1.0000
  O  Te9       1.0  0.96459  0.57652  0.59951  1.0000
  O  Te10      1.0  0.97973  0.48085  0.83389  1.0000
  O  Te11      1.0  0.07510  0.50926  0.04183  1.0000
  O  Te12      1.0  0.06060  0.60720  0.80757  1.0000
  Mg  Mg5       1.0  0.03187  0.46827  0.71979  1.0000
  Mg  Mg6       1.0  0.00849  0.61978  0.92194  1.0000
  C  Sn13      1.0  0.24552  0.66646  0.85354  1.0000
  C   C13       1.0  0.28568  0.66713  0.72533  1.0000
  C  Sn14      1.0  0.28327  0.65116  0.43147  1.0000
  C  Sn15      1.0  0.23983  0.63418  0.26213  1.0000
  C   C14       1.0  0.19971  0.63353  0.39031  1.0000
  C  Sn16      1.0  0.20208  0.64949  0.68420  1.0000
  O  Te13      1.0  0.24809  0.68034  0.14769  1.0000
  O  Te14      1.0  0.32389  0.65215  0.30816  1.0000
  O  Te15      1.0  0.23729  0.62030  0.96777  1.0000
  O  Te16      1.0  0.16150  0.64850  0.80748  1.0000
  Mg  Mg7       1.0  0.30233  0.62870  0.89873  1.0000
  Mg  Mg8       1.0  0.18302  0.67197  0.21682  1.0000
  C  Sn17      1.0  0.78334  0.38095  0.88697  1.0000
  C   C15       1.0  0.74159  0.37761  0.00285  1.0000
  C  Sn18      1.0  0.74715  0.41299  0.20867  1.0000
  C  Sn19      1.0  0.79478  0.45024  0.30046  1.0000
  C   C16       1.0  0.83584  0.45130  0.18457  1.0000
  C  Sn20      1.0  0.83097  0.41820  0.97876  1.0000
  O  Te17      1.0  0.77692  0.34521  0.68145  1.0000
  O  Te18      1.0  0.70552  0.41115  0.32148  1.0000
  O  Te19      1.0  0.80117  0.48599  0.50615  1.0000
  O  Te20      1.0  0.87256  0.42002  0.86594  1.0000
  Mg  Mg9       1.0  0.73320  0.46802  0.59610  1.0000
  Mg  Mg10      1.0  0.84493  0.36319  0.59120  1.0000
  C  Sn21      1.0  0.38616  0.62596  0.84449  1.0000
  C   C17       1.0  0.38562  0.66470  0.71442  1.0000
  C  Sn22      1.0  0.40205  0.67826  0.42268  1.0000
  C  Sn23      1.0  0.41935  0.65255  0.25740  1.0000
  C   C18       1.0  0.41988  0.61384  0.38743  1.0000
  C  Sn24      1.0  0.40347  0.60025  0.67921  1.0000
  O  Te21      1.0  0.36891  0.61075  0.13646  1.0000
  O  Te22      1.0  0.40117  0.71712  0.29746  1.0000
  O  Te23      1.0  0.43661  0.66780  0.96521  1.0000
  O  Te24      1.0  0.40433  0.56141  0.80440  1.0000
  Mg  Mg11      1.0  0.42821  0.72325  0.89224  1.0000
  Mg  Mg12      1.0  0.37728  0.55524  0.20952  1.0000
  C  Sn25      1.0  0.63586  0.45566  0.85883  1.0000
  C   C19       1.0  0.60517  0.44204  0.10895  1.0000
  C  Sn26      1.0  0.60479  0.41143  0.32703  1.0000
  C  Sn27      1.0  0.63509  0.39178  0.29455  1.0000
  C   C20       1.0  0.66511  0.40314  0.04458  1.0000
  C  Sn28      1.0  0.66616  0.43601  0.82635  1.0000
  O  Te25      1.0  0.63565  0.48634  0.64359  1.0000
  O  Te26      1.0  0.57444  0.40060  0.57508  1.0000
  O  Te27      1.0  0.63527  0.36108  0.51006  1.0000
  O  Te28      1.0  0.69649  0.44685  0.57845  1.0000
  Mg  Mg13      1.0  0.58762  0.35707  0.80802  1.0000
  Mg  Mg14      1.0  0.68336  0.49040  0.34547  1.0000
  C  Sn29      1.0  0.38534  0.77488  0.29523  1.0000
  C   C21       1.0  0.39642  0.75902  0.55447  1.0000
  C  Sn30      1.0  0.42918  0.79259  0.76444  1.0000
  C  Sn31      1.0  0.45131  0.84307  0.71438  1.0000
  C   C22       1.0  0.44022  0.85890  0.45531  1.0000
  C  Sn32      1.0  0.40747  0.82536  0.24517  1.0000
  O  Te29      1.0  0.35249  0.74068  0.08837  1.0000
  O  Te30      1.0  0.43905  0.77358  0.02187  1.0000
  O  Te31      1.0  0.48419  0.87727  0.92152  1.0000
  O  Te32      1.0  0.39760  0.84434  0.98791  1.0000
  Mg  Mg15      1.0  0.48613  0.83432  0.23771  1.0000
  Mg  Mg16      1.0  0.35050  0.78364  0.77200  1.0000
  C  Sn33      1.0  0.58434  0.26052  0.90237  1.0000
  C   C23       1.0  0.62569  0.29972  0.01386  1.0000
  C  Sn34      1.0  0.65642  0.29551  0.21464  1.0000
  C  Sn35      1.0  0.64495  0.24886  0.30576  1.0000
  C   C24       1.0  0.60297  0.20741  0.19425  1.0000
  C  Sn36      1.0  0.57287  0.21386  0.99349  1.0000
  O  Te33      1.0  0.55415  0.26559  0.70185  1.0000
  O  Te34      1.0  0.69820  0.33751  0.32313  1.0000
  O  Te35      1.0  0.67519  0.24381  0.50645  1.0000
  O  Te36      1.0  0.53112  0.17190  0.88498  1.0000
  Mg  Mg17      1.0  0.72793  0.31179  0.59174  1.0000
  Mg  Mg18      1.0  0.50138  0.19757  0.61627  1.0000
