data_image0
_chemical_formula_structural       H24C44N16C2Sn2C2HTe2HMgC2Sn2C2HTe2HMgC2Sn2C2HTe2HMgC2Sn2C2HTe2HMgC2Sn2C2HTe2HMgC2Sn2C2HTe2HMgC2Sn2C2HTe2HMgC2Sn2C2HTe2HMgC2Sn2C2HTe2HMgC2Sn2C2HTe2HMgC2Sn2C2HTe2HMgC2Sn2C2HTe2HMgC2Sn2C2HTe2HMgC2Sn2C2HTe2HMgC2Sn2C2HTe2HMgC2Sn2C2HTe2HMgC2Sn2C2HTe2HMgC2Sn2C2HTe2HMgC2Sn2C2HTe2HMgC2Sn2C2HTe2HMgC2Sn2C2HTe2HMgC2Sn2C2HTe2HMg
_chemical_formula_sum              "H68 C132 N16 Sn44 Te44 Mg22"
_cell_length_a       37.1083
_cell_length_b       22.7698
_cell_length_c       9.04551
_cell_angle_alpha    73.4169
_cell_angle_beta     118.013
_cell_angle_gamma    93.479

_symmetry_space_group_name_H-M    'P1'
_space_group_IT_number       1

loop_
  _space_group_symop_operation_xyz
  'x, y, z'

loop_
  _atom_site_type_symbol
  _atom_site_label
  _atom_site_symmetry_multiplicity
  _atom_site_fract_x
  _atom_site_fract_y
  _atom_site_fract_z
  _atom_site_occupancy
  H   H1        1.0  0.16693  0.96880  0.25722  1.0000
  H   H2        1.0  0.07730  0.10917  0.26213  1.0000
  H   H3        1.0  0.00421  0.11577  0.18195  1.0000
  H   H4        1.0  0.97554  0.86194  0.41496  1.0000
  H   H5        1.0  0.05446  0.84878  0.01211  1.0000
  H   H6        1.0  0.88629  0.00331  0.42129  1.0000
  H   H7        1.0  0.24799  0.21182  0.96016  1.0000
  H   H8        1.0  0.80259  0.76032  0.19761  1.0000
  H   H9        1.0  0.86453  0.30920  0.37044  1.0000
  H   H10       1.0  0.19257  0.66207  0.32671  1.0000
  H   H11       1.0  0.45294  0.54815  0.14113  1.0000
  H   H12       1.0  0.60321  0.41492  0.05359  1.0000
  H   H13       1.0  0.16218  0.96851  0.75905  1.0000
  H   H14       1.0  0.07301  0.11057  0.76376  1.0000
  H   H15       1.0  0.99998  0.11945  0.67822  1.0000
  H   H16       1.0  0.98173  0.85477  0.93603  1.0000
  H   H17       1.0  0.04886  0.85285  0.50261  1.0000
  H   H18       1.0  0.89173  0.99702  0.93255  1.0000
  H   H19       1.0  0.23664  0.22186  0.52526  1.0000
  H   H20       1.0  0.81409  0.74982  0.69126  1.0000
  H   H21       1.0  0.86811  0.30653  0.85824  1.0000
  H   H22       1.0  0.18657  0.66263  0.82684  1.0000
  H   H23       1.0  0.44809  0.54848  0.63489  1.0000
  H   H24       1.0  0.60204  0.42049  0.56207  1.0000
  C   C1        1.0  0.19955  0.70561  0.25736  1.0000
  C   C2        1.0  0.21536  0.22659  0.38644  1.0000
  C   C3        1.0  0.46278  0.49998  0.16745  1.0000
  C   C4        1.0  0.11734  0.02462  0.22026  1.0000
  C   C5        1.0  0.07544  0.02824  0.17841  1.0000
  C   C6        1.0  0.05064  0.98082  0.11852  1.0000
  C   C7        1.0  0.06842  0.92893  0.10833  1.0000
  C   C8        1.0  0.11129  0.92354  0.16706  1.0000
  C   C9        1.0  0.13429  0.97240  0.21627  1.0000
  C   C10       1.0  0.05755  0.07622  0.20259  1.0000
  C   C11       1.0  0.01683  0.08005  0.15716  1.0000
  C   C12       1.0  0.99017  0.03690  0.08070  1.0000
  C   C13       1.0  0.00802  0.98508  0.07049  1.0000
  C   C14       1.0  0.98334  0.93731  0.01281  1.0000
  C   C15       1.0  0.99540  0.89428  0.47669  1.0000
  C   C16       1.0  0.04188  0.88504  0.03518  1.0000
  C   C17       1.0  0.94722  0.04256  0.02098  1.0000
  C   C18       1.0  0.91896  0.99910  0.46317  1.0000
  C   C19       1.0  0.93562  0.94661  0.45854  1.0000
  C   C20       1.0  0.83225  0.74854  0.31816  1.0000
  C   C21       1.0  0.59471  0.46311  0.03329  1.0000
  C   C22       1.0  0.85639  0.26607  0.43638  1.0000
  C   C23       1.0  0.19341  0.70573  0.75507  1.0000
  C   C24       1.0  0.21691  0.22330  0.84829  1.0000
  C   C25       1.0  0.45832  0.50024  0.66443  1.0000
  C   C26       1.0  0.11290  0.02554  0.72097  1.0000
  C   C27       1.0  0.07085  0.03019  0.67756  1.0000
  C   C28       1.0  0.04558  0.98363  0.61494  1.0000
  C   C29       1.0  0.06313  0.93160  0.60414  1.0000
  C   C30       1.0  0.10611  0.92490  0.66559  1.0000
  C   C31       1.0  0.12954  0.97277  0.71780  1.0000
  C   C32       1.0  0.05311  0.07819  0.70219  1.0000
  C   C33       1.0  0.01228  0.08320  0.65406  1.0000
  C   C34       1.0  0.98525  0.04079  0.57573  1.0000
  C   C35       1.0  0.00277  0.98894  0.56407  1.0000
  C   C36       1.0  0.97762  0.94228  0.50127  1.0000
  C   C37       1.0  0.00128  0.88867  0.99126  1.0000
  C   C38       1.0  0.03627  0.88909  0.52583  1.0000
  C   C39       1.0  0.94230  0.04703  0.51624  1.0000
  C   C40       1.0  0.92435  0.99352  0.97310  1.0000
  C   C41       1.0  0.94156  0.94086  0.97204  1.0000
  C   C42       1.0  0.83889  0.74209  0.82644  1.0000
  C   C43       1.0  0.59189  0.46861  0.53446  1.0000
  C   C44       1.0  0.86110  0.26346  0.92964  1.0000
  N   N1        1.0  0.22569  0.70711  0.19950  1.0000
  N   N2        1.0  0.44498  0.45460  0.22128  1.0000
  N   N3        1.0  0.21111  0.27440  0.25930  1.0000
  N   N4        1.0  0.82942  0.26528  0.48960  1.0000
  N   N5        1.0  0.60867  0.51436  0.47535  1.0000
  N   N6        1.0  0.84322  0.69509  0.43332  1.0000
  N   N7        1.0  0.29964  0.48512  0.25961  1.0000
  N   N8        1.0  0.75292  0.48566  0.42620  1.0000
  N   N9        1.0  0.21928  0.70644  0.69630  1.0000
  N   N10       1.0  0.44091  0.45503  0.72169  1.0000
  N   N11       1.0  0.20420  0.27771  0.73855  1.0000
  N   N12       1.0  0.83553  0.26251  0.98988  1.0000
  N   N13       1.0  0.61306  0.50811  0.98165  1.0000
  N   N14       1.0  0.84495  0.69279  0.95272  1.0000
  N   N15       1.0  0.29479  0.48617  0.75435  1.0000
  N   N16       1.0  0.75758  0.48049  0.93374  1.0000
  C   C45       1.0  0.13904  0.76318  0.29174  1.0000
  C   C46       1.0  0.16809  0.75827  0.23773  1.0000
  C  Sn1       1.0  0.18127  0.81114  0.15997  1.0000
  C  Sn2       1.0  0.16504  0.86995  0.13604  1.0000
  C   C47       1.0  0.13602  0.87437  0.19063  1.0000
  C   C48       1.0  0.12303  0.82117  0.26825  1.0000
  H   H25       1.0  0.12901  0.72202  0.35188  1.0000
  O  Te1       1.0  0.21030  0.80541  0.10671  1.0000
  O  Te2       1.0  0.17769  0.92354  0.05874  1.0000
  H   H26       1.0  0.10056  0.82498  0.31016  1.0000
  Mg  Mg1       1.0  0.21788  0.89192  0.00782  1.0000
  C   C49       1.0  0.37345  0.41595  0.36799  1.0000
  C   C50       1.0  0.34374  0.46576  0.28494  1.0000
  C  Sn3       1.0  0.34581  0.51687  0.16037  1.0000
  C  Sn4       1.0  0.37824  0.51801  0.11840  1.0000
  C   C51       1.0  0.40779  0.46793  0.20212  1.0000
  C   C52       1.0  0.40544  0.41702  0.32662  1.0000
  H   H27       1.0  0.37162  0.37654  0.46425  1.0000
  O  Te3       1.0  0.31589  0.56625  0.07869  1.0000
  O  Te4       1.0  0.49171  0.46607  0.99434  1.0000
  H   H28       1.0  0.42842  0.37845  0.39081  1.0000
  Mg  Mg2       1.0  0.44358  0.52222  0.91858  1.0000
  C   C53       1.0  0.23251  0.55134  0.21931  1.0000
  C   C54       1.0  0.26920  0.54245  0.21742  1.0000
  C  Sn5       1.0  0.29466  0.59029  0.21823  1.0000
  C  Sn6       1.0  0.28308  0.64806  0.22103  1.0000
  C   C55       1.0  0.24632  0.65648  0.22303  1.0000
  C   C56       1.0  0.22107  0.60830  0.22214  1.0000
  H   H29       1.0  0.21299  0.51406  0.21872  1.0000
  O  Te5       1.0  0.33120  0.58062  0.21625  1.0000
  O  Te6       1.0  0.30795  0.69665  0.22196  1.0000
  H   H30       1.0  0.19268  0.61519  0.22372  1.0000
  Mg  Mg3       1.0  0.35479  0.66097  0.21845  1.0000
  C   C57       1.0  0.27821  0.33872  0.45394  1.0000
  C   C58       1.0  0.24228  0.32592  0.32121  1.0000
  C  Sn7       1.0  0.22382  0.36775  0.15375  1.0000
  C  Sn8       1.0  0.24174  0.42339  0.11890  1.0000
  C   C59       1.0  0.27770  0.43576  0.25254  1.0000
  C   C60       1.0  0.29591  0.39358  0.41966  1.0000
  H   H31       1.0  0.29231  0.30608  0.58322  1.0000
  O  Te7       1.0  0.18792  0.35424  0.02268  1.0000
  O  Te8       1.0  0.33461  0.36356  0.95269  1.0000
  H   H32       1.0  0.32374  0.40349  0.52236  1.0000
  Mg  Mg4       1.0  0.28581  0.32438  0.81722  1.0000
  C   C61       1.0  0.19582  0.10272  0.49292  1.0000
  C   C62       1.0  0.19480  0.16036  0.38166  1.0000
  C  Sn9       1.0  0.16535  0.17712  0.20521  1.0000
  C  Sn10      1.0  0.13641  0.13531  0.13932  1.0000
  C   C63       1.0  0.13767  0.07778  0.25173  1.0000
  C   C64       1.0  0.16728  0.06147  0.42806  1.0000
  H   H33       1.0  0.21872  0.09011  0.62937  1.0000
  O  Te9       1.0  0.16477  0.23488  0.09584  1.0000
  O  Te10      1.0  0.21730  0.04846  0.96354  1.0000
  H   H34       1.0  0.16805  0.01685  0.51419  1.0000
  Mg  Mg5       1.0  0.22897  0.13250  0.86617  1.0000
  C   C65       1.0  0.53837  0.41531  0.15955  1.0000
  C   C66       1.0  0.55655  0.45903  0.07828  1.0000
  C  Sn11      1.0  0.54528  0.52169  0.03181  1.0000
  C  Sn12      1.0  0.51525  0.54079  0.06760  1.0000
  C   C67       1.0  0.49727  0.49669  0.14907  1.0000
  C   C68       1.0  0.50877  0.43411  0.19495  1.0000
  H   H35       1.0  0.54728  0.36689  0.19515  1.0000
  O  Te11      1.0  0.67441  0.46232  0.95064  1.0000
  O  Te12      1.0  0.50343  0.60311  0.02261  1.0000
  H   H36       1.0  0.49471  0.40028  0.25798  1.0000
  Mg  Mg6       1.0  0.64805  0.54194  0.91424  1.0000
  C   C69       1.0  0.51705  0.42147  0.67029  1.0000
  C   C70       1.0  0.49775  0.47568  0.65300  1.0000
  C  Sn13      1.0  0.50843  0.53282  0.58324  1.0000
  C  Sn14      1.0  0.53901  0.53560  0.52985  1.0000
  C   C71       1.0  0.55812  0.48111  0.54757  1.0000
  C   C72       1.0  0.54720  0.42417  0.61760  1.0000
  H   H37       1.0  0.50859  0.37742  0.72438  1.0000
  O  Te13      1.0  0.48885  0.58653  0.56695  1.0000
  O  Te14      1.0  0.55026  0.59210  0.45964  1.0000
  H   H38       1.0  0.56214  0.38221  0.63086  1.0000
  Mg  Mg7       1.0  0.51479  0.65251  0.46373  1.0000
  C   C73       1.0  0.92039  0.81975  0.54616  1.0000
  C   C74       1.0  0.91475  0.88017  0.43974  1.0000
  C  Sn15      1.0  0.87854  0.90094  0.28237  1.0000
  C  Sn16      1.0  0.84743  0.86038  0.23095  1.0000
  C   C75       1.0  0.85335  0.80003  0.33840  1.0000
  C   C76       1.0  0.88972  0.77972  0.49558  1.0000
  H   H39       1.0  0.94851  0.80403  0.66782  1.0000
  O  Te15      1.0  0.87342  0.96145  0.17758  1.0000
  O  Te16      1.0  0.81093  0.87995  0.07437  1.0000
  H   H40       1.0  0.89406  0.73294  0.57800  1.0000
  Mg  Mg8       1.0  0.92899  0.86418  0.97606  1.0000
  C   C77       1.0  0.90951  0.78997  0.05664  1.0000
  C   C78       1.0  0.98360  0.68766  0.90659  1.0000
  C  Sn17      1.0  0.96956  0.73894  0.75871  1.0000
  C  Sn18      1.0  0.99266  0.79099  0.76148  1.0000
  C   C79       1.0  0.02924  0.79039  0.91220  1.0000
  C   C80       1.0  0.93232  0.84127  0.05947  1.0000
  H   H41       1.0  0.92017  0.75007  0.17056  1.0000
  O  Te17      1.0  0.93293  0.73831  0.60990  1.0000
  O  Te18      1.0  0.97934  0.84285  0.61548  1.0000
  H   H42       1.0  0.96066  0.84117  0.17559  1.0000
  Mg  Mg9       1.0  0.92750  0.81997  0.44366  1.0000
  C   C81       1.0  0.67851  0.55299  0.31799  1.0000
  C   C82       1.0  0.71065  0.50649  0.41391  1.0000
  C  Sn19      1.0  0.70874  0.45490  0.53768  1.0000
  C  Sn20      1.0  0.67398  0.44989  0.56562  1.0000
  C   C83       1.0  0.64198  0.49664  0.46891  1.0000
  C   C84       1.0  0.64421  0.54808  0.34543  1.0000
  H   H43       1.0  0.68022  0.59278  0.22238  1.0000
  O  Te19      1.0  0.74113  0.40887  0.63241  1.0000
  O  Te20      1.0  0.67128  0.39881  0.68846  1.0000
  H   H44       1.0  0.61931  0.58405  0.27111  1.0000
  Mg  Mg10      1.0  0.72323  0.34816  0.78523  1.0000
  C   C85       1.0  0.68386  0.54822  0.83182  1.0000
  C   C86       1.0  0.71538  0.50080  0.92307  1.0000
  C  Sn21      1.0  0.60173  0.54990  0.03899  1.0000
  C  Sn22      1.0  0.56650  0.54407  0.06370  1.0000
  C   C87       1.0  0.64579  0.48932  0.97169  1.0000
  C   C88       1.0  0.64910  0.54249  0.85606  1.0000
  H   H45       1.0  0.68640  0.58935  0.74227  1.0000
  O  Te21      1.0  0.63350  0.50297  0.12916  1.0000
  O  Te22      1.0  0.56272  0.49126  0.17871  1.0000
  H   H46       1.0  0.62468  0.57918  0.78534  1.0000
  Mg  Mg11      1.0  0.61417  0.43993  0.27162  1.0000
  C   C89       1.0  0.83122  0.39281  0.47285  1.0000
  C   C90       1.0  0.81860  0.33330  0.48580  1.0000
  C  Sn23      1.0  0.78018  0.32139  0.47485  1.0000
  C  Sn24      1.0  0.75396  0.37007  0.45044  1.0000
  C   C91       1.0  0.76685  0.42945  0.43752  1.0000
  C   C92       1.0  0.80537  0.44085  0.44870  1.0000
  H   H47       1.0  0.86101  0.40164  0.48141  1.0000
  O  Te23      1.0  0.76807  0.26166  0.48811  1.0000
  O  Te24      1.0  0.71540  0.35946  0.43899  1.0000
  H   H48       1.0  0.81511  0.48694  0.43856  1.0000
  Mg  Mg12      1.0  0.71268  0.27022  0.46463  1.0000
  C   C93       1.0  0.83233  0.57736  0.10977  1.0000
  C   C94       1.0  0.93749  0.52594  0.96897  1.0000
  C  Sn25      1.0  0.90530  0.53078  0.80165  1.0000
  C  Sn26      1.0  0.87819  0.48360  0.77521  1.0000
  C   C95       1.0  0.88395  0.43277  0.91695  1.0000
  C   C96       1.0  0.80559  0.53081  0.08383  1.0000
  H   H49       1.0  0.85732  0.57397  0.23891  1.0000
  O  Te25      1.0  0.90024  0.58205  0.66241  1.0000
  O  Te26      1.0  0.84576  0.48729  0.60936  1.0000
  H   H50       1.0  0.80984  0.49133  0.19284  1.0000
  Mg  Mg13      1.0  0.85151  0.56617  0.46093  1.0000
  C   C97       1.0  0.77763  0.62999  0.23565  1.0000
  C   C98       1.0  0.80854  0.64719  0.37670  1.0000
  C  Sn27      1.0  0.82448  0.60699  0.54625  1.0000
  C  Sn28      1.0  0.80914  0.54852  0.57470  1.0000
  C   C99       1.0  0.77823  0.53174  0.43270  1.0000
  C   C100      1.0  0.76248  0.57232  0.26359  1.0000
  H   H51       1.0  0.76546  0.66138  0.10479  1.0000
  O  Te27      1.0  0.85535  0.62491  0.68570  1.0000
  O  Te28      1.0  0.82453  0.50745  0.74280  1.0000
  H   H52       1.0  0.73857  0.55898  0.15439  1.0000
  Mg  Mg14      1.0  0.86646  0.55291  0.89061  1.0000
  C   C101      1.0  0.87033  0.13404  0.54547  1.0000
  C   C102      1.0  0.87603  0.19570  0.48419  1.0000
  C  Sn29      1.0  0.90414  0.21118  0.42031  1.0000
  C  Sn30      1.0  0.92693  0.16395  0.41787  1.0000
  C   C103      1.0  0.92099  0.10241  0.47936  1.0000
  C   C104      1.0  0.89278  0.08743  0.54305  1.0000
  H   H53       1.0  0.84850  0.12244  0.59466  1.0000
  O  Te29      1.0  0.90946  0.27301  0.35964  1.0000
  O  Te30      1.0  0.95522  0.17813  0.35467  1.0000
  H   H54       1.0  0.88836  0.03969  0.59039  1.0000
  Mg  Mg15      1.0  0.95162  0.26916  0.28617  1.0000
  C   C105      1.0  0.92099  0.20333  0.89646  1.0000
  C   C106      1.0  0.88861  0.20927  0.93084  1.0000
  C  Sn31      1.0  0.76462  0.25969  0.01134  1.0000
  C  Sn32      1.0  0.78414  0.20070  0.05818  1.0000
  C   C107      1.0  0.81652  0.19526  0.02334  1.0000
  C   C108      1.0  0.94027  0.14517  0.94268  1.0000
  H   H55       1.0  0.93112  0.24384  0.83414  1.0000
  O  Te31      1.0  0.73222  0.26644  0.04468  1.0000
  O  Te32      1.0  0.77146  0.14795  0.13884  1.0000
  H   H56       1.0  0.96536  0.14057  0.91619  1.0000
  Mg  Mg16      1.0  0.72598  0.18081  0.15709  1.0000
  C   C109      1.0  0.12122  0.79294  0.77544  1.0000
  C   C110      1.0  0.12608  0.85458  0.70909  1.0000
  C  Sn33      1.0  0.15377  0.86991  0.64284  1.0000
  C  Sn34      1.0  0.17697  0.82255  0.64315  1.0000
  C   C111      1.0  0.17187  0.76102  0.70970  1.0000
  C   C112      1.0  0.14408  0.74619  0.77573  1.0000
  H   H57       1.0  0.09971  0.78146  0.82644  1.0000
  O  Te33      1.0  0.15826  0.93173  0.57711  1.0000
  O  Te34      1.0  0.20485  0.83658  0.57767  1.0000
  H   H58       1.0  0.14031  0.69846  0.82698  1.0000
  Mg  Mg17      1.0  0.20012  0.92765  0.50219  1.0000
  C   C113      1.0  0.36811  0.52866  0.61065  1.0000
  C   C114      1.0  0.40052  0.48266  0.71230  1.0000
  C  Sn35      1.0  0.39785  0.43121  0.83439  1.0000
  C  Sn36      1.0  0.36203  0.42583  0.85477  1.0000
  C   C115      1.0  0.32977  0.47208  0.75237  1.0000
  C   C116      1.0  0.33276  0.52338  0.63062  1.0000
  H   H59       1.0  0.37042  0.56834  0.51639  1.0000
  O  Te35      1.0  0.43051  0.38570  0.93492  1.0000
  O  Te36      1.0  0.35855  0.37489  0.97578  1.0000
  H   H60       1.0  0.30766  0.55896  0.55187  1.0000
  Mg  Mg18      1.0  0.30060  0.42742  0.08242  1.0000
  C   C117      1.0  0.22731  0.55036  0.71770  1.0000
  C   C118      1.0  0.26399  0.54253  0.71466  1.0000
  C  Sn37      1.0  0.28890  0.59107  0.71458  1.0000
  C  Sn38      1.0  0.27679  0.64844  0.71766  1.0000
  C   C119      1.0  0.24004  0.65579  0.72081  1.0000
  C   C120      1.0  0.21534  0.60692  0.72080  1.0000
  H   H61       1.0  0.20821  0.51254  0.71779  1.0000
  O  Te37      1.0  0.32545  0.58248  0.71146  1.0000
  O  Te38      1.0  0.30111  0.69771  0.71772  1.0000
  H   H62       1.0  0.18696  0.61298  0.72327  1.0000
  Mg  Mg19      1.0  0.34818  0.66343  0.71278  1.0000
  C   C121      1.0  0.28095  0.37074  0.94051  1.0000
  C   C122      1.0  0.27713  0.42018  0.79895  1.0000
  C  Sn39      1.0  0.24637  0.42382  0.62965  1.0000
  C  Sn40      1.0  0.21897  0.37704  0.60197  1.0000
  C   C123      1.0  0.22303  0.32779  0.74448  1.0000
  C   C124      1.0  0.25393  0.32459  0.91333  1.0000
  H   H63       1.0  0.19417  0.47072  0.07117  1.0000
  O  Te39      1.0  0.24300  0.47352  0.48969  1.0000
  O  Te40      1.0  0.18794  0.37955  0.43414  1.0000
  H   H64       1.0  0.14619  0.38876  0.02292  1.0000
  Mg  Mg20      1.0  0.19574  0.45647  0.28541  1.0000
  C   C125      1.0  0.14132  0.17814  0.64676  1.0000
  C   C126      1.0  0.17951  0.17783  0.78954  1.0000
  C  Sn41      1.0  0.19875  0.12309  0.92213  1.0000
  C  Sn42      1.0  0.17933  0.06771  0.91121  1.0000
  C   C127      1.0  0.14114  0.06850  0.76777  1.0000
  C   C128      1.0  0.12215  0.12353  0.63585  1.0000
  H   H65       1.0  0.12664  0.22071  0.54463  1.0000
  O  Te41      1.0  0.12622  0.22604  0.06390  1.0000
  O  Te42      1.0  0.08721  0.11479  0.04186  1.0000
  H   H66       1.0  0.09260  0.12375  0.52526  1.0000
  Mg  Mg21      1.0  0.13922  0.13896  0.20911  1.0000
  C   C129      1.0  0.75861  0.35310  0.95334  1.0000
  C   C130      1.0  0.77285  0.41080  0.96348  1.0000
  C  Sn43      1.0  0.81174  0.42306  0.98038  1.0000
  C  Sn44      1.0  0.83676  0.37660  0.98717  1.0000
  C   C131      1.0  0.82222  0.31904  0.97681  1.0000
  C   C132      1.0  0.78326  0.30726  0.95997  1.0000
  H   H67       1.0  0.72846  0.34399  0.94022  1.0000
  O  Te43      1.0  0.82550  0.48095  0.99039  1.0000
  O  Te44      1.0  0.76507  0.49006  0.00396  1.0000
  H   H68       1.0  0.77223  0.26259  0.95201  1.0000
  Mg  Mg22      1.0  0.77020  0.57624  0.01259  1.0000
