data_image0
_chemical_formula_structural       H24C60N16O8C2Sn2C2HTe2HMgC2Sn2C2HTe2HMgC2Sn2C2HTe2HMgC2Sn2C2HTe2HMgC2Sn2C2HTe2HMgC2Sn2C2HTe2HMgC2Sn2C2HTe2HMgC2Sn2C2HTe2HMgC2Sn2C2HTe2HMgC2Sn2C2HTe2HMgC2Sn2C2HTe2HMgC2Sn2C2HTe2HMgC2Sn2C2HTe2HMgC2Sn2C2HTe2HMgC2Sn2C2HTe2HMgC2Sn2C2HTe2HMgC2Sn2C2HTe2HMgC2Sn2C2HTe2HMgC2Sn2C2HTe2HMgC2Sn2C2HTe2HMg
_chemical_formula_sum              "H64 C140 N16 O8 Sn40 Te40 Mg20"
_cell_length_a       36.5324
_cell_length_b       22.9386
_cell_length_c       8.61984
_cell_angle_alpha    73.326
_cell_angle_beta     113.216
_cell_angle_gamma    95.2296

_symmetry_space_group_name_H-M    'P1'
_space_group_IT_number       1

loop_
  _space_group_symop_operation_xyz
  'x, y, z'

loop_
  _atom_site_type_symbol
  _atom_site_label
  _atom_site_symmetry_multiplicity
  _atom_site_fract_x
  _atom_site_fract_y
  _atom_site_fract_z
  _atom_site_occupancy
  H   H1        1.0  0.52587  0.59365  0.49762  1.0000
  H   H2        1.0  0.52645  0.37254  0.18547  1.0000
  H   H3        1.0  0.16348  0.97105  0.25006  1.0000
  H   H4        1.0  0.07633  0.11314  0.25520  1.0000
  H   H5        1.0  0.00455  0.11995  0.18119  1.0000
  H   H6        1.0  0.97787  0.85406  0.45334  1.0000
  H   H7        1.0  0.05160  0.84833  0.02508  1.0000
  H   H8        1.0  0.89130  0.99779  0.45389  1.0000
  H   H9        1.0  0.24110  0.22559  0.45614  1.0000
  H   H10       1.0  0.81518  0.74350  0.22826  1.0000
  H   H11       1.0  0.87503  0.30089  0.40404  1.0000
  H   H12       1.0  0.18212  0.66769  0.30315  1.0000
  H   H13       1.0  0.52898  0.60355  0.98925  1.0000
  H   H14       1.0  0.52399  0.36243  0.69197  1.0000
  H   H15       1.0  0.16169  0.96919  0.74852  1.0000
  H   H16       1.0  0.07574  0.10906  0.76852  1.0000
  H   H17       1.0  0.00403  0.11596  0.69820  1.0000
  H   H18       1.0  0.97996  0.85485  0.95330  1.0000
  H   H19       1.0  0.04940  0.84718  0.52279  1.0000
  H   H20       1.0  0.89286  0.99778  0.95581  1.0000
  H   H21       1.0  0.23846  0.22356  0.96164  1.0000
  H   H22       1.0  0.81471  0.74629  0.73463  1.0000
  H   H23       1.0  0.87469  0.30139  0.89589  1.0000
  H   H24       1.0  0.18107  0.66681  0.79918  1.0000
  C   C1        1.0  0.19075  0.71130  0.23310  1.0000
  C   C2        1.0  0.21531  0.23321  0.33022  1.0000
  C   C3        1.0  0.55565  0.45314  0.08280  1.0000
  C   C4        1.0  0.55640  0.51685  0.02984  1.0000
  C   C5        1.0  0.52840  0.55410  0.03104  1.0000
  C   C6        1.0  0.49953  0.52290  0.08895  1.0000
  C   C7        1.0  0.49899  0.45928  0.14266  1.0000
  C   C8        1.0  0.52701  0.42197  0.14222  1.0000
  C   C9        1.0  0.11550  0.02695  0.21565  1.0000
  C   C10       1.0  0.07416  0.03023  0.17919  1.0000
  C   C11       1.0  0.04920  0.98191  0.12612  1.0000
  C   C12       1.0  0.06609  0.92963  0.11673  1.0000
  C   C13       1.0  0.10812  0.92485  0.16935  1.0000
  C   C14       1.0  0.13147  0.97416  0.21406  1.0000
  C   C15       1.0  0.05682  0.07906  0.20138  1.0000
  C   C16       1.0  0.01676  0.08302  0.15931  1.0000
  C   C17       1.0  0.99028  0.03870  0.08965  1.0000
  C   C18       1.0  0.00720  0.98621  0.08157  1.0000
  C   C19       1.0  0.98216  0.93799  0.02847  1.0000
  C   C20       1.0  0.99760  0.88782  0.50786  1.0000
  C   C21       1.0  0.03951  0.88520  0.04778  1.0000
  C   C22       1.0  0.94829  0.04381  0.03593  1.0000
  C   C23       1.0  0.92338  0.99381  0.49347  1.0000
  C   C24       1.0  0.93910  0.94075  0.49272  1.0000
  C   C25       1.0  0.83866  0.73690  0.36045  1.0000
  C   C26       1.0  0.86445  0.25767  0.46667  1.0000
  C   C27       1.0  0.46439  0.44090  0.19365  1.0000
  C   C28       1.0  0.46556  0.54745  0.10728  1.0000
  C   C29       1.0  0.58829  0.52576  0.48953  1.0000
  C   C30       1.0  0.58933  0.42812  0.06360  1.0000
  C   C31       1.0  0.19010  0.71061  0.73184  1.0000
  C   C32       1.0  0.21417  0.23023  0.83141  1.0000
  C   C33       1.0  0.55322  0.44349  0.59335  1.0000
  C   C34       1.0  0.55367  0.50714  0.53989  1.0000
  C   C35       1.0  0.52543  0.54420  0.53947  1.0000
  C   C36       1.0  0.49649  0.51265  0.59594  1.0000
  C   C37       1.0  0.49580  0.44897  0.64902  1.0000
  C   C38       1.0  0.52423  0.41192  0.64987  1.0000
  C   C39       1.0  0.11398  0.02471  0.71761  1.0000
  C   C40       1.0  0.07281  0.02779  0.68415  1.0000
  C   C41       1.0  0.04769  0.97981  0.62985  1.0000
  C   C42       1.0  0.06438  0.92774  0.61807  1.0000
  C   C43       1.0  0.10637  0.92291  0.66957  1.0000
  C   C44       1.0  0.12975  0.97219  0.71401  1.0000
  C   C45       1.0  0.05589  0.07590  0.71126  1.0000
  C   C46       1.0  0.01590  0.07998  0.67104  1.0000
  C   C47       1.0  0.98909  0.03660  0.59761  1.0000
  C   C48       1.0  0.00574  0.98437  0.58649  1.0000
  C   C49       1.0  0.98052  0.93658  0.53155  1.0000
  C   C50       1.0  0.99947  0.88902  0.00673  1.0000
  C   C51       1.0  0.03759  0.88374  0.54793  1.0000
  C   C52       1.0  0.94702  0.04243  0.54128  1.0000
  C   C53       1.0  0.92486  0.99464  0.99162  1.0000
  C   C54       1.0  0.94079  0.94175  0.99076  1.0000
  C   C55       1.0  0.83887  0.73905  0.86539  1.0000
  C   C56       1.0  0.86591  0.25823  0.96744  1.0000
  C   C57       1.0  0.46079  0.43120  0.69823  1.0000
  C   C58       1.0  0.46245  0.53784  0.61150  1.0000
  C   C59       1.0  0.59115  0.53474  0.97913  1.0000
  C   C60       1.0  0.58765  0.41913  0.57773  1.0000
  N   N1        1.0  0.21804  0.71448  0.17064  1.0000
  N   N2        1.0  0.20693  0.28468  0.21003  1.0000
  N   N3        1.0  0.83850  0.25600  0.02867  1.0000
  N   N4        1.0  0.84491  0.68644  0.48391  1.0000
  N   N5        1.0  0.29376  0.50241  0.20998  1.0000
  N   N6        1.0  0.75867  0.46848  0.46766  1.0000
  N   N7        1.0  0.44456  0.49584  0.16604  1.0000
  N   N8        1.0  0.61011  0.47940  0.00344  1.0000
  N   N9        1.0  0.21744  0.71382  0.66962  1.0000
  N   N10       1.0  0.20707  0.28082  0.70806  1.0000
  N   N11       1.0  0.83584  0.25550  0.52092  1.0000
  N   N12       1.0  0.84560  0.68828  0.98778  1.0000
  N   N13       1.0  0.29254  0.49908  0.72325  1.0000
  N   N14       1.0  0.76049  0.47001  0.96209  1.0000
  N   N15       1.0  0.44170  0.48662  0.67270  1.0000
  N   N16       1.0  0.60816  0.47101  0.51672  1.0000
  O   O1        1.0  0.45733  0.60062  0.08169  1.0000
  O   O2        1.0  0.45481  0.38895  0.24787  1.0000
  O   O3        1.0  0.59812  0.57771  0.43687  1.0000
  O   O4        1.0  0.59773  0.37485  0.09101  1.0000
  O   O5        1.0  0.45385  0.59132  0.58018  1.0000
  O   O6        1.0  0.44999  0.37983  0.74903  1.0000
  O   O7        1.0  0.60190  0.58621  0.92886  1.0000
  O   O8        1.0  0.59665  0.36598  0.60798  1.0000
  C   C61       1.0  0.16889  0.86862  0.12245  1.0000
  C   C62       1.0  0.13553  0.87224  0.16072  1.0000
  C  Sn1       1.0  0.12001  0.81947  0.23921  1.0000
  C  Sn2       1.0  0.13830  0.76207  0.28004  1.0000
  C   C63       1.0  0.17169  0.75894  0.24134  1.0000
  C   C64       1.0  0.18697  0.81203  0.16273  1.0000
  H   H25       1.0  0.18073  0.90970  0.06172  1.0000
  O  Te1       1.0  0.08664  0.82390  0.27650  1.0000
  O  Te2       1.0  0.12341  0.70861  0.35857  1.0000
  H   H26       1.0  0.21282  0.80921  0.13322  1.0000
  Mg  Mg1       1.0  0.07735  0.73814  0.38391  1.0000
  C   C65       1.0  0.36809  0.44330  0.31503  1.0000
  C   C66       1.0  0.33893  0.48975  0.23568  1.0000
  C  Sn3       1.0  0.34322  0.54243  0.11404  1.0000
  C  Sn4       1.0  0.37737  0.54857  0.07128  1.0000
  C   C67       1.0  0.40637  0.50182  0.15130  1.0000
  C   C68       1.0  0.40178  0.44931  0.27288  1.0000
  H   H27       1.0  0.36454  0.40266  0.40903  1.0000
  O  Te3       1.0  0.31380  0.58841  0.03603  1.0000
  O  Te4       1.0  0.46997  0.50562  0.95010  1.0000
  H   H28       1.0  0.42436  0.41334  0.33421  1.0000
  Mg  Mg2       1.0  0.42169  0.55574  0.87888  1.0000
  C   C69       1.0  0.29291  0.62968  0.18083  1.0000
  C   C70       1.0  0.28049  0.56950  0.19929  1.0000
  C  Sn5       1.0  0.24209  0.55491  0.19348  1.0000
  C  Sn6       1.0  0.21569  0.60151  0.16868  1.0000
  C   C71       1.0  0.22838  0.66158  0.15023  1.0000
  C   C72       1.0  0.26689  0.67568  0.15630  1.0000
  H   H29       1.0  0.32269  0.64060  0.18543  1.0000
  O  Te5       1.0  0.23017  0.49455  0.21221  1.0000
  O  Te6       1.0  0.17713  0.58819  0.16230  1.0000
  H   H30       1.0  0.27648  0.72227  0.14189  1.0000
  Mg  Mg3       1.0  0.17471  0.49913  0.19438  1.0000
  C   C73       1.0  0.23064  0.43164  0.04969  1.0000
  C   C74       1.0  0.26287  0.44756  0.18425  1.0000
  C  Sn7       1.0  0.28018  0.40506  0.34735  1.0000
  C  Sn8       1.0  0.26489  0.34554  0.37587  1.0000
  C   C75       1.0  0.23266  0.33005  0.24037  1.0000
  C   C76       1.0  0.21555  0.37294  0.07768  1.0000
  H   H31       1.0  0.30499  0.36970  0.92378  1.0000
  O  Te7       1.0  0.31235  0.42173  0.48037  1.0000
  O  Te8       1.0  0.28164  0.30216  0.53759  1.0000
  H   H32       1.0  0.27818  0.26548  0.97349  1.0000
  Mg  Mg4       1.0  0.32504  0.34664  0.67801  1.0000
  C   C77       1.0  0.13260  0.15350  0.11123  1.0000
  C   C78       1.0  0.13877  0.09298  0.21349  1.0000
  C  Sn9       1.0  0.17175  0.07640  0.37210  1.0000
  C  Sn10      1.0  0.19900  0.12135  0.42907  1.0000
  C   C79       1.0  0.19255  0.18177  0.32588  1.0000
  C   C80       1.0  0.15945  0.19786  0.16736  1.0000
  H   H33       1.0  0.19455  0.07084  0.98863  1.0000
  O  Te9       1.0  0.17747  0.01573  0.47262  1.0000
  O  Te10      1.0  0.23220  0.10604  0.58707  1.0000
  H   H34       1.0  0.15467  0.24472  0.08827  1.0000
  Mg  Mg5       1.0  0.22717  0.01731  0.67807  1.0000
  C   C81       1.0  0.86939  0.89013  0.27035  1.0000
  C   C82       1.0  0.90229  0.89375  0.42114  1.0000
  C  Sn11      1.0  0.91725  0.84169  0.56103  1.0000
  C  Sn12      1.0  0.89888  0.78502  0.54934  1.0000
  C   C83       1.0  0.86599  0.78187  0.39787  1.0000
  C   C84       1.0  0.85126  0.83426  0.25868  1.0000
  H   H35       1.0  0.85800  0.93065  0.16261  1.0000
  O  Te11      1.0  0.95013  0.84611  0.71075  1.0000
  O  Te12      1.0  0.91323  0.73227  0.68719  1.0000
  H   H36       1.0  0.82580  0.83144  0.14191  1.0000
  Mg  Mg6       1.0  0.95876  0.76148  0.86388  1.0000
  C   C85       1.0  0.92076  0.81697  0.09629  1.0000
  C   C86       1.0  0.00649  0.77988  0.98252  1.0000
  C  Sn13      1.0  0.97445  0.79714  0.82077  1.0000
  C  Sn14      1.0  0.94372  0.75544  0.77240  1.0000
  C   C87       1.0  0.94582  0.69752  0.88720  1.0000
  C   C88       1.0  0.89046  0.77583  0.04872  1.0000
  H   H37       1.0  0.94567  0.80398  0.22131  1.0000
  O  Te13      1.0  0.97309  0.85528  0.70864  1.0000
  O  Te14      1.0  0.91135  0.77152  0.61155  1.0000
  H   H38       1.0  0.89186  0.73092  0.13682  1.0000
  Mg  Mg7       1.0  0.92288  0.85594  0.50354  1.0000
  C   C89       1.0  0.68201  0.52271  0.35045  1.0000
  C   C90       1.0  0.71464  0.48253  0.45260  1.0000
  C  Sn15      1.0  0.71201  0.43160  0.58324  1.0000
  C  Sn16      1.0  0.67601  0.42081  0.61181  1.0000
  C   C91       1.0  0.64352  0.46125  0.50884  1.0000
  C   C92       1.0  0.64648  0.51209  0.37850  1.0000
  H   H39       1.0  0.68429  0.56202  0.24954  1.0000
  O  Te15      1.0  0.74491  0.39193  0.68415  1.0000
  O  Te16      1.0  0.67257  0.37024  0.74145  1.0000
  H   H40       1.0  0.62120  0.54317  0.29936  1.0000
  Mg  Mg8       1.0  0.72562  0.32935  0.84504  1.0000
  C   C93       1.0  0.68451  0.52653  0.83871  1.0000
  C   C94       1.0  0.71671  0.48584  0.94452  1.0000
  C  Sn17      1.0  0.62578  0.53116  0.07647  1.0000
  C  Sn18      1.0  0.58946  0.52206  0.10262  1.0000
  C   C95       1.0  0.64497  0.46789  0.99598  1.0000
  C   C96       1.0  0.64867  0.51757  0.86437  1.0000
  H   H41       1.0  0.68735  0.56494  0.73681  1.0000
  O  Te17      1.0  0.65825  0.49096  0.18105  1.0000
  O  Te18      1.0  0.58528  0.47267  0.23349  1.0000
  H   H42       1.0  0.62372  0.54905  0.78239  1.0000
  Mg  Mg9       1.0  0.63799  0.43045  0.34231  1.0000
  C   C97       1.0  0.83980  0.38304  0.00703  1.0000
  C   C98       1.0  0.82741  0.32287  0.02481  1.0000
  C  Sn19      1.0  0.78901  0.30815  0.01889  1.0000
  C  Sn20      1.0  0.85015  0.25952  0.99465  1.0000
  C   C99       1.0  0.86282  0.31959  0.97686  1.0000
  C   C100      1.0  0.90132  0.33381  0.98304  1.0000
  H   H43       1.0  0.86958  0.39406  0.01171  1.0000
  O  Te19      1.0  0.77712  0.24779  0.03695  1.0000
  O  Te20      1.0  0.81160  0.24607  0.98817  1.0000
  H   H44       1.0  0.91090  0.38041  0.96915  1.0000
  Mg  Mg10      1.0  0.72166  0.25217  0.01925  1.0000
  C   C101      1.0  0.78364  0.62128  0.78601  1.0000
  C   C102      1.0  0.81254  0.63795  0.92911  1.0000
  C  Sn21      1.0  0.74069  0.69019  0.09258  1.0000
  C  Sn22      1.0  0.72717  0.62954  0.11273  1.0000
  C   C103      1.0  0.78582  0.51821  0.96872  1.0000
  C   C104      1.0  0.77029  0.56147  0.80575  1.0000
  H   H45       1.0  0.77163  0.65474  0.65988  1.0000
  O  Te21      1.0  0.76954  0.70761  0.23419  1.0000
  O  Te22      1.0  0.74238  0.58578  0.27462  1.0000
  H   H46       1.0  0.74793  0.54855  0.69495  1.0000
  Mg  Mg11      1.0  0.78122  0.63159  0.42845  1.0000
  C   C105      1.0  0.78016  0.62093  0.28976  1.0000
  C   C106      1.0  0.81096  0.63660  0.42952  1.0000
  C  Sn23      1.0  0.82851  0.59278  0.58977  1.0000
  C  Sn24      1.0  0.81491  0.53218  0.61006  1.0000
  C   C107      1.0  0.78409  0.51694  0.46940  1.0000
  C   C108      1.0  0.76674  0.56116  0.30964  1.0000
  H   H47       1.0  0.76674  0.65513  0.16611  1.0000
  O  Te23      1.0  0.85924  0.60922  0.72807  1.0000
  O  Te24      1.0  0.83192  0.48747  0.76877  1.0000
  H   H48       1.0  0.74291  0.54900  0.20141  1.0000
  Mg  Mg12      1.0  0.87296  0.53214  0.91875  1.0000
  C   C109      1.0  0.87345  0.12730  0.56497  1.0000
  C   C110      1.0  0.88169  0.18859  0.50758  1.0000
  C  Sn25      1.0  0.91266  0.20481  0.44817  1.0000
  C  Sn26      1.0  0.93575  0.15872  0.44627  1.0000
  C   C111      1.0  0.92725  0.09754  0.50383  1.0000
  C   C112      1.0  0.89620  0.08182  0.56308  1.0000
  H   H49       1.0  0.84941  0.11513  0.61072  1.0000
  O  Te25      1.0  0.92050  0.26626  0.39135  1.0000
  O  Te26      1.0  0.96687  0.17366  0.38748  1.0000
  H   H50       1.0  0.88981  0.03436  0.60739  1.0000
  Mg  Mg13      1.0  0.96604  0.26376  0.32318  1.0000
  C   C113      1.0  0.87713  0.12814  0.07672  1.0000
  C   C114      1.0  0.88427  0.18948  0.01290  1.0000
  C  Sn27      1.0  0.00097  0.11074  0.94224  1.0000
  C  Sn28      1.0  0.02331  0.06474  0.93547  1.0000
  C   C115      1.0  0.01592  0.00350  0.99954  1.0000
  C   C116      1.0  0.89914  0.08273  0.07003  1.0000
  H   H51       1.0  0.85451  0.11585  0.13118  1.0000
  O  Te27      1.0  0.00773  0.17225  0.87911  1.0000
  O  Te28      1.0  0.05260  0.07983  0.86546  1.0000
  H   H52       1.0  0.89360  0.03523  0.11933  1.0000
  Mg  Mg14      1.0  0.05085  0.16996  0.79599  1.0000
  C   C117      1.0  0.16773  0.86779  0.62388  1.0000
  C   C118      1.0  0.13421  0.87069  0.66170  1.0000
  C  Sn29      1.0  0.11898  0.81754  0.74006  1.0000
  C  Sn30      1.0  0.13774  0.76050  0.78121  1.0000
  C   C119      1.0  0.17128  0.75808  0.74296  1.0000
  C   C120      1.0  0.18626  0.81155  0.66449  1.0000
  H   H53       1.0  0.17934  0.90916  0.56325  1.0000
  O  Te29      1.0  0.08545  0.82126  0.77690  1.0000
  O  Te30      1.0  0.12316  0.70667  0.85962  1.0000
  H   H54       1.0  0.21224  0.80929  0.63532  1.0000
  Mg  Mg15      1.0  0.07671  0.73522  0.88430  1.0000
  C   C121      1.0  0.36775  0.54599  0.55946  1.0000
  C   C122      1.0  0.40015  0.50583  0.66716  1.0000
  C  Sn31      1.0  0.39700  0.45671  0.80121  1.0000
  C  Sn32      1.0  0.36071  0.44773  0.82759  1.0000
  C   C123      1.0  0.32846  0.48814  0.71906  1.0000
  C   C124      1.0  0.33194  0.53715  0.58534  1.0000
  H   H55       1.0  0.37043  0.58390  0.45594  1.0000
  O  Te31      1.0  0.42967  0.41703  0.90765  1.0000
  O  Te32      1.0  0.35675  0.39900  0.96055  1.0000
  H   H56       1.0  0.30684  0.56821  0.50191  1.0000
  Mg  Mg16      1.0  0.32210  0.45244  0.07141  1.0000
  C   C125      1.0  0.29173  0.62729  0.68026  1.0000
  C   C126      1.0  0.27889  0.56730  0.70014  1.0000
  C  Sn33      1.0  0.24038  0.55360  0.69399  1.0000
  C  Sn34      1.0  0.21428  0.60093  0.66738  1.0000
  C   C127      1.0  0.22740  0.66080  0.64752  1.0000
  C   C128      1.0  0.26601  0.67400  0.65394  1.0000
  H   H57       1.0  0.32159  0.63751  0.68513  1.0000
  O  Te33      1.0  0.22804  0.49342  0.71416  1.0000
  O  Te34      1.0  0.17563  0.58851  0.66063  1.0000
  H   H58       1.0  0.27593  0.72045  0.63844  1.0000
  Mg  Mg17      1.0  0.17260  0.49933  0.69512  1.0000
  C   C129      1.0  0.27087  0.34759  0.90252  1.0000
  C   C130      1.0  0.23764  0.33316  0.76890  1.0000
  C  Sn35      1.0  0.22120  0.37573  0.60529  1.0000
  C  Sn36      1.0  0.23842  0.43378  0.57528  1.0000
  C   C131      1.0  0.27168  0.44775  0.70978  1.0000
  C   C132      1.0  0.28788  0.40481  0.87301  1.0000
  H   H59       1.0  0.19586  0.40947  0.02880  1.0000
  O  Te35      1.0  0.18799  0.36059  0.47326  1.0000
  O  Te36      1.0  0.22259  0.47717  0.41299  1.0000
  H   H60       1.0  0.31362  0.41598  0.97641  1.0000
  Mg  Mg18      1.0  0.17717  0.43508  0.27436  1.0000
  C   C133      1.0  0.18476  0.07676  0.92906  1.0000
  C   C134      1.0  0.14838  0.07418  0.79203  1.0000
  C  Sn37      1.0  0.13285  0.12555  0.65036  1.0000
  C  Sn38      1.0  0.15420  0.18047  0.64615  1.0000
  C   C135      1.0  0.19058  0.18257  0.78383  1.0000
  C   C136      1.0  0.20584  0.13089  0.92498  1.0000
  H   H61       1.0  0.10902  0.13188  0.03824  1.0000
  O  Te37      1.0  0.09646  0.12219  0.51457  1.0000
  O  Te38      1.0  0.13936  0.23249  0.50611  1.0000
  H   H62       1.0  0.14645  0.22800  0.03101  1.0000
  Mg  Mg19      1.0  0.08853  0.20525  0.35220  1.0000
  C   C137      1.0  0.82806  0.40898  0.51039  1.0000
  C   C138      1.0  0.78866  0.41638  0.48908  1.0000
  C  Sn39      1.0  0.76348  0.36671  0.48778  1.0000
  C  Sn40      1.0  0.77812  0.30862  0.50827  1.0000
  C   C139      1.0  0.81759  0.30169  0.52963  1.0000
  C   C140      1.0  0.84252  0.35169  0.53068  1.0000
  H   H63       1.0  0.84736  0.44766  0.51130  1.0000
  O  Te39      1.0  0.72419  0.37491  0.46629  1.0000
  O  Te40      1.0  0.75360  0.25821  0.50754  1.0000
  H   H64       1.0  0.87304  0.34595  0.54729  1.0000
  Mg  Mg20      1.0  0.70231  0.29235  0.47412  1.0000
