data_image0
_chemical_formula_structural       H24C44N16SnCSn2CSnTe4Mg2SnCSn2CSnTe4Mg2SnCSn2CSnTe4Mg2SnCSn2CSnTe4Mg2SnCSn2CSnTe4Mg2SnCSn2CSnTe4Mg2SnCSn2CSnTe4Mg2SnCSn2CSnTe4Mg2SnCSn2CSnTe4Mg2SnCSn2CSnTe4Mg2SnCSn2CSnTe4Mg2SnCSn2CSnTe4Mg2SnCSn2CSnTe4Mg2SnCSn2CSnTe4Mg2SnCSn2CSnTe4Mg2SnCSn2CSnTe4Mg2SnCSn2CSnTe4Mg2SnCSn2CSnTe4Mg2SnCSn2CSnTe4Mg2SnCSn2CSnTe4Mg2SnCSn2CSnTe4Mg2SnCSn2CSnTe4Mg2
_chemical_formula_sum              "H24 C88 N16 Sn88 Te88 Mg44"
_cell_length_a       37.1083
_cell_length_b       22.7698
_cell_length_c       9.04551
_cell_angle_alpha    73.4169
_cell_angle_beta     118.013
_cell_angle_gamma    93.479

_symmetry_space_group_name_H-M    'P1'
_space_group_IT_number       1

loop_
  _space_group_symop_operation_xyz
  'x, y, z'

loop_
  _atom_site_type_symbol
  _atom_site_label
  _atom_site_symmetry_multiplicity
  _atom_site_fract_x
  _atom_site_fract_y
  _atom_site_fract_z
  _atom_site_occupancy
  H   H1        1.0  0.16693  0.96880  0.25722  1.0000
  H   H2        1.0  0.07730  0.10917  0.26213  1.0000
  H   H3        1.0  0.00421  0.11577  0.18195  1.0000
  H   H4        1.0  0.97554  0.86194  0.41496  1.0000
  H   H5        1.0  0.05446  0.84878  0.01211  1.0000
  H   H6        1.0  0.88629  0.00331  0.42129  1.0000
  H   H7        1.0  0.24799  0.21182  0.96016  1.0000
  H   H8        1.0  0.80259  0.76032  0.19761  1.0000
  H   H9        1.0  0.86453  0.30920  0.37044  1.0000
  H   H10       1.0  0.19257  0.66207  0.32671  1.0000
  H   H11       1.0  0.45294  0.54815  0.14113  1.0000
  H   H12       1.0  0.60321  0.41492  0.05359  1.0000
  H   H13       1.0  0.16218  0.96851  0.75905  1.0000
  H   H14       1.0  0.07301  0.11057  0.76376  1.0000
  H   H15       1.0  0.99998  0.11945  0.67822  1.0000
  H   H16       1.0  0.98173  0.85477  0.93603  1.0000
  H   H17       1.0  0.04886  0.85285  0.50261  1.0000
  H   H18       1.0  0.89173  0.99702  0.93255  1.0000
  H   H19       1.0  0.23664  0.22186  0.52526  1.0000
  H   H20       1.0  0.81409  0.74982  0.69126  1.0000
  H   H21       1.0  0.86811  0.30653  0.85824  1.0000
  H   H22       1.0  0.18657  0.66263  0.82684  1.0000
  H   H23       1.0  0.44809  0.54848  0.63489  1.0000
  H   H24       1.0  0.60204  0.42049  0.56207  1.0000
  C   C1        1.0  0.19955  0.70561  0.25736  1.0000
  C   C2        1.0  0.21536  0.22659  0.38644  1.0000
  C   C3        1.0  0.46278  0.49998  0.16745  1.0000
  C   C4        1.0  0.11734  0.02462  0.22026  1.0000
  C   C5        1.0  0.07544  0.02824  0.17841  1.0000
  C   C6        1.0  0.05064  0.98082  0.11852  1.0000
  C   C7        1.0  0.06842  0.92893  0.10833  1.0000
  C   C8        1.0  0.11129  0.92354  0.16706  1.0000
  C   C9        1.0  0.13429  0.97240  0.21627  1.0000
  C   C10       1.0  0.05755  0.07622  0.20259  1.0000
  C   C11       1.0  0.01683  0.08005  0.15716  1.0000
  C   C12       1.0  0.99017  0.03690  0.08070  1.0000
  C   C13       1.0  0.00802  0.98508  0.07049  1.0000
  C   C14       1.0  0.98334  0.93731  0.01281  1.0000
  C   C15       1.0  0.99540  0.89428  0.47669  1.0000
  C   C16       1.0  0.04188  0.88504  0.03518  1.0000
  C   C17       1.0  0.94722  0.04256  0.02098  1.0000
  C   C18       1.0  0.91896  0.99910  0.46317  1.0000
  C   C19       1.0  0.93562  0.94661  0.45854  1.0000
  C   C20       1.0  0.83225  0.74854  0.31816  1.0000
  C   C21       1.0  0.59471  0.46311  0.03329  1.0000
  C   C22       1.0  0.85639  0.26607  0.43638  1.0000
  C   C23       1.0  0.19341  0.70573  0.75507  1.0000
  C   C24       1.0  0.21691  0.22330  0.84829  1.0000
  C   C25       1.0  0.45832  0.50024  0.66443  1.0000
  C   C26       1.0  0.11290  0.02554  0.72097  1.0000
  C   C27       1.0  0.07085  0.03019  0.67756  1.0000
  C   C28       1.0  0.04558  0.98363  0.61494  1.0000
  C   C29       1.0  0.06313  0.93160  0.60414  1.0000
  C   C30       1.0  0.10611  0.92490  0.66559  1.0000
  C   C31       1.0  0.12954  0.97277  0.71780  1.0000
  C   C32       1.0  0.05311  0.07819  0.70219  1.0000
  C   C33       1.0  0.01228  0.08320  0.65406  1.0000
  C   C34       1.0  0.98525  0.04079  0.57573  1.0000
  C   C35       1.0  0.00277  0.98894  0.56407  1.0000
  C   C36       1.0  0.97762  0.94228  0.50127  1.0000
  C   C37       1.0  0.00128  0.88867  0.99126  1.0000
  C   C38       1.0  0.03627  0.88909  0.52583  1.0000
  C   C39       1.0  0.94230  0.04703  0.51624  1.0000
  C   C40       1.0  0.92435  0.99352  0.97310  1.0000
  C   C41       1.0  0.94156  0.94086  0.97204  1.0000
  C   C42       1.0  0.83889  0.74209  0.82644  1.0000
  C   C43       1.0  0.59189  0.46861  0.53446  1.0000
  C   C44       1.0  0.86110  0.26346  0.92964  1.0000
  N   N1        1.0  0.22569  0.70711  0.19950  1.0000
  N   N2        1.0  0.44498  0.45460  0.22128  1.0000
  N   N3        1.0  0.21111  0.27440  0.25930  1.0000
  N   N4        1.0  0.82942  0.26528  0.48960  1.0000
  N   N5        1.0  0.60867  0.51436  0.47535  1.0000
  N   N6        1.0  0.84322  0.69509  0.43332  1.0000
  N   N7        1.0  0.29964  0.48512  0.25961  1.0000
  N   N8        1.0  0.75292  0.48566  0.42620  1.0000
  N   N9        1.0  0.21928  0.70644  0.69630  1.0000
  N   N10       1.0  0.44091  0.45503  0.72169  1.0000
  N   N11       1.0  0.20420  0.27771  0.73855  1.0000
  N   N12       1.0  0.83553  0.26251  0.98988  1.0000
  N   N13       1.0  0.61306  0.50811  0.98165  1.0000
  N   N14       1.0  0.84495  0.69279  0.95272  1.0000
  N   N15       1.0  0.29479  0.48617  0.75435  1.0000
  N   N16       1.0  0.75758  0.48049  0.93374  1.0000
  C  Sn1       1.0  0.13180  0.76403  0.23454  1.0000
  C   C45       1.0  0.16375  0.76063  0.19575  1.0000
  C  Sn2       1.0  0.18389  0.81275  0.16354  1.0000
  C  Sn3       1.0  0.17185  0.86946  0.17035  1.0000
  C   C46       1.0  0.13991  0.87283  0.20915  1.0000
  C  Sn4       1.0  0.11976  0.82073  0.24135  1.0000
  O  Te1       1.0  0.11210  0.71134  0.26630  1.0000
  O  Te2       1.0  0.21574  0.80823  0.12497  1.0000
  O  Te3       1.0  0.19158  0.92217  0.13855  1.0000
  O  Te4       1.0  0.08793  0.82524  0.27993  1.0000
  Mg  Mg1       1.0  0.23320  0.89280  0.09155  1.0000
  Mg  Mg2       1.0  0.07047  0.74069  0.31346  1.0000
  C  Sn5       1.0  0.37863  0.42945  0.39959  1.0000
  C   C47       1.0  0.34719  0.47699  0.30178  1.0000
  C  Sn6       1.0  0.34402  0.51859  0.14814  1.0000
  C  Sn7       1.0  0.37288  0.51252  0.09099  1.0000
  C   C48       1.0  0.40430  0.46500  0.18875  1.0000
  C  Sn8       1.0  0.40749  0.42339  0.34244  1.0000
  O  Te5       1.0  0.38120  0.38840  0.55278  1.0000
  O  Te6       1.0  0.31233  0.56575  0.05259  1.0000
  O  Te7       1.0  0.48096  0.45120  0.93767  1.0000
  O  Te8       1.0  0.43916  0.37624  0.43794  1.0000
  Mg  Mg3       1.0  0.43235  0.50778  0.85258  1.0000
  Mg  Mg4       1.0  0.42983  0.33174  0.63791  1.0000
  C  Sn9       1.0  0.22953  0.55794  0.16235  1.0000
  C   C49       1.0  0.26824  0.54853  0.17857  1.0000
  C  Sn10      1.0  0.29737  0.59073  0.22655  1.0000
  C  Sn11      1.0  0.28761  0.64342  0.25910  1.0000
  C   C50       1.0  0.24892  0.65280  0.24290  1.0000
  C  Sn12      1.0  0.21976  0.61063  0.19489  1.0000
  O  Te9       1.0  0.20088  0.51515  0.11424  1.0000
  O  Te10      1.0  0.33587  0.58035  0.24188  1.0000
  O  Te11      1.0  0.31629  0.68622  0.30723  1.0000
  O  Te12      1.0  0.18129  0.62099  0.17960  1.0000
  Mg  Mg5       1.0  0.36455  0.65185  0.31098  1.0000
  Mg  Mg6       1.0  0.15260  0.54950  0.11059  1.0000
  C  Sn13      1.0  0.29501  0.36318  0.42689  1.0000
  C   C51       1.0  0.28513  0.41641  0.28656  1.0000
  C  Sn14      1.0  0.24655  0.42691  0.13910  1.0000
  C  Sn15      1.0  0.21723  0.38333  0.13178  1.0000
  C   C52       1.0  0.22712  0.33015  0.27206  1.0000
  C  Sn16      1.0  0.26569  0.31960  0.41957  1.0000
  O  Te13      1.0  0.33376  0.35362  0.57300  1.0000
  O  Te14      1.0  0.23738  0.48046  0.00041  1.0000
  O  Te15      1.0  0.28913  0.29050  0.98551  1.0000
  O  Te16      1.0  0.27486  0.26610  0.55820  1.0000
  Mg  Mg7       1.0  0.29113  0.37041  0.82984  1.0000
  Mg  Mg8       1.0  0.33177  0.27369  0.72887  1.0000
  C  Sn17      1.0  0.14674  0.13898  0.12174  1.0000
  C   C53       1.0  0.14895  0.08118  0.23503  1.0000
  C  Sn18      1.0  0.17080  0.07068  0.41617  1.0000
  C  Sn19      1.0  0.19084  0.11896  0.48555  1.0000
  C   C54       1.0  0.18862  0.17672  0.37229  1.0000
  C  Sn20      1.0  0.16678  0.18726  0.19112  1.0000
  O  Te17      1.0  0.23539  0.04601  0.94109  1.0000
  O  Te18      1.0  0.17258  0.01251  0.52680  1.0000
  O  Te19      1.0  0.21287  0.10945  0.66635  1.0000
  O  Te20      1.0  0.16498  0.24540  0.08052  1.0000
  Mg  Mg9       1.0  0.20635  0.02225  0.76346  1.0000
  Mg  Mg10      1.0  0.24188  0.13328  0.84385  1.0000
  C  Sn21      1.0  0.51201  0.54348  0.00693  1.0000
  C   C55       1.0  0.49296  0.49871  0.08086  1.0000
  C  Sn22      1.0  0.51098  0.43839  0.16650  1.0000
  C  Sn23      1.0  0.54884  0.42248  0.17862  1.0000
  C   C56       1.0  0.56787  0.46723  0.10476  1.0000
  C  Sn24      1.0  0.54987  0.52757  0.01905  1.0000
  O  Te21      1.0  0.60412  0.50106  0.92193  1.0000
  O  Te22      1.0  0.49135  0.39443  0.23933  1.0000
  O  Te23      1.0  0.56740  0.36241  0.26371  1.0000
  O  Te24      1.0  0.68016  0.46908  0.94629  1.0000
  Mg  Mg11      1.0  0.52879  0.31886  0.34200  1.0000
  Mg  Mg12      1.0  0.64276  0.54467  0.84367  1.0000
  C  Sn25      1.0  0.52771  0.42186  0.60284  1.0000
  C   C57       1.0  0.54758  0.46779  0.53719  1.0000
  C  Sn26      1.0  0.54222  0.52859  0.53269  1.0000
  C  Sn27      1.0  0.51647  0.54380  0.59521  1.0000
  C   C58       1.0  0.49663  0.49788  0.66084  1.0000
  C  Sn28      1.0  0.50197  0.43707  0.66536  1.0000
  O  Te25      1.0  0.53352  0.36139  0.60609  1.0000
  O  Te26      1.0  0.56239  0.57371  0.46640  1.0000
  O  Te27      1.0  0.51067  0.60433  0.59190  1.0000
  O  Te28      1.0  0.48182  0.39197  0.73162  1.0000
  Mg  Mg13      1.0  0.54477  0.64951  0.48941  1.0000
  Mg  Mg14      1.0  0.49944  0.31615  0.70876  1.0000
  C  Sn29      1.0  0.85829  0.90289  0.27241  1.0000
  C   C59       1.0  0.89725  0.90046  0.41305  1.0000
  C  Sn30      1.0  0.91997  0.84398  0.51884  1.0000
  C  Sn31      1.0  0.90342  0.78879  0.48326  1.0000
  C   C60       1.0  0.86449  0.79124  0.34269  1.0000
  C  Sn32      1.0  0.84175  0.84769  0.23683  1.0000
  O  Te29      1.0  0.83612  0.95985  0.16837  1.0000
  O  Te30      1.0  0.95884  0.84272  0.65873  1.0000
  O  Te31      1.0  0.92563  0.73180  0.58745  1.0000
  O  Te32      1.0  0.80290  0.84898  0.09700  1.0000
  Mg  Mg15      1.0  0.97720  0.75388  0.76277  1.0000
  Mg  Mg16      1.0  0.89520  0.83535  0.99283  1.0000
  C  Sn33      1.0  0.92819  0.81314  0.04915  1.0000
  C   C61       1.0  0.03501  0.76931  0.93617  1.0000
  C  Sn34      1.0  0.99837  0.79164  0.78189  1.0000
  C  Sn35      1.0  0.96487  0.75464  0.73970  1.0000
  C   C62       1.0  0.96873  0.69608  0.85266  1.0000
  C  Sn36      1.0  0.89469  0.77614  0.00696  1.0000
  O  Te33      1.0  0.96511  0.79175  0.20268  1.0000
  O  Te34      1.0  0.99525  0.85037  0.67097  1.0000
  O  Te35      1.0  0.92793  0.77608  0.58602  1.0000
  O  Te36      1.0  0.89782  0.71745  0.11786  1.0000
  Mg  Mg17      1.0  0.93864  0.85912  0.47702  1.0000
  Mg  Mg18      1.0  0.95440  0.70867  0.31187  1.0000
  C  Sn37      1.0  0.69359  0.43373  0.52148  1.0000
  C   C63       1.0  0.70796  0.47607  0.41973  1.0000
  C  Sn38      1.0  0.69138  0.53724  0.34395  1.0000
  C  Sn39      1.0  0.65979  0.55651  0.37052  1.0000
  C   C64       1.0  0.64544  0.51419  0.47224  1.0000
  C  Sn40      1.0  0.66200  0.45300  0.54805  1.0000
  O  Te37      1.0  0.71062  0.37281  0.59598  1.0000
  O  Te38      1.0  0.70623  0.57872  0.24270  1.0000
  O  Te39      1.0  0.64276  0.61748  0.29590  1.0000
  O  Te40      1.0  0.64717  0.41154  0.64927  1.0000
  Mg  Mg19      1.0  0.67326  0.65677  0.16869  1.0000
  Mg  Mg20      1.0  0.68013  0.33348  0.72341  1.0000
  C  Sn41      1.0  0.65910  0.54056  0.81145  1.0000
  C   C65       1.0  0.64550  0.49889  0.91756  1.0000
  C  Sn42      1.0  0.56141  0.55254  0.05574  1.0000
  C  Sn43      1.0  0.60244  0.54527  0.08863  1.0000
  C   C66       1.0  0.72670  0.48449  0.98259  1.0000
  C  Sn44      1.0  0.70014  0.53328  0.84435  1.0000
  O  Te41      1.0  0.63200  0.58899  0.67405  1.0000
  O  Te42      1.0  0.54710  0.51146  0.15999  1.0000
  O  Te43      1.0  0.62954  0.49679  0.22617  1.0000
  O  Te44      1.0  0.71442  0.57435  0.74016  1.0000
  Mg  Mg21      1.0  0.59567  0.45286  0.33157  1.0000
  Mg  Mg22      1.0  0.66589  0.63299  0.56861  1.0000
  C  Sn45      1.0  0.76236  0.33425  0.41475  1.0000
  C   C67       1.0  0.80188  0.32537  0.43848  1.0000
  C  Sn46      1.0  0.83013  0.36871  0.48625  1.0000
  C  Sn47      1.0  0.81864  0.42202  0.51092  1.0000
  C   C68       1.0  0.77915  0.43087  0.48722  1.0000
  C  Sn48      1.0  0.75088  0.38756  0.43942  1.0000
  O  Te45      1.0  0.73463  0.29033  0.36700  1.0000
  O  Te46      1.0  0.86945  0.35883  0.50916  1.0000
  O  Te47      1.0  0.84642  0.46596  0.55870  1.0000
  O  Te48      1.0  0.71158  0.39741  0.41654  1.0000
  Mg  Mg23      1.0  0.89635  0.43190  0.57449  1.0000
  Mg  Mg24      1.0  0.68466  0.32436  0.35130  1.0000
  C  Sn49      1.0  0.77252  0.63547  0.77657  1.0000
  C   C69       1.0  0.80649  0.64817  0.91738  1.0000
  C  Sn50      1.0  0.71981  0.70304  0.06748  1.0000
  C  Sn51      1.0  0.70966  0.64148  0.07700  1.0000
  C   C70       1.0  0.78639  0.52636  0.93623  1.0000
  C  Sn52      1.0  0.76237  0.57391  0.78608  1.0000
  O  Te49      1.0  0.74897  0.68374  0.62781  1.0000
  O  Te50      1.0  0.75362  0.71688  0.20660  1.0000
  O  Te51      1.0  0.73325  0.59320  0.22592  1.0000
  O  Te52      1.0  0.72858  0.56009  0.64701  1.0000
  Mg  Mg25      1.0  0.77630  0.63529  0.38115  1.0000
  Mg  Mg26      1.0  0.70590  0.64164  0.47237  1.0000
  C  Sn53      1.0  0.83520  0.57573  0.57663  1.0000
  C   C71       1.0  0.82812  0.62688  0.43387  1.0000
  C  Sn54      1.0  0.79098  0.63744  0.27922  1.0000
  C  Sn55      1.0  0.76026  0.59603  0.26703  1.0000
  C   C72       1.0  0.76734  0.54492  0.40972  1.0000
  C  Sn56      1.0  0.80447  0.53432  0.56443  1.0000
  O  Te53      1.0  0.87255  0.56607  0.72994  1.0000
  O  Te54      1.0  0.78462  0.68888  0.13824  1.0000
  O  Te55      1.0  0.72288  0.60572  0.11354  1.0000
  O  Te56      1.0  0.81084  0.48292  0.70536  1.0000
  Mg  Mg27      1.0  0.83937  0.57987  0.95732  1.0000
  Mg  Mg28      1.0  0.86674  0.48947  0.88636  1.0000
  C  Sn57      1.0  0.93525  0.17624  0.46463  1.0000
  C   C73       1.0  0.93027  0.11494  0.53382  1.0000
  C  Sn58      1.0  0.89565  0.09965  0.55534  1.0000
  C  Sn59      1.0  0.86537  0.14660  0.50660  1.0000
  C   C74       1.0  0.87035  0.20786  0.43743  1.0000
  C  Sn60      1.0  0.90497  0.22320  0.41588  1.0000
  O  Te57      1.0  0.97010  0.19048  0.44426  1.0000
  O  Te58      1.0  0.89135  0.03804  0.62484  1.0000
  O  Te59      1.0  0.83050  0.13231  0.52703  1.0000
  O  Te60      1.0  0.90927  0.28476  0.34640  1.0000
  Mg  Mg29      1.0  0.83848  0.04174  0.62733  1.0000
  Mg  Mg30      1.0  0.96211  0.28110  0.34377  1.0000
  C  Sn61      1.0  0.90958  0.20052  0.85007  1.0000
  C   C75       1.0  0.88019  0.20561  0.90213  1.0000
  C  Sn62      1.0  0.76461  0.25843  0.02234  1.0000
  C  Sn63      1.0  0.78962  0.20258  0.09207  1.0000
  C   C76       1.0  0.81899  0.19752  0.04004  1.0000
  C  Sn64      1.0  0.93458  0.14467  0.91980  1.0000
  O  Te61      1.0  0.91395  0.25071  0.72974  1.0000
  O  Te62      1.0  0.73502  0.26460  0.07236  1.0000
  O  Te63      1.0  0.78522  0.15238  0.21248  1.0000
  O  Te64      1.0  0.96416  0.13852  0.86981  1.0000
  Mg  Mg31      1.0  0.74068  0.18327  0.24008  1.0000
  Mg  Mg32      1.0  0.95854  0.21984  0.70217  1.0000
  C  Sn65      1.0  0.13189  0.79790  0.82043  1.0000
  C   C77       1.0  0.13433  0.85884  0.73715  1.0000
  C  Sn66      1.0  0.15339  0.87202  0.63138  1.0000
  C  Sn67      1.0  0.17034  0.82328  0.60826  1.0000
  C   C78       1.0  0.16788  0.76239  0.69148  1.0000
  C  Sn68      1.0  0.14884  0.74916  0.79731  1.0000
  O  Te65      1.0  0.11270  0.78580  0.92557  1.0000
  O  Te66      1.0  0.15547  0.93330  0.54952  1.0000
  O  Te67      1.0  0.18954  0.83543  0.50302  1.0000
  O  Te68      1.0  0.14675  0.68792  0.87911  1.0000
  Mg  Mg33      1.0  0.18468  0.92639  0.41908  1.0000
  Mg  Mg34      1.0  0.00686  0.79721  0.00950  1.0000
  C  Sn69      1.0  0.34336  0.52107  0.58853  1.0000
  C   C79       1.0  0.32930  0.48052  0.69474  1.0000
  C  Sn70      1.0  0.35589  0.43319  0.83865  1.0000
  C  Sn71      1.0  0.39740  0.42625  0.87730  1.0000
  C   C80       1.0  0.41143  0.46679  0.77115  1.0000
  C  Sn72      1.0  0.38486  0.51413  0.62718  1.0000
  O  Te69      1.0  0.31624  0.56806  0.44534  1.0000
  O  Te70      1.0  0.34113  0.39321  0.94287  1.0000
  O  Te71      1.0  0.31384  0.48165  0.02063  1.0000
  O  Te72      1.0  0.39961  0.55410  0.52301  1.0000
  Mg  Mg35      1.0  0.27925  0.43884  0.12354  1.0000
  Mg  Mg36      1.0  0.35085  0.61094  0.34238  1.0000
  C  Sn73      1.0  0.22387  0.57753  0.76116  1.0000
  C   C81       1.0  0.23816  0.63588  0.75756  1.0000
  C  Sn74      1.0  0.27114  0.65117  0.72378  1.0000
  C  Sn75      1.0  0.29022  0.60726  0.69284  1.0000
  C   C82       1.0  0.27593  0.54896  0.69641  1.0000
  C  Sn76      1.0  0.24295  0.53362  0.73021  1.0000
  O  Te73      1.0  0.19085  0.56324  0.79518  1.0000
  O  Te74      1.0  0.28489  0.70979  0.72092  1.0000
  O  Te75      1.0  0.32326  0.62160  0.65880  1.0000
  O  Te76      1.0  0.22919  0.47505  0.73305  1.0000
  Mg  Mg37      1.0  0.33086  0.70745  0.66865  1.0000
  Mg  Mg38      1.0  0.18321  0.47735  0.78522  1.0000
  C  Sn77      1.0  0.28814  0.36433  0.91827  1.0000
  C   C83       1.0  0.28096  0.41621  0.77721  1.0000
  C  Sn78      1.0  0.24406  0.42672  0.62154  1.0000
  C  Sn79      1.0  0.21368  0.38453  0.60657  1.0000
  C   C84       1.0  0.22086  0.33269  0.74759  1.0000
  C  Sn80      1.0  0.25776  0.32214  0.90331  1.0000
  O  Te77      1.0  0.21457  0.45718  0.07265  1.0000
  O  Te78      1.0  0.23759  0.47890  0.48228  1.0000
  O  Te79      1.0  0.17655  0.39415  0.45202  1.0000
  O  Te80      1.0  0.15355  0.37244  0.04251  1.0000
  Mg  Mg39      1.0  0.18209  0.47191  0.29896  1.0000
  Mg  Mg40      1.0  0.20903  0.37940  0.22592  1.0000
  C  Sn81      1.0  0.13396  0.14492  0.61602  1.0000
  C   C85       1.0  0.14157  0.08386  0.72054  1.0000
  C  Sn82      1.0  0.17339  0.06720  0.89258  1.0000
  C  Sn83      1.0  0.19811  0.11252  0.96166  1.0000
  C   C86       1.0  0.19050  0.17354  0.85718  1.0000
  C  Sn84      1.0  0.15869  0.19024  0.68510  1.0000
  O  Te81      1.0  0.10199  0.16053  0.44439  1.0000
  O  Te82      1.0  0.18041  0.00587  0.99453  1.0000
  O  Te83      1.0  0.11943  0.19929  0.13344  1.0000
  O  Te84      1.0  0.15166  0.25154  0.58319  1.0000
  Mg  Mg41      1.0  0.11692  0.10973  0.22076  1.0000
  Mg  Mg42      1.0  0.10447  0.25016  0.35699  1.0000
  C  Sn85      1.0  0.65520  0.45378  0.01113  1.0000
  C   C87       1.0  0.66855  0.51278  0.00354  1.0000
  C  Sn86      1.0  0.81261  0.42589  0.97288  1.0000
  C  Sn87      1.0  0.83309  0.38155  0.94921  1.0000
  C   C88       1.0  0.81974  0.32260  0.95678  1.0000
  C  Sn88      1.0  0.78635  0.30701  0.98746  1.0000
  O  Te85      1.0  0.62175  0.43926  0.04192  1.0000
  O  Te86      1.0  0.82540  0.48516  0.96592  1.0000
  O  Te87      1.0  0.86656  0.39613  0.91841  1.0000
  O  Te88      1.0  0.77357  0.24779  0.99440  1.0000
  Mg  Mg43      1.0  0.87246  0.48292  0.92045  1.0000
  Mg  Mg44      1.0  0.61582  0.35243  0.03977  1.0000
