data_image0
_chemical_formula_structural       H24C60N16O8SnCSn2CSnTe4Mg2SnCSn2CSnTe4Mg2SnCSn2CSnTe4Mg2SnCSn2CSnTe4Mg2SnCSn2CSnTe4Mg2SnCSn2CSnTe4Mg2SnCSn2CSnTe4Mg2SnCSn2CSnTe4Mg2SnCSn2CSnTe4Mg2SnCSn2CSnTe4Mg2SnCSn2CSnTe4Mg2SnCSn2CSnTe4Mg2SnCSn2CSnTe4Mg2SnCSn2CSnTe4Mg2SnCSn2CSnTe4Mg2SnCSn2CSnTe4Mg2SnCSn2CSnTe4Mg2SnCSn2CSnTe4Mg2SnCSn2CSnTe4Mg2SnCSn2CSnTe4Mg2
_chemical_formula_sum              "H24 C100 N16 O8 Sn80 Te80 Mg40"
_cell_length_a       36.5324
_cell_length_b       22.9386
_cell_length_c       8.61984
_cell_angle_alpha    73.326
_cell_angle_beta     113.216
_cell_angle_gamma    95.2296

_symmetry_space_group_name_H-M    'P1'
_space_group_IT_number       1

loop_
  _space_group_symop_operation_xyz
  'x, y, z'

loop_
  _atom_site_type_symbol
  _atom_site_label
  _atom_site_symmetry_multiplicity
  _atom_site_fract_x
  _atom_site_fract_y
  _atom_site_fract_z
  _atom_site_occupancy
  H   H1        1.0  0.52587  0.59365  0.49762  1.0000
  H   H2        1.0  0.52645  0.37254  0.18547  1.0000
  H   H3        1.0  0.16348  0.97105  0.25006  1.0000
  H   H4        1.0  0.07633  0.11314  0.25520  1.0000
  H   H5        1.0  0.00455  0.11995  0.18119  1.0000
  H   H6        1.0  0.97787  0.85406  0.45334  1.0000
  H   H7        1.0  0.05160  0.84833  0.02508  1.0000
  H   H8        1.0  0.89130  0.99779  0.45389  1.0000
  H   H9        1.0  0.24110  0.22559  0.45614  1.0000
  H   H10       1.0  0.81518  0.74350  0.22826  1.0000
  H   H11       1.0  0.87503  0.30089  0.40404  1.0000
  H   H12       1.0  0.18212  0.66769  0.30315  1.0000
  H   H13       1.0  0.52898  0.60355  0.98925  1.0000
  H   H14       1.0  0.52399  0.36243  0.69197  1.0000
  H   H15       1.0  0.16169  0.96919  0.74852  1.0000
  H   H16       1.0  0.07574  0.10906  0.76852  1.0000
  H   H17       1.0  0.00403  0.11596  0.69820  1.0000
  H   H18       1.0  0.97996  0.85485  0.95330  1.0000
  H   H19       1.0  0.04940  0.84718  0.52279  1.0000
  H   H20       1.0  0.89286  0.99778  0.95581  1.0000
  H   H21       1.0  0.23846  0.22356  0.96164  1.0000
  H   H22       1.0  0.81471  0.74629  0.73463  1.0000
  H   H23       1.0  0.87469  0.30139  0.89589  1.0000
  H   H24       1.0  0.18107  0.66681  0.79918  1.0000
  C   C1        1.0  0.19075  0.71130  0.23310  1.0000
  C   C2        1.0  0.21531  0.23321  0.33022  1.0000
  C   C3        1.0  0.55565  0.45314  0.08280  1.0000
  C   C4        1.0  0.55640  0.51685  0.02984  1.0000
  C   C5        1.0  0.52840  0.55410  0.03104  1.0000
  C   C6        1.0  0.49953  0.52290  0.08895  1.0000
  C   C7        1.0  0.49899  0.45928  0.14266  1.0000
  C   C8        1.0  0.52701  0.42197  0.14222  1.0000
  C   C9        1.0  0.11550  0.02695  0.21565  1.0000
  C   C10       1.0  0.07416  0.03023  0.17919  1.0000
  C   C11       1.0  0.04920  0.98191  0.12612  1.0000
  C   C12       1.0  0.06609  0.92963  0.11673  1.0000
  C   C13       1.0  0.10812  0.92485  0.16935  1.0000
  C   C14       1.0  0.13147  0.97416  0.21406  1.0000
  C   C15       1.0  0.05682  0.07906  0.20138  1.0000
  C   C16       1.0  0.01676  0.08302  0.15931  1.0000
  C   C17       1.0  0.99028  0.03870  0.08965  1.0000
  C   C18       1.0  0.00720  0.98621  0.08157  1.0000
  C   C19       1.0  0.98216  0.93799  0.02847  1.0000
  C   C20       1.0  0.99760  0.88782  0.50786  1.0000
  C   C21       1.0  0.03951  0.88520  0.04778  1.0000
  C   C22       1.0  0.94829  0.04381  0.03593  1.0000
  C   C23       1.0  0.92338  0.99381  0.49347  1.0000
  C   C24       1.0  0.93910  0.94075  0.49272  1.0000
  C   C25       1.0  0.83866  0.73690  0.36045  1.0000
  C   C26       1.0  0.86445  0.25767  0.46667  1.0000
  C   C27       1.0  0.46439  0.44090  0.19365  1.0000
  C   C28       1.0  0.46556  0.54745  0.10728  1.0000
  C   C29       1.0  0.58829  0.52576  0.48953  1.0000
  C   C30       1.0  0.58933  0.42812  0.06360  1.0000
  C   C31       1.0  0.19010  0.71061  0.73184  1.0000
  C   C32       1.0  0.21417  0.23023  0.83141  1.0000
  C   C33       1.0  0.55322  0.44349  0.59335  1.0000
  C   C34       1.0  0.55367  0.50714  0.53989  1.0000
  C   C35       1.0  0.52543  0.54420  0.53947  1.0000
  C   C36       1.0  0.49649  0.51265  0.59594  1.0000
  C   C37       1.0  0.49580  0.44897  0.64902  1.0000
  C   C38       1.0  0.52423  0.41192  0.64987  1.0000
  C   C39       1.0  0.11398  0.02471  0.71761  1.0000
  C   C40       1.0  0.07281  0.02779  0.68415  1.0000
  C   C41       1.0  0.04769  0.97981  0.62985  1.0000
  C   C42       1.0  0.06438  0.92774  0.61807  1.0000
  C   C43       1.0  0.10637  0.92291  0.66957  1.0000
  C   C44       1.0  0.12975  0.97219  0.71401  1.0000
  C   C45       1.0  0.05589  0.07590  0.71126  1.0000
  C   C46       1.0  0.01590  0.07998  0.67104  1.0000
  C   C47       1.0  0.98909  0.03660  0.59761  1.0000
  C   C48       1.0  0.00574  0.98437  0.58649  1.0000
  C   C49       1.0  0.98052  0.93658  0.53155  1.0000
  C   C50       1.0  0.99947  0.88902  0.00673  1.0000
  C   C51       1.0  0.03759  0.88374  0.54793  1.0000
  C   C52       1.0  0.94702  0.04243  0.54128  1.0000
  C   C53       1.0  0.92486  0.99464  0.99162  1.0000
  C   C54       1.0  0.94079  0.94175  0.99076  1.0000
  C   C55       1.0  0.83887  0.73905  0.86539  1.0000
  C   C56       1.0  0.86591  0.25823  0.96744  1.0000
  C   C57       1.0  0.46079  0.43120  0.69823  1.0000
  C   C58       1.0  0.46245  0.53784  0.61150  1.0000
  C   C59       1.0  0.59115  0.53474  0.97913  1.0000
  C   C60       1.0  0.58765  0.41913  0.57773  1.0000
  N   N1        1.0  0.21804  0.71448  0.17064  1.0000
  N   N2        1.0  0.20693  0.28468  0.21003  1.0000
  N   N3        1.0  0.83850  0.25600  0.02867  1.0000
  N   N4        1.0  0.84491  0.68644  0.48391  1.0000
  N   N5        1.0  0.29376  0.50241  0.20998  1.0000
  N   N6        1.0  0.75867  0.46848  0.46766  1.0000
  N   N7        1.0  0.44456  0.49584  0.16604  1.0000
  N   N8        1.0  0.61011  0.47940  0.00344  1.0000
  N   N9        1.0  0.21744  0.71382  0.66962  1.0000
  N   N10       1.0  0.20707  0.28082  0.70806  1.0000
  N   N11       1.0  0.83584  0.25550  0.52092  1.0000
  N   N12       1.0  0.84560  0.68828  0.98778  1.0000
  N   N13       1.0  0.29254  0.49908  0.72325  1.0000
  N   N14       1.0  0.76049  0.47001  0.96209  1.0000
  N   N15       1.0  0.44170  0.48662  0.67270  1.0000
  N   N16       1.0  0.60816  0.47101  0.51672  1.0000
  O   O1        1.0  0.45733  0.60062  0.08169  1.0000
  O   O2        1.0  0.45481  0.38895  0.24787  1.0000
  O   O3        1.0  0.59812  0.57771  0.43687  1.0000
  O   O4        1.0  0.59773  0.37485  0.09101  1.0000
  O   O5        1.0  0.45385  0.59132  0.58018  1.0000
  O   O6        1.0  0.44999  0.37983  0.74903  1.0000
  O   O7        1.0  0.60190  0.58621  0.92886  1.0000
  O   O8        1.0  0.59665  0.36598  0.60798  1.0000
  C  Sn1       1.0  0.12476  0.76713  0.22915  1.0000
  C   C61       1.0  0.15671  0.76452  0.18059  1.0000
  C  Sn2       1.0  0.17820  0.81664  0.14439  1.0000
  C  Sn3       1.0  0.16756  0.87253  0.15709  1.0000
  C   C62       1.0  0.13564  0.87512  0.20565  1.0000
  C  Sn4       1.0  0.11412  0.82302  0.24185  1.0000
  O  Te1       1.0  0.10369  0.71446  0.26475  1.0000
  O  Te2       1.0  0.21002  0.81291  0.09603  1.0000
  O  Te3       1.0  0.18866  0.92522  0.12144  1.0000
  O  Te4       1.0  0.08233  0.82673  0.29020  1.0000
  Mg  Mg1       1.0  0.22964  0.89712  0.06072  1.0000
  Mg  Mg2       1.0  0.06270  0.74255  0.32563  1.0000
  C  Sn5       1.0  0.37222  0.45657  0.34817  1.0000
  C   C63       1.0  0.34172  0.50087  0.25368  1.0000
  C  Sn6       1.0  0.34169  0.54411  0.10182  1.0000
  C  Sn7       1.0  0.37277  0.54304  0.04309  1.0000
  C   C64       1.0  0.40324  0.49876  0.13753  1.0000
  C  Sn8       1.0  0.40330  0.45550  0.28944  1.0000
  O  Te5       1.0  0.37165  0.41379  0.49961  1.0000
  O  Te6       1.0  0.31089  0.58796  0.00960  1.0000
  O  Te7       1.0  0.46088  0.49077  0.89151  1.0000
  O  Te8       1.0  0.43408  0.41166  0.38161  1.0000
  Mg  Mg3       1.0  0.41235  0.54142  0.81090  1.0000
  Mg  Mg4       1.0  0.42020  0.36305  0.58026  1.0000
  C  Sn9       1.0  0.22384  0.56787  0.12517  1.0000
  C   C65       1.0  0.26260  0.56239  0.13572  1.0000
  C  Sn10      1.0  0.29061  0.60637  0.18315  1.0000
  C  Sn11      1.0  0.27967  0.65688  0.22094  1.0000
  C   C66       1.0  0.24094  0.66234  0.21040  1.0000
  C  Sn12      1.0  0.21290  0.61838  0.16295  1.0000
  O  Te9       1.0  0.19632  0.52335  0.07750  1.0000
  O  Te10      1.0  0.32917  0.59992  0.19276  1.0000
  O  Te11      1.0  0.30723  0.70142  0.26863  1.0000
  O  Te12      1.0  0.17436  0.62481  0.15337  1.0000
  Mg  Mg5       1.0  0.35605  0.67248  0.26359  1.0000
  Mg  Mg6       1.0  0.14747  0.55227  0.08264  1.0000
  C  Sn13      1.0  0.22532  0.43774  0.08193  1.0000
  C   C67       1.0  0.26001  0.45036  0.21257  1.0000
  C  Sn14      1.0  0.28278  0.40321  0.35351  1.0000
  C  Sn15      1.0  0.27065  0.34216  0.36406  1.0000
  C   C68       1.0  0.23598  0.32956  0.23347  1.0000
  C  Sn16      1.0  0.21318  0.37669  0.09248  1.0000
  O  Te13      1.0  0.29058  0.39049  0.94220  1.0000
  O  Te14      1.0  0.31734  0.41695  0.48256  1.0000
  O  Te15      1.0  0.29299  0.29429  0.50395  1.0000
  O  Te16      1.0  0.26621  0.26786  0.96348  1.0000
  Mg  Mg7       1.0  0.33775  0.33606  0.64718  1.0000
  Mg  Mg8       1.0  0.24580  0.34871  0.79876  1.0000
  C  Sn17      1.0  0.17714  0.08565  0.44132  1.0000
  C   C69       1.0  0.14264  0.08286  0.29562  1.0000
  C  Sn18      1.0  0.13309  0.12921  0.13874  1.0000
  C  Sn19      1.0  0.15856  0.17937  0.12720  1.0000
  C   C70       1.0  0.19303  0.18213  0.27283  1.0000
  C  Sn20      1.0  0.20260  0.13581  0.42979  1.0000
  O  Te17      1.0  0.18610  0.03880  0.59683  1.0000
  O  Te18      1.0  0.18600  0.03032  0.99486  1.0000
  O  Te19      1.0  0.23713  0.13113  0.97152  1.0000
  O  Te20      1.0  0.23724  0.13957  0.57359  1.0000
  Mg  Mg9       1.0  0.18660  0.10540  0.81166  1.0000
  Mg  Mg10      1.0  0.23668  0.06450  0.75682  1.0000
  C  Sn21      1.0  0.86433  0.89278  0.30811  1.0000
  C   C71       1.0  0.89953  0.89379  0.45253  1.0000
  C  Sn22      1.0  0.91975  0.83954  0.56614  1.0000
  C  Sn23      1.0  0.90448  0.78309  0.53471  1.0000
  C   C72       1.0  0.86930  0.78210  0.39036  1.0000
  C  Sn24      1.0  0.84906  0.83633  0.27668  1.0000
  O  Te21      1.0  0.84461  0.94757  0.19626  1.0000
  O  Te22      1.0  0.95488  0.84171  0.70968  1.0000
  O  Te23      1.0  0.92423  0.72828  0.64672  1.0000
  O  Te24      1.0  0.81395  0.83418  0.13321  1.0000
  Mg  Mg11      1.0  0.97098  0.75483  0.82445  1.0000
  Mg  Mg12      1.0  0.79784  0.92103  0.01830  1.0000
  C  Sn25      1.0  0.86587  0.89430  0.80804  1.0000
  C   C73       1.0  0.90118  0.89521  0.95206  1.0000
  C  Sn26      1.0  0.83338  0.93596  0.06735  1.0000
  C  Sn27      1.0  0.81754  0.87950  0.03802  1.0000
  C   C74       1.0  0.86982  0.78350  0.89405  1.0000
  C  Sn28      1.0  0.85003  0.83784  0.77871  1.0000
  O  Te25      1.0  0.78938  0.94920  0.69449  1.0000
  O  Te26      1.0  0.86863  0.93802  0.21046  1.0000
  O  Te27      1.0  0.83684  0.82458  0.15172  1.0000
  O  Te28      1.0  0.81481  0.83580  0.63566  1.0000
  Mg  Mg13      1.0  0.88396  0.85102  0.32807  1.0000
  Mg  Mg14      1.0  0.79946  0.92277  0.51792  1.0000
  C  Sn29      1.0  0.68598  0.42755  0.65156  1.0000
  C   C75       1.0  0.65390  0.46868  0.54842  1.0000
  C  Sn30      1.0  0.65295  0.50951  0.39145  1.0000
  C  Sn31      1.0  0.68473  0.50920  0.33634  1.0000
  C   C76       1.0  0.71679  0.46808  0.43942  1.0000
  C  Sn32      1.0  0.71776  0.42724  0.59645  1.0000
  O  Te29      1.0  0.68629  0.38713  0.80800  1.0000
  O  Te30      1.0  0.62057  0.55022  0.29059  1.0000
  O  Te31      1.0  0.68439  0.54967  0.17976  1.0000
  O  Te32      1.0  0.75011  0.38654  0.69725  1.0000
  Mg  Mg15      1.0  0.63375  0.59639  0.08772  1.0000
  Mg  Mg16      1.0  0.73696  0.34033  0.90009  1.0000
  C  Sn33      1.0  0.66012  0.51488  0.82072  1.0000
  C   C77       1.0  0.64531  0.47541  0.93814  1.0000
  C  Sn34      1.0  0.58335  0.52963  0.08939  1.0000
  C  Sn35      1.0  0.62462  0.52819  0.12407  1.0000
  C   C78       1.0  0.63941  0.56765  0.00672  1.0000
  C  Sn36      1.0  0.70139  0.51344  0.85541  1.0000
  O  Te33      1.0  0.63397  0.55539  0.67034  1.0000
  O  Te34      1.0  0.56785  0.49060  0.20480  1.0000
  O  Te35      1.0  0.65076  0.48763  0.27460  1.0000
  O  Te36      1.0  0.71686  0.55246  0.74006  1.0000
  Mg  Mg17      1.0  0.61543  0.44357  0.39201  1.0000
  Mg  Mg18      1.0  0.66933  0.59952  0.55287  1.0000
  C  Sn37      1.0  0.91029  0.31807  0.95201  1.0000
  C   C79       1.0  0.87214  0.32275  0.94911  1.0000
  C  Sn38      1.0  0.85201  0.27047  0.99820  1.0000
  C  Sn39      1.0  0.78284  0.30741  0.05139  1.0000
  C   C80       1.0  0.82097  0.30276  0.05430  1.0000
  C  Sn40      1.0  0.84112  0.35501  0.00520  1.0000
  O  Te37      1.0  0.92986  0.37095  0.90240  1.0000
  O  Te38      1.0  0.81389  0.27629  0.99418  1.0000
  O  Te39      1.0  0.76323  0.25452  0.10101  1.0000
  O  Te40      1.0  0.87923  0.34921  0.00923  1.0000
  Mg  Mg19      1.0  0.71174  0.28598  0.07380  1.0000
  Mg  Mg20      1.0  0.98141  0.33948  0.92973  1.0000
  C  Sn41      1.0  0.78118  0.58416  0.78118  1.0000
  C   C81       1.0  0.78824  0.53021  0.91663  1.0000
  C  Sn42      1.0  0.72321  0.62547  0.09038  1.0000
  C  Sn43      1.0  0.73901  0.68071  0.12959  1.0000
  C   C82       1.0  0.81951  0.63952  0.99419  1.0000
  C  Sn44      1.0  0.79698  0.63940  0.82039  1.0000
  O  Te41      1.0  0.75856  0.58294  0.60844  1.0000
  O  Te42      1.0  0.72988  0.57095  0.22355  1.0000
  O  Te43      1.0  0.76164  0.68189  0.30250  1.0000
  O  Te44      1.0  0.79030  0.69388  0.68727  1.0000
  Mg  Mg21      1.0  0.76253  0.59591  0.43829  1.0000
  Mg  Mg22      1.0  0.75764  0.66898  0.47251  1.0000
  C  Sn45      1.0  0.83934  0.56333  0.60082  1.0000
  C   C83       1.0  0.83112  0.61792  0.46723  1.0000
  C  Sn46      1.0  0.79395  0.62859  0.32798  1.0000
  C  Sn47      1.0  0.76437  0.58377  0.32219  1.0000
  C   C84       1.0  0.77259  0.52922  0.45574  1.0000
  C  Sn48      1.0  0.80976  0.51851  0.59503  1.0000
  O  Te45      1.0  0.87670  0.55363  0.73877  1.0000
  O  Te46      1.0  0.78643  0.68352  0.19592  1.0000
  O  Te47      1.0  0.72699  0.59351  0.18408  1.0000
  O  Te48      1.0  0.81728  0.46363  0.72704  1.0000
  Mg  Mg23      1.0  0.73099  0.67553  0.03536  1.0000
  Mg  Mg24      1.0  0.87270  0.47158  0.88770  1.0000
  C  Sn49      1.0  0.94292  0.17062  0.49373  1.0000
  C   C85       1.0  0.93494  0.10967  0.55757  1.0000
  C  Sn50      1.0  0.89853  0.09373  0.57376  1.0000
  C  Sn51      1.0  0.86947  0.13965  0.52502  1.0000
  C   C86       1.0  0.87745  0.20056  0.46120  1.0000
  C  Sn52      1.0  0.91387  0.21654  0.44500  1.0000
  O  Te49      1.0  0.97953  0.18551  0.47864  1.0000
  O  Te50      1.0  0.89124  0.03249  0.63797  1.0000
  O  Te51      1.0  0.83285  0.12471  0.54017  1.0000
  O  Te52      1.0  0.92116  0.27774  0.38081  1.0000
  Mg  Mg25      1.0  0.83688  0.03500  0.63441  1.0000
  Mg  Mg26      1.0  0.97549  0.27527  0.38422  1.0000
  C  Sn53      1.0  0.88723  0.13309  0.12176  1.0000
  C   C87       1.0  0.89220  0.19377  0.04086  1.0000
  C  Sn54      1.0  0.00081  0.11288  0.93070  1.0000
  C  Sn55      1.0  0.01721  0.06546  0.90067  1.0000
  C   C88       1.0  0.01224  0.00483  0.98152  1.0000
  C  Sn56      1.0  0.90363  0.08568  0.09173  1.0000
  O  Te53      1.0  0.86608  0.11993  0.23137  1.0000
  O  Te54      1.0  0.00539  0.17387  0.85134  1.0000
  O  Te55      1.0  0.03838  0.07867  0.79096  1.0000
  O  Te56      1.0  0.89904  0.02472  0.17104  1.0000
  Mg  Mg27      1.0  0.03662  0.16874  0.71282  1.0000
  Mg  Mg28      1.0  0.86780  0.02980  0.30950  1.0000
  C  Sn57      1.0  0.15718  0.86473  0.57716  1.0000
  C   C89       1.0  0.12630  0.86681  0.63272  1.0000
  C  Sn58      1.0  0.11874  0.81617  0.75116  1.0000
  C  Sn59      1.0  0.14256  0.76234  0.81552  1.0000
  C   C90       1.0  0.17342  0.76029  0.76000  1.0000
  C  Sn60      1.0  0.18100  0.81091  0.64152  1.0000
  O  Te57      1.0  0.16420  0.91590  0.45868  1.0000
  O  Te58      1.0  0.08769  0.81932  0.80474  1.0000
  O  Te59      1.0  0.13551  0.71115  0.93409  1.0000
  O  Te60      1.0  0.21203  0.80777  0.58797  1.0000
  Mg  Mg29      1.0  0.08981  0.73772  0.96806  1.0000
  Mg  Mg30      1.0  0.20995  0.88935  0.42473  1.0000
  C  Sn61      1.0  0.37422  0.55300  0.60706  1.0000
  C   C91       1.0  0.40464  0.50871  0.70481  1.0000
  C  Sn62      1.0  0.39713  0.45241  0.80307  1.0000
  C  Sn63      1.0  0.35842  0.44010  0.80356  1.0000
  C   C92       1.0  0.32803  0.48437  0.70583  1.0000
  C  Sn64      1.0  0.33551  0.54069  0.60755  1.0000
  O  Te61      1.0  0.38240  0.60897  0.50978  1.0000
  O  Te62      1.0  0.42802  0.40886  0.89981  1.0000
  O  Te63      1.0  0.35026  0.38408  0.90096  1.0000
  O  Te64      1.0  0.30464  0.58422  0.51083  1.0000
  Mg  Mg31      1.0  0.31457  0.43455  0.01147  1.0000
  Mg  Mg32      1.0  0.33049  0.65363  0.39907  1.0000
  C  Sn65      1.0  0.22000  0.58680  0.72719  1.0000
  C   C93       1.0  0.23474  0.64540  0.72274  1.0000
  C  Sn66      1.0  0.26874  0.66222  0.68543  1.0000
  C  Sn67      1.0  0.28840  0.61960  0.65176  1.0000
  C   C94       1.0  0.27366  0.56104  0.65618  1.0000
  C  Sn68      1.0  0.23966  0.54418  0.69351  1.0000
  O  Te65      1.0  0.18596  0.57097  0.76476  1.0000
  O  Te66      1.0  0.28292  0.72106  0.68178  1.0000
  O  Te67      1.0  0.32246  0.63547  0.61417  1.0000
  O  Te68      1.0  0.22548  0.48538  0.69714  1.0000
  Mg  Mg33      1.0  0.33031  0.72104  0.62427  1.0000
  Mg  Mg34      1.0  0.17808  0.48537  0.75454  1.0000
  C  Sn69      1.0  0.26016  0.35458  0.90638  1.0000
  C   C95       1.0  0.22959  0.33931  0.76519  1.0000
  C  Sn70      1.0  0.22095  0.37572  0.59385  1.0000
  C  Sn71      1.0  0.24335  0.42848  0.56294  1.0000
  C   C96       1.0  0.27391  0.44372  0.70407  1.0000
  C  Sn72      1.0  0.28256  0.40734  0.87548  1.0000
  O  Te69      1.0  0.18072  0.41262  0.07658  1.0000
  O  Te70      1.0  0.19023  0.35954  0.45483  1.0000
  O  Te71      1.0  0.23520  0.46555  0.39257  1.0000
  O  Te72      1.0  0.22570  0.51860  0.01444  1.0000
  Mg  Mg35      1.0  0.19048  0.42451  0.24654  1.0000
  Mg  Mg36      1.0  0.22548  0.45365  0.22276  1.0000
  C  Sn73      1.0  0.13996  0.14182  0.59572  1.0000
  C   C97       1.0  0.14413  0.08351  0.71082  1.0000
  C  Sn74      1.0  0.17019  0.07254  0.88650  1.0000
  C  Sn75      1.0  0.19254  0.12086  0.94847  1.0000
  C   C98       1.0  0.18836  0.17913  0.83341  1.0000
  C  Sn76      1.0  0.16231  0.19014  0.65769  1.0000
  O  Te73      1.0  0.11373  0.15174  0.42063  1.0000
  O  Te74      1.0  0.17386  0.01385  0.99907  1.0000
  O  Te75      1.0  0.13122  0.20599  0.12371  1.0000
  O  Te76      1.0  0.15864  0.24878  0.54516  1.0000
  Mg  Mg37      1.0  0.12588  0.11820  0.22622  1.0000
  Mg  Mg38      1.0  0.11904  0.23960  0.31802  1.0000
  C  Sn77      1.0  0.82075  0.41233  0.45224  1.0000
  C   C99       1.0  0.78259  0.41701  0.44925  1.0000
  C  Sn78      1.0  0.76219  0.36469  0.49549  1.0000
  C  Sn79      1.0  0.78031  0.30648  0.54588  1.0000
  C   C100      1.0  0.81845  0.30183  0.54889  1.0000
  C  Sn80      1.0  0.83887  0.35412  0.50264  1.0000
  O  Te77      1.0  0.84059  0.46524  0.40551  1.0000
  O  Te78      1.0  0.72406  0.37052  0.49143  1.0000
  O  Te79      1.0  0.76043  0.25355  0.59263  1.0000
  O  Te80      1.0  0.87698  0.34832  0.50671  1.0000
  Mg  Mg39      1.0  0.70904  0.28504  0.56657  1.0000
  Mg  Mg40      1.0  0.89203  0.43376  0.43169  1.0000
