data_image0
_chemical_formula_structural       H68C110N16C2Sn2C2HTe2HMgC2Sn2C2HTe2HMgC2Sn2C2HTe2HMgC2Sn2C2HTe2HMgC2Sn2C2HTe2HMgC2Sn2C2HTe2HMgC2Sn2C2HTe2HMgC2Sn2C2HTe2HMgC2Sn2C2HTe2HMgC2Sn2C2HTe2HMgC2Sn2C2HTe2HMg
_chemical_formula_sum              "H90 C154 N16 Sn22 Te22 Mg11"
_cell_length_a       37.1083
_cell_length_b       22.7698
_cell_length_c       9.04551
_cell_angle_alpha    73.4169
_cell_angle_beta     118.013
_cell_angle_gamma    93.479

_symmetry_space_group_name_H-M    'P1'
_space_group_IT_number       1

loop_
  _space_group_symop_operation_xyz
  'x, y, z'

loop_
  _atom_site_type_symbol
  _atom_site_label
  _atom_site_symmetry_multiplicity
  _atom_site_fract_x
  _atom_site_fract_y
  _atom_site_fract_z
  _atom_site_occupancy
  H   H1        1.0  0.10109  0.80396  0.30109  1.0000
  H   H2        1.0  0.13991  0.71101  0.34169  1.0000
  H   H3        1.0  0.20974  0.82373  0.12008  1.0000
  H   H4        1.0  0.17023  0.91745  0.07688  1.0000
  H   H5        1.0  0.23192  0.46396  0.48173  1.0000
  H   H6        1.0  0.19186  0.37090  0.48152  1.0000
  H   H7        1.0  0.30718  0.39121  0.03690  1.0000
  H   H8        1.0  0.18898  0.01933  0.00071  1.0000
  H   H9        1.0  0.23374  0.10461  0.05416  1.0000
  H   H10       1.0  0.15366  0.22457  0.07664  1.0000
  H   H11       1.0  0.11058  0.13778  0.00582  1.0000
  H   H12       1.0  0.55724  0.37595  0.16545  1.0000
  H   H13       1.0  0.49998  0.39165  0.22692  1.0000
  H   H14       1.0  0.16693  0.96880  0.25722  1.0000
  H   H15       1.0  0.07730  0.10917  0.26213  1.0000
  H   H16       1.0  0.00421  0.11577  0.18195  1.0000
  H   H17       1.0  0.97554  0.86194  0.41496  1.0000
  H   H18       1.0  0.05446  0.84878  0.01211  1.0000
  H   H19       1.0  0.88629  0.00331  0.42129  1.0000
  H   H20       1.0  0.90566  0.74135  0.12685  1.0000
  H   H21       1.0  0.95107  0.82649  0.18795  1.0000
  H   H22       1.0  0.73143  0.39684  0.13430  1.0000
  H   H23       1.0  0.82242  0.50123  0.20108  1.0000
  H   H24       1.0  0.86043  0.59656  0.20242  1.0000
  H   H25       1.0  0.73936  0.58076  0.14151  1.0000
  H   H26       1.0  0.85064  0.14653  0.07244  1.0000
  H   H27       1.0  0.88876  0.05107  0.11655  1.0000
  H   H28       1.0  0.26901  0.29778  0.03660  1.0000
  H   H29       1.0  0.66824  0.40589  0.15018  1.0000
  H   H30       1.0  0.77694  0.67471  0.13791  1.0000
  H   H31       1.0  0.24799  0.21182  0.96016  1.0000
  H   H32       1.0  0.80259  0.76032  0.19761  1.0000
  H   H33       1.0  0.86453  0.30920  0.37044  1.0000
  H   H34       1.0  0.19257  0.66207  0.32671  1.0000
  H   H35       1.0  0.45294  0.54815  0.14113  1.0000
  H   H36       1.0  0.60321  0.41492  0.05359  1.0000
  H   H37       1.0  0.09803  0.80644  0.81190  1.0000
  H   H38       1.0  0.13679  0.71274  0.85475  1.0000
  H   H39       1.0  0.20197  0.82338  0.60480  1.0000
  H   H40       1.0  0.16309  0.91775  0.56173  1.0000
  H   H41       1.0  0.18135  0.02590  0.53755  1.0000
  H   H42       1.0  0.22285  0.11303  0.60998  1.0000
  H   H43       1.0  0.14130  0.22969  0.58603  1.0000
  H   H44       1.0  0.09577  0.14417  0.53396  1.0000
  H   H45       1.0  0.55807  0.57178  0.97689  1.0000
  H   H46       1.0  0.50087  0.58739  0.03914  1.0000
  H   H47       1.0  0.16218  0.96851  0.75905  1.0000
  H   H48       1.0  0.07301  0.11057  0.76376  1.0000
  H   H49       1.0  0.99998  0.11945  0.67822  1.0000
  H   H50       1.0  0.98173  0.85477  0.93603  1.0000
  H   H51       1.0  0.04886  0.85285  0.50261  1.0000
  H   H52       1.0  0.89173  0.99702  0.93255  1.0000
  H   H53       1.0  0.87622  0.93917  0.66102  1.0000
  H   H54       1.0  0.83207  0.85374  0.59779  1.0000
  H   H55       1.0  0.70078  0.57771  0.76525  1.0000
  H   H56       1.0  0.63850  0.58750  0.79130  1.0000
  H   H57       1.0  0.81669  0.50864  0.69484  1.0000
  H   H58       1.0  0.85628  0.60178  0.69173  1.0000
  H   H59       1.0  0.74084  0.57983  0.65423  1.0000
  H   H60       1.0  0.95585  0.16067  0.87375  1.0000
  H   H61       1.0  0.91837  0.25516  0.83342  1.0000
  H   H62       1.0  0.77584  0.67576  0.65686  1.0000
  H   H63       1.0  0.23664  0.22186  0.52526  1.0000
  H   H64       1.0  0.81409  0.74982  0.69126  1.0000
  H   H65       1.0  0.86811  0.30653  0.85824  1.0000
  H   H66       1.0  0.18657  0.66263  0.82684  1.0000
  H   H67       1.0  0.44809  0.54848  0.63489  1.0000
  H   H68       1.0  0.60204  0.42049  0.56207  1.0000
  C   C1        1.0  0.13269  0.86759  0.18438  1.0000
  C   C2        1.0  0.12419  0.80850  0.25768  1.0000
  C   C3        1.0  0.14642  0.75631  0.28256  1.0000
  C   C4        1.0  0.17765  0.76113  0.23420  1.0000
  C   C5        1.0  0.18618  0.82012  0.16071  1.0000
  C   C6        1.0  0.16423  0.87206  0.13749  1.0000
  C   C7        1.0  0.19955  0.70561  0.25736  1.0000
  C   C8        1.0  0.14305  0.07573  0.26707  1.0000
  C   C9        1.0  0.17529  0.06933  0.43641  1.0000
  C   C10       1.0  0.19861  0.11846  0.47683  1.0000
  C   C11       1.0  0.19080  0.17493  0.34729  1.0000
  C   C12       1.0  0.15898  0.18096  0.17625  1.0000
  C   C13       1.0  0.13531  0.13252  0.13780  1.0000
  C   C14       1.0  0.21536  0.22659  0.38644  1.0000
  C   C15       1.0  0.54493  0.42224  0.13890  1.0000
  C   C16       1.0  0.56149  0.47320  0.06828  1.0000
  C   C17       1.0  0.51355  0.54116  0.06750  1.0000
  C   C18       1.0  0.49682  0.49020  0.13708  1.0000
  C   C19       1.0  0.51317  0.43047  0.17311  1.0000
  C   C20       1.0  0.46278  0.49998  0.16745  1.0000
  C   C21       1.0  0.11734  0.02462  0.22026  1.0000
  C   C22       1.0  0.07544  0.02824  0.17841  1.0000
  C   C23       1.0  0.05064  0.98082  0.11852  1.0000
  C   C24       1.0  0.06842  0.92893  0.10833  1.0000
  C   C25       1.0  0.11129  0.92354  0.16706  1.0000
  C   C26       1.0  0.13429  0.97240  0.21627  1.0000
  C   C27       1.0  0.05755  0.07622  0.20259  1.0000
  C   C28       1.0  0.01683  0.08005  0.15716  1.0000
  C   C29       1.0  0.99017  0.03690  0.08070  1.0000
  C   C30       1.0  0.00802  0.98508  0.07049  1.0000
  C   C31       1.0  0.98334  0.93731  0.01281  1.0000
  C   C32       1.0  0.99540  0.89428  0.47669  1.0000
  C   C33       1.0  0.04188  0.88504  0.03518  1.0000
  C   C34       1.0  0.94722  0.04256  0.02098  1.0000
  C   C35       1.0  0.91896  0.99910  0.46317  1.0000
  C   C36       1.0  0.93562  0.94661  0.45854  1.0000
  C   C37       1.0  0.89972  0.78489  0.02625  1.0000
  C   C38       1.0  0.92470  0.83245  0.05949  1.0000
  C   C39       1.0  0.77483  0.54007  0.41963  1.0000
  C   C40       1.0  0.67420  0.44272  0.05933  1.0000
  C   C41       1.0  0.71001  0.43709  0.04919  1.0000
  C   C42       1.0  0.81302  0.53970  0.08317  1.0000
  C   C43       1.0  0.83402  0.59227  0.08379  1.0000
  C   C44       1.0  0.81883  0.64547  0.41683  1.0000
  C   C45       1.0  0.78530  0.63941  0.26144  1.0000
  C   C46       1.0  0.76397  0.58679  0.26264  1.0000
  C   C47       1.0  0.83225  0.74854  0.31816  1.0000
  C   C48       1.0  0.59471  0.46311  0.03329  1.0000
  C   C49       1.0  0.87373  0.14872  0.02960  1.0000
  C   C50       1.0  0.89490  0.09583  0.05278  1.0000
  C   C51       1.0  0.85639  0.26607  0.43638  1.0000
  C   C52       1.0  0.12737  0.86883  0.68165  1.0000
  C   C53       1.0  0.12001  0.81014  0.76263  1.0000
  C   C54       1.0  0.14207  0.75767  0.78788  1.0000
  C   C55       1.0  0.17188  0.76179  0.73158  1.0000
  C   C56       1.0  0.17940  0.82046  0.65085  1.0000
  C   C57       1.0  0.15770  0.87280  0.62772  1.0000
  C   C58       1.0  0.27268  0.43203  0.75823  1.0000
  C   C59       1.0  0.23981  0.42698  0.60160  1.0000
  C   C60       1.0  0.21760  0.37570  0.60131  1.0000
  C   C61       1.0  0.22865  0.32711  0.75609  1.0000
  C   C62       1.0  0.26156  0.33278  0.91349  1.0000
  C   C63       1.0  0.28302  0.38529  0.91454  1.0000
  C   C64       1.0  0.19341  0.70573  0.75507  1.0000
  C   C65       1.0  0.13921  0.07584  0.76348  1.0000
  C   C66       1.0  0.17850  0.06533  0.90923  1.0000
  C   C67       1.0  0.20362  0.11338  0.93935  1.0000
  C   C68       1.0  0.19028  0.17316  0.82315  1.0000
  C   C69       1.0  0.15091  0.18365  0.67709  1.0000
  C   C70       1.0  0.12585  0.13607  0.64866  1.0000
  C   C71       1.0  0.21691  0.22330  0.84829  1.0000
  C   C72       1.0  0.54535  0.53294  0.03339  1.0000
  C   C73       1.0  0.45832  0.50024  0.66443  1.0000
  C   C74       1.0  0.11290  0.02554  0.72097  1.0000
  C   C75       1.0  0.07085  0.03019  0.67756  1.0000
  C   C76       1.0  0.04558  0.98363  0.61494  1.0000
  C   C77       1.0  0.06313  0.93160  0.60414  1.0000
  C   C78       1.0  0.10611  0.92490  0.66559  1.0000
  C   C79       1.0  0.12954  0.97277  0.71780  1.0000
  C   C80       1.0  0.05311  0.07819  0.70219  1.0000
  C   C81       1.0  0.01228  0.08320  0.65406  1.0000
  C   C82       1.0  0.98525  0.04079  0.57573  1.0000
  C   C83       1.0  0.00277  0.98894  0.56407  1.0000
  C   C84       1.0  0.97762  0.94228  0.50127  1.0000
  C   C85       1.0  0.00128  0.88867  0.99126  1.0000
  C   C86       1.0  0.03627  0.88909  0.52583  1.0000
  C   C87       1.0  0.94230  0.04703  0.51624  1.0000
  C   C88       1.0  0.92435  0.99352  0.97310  1.0000
  C   C89       1.0  0.94156  0.94086  0.97204  1.0000
  C   C90       1.0  0.91596  0.88939  0.92961  1.0000
  C   C91       1.0  0.88227  0.89616  0.76362  1.0000
  C   C92       1.0  0.85758  0.84794  0.72846  1.0000
  C   C93       1.0  0.86556  0.79194  0.86008  1.0000
  C   C94       1.0  0.77892  0.53543  0.92919  1.0000
  C   C95       1.0  0.72036  0.48482  0.94126  1.0000
  C   C96       1.0  0.69383  0.53931  0.84834  1.0000
  C   C97       1.0  0.65863  0.54520  0.86253  1.0000
  C   C98       1.0  0.64748  0.49688  0.96605  1.0000
  C   C99       1.0  0.80829  0.54547  0.57417  1.0000
  C   C100      1.0  0.83034  0.59694  0.57234  1.0000
  C   C101      1.0  0.82098  0.64278  0.93190  1.0000
  C   C102      1.0  0.78639  0.63823  0.77763  1.0000
  C   C103      1.0  0.76617  0.58453  0.77557  1.0000
  C   C104      1.0  0.83889  0.74209  0.82644  1.0000
  C   C105      1.0  0.59189  0.46861  0.53446  1.0000
  C   C106      1.0  0.92576  0.09892  0.00206  1.0000
  C   C107      1.0  0.93385  0.15741  0.92284  1.0000
  C   C108      1.0  0.91238  0.21040  0.89810  1.0000
  C   C109      1.0  0.88224  0.20713  0.95212  1.0000
  C   C110      1.0  0.86110  0.26346  0.92964  1.0000
  N   N1        1.0  0.22569  0.70711  0.19950  1.0000
  N   N2        1.0  0.44498  0.45460  0.22128  1.0000
  N   N3        1.0  0.21111  0.27440  0.25930  1.0000
  N   N4        1.0  0.82942  0.26528  0.48960  1.0000
  N   N5        1.0  0.60867  0.51436  0.47535  1.0000
  N   N6        1.0  0.84322  0.69509  0.43332  1.0000
  N   N7        1.0  0.29964  0.48512  0.25961  1.0000
  N   N8        1.0  0.75292  0.48566  0.42620  1.0000
  N   N9        1.0  0.21928  0.70644  0.69630  1.0000
  N   N10       1.0  0.44091  0.45503  0.72169  1.0000
  N   N11       1.0  0.20420  0.27771  0.73855  1.0000
  N   N12       1.0  0.83553  0.26251  0.98988  1.0000
  N   N13       1.0  0.61306  0.50811  0.98165  1.0000
  N   N14       1.0  0.84495  0.69279  0.95272  1.0000
  N   N15       1.0  0.29479  0.48617  0.75435  1.0000
  N   N16       1.0  0.75758  0.48049  0.93374  1.0000
  C   C111      1.0  0.39375  0.41396  0.36823  1.0000
  C   C112      1.0  0.40621  0.45105  0.25102  1.0000
  C  Sn1       1.0  0.38312  0.50589  0.13141  1.0000
  C  Sn2       1.0  0.34690  0.52382  0.12945  1.0000
  C   C113      1.0  0.33471  0.48641  0.24733  1.0000
  C   C114      1.0  0.35804  0.43162  0.36643  1.0000
  H   H69       1.0  0.41181  0.37158  0.46045  1.0000
  O  Te1       1.0  0.39599  0.54239  0.01518  1.0000
  O  Te2       1.0  0.32325  0.57841  0.01133  1.0000
  H   H70       1.0  0.34840  0.40293  0.45724  1.0000
  Mg  Mg1       1.0  0.46411  0.51019  0.87884  1.0000
  C   C115      1.0  0.51621  0.55032  0.55026  1.0000
  C   C116      1.0  0.49460  0.50526  0.60769  1.0000
  C  Sn3       1.0  0.50691  0.44297  0.65489  1.0000
  C  Sn4       1.0  0.54152  0.42562  0.64432  1.0000
  C   C117      1.0  0.56295  0.47106  0.58683  1.0000
  C   C118      1.0  0.55036  0.53324  0.53986  1.0000
  H   H71       1.0  0.50648  0.59844  0.51401  1.0000
  O  Te3       1.0  0.48496  0.39855  0.71193  1.0000
  O  Te4       1.0  0.55450  0.36371  0.69075  1.0000
  H   H72       1.0  0.56711  0.56812  0.49551  1.0000
  Mg  Mg2       1.0  0.51458  0.32015  0.76063  1.0000
  C   C119      1.0  0.91653  0.20738  0.40234  1.0000
  C   C120      1.0  0.88415  0.21246  0.43734  1.0000
  C  Sn5       1.0  0.87087  0.15988  0.51583  1.0000
  C  Sn6       1.0  0.89045  0.10120  0.56000  1.0000
  C   C121      1.0  0.92284  0.09661  0.52456  1.0000
  C   C122      1.0  0.93587  0.14952  0.44592  1.0000
  H   H73       1.0  0.92664  0.24832  0.34159  1.0000
  O  Te5       1.0  0.83846  0.16577  0.54982  1.0000
  O  Te6       1.0  0.87780  0.04790  0.63861  1.0000
  H   H74       1.0  0.96096  0.14558  0.41895  1.0000
  Mg  Mg3       1.0  0.83229  0.07965  0.65874  1.0000
  C   C123      1.0  0.29986  0.61413  0.22216  1.0000
  C   C124      1.0  0.28720  0.55461  0.24078  1.0000
  C  Sn7       1.0  0.24879  0.54367  0.23093  1.0000
  C  Sn8       1.0  0.22263  0.59333  0.20184  1.0000
  C   C125      1.0  0.23558  0.65271  0.18325  1.0000
  C   C126      1.0  0.27408  0.66314  0.19339  1.0000
  H   H75       1.0  0.32965  0.62221  0.22990  1.0000
  O  Te7       1.0  0.23662  0.48391  0.24990  1.0000
  O  Te8       1.0  0.18408  0.58369  0.19137  1.0000
  H   H76       1.0  0.28387  0.70924  0.17885  1.0000
  Mg  Mg4       1.0  0.18127  0.49401  0.22554  1.0000
  C   C127      1.0  0.28461  0.64257  0.72383  1.0000
  C   C128      1.0  0.24459  0.65345  0.69213  1.0000
  C  Sn9       1.0  0.21925  0.60531  0.68769  1.0000
  C  Sn10      1.0  0.23434  0.54521  0.71561  1.0000
  C   C129      1.0  0.27443  0.53479  0.74734  1.0000
  C   C130      1.0  0.29952  0.58330  0.75144  1.0000
  H   H77       1.0  0.30403  0.68009  0.72710  1.0000
  O  Te9       1.0  0.17934  0.61700  0.65578  1.0000
  O  Te10      1.0  0.20967  0.49626  0.71194  1.0000
  H   H78       1.0  0.33051  0.57485  0.77610  1.0000
  Mg  Mg5       1.0  0.15747  0.53525  0.66342  1.0000
  C   C131      1.0  0.75861  0.35310  0.95334  1.0000
  C   C132      1.0  0.77285  0.41080  0.96348  1.0000
  C  Sn11      1.0  0.81174  0.42306  0.98038  1.0000
  C  Sn12      1.0  0.83676  0.37660  0.98717  1.0000
  C   C133      1.0  0.82222  0.31904  0.97681  1.0000
  C   C134      1.0  0.78326  0.30726  0.95997  1.0000
  H   H79       1.0  0.72846  0.34399  0.94022  1.0000
  O  Te11      1.0  0.82550  0.48095  0.99039  1.0000
  O  Te12      1.0  0.76507  0.49006  0.00396  1.0000
  H   H80       1.0  0.77223  0.26259  0.95201  1.0000
  Mg  Mg6       1.0  0.77020  0.57624  0.01259  1.0000
  C   C135      1.0  0.34969  0.53380  0.62172  1.0000
  C   C136      1.0  0.33298  0.49137  0.71300  1.0000
  C  Sn13      1.0  0.35479  0.43493  0.82629  1.0000
  C  Sn14      1.0  0.39406  0.42085  0.84838  1.0000
  C   C137      1.0  0.41053  0.46362  0.75656  1.0000
  C   C138      1.0  0.38843  0.51995  0.64349  1.0000
  H   H81       1.0  0.33261  0.57740  0.53430  1.0000
  O  Te13      1.0  0.33762  0.39306  0.91642  1.0000
  O  Te14      1.0  0.41652  0.36479  0.96083  1.0000
  H   H82       1.0  0.40140  0.55281  0.57292  1.0000
  Mg  Mg7       1.0  0.26944  0.42520  0.05475  1.0000
  C   C139      1.0  0.27821  0.33872  0.45394  1.0000
  C   C140      1.0  0.24228  0.32592  0.32121  1.0000
  C  Sn15      1.0  0.22382  0.36775  0.15375  1.0000
  C  Sn16      1.0  0.24174  0.42339  0.11890  1.0000
  C   C141      1.0  0.27770  0.43576  0.25254  1.0000
  C   C142      1.0  0.29591  0.39358  0.41966  1.0000
  H   H83       1.0  0.29231  0.30608  0.58322  1.0000
  O  Te15      1.0  0.18792  0.35424  0.02268  1.0000
  O  Te16      1.0  0.33461  0.36356  0.95269  1.0000
  H   H84       1.0  0.32374  0.40349  0.52236  1.0000
  Mg  Mg8       1.0  0.28581  0.32438  0.81722  1.0000
  C   C143      1.0  0.86173  0.90078  0.23226  1.0000
  C   C144      1.0  0.89874  0.90088  0.38025  1.0000
  C  Sn17      1.0  0.91742  0.84627  0.51439  1.0000
  C  Sn18      1.0  0.89861  0.79060  0.49972  1.0000
  C   C145      1.0  0.86159  0.79098  0.35108  1.0000
  C   C146      1.0  0.84317  0.84588  0.21765  1.0000
  H   H85       1.0  0.84748  0.94325  0.12897  1.0000
  O  Te17      1.0  0.95439  0.84720  0.66137  1.0000
  O  Te18      1.0  0.91662  0.73537  0.63182  1.0000
  H   H86       1.0  0.81452  0.84578  0.10304  1.0000
  Mg  Mg9       1.0  0.96703  0.76014  0.80664  1.0000
  C   C147      1.0  0.67851  0.55299  0.31799  1.0000
  C   C148      1.0  0.71065  0.50649  0.41391  1.0000
  C  Sn19      1.0  0.70874  0.45490  0.53768  1.0000
  C  Sn20      1.0  0.67398  0.44989  0.56562  1.0000
  C   C149      1.0  0.64198  0.49664  0.46891  1.0000
  C   C150      1.0  0.64421  0.54808  0.34543  1.0000
  H   H87       1.0  0.68022  0.59278  0.22238  1.0000
  O  Te19      1.0  0.74113  0.40887  0.63241  1.0000
  O  Te20      1.0  0.67128  0.39881  0.68846  1.0000
  H   H88       1.0  0.61931  0.58405  0.27111  1.0000
  Mg  Mg10      1.0  0.72323  0.34816  0.78523  1.0000
  C   C151      1.0  0.82190  0.42067  0.47605  1.0000
  C   C152      1.0  0.78250  0.43080  0.45217  1.0000
  C  Sn21      1.0  0.75741  0.38240  0.44975  1.0000
  C  Sn22      1.0  0.77213  0.32280  0.47173  1.0000
  C   C153      1.0  0.81160  0.31313  0.49565  1.0000
  C   C154      1.0  0.83644  0.36189  0.49780  1.0000
  H   H89       1.0  0.84113  0.45838  0.47781  1.0000
  O  Te21      1.0  0.71813  0.39332  0.42569  1.0000
  O  Te22      1.0  0.74770  0.27360  0.46992  1.0000
  H   H90       1.0  0.86695  0.35403  0.51640  1.0000
  Mg  Mg11      1.0  0.69638  0.31151  0.43293  1.0000
