data_image0
_chemical_formula_structural       H64C120N16O8C2Sn2C2HTe2HMgC2Sn2C2HTe2HMgC2Sn2C2HTe2HMgC2Sn2C2HTe2HMgC2Sn2C2HTe2HMgC2Sn2C2HTe2HMgC2Sn2C2HTe2HMgC2Sn2C2HTe2HMgC2Sn2C2HTe2HMgC2Sn2C2HTe2HMg
_chemical_formula_sum              "H84 C160 N16 O8 Sn20 Te20 Mg10"
_cell_length_a       36.5324
_cell_length_b       22.9386
_cell_length_c       8.61984
_cell_angle_alpha    73.326
_cell_angle_beta     113.216
_cell_angle_gamma    95.2296

_symmetry_space_group_name_H-M    'P1'
_space_group_IT_number       1

loop_
  _space_group_symop_operation_xyz
  'x, y, z'

loop_
  _atom_site_type_symbol
  _atom_site_label
  _atom_site_symmetry_multiplicity
  _atom_site_fract_x
  _atom_site_fract_y
  _atom_site_fract_z
  _atom_site_occupancy
  H   H1        1.0  0.32036  0.57798  0.49922  1.0000
  H   H2        1.0  0.23046  0.47568  0.46083  1.0000
  H   H3        1.0  0.19294  0.37853  0.46209  1.0000
  H   H4        1.0  0.30862  0.40192  0.49057  1.0000
  H   H5        1.0  0.18297  0.02710  0.00099  1.0000
  H   H6        1.0  0.22549  0.11622  0.04972  1.0000
  H   H7        1.0  0.14792  0.23036  0.05260  1.0000
  H   H8        1.0  0.10423  0.14140  0.00802  1.0000
  H   H9        1.0  0.52587  0.59365  0.49762  1.0000
  H   H10       1.0  0.52645  0.37254  0.18547  1.0000
  H   H11       1.0  0.16348  0.97105  0.25006  1.0000
  H   H12       1.0  0.07633  0.11314  0.25520  1.0000
  H   H13       1.0  0.00455  0.11995  0.18119  1.0000
  H   H14       1.0  0.97787  0.85406  0.45334  1.0000
  H   H15       1.0  0.05160  0.84833  0.02508  1.0000
  H   H16       1.0  0.89130  0.99779  0.45389  1.0000
  H   H17       1.0  0.90521  0.73993  0.14767  1.0000
  H   H18       1.0  0.95031  0.82740  0.19684  1.0000
  H   H19       1.0  0.82206  0.49248  0.22662  1.0000
  H   H20       1.0  0.85925  0.58983  0.23163  1.0000
  H   H21       1.0  0.74286  0.57202  0.19406  1.0000
  H   H22       1.0  0.85299  0.14135  0.11515  1.0000
  H   H23       1.0  0.88949  0.04922  0.14658  1.0000
  H   H24       1.0  0.38517  0.57357  0.48025  1.0000
  H   H25       1.0  0.27369  0.30510  0.49366  1.0000
  H   H26       1.0  0.77728  0.66879  0.20012  1.0000
  H   H27       1.0  0.24110  0.22559  0.45614  1.0000
  H   H28       1.0  0.81518  0.74350  0.22826  1.0000
  H   H29       1.0  0.87503  0.30089  0.40404  1.0000
  H   H30       1.0  0.18212  0.66769  0.30315  1.0000
  H   H31       1.0  0.09366  0.80344  0.80906  1.0000
  H   H32       1.0  0.13060  0.71309  0.83819  1.0000
  H   H33       1.0  0.20390  0.82819  0.59642  1.0000
  H   H34       1.0  0.16666  0.91930  0.56591  1.0000
  H   H35       1.0  0.35129  0.41307  0.92329  1.0000
  H   H36       1.0  0.41450  0.40658  0.89735  1.0000
  H   H37       1.0  0.22955  0.47911  0.95708  1.0000
  H   H38       1.0  0.19138  0.38263  0.96502  1.0000
  H   H39       1.0  0.30550  0.39900  0.00145  1.0000
  H   H40       1.0  0.18490  0.02948  0.49827  1.0000
  H   H41       1.0  0.22726  0.11873  0.54674  1.0000
  H   H42       1.0  0.14762  0.22712  0.55038  1.0000
  H   H43       1.0  0.10329  0.13840  0.50746  1.0000
  H   H44       1.0  0.52898  0.60355  0.98925  1.0000
  H   H45       1.0  0.52399  0.36243  0.69197  1.0000
  H   H46       1.0  0.16169  0.96919  0.74852  1.0000
  H   H47       1.0  0.07574  0.10906  0.76852  1.0000
  H   H48       1.0  0.00403  0.11596  0.69820  1.0000
  H   H49       1.0  0.97996  0.85485  0.95330  1.0000
  H   H50       1.0  0.04940  0.84718  0.52279  1.0000
  H   H51       1.0  0.89286  0.99778  0.95581  1.0000
  H   H52       1.0  0.87211  0.94165  0.70466  1.0000
  H   H53       1.0  0.82862  0.85382  0.65064  1.0000
  H   H54       1.0  0.82325  0.48985  0.72198  1.0000
  H   H55       1.0  0.86117  0.58638  0.72145  1.0000
  H   H56       1.0  0.74792  0.57119  0.68630  1.0000
  H   H57       1.0  0.96090  0.16250  0.88931  1.0000
  H   H58       1.0  0.92492  0.25391  0.86058  1.0000
  H   H59       1.0  0.27149  0.30161  0.99825  1.0000
  H   H60       1.0  0.78184  0.66853  0.69452  1.0000
  H   H61       1.0  0.23846  0.22356  0.96164  1.0000
  H   H62       1.0  0.81471  0.74629  0.73463  1.0000
  H   H63       1.0  0.87469  0.30139  0.89589  1.0000
  H   H64       1.0  0.18107  0.66681  0.79918  1.0000
  C   C1        1.0  0.27243  0.44624  0.22028  1.0000
  C   C2        1.0  0.23859  0.44088  0.07429  1.0000
  C   C3        1.0  0.21740  0.38741  0.07858  1.0000
  C   C4        1.0  0.23011  0.33648  0.22665  1.0000
  C   C5        1.0  0.26395  0.34234  0.37384  1.0000
  C   C6        1.0  0.28426  0.39693  0.37192  1.0000
  C   C7        1.0  0.19075  0.71130  0.23310  1.0000
  C   C8        1.0  0.14143  0.07910  0.24986  1.0000
  C   C9        1.0  0.17675  0.07330  0.39998  1.0000
  C   C10       1.0  0.20057  0.12351  0.42720  1.0000
  C   C11       1.0  0.19023  0.18075  0.30270  1.0000
  C   C12       1.0  0.15523  0.18636  0.15027  1.0000
  C   C13       1.0  0.13121  0.13672  0.12589  1.0000
  C   C14       1.0  0.21531  0.23321  0.33022  1.0000
  C   C15       1.0  0.55565  0.45314  0.08280  1.0000
  C   C16       1.0  0.55640  0.51685  0.02984  1.0000
  C   C17       1.0  0.52840  0.55410  0.03104  1.0000
  C   C18       1.0  0.49953  0.52290  0.08895  1.0000
  C   C19       1.0  0.49899  0.45928  0.14266  1.0000
  C   C20       1.0  0.52701  0.42197  0.14222  1.0000
  C   C21       1.0  0.11550  0.02695  0.21565  1.0000
  C   C22       1.0  0.07416  0.03023  0.17919  1.0000
  C   C23       1.0  0.04920  0.98191  0.12612  1.0000
  C   C24       1.0  0.06609  0.92963  0.11673  1.0000
  C   C25       1.0  0.10812  0.92485  0.16935  1.0000
  C   C26       1.0  0.13147  0.97416  0.21406  1.0000
  C   C27       1.0  0.05682  0.07906  0.20138  1.0000
  C   C28       1.0  0.01676  0.08302  0.15931  1.0000
  C   C29       1.0  0.99028  0.03870  0.08965  1.0000
  C   C30       1.0  0.00720  0.98621  0.08157  1.0000
  C   C31       1.0  0.98216  0.93799  0.02847  1.0000
  C   C32       1.0  0.99760  0.88782  0.50786  1.0000
  C   C33       1.0  0.03951  0.88520  0.04778  1.0000
  C   C34       1.0  0.94829  0.04381  0.03593  1.0000
  C   C35       1.0  0.92338  0.99381  0.49347  1.0000
  C   C36       1.0  0.93910  0.94075  0.49272  1.0000
  C   C37       1.0  0.89875  0.78414  0.05099  1.0000
  C   C38       1.0  0.92354  0.83279  0.07780  1.0000
  C   C39       1.0  0.77981  0.52482  0.46114  1.0000
  C   C40       1.0  0.81393  0.53126  0.11084  1.0000
  C   C41       1.0  0.83452  0.58516  0.11362  1.0000
  C   C42       1.0  0.82192  0.63471  0.46323  1.0000
  C   C43       1.0  0.78764  0.63021  0.31623  1.0000
  C   C44       1.0  0.76747  0.57560  0.31356  1.0000
  C   C45       1.0  0.83866  0.73690  0.36045  1.0000
  C   C46       1.0  0.92823  0.09904  0.02281  1.0000
  C   C47       1.0  0.87645  0.14514  0.06513  1.0000
  C   C48       1.0  0.89680  0.09410  0.08162  1.0000
  C   C49       1.0  0.86445  0.25767  0.46667  1.0000
  C   C50       1.0  0.46439  0.44090  0.19365  1.0000
  C   C51       1.0  0.46556  0.54745  0.10728  1.0000
  C   C52       1.0  0.58829  0.52576  0.48953  1.0000
  C   C53       1.0  0.58933  0.42812  0.06360  1.0000
  C   C54       1.0  0.12677  0.86819  0.68128  1.0000
  C   C55       1.0  0.11689  0.80909  0.75726  1.0000
  C   C56       1.0  0.13804  0.75835  0.77550  1.0000
  C   C57       1.0  0.16955  0.76456  0.71743  1.0000
  C   C58       1.0  0.17982  0.82358  0.64305  1.0000
  C   C59       1.0  0.15898  0.87405  0.62678  1.0000
  C   C60       1.0  0.27098  0.44317  0.72905  1.0000
  C   C61       1.0  0.33060  0.49693  0.71480  1.0000
  C   C62       1.0  0.35785  0.44848  0.82444  1.0000
  C   C63       1.0  0.39439  0.44493  0.81187  1.0000
  C   C64       1.0  0.40490  0.49045  0.68977  1.0000
  C   C65       1.0  0.37798  0.53890  0.57907  1.0000
  C   C66       1.0  0.34141  0.54162  0.59151  1.0000
  C   C67       1.0  0.23858  0.43755  0.57840  1.0000
  C   C68       1.0  0.21787  0.38365  0.57884  1.0000
  C   C69       1.0  0.22973  0.33290  0.72759  1.0000
  C   C70       1.0  0.26233  0.33896  0.87871  1.0000
  C   C71       1.0  0.28209  0.39382  0.88051  1.0000
  C   C72       1.0  0.19010  0.71061  0.73184  1.0000
  C   C73       1.0  0.14006  0.07670  0.75132  1.0000
  C   C74       1.0  0.17519  0.07082  0.90210  1.0000
  C   C75       1.0  0.19911  0.12090  0.92906  1.0000
  C   C76       1.0  0.18920  0.17780  0.80286  1.0000
  C   C77       1.0  0.15452  0.18334  0.64910  1.0000
  C   C78       1.0  0.13019  0.13396  0.62563  1.0000
  C   C79       1.0  0.21417  0.23023  0.83141  1.0000
  C   C80       1.0  0.55322  0.44349  0.59335  1.0000
  C   C81       1.0  0.55367  0.50714  0.53989  1.0000
  C   C82       1.0  0.52543  0.54420  0.53947  1.0000
  C   C83       1.0  0.49649  0.51265  0.59594  1.0000
  C   C84       1.0  0.49580  0.44897  0.64902  1.0000
  C   C85       1.0  0.52423  0.41192  0.64987  1.0000
  C   C86       1.0  0.11398  0.02471  0.71761  1.0000
  C   C87       1.0  0.07281  0.02779  0.68415  1.0000
  C   C88       1.0  0.04769  0.97981  0.62985  1.0000
  C   C89       1.0  0.06438  0.92774  0.61807  1.0000
  C   C90       1.0  0.10637  0.92291  0.66957  1.0000
  C   C91       1.0  0.12975  0.97219  0.71401  1.0000
  C   C92       1.0  0.05589  0.07590  0.71126  1.0000
  C   C93       1.0  0.01590  0.07998  0.67104  1.0000
  C   C94       1.0  0.98909  0.03660  0.59761  1.0000
  C   C95       1.0  0.00574  0.98437  0.58649  1.0000
  C   C96       1.0  0.98052  0.93658  0.53155  1.0000
  C   C97       1.0  0.99947  0.88902  0.00673  1.0000
  C   C98       1.0  0.03759  0.88374  0.54793  1.0000
  C   C99       1.0  0.94702  0.04243  0.54128  1.0000
  C   C100      1.0  0.92486  0.99464  0.99162  1.0000
  C   C101      1.0  0.94079  0.94175  0.99076  1.0000
  C   C102      1.0  0.91434  0.89047  0.95417  1.0000
  C   C103      1.0  0.87933  0.89761  0.80222  1.0000
  C   C104      1.0  0.85487  0.84829  0.77211  1.0000
  C   C105      1.0  0.86417  0.79095  0.89637  1.0000
  C   C106      1.0  0.78182  0.52613  0.95872  1.0000
  C   C107      1.0  0.81390  0.52907  0.60756  1.0000
  C   C108      1.0  0.83492  0.58264  0.60750  1.0000
  C   C109      1.0  0.82296  0.63633  0.96594  1.0000
  C   C110      1.0  0.79072  0.63077  0.81312  1.0000
  C   C111      1.0  0.77099  0.57595  0.80854  1.0000
  C   C112      1.0  0.83887  0.73905  0.86539  1.0000
  C   C113      1.0  0.93804  0.15764  0.94304  1.0000
  C   C114      1.0  0.91744  0.20894  0.92493  1.0000
  C   C115      1.0  0.88648  0.20367  0.98593  1.0000
  C   C116      1.0  0.86591  0.25823  0.96744  1.0000
  C   C117      1.0  0.46079  0.43120  0.69823  1.0000
  C   C118      1.0  0.46245  0.53784  0.61150  1.0000
  C   C119      1.0  0.59115  0.53474  0.97913  1.0000
  C   C120      1.0  0.58765  0.41913  0.57773  1.0000
  N   N1        1.0  0.21804  0.71448  0.17064  1.0000
  N   N2        1.0  0.20693  0.28468  0.21003  1.0000
  N   N3        1.0  0.83850  0.25600  0.02867  1.0000
  N   N4        1.0  0.84491  0.68644  0.48391  1.0000
  N   N5        1.0  0.29376  0.50241  0.20998  1.0000
  N   N6        1.0  0.75867  0.46848  0.46766  1.0000
  N   N7        1.0  0.44456  0.49584  0.16604  1.0000
  N   N8        1.0  0.61011  0.47940  0.00344  1.0000
  N   N9        1.0  0.21744  0.71382  0.66962  1.0000
  N   N10       1.0  0.20707  0.28082  0.70806  1.0000
  N   N11       1.0  0.83584  0.25550  0.52092  1.0000
  N   N12       1.0  0.84560  0.68828  0.98778  1.0000
  N   N13       1.0  0.29254  0.49908  0.72325  1.0000
  N   N14       1.0  0.76049  0.47001  0.96209  1.0000
  N   N15       1.0  0.44170  0.48662  0.67270  1.0000
  N   N16       1.0  0.60816  0.47101  0.51672  1.0000
  O   O1        1.0  0.45733  0.60062  0.08169  1.0000
  O   O2        1.0  0.45481  0.38895  0.24787  1.0000
  O   O3        1.0  0.59812  0.57771  0.43687  1.0000
  O   O4        1.0  0.59773  0.37485  0.09101  1.0000
  O   O5        1.0  0.45385  0.59132  0.58018  1.0000
  O   O6        1.0  0.44999  0.37983  0.74903  1.0000
  O   O7        1.0  0.60190  0.58621  0.92886  1.0000
  O   O8        1.0  0.59665  0.36598  0.60798  1.0000
  C   C121      1.0  0.66268  0.52441  0.36172  1.0000
  C   C122      1.0  0.64630  0.48097  0.46553  1.0000
  C  Sn1       1.0  0.66882  0.42958  0.58693  1.0000
  C  Sn2       1.0  0.70847  0.42166  0.60448  1.0000
  C   C123      1.0  0.72459  0.46539  0.50010  1.0000
  C   C124      1.0  0.70178  0.51664  0.37898  1.0000
  H   H65       1.0  0.64504  0.56408  0.26807  1.0000
  O  Te1       1.0  0.65200  0.38662  0.68956  1.0000
  O  Te2       1.0  0.73165  0.37073  0.72483  1.0000
  H   H66       1.0  0.71448  0.55028  0.29871  1.0000
  Mg  Mg1       1.0  0.69546  0.32483  0.83503  1.0000
  C   C125      1.0  0.70440  0.41965  0.11382  1.0000
  C   C126      1.0  0.80721  0.36276  0.99618  1.0000
  C  Sn3       1.0  0.78515  0.41386  0.87056  1.0000
  C  Sn4       1.0  0.74715  0.42684  0.86292  1.0000
  C   C127      1.0  0.73217  0.38836  0.98128  1.0000
  C   C128      1.0  0.66692  0.43243  0.10642  1.0000
  H   H67       1.0  0.72167  0.38018  0.21071  1.0000
  O  Te3       1.0  0.80082  0.45155  0.75398  1.0000
  O  Te4       1.0  0.72448  0.47763  0.73873  1.0000
  H   H68       1.0  0.65512  0.40288  0.19756  1.0000
  Mg  Mg2       1.0  0.75863  0.51532  0.60826  1.0000
  C   C129      1.0  0.35133  0.55735  0.07106  1.0000
  C   C130      1.0  0.33316  0.51233  0.16283  1.0000
  C  Sn5       1.0  0.35426  0.45889  0.27783  1.0000
  C  Sn6       1.0  0.39429  0.45049  0.30115  1.0000
  C   C131      1.0  0.41220  0.49582  0.20883  1.0000
  C   C132      1.0  0.39082  0.54911  0.09404  1.0000
  H   H69       1.0  0.42237  0.50349  0.98232  1.0000
  O  Te5       1.0  0.33565  0.41436  0.36843  1.0000
  O  Te6       1.0  0.41606  0.39752  0.41531  1.0000
  H   H70       1.0  0.40490  0.58397  0.02309  1.0000
  Mg  Mg3       1.0  0.37767  0.35004  0.50926  1.0000
  C   C133      1.0  0.11857  0.79401  0.26755  1.0000
  C   C134      1.0  0.12632  0.85543  0.20866  1.0000
  C  Sn7       1.0  0.15605  0.87214  0.14161  1.0000
  C  Sn8       1.0  0.17837  0.82641  0.13349  1.0000
  C   C135      1.0  0.17037  0.76509  0.19264  1.0000
  C   C136      1.0  0.14056  0.74888  0.25954  1.0000
  H   H71       1.0  0.09550  0.78147  0.31923  1.0000
  O  Te7       1.0  0.16342  0.93371  0.08338  1.0000
  O  Te8       1.0  0.20824  0.84183  0.06703  1.0000
  H   H72       1.0  0.13455  0.70133  0.30502  1.0000
  Mg  Mg4       1.0  0.20719  0.93192  0.00375  1.0000
  C   C137      1.0  0.83980  0.38304  0.00703  1.0000
  C   C138      1.0  0.82741  0.32287  0.02481  1.0000
  C  Sn9       1.0  0.78901  0.30815  0.01889  1.0000
  C  Sn10      1.0  0.85015  0.25952  0.99465  1.0000
  C   C139      1.0  0.86282  0.31959  0.97686  1.0000
  C   C140      1.0  0.90132  0.33381  0.98304  1.0000
  H   H73       1.0  0.86958  0.39406  0.01171  1.0000
  O  Te9       1.0  0.77712  0.24779  0.03695  1.0000
  O  Te10      1.0  0.81160  0.24607  0.98817  1.0000
  H   H74       1.0  0.91090  0.38041  0.96915  1.0000
  Mg  Mg5       1.0  0.72166  0.25217  0.01925  1.0000
  C   C141      1.0  0.29173  0.62729  0.68026  1.0000
  C   C142      1.0  0.27889  0.56730  0.70014  1.0000
  C  Sn11      1.0  0.24038  0.55360  0.69399  1.0000
  C  Sn12      1.0  0.21428  0.60093  0.66738  1.0000
  C   C143      1.0  0.22740  0.66080  0.64752  1.0000
  C   C144      1.0  0.26601  0.67400  0.65394  1.0000
  H   H75       1.0  0.32159  0.63751  0.68513  1.0000
  O  Te11      1.0  0.22804  0.49342  0.71416  1.0000
  O  Te12      1.0  0.17563  0.58851  0.66063  1.0000
  H   H76       1.0  0.27593  0.72045  0.63844  1.0000
  Mg  Mg6       1.0  0.17260  0.49933  0.69512  1.0000
  C   C145      1.0  0.91964  0.81559  0.59462  1.0000
  C   C146      1.0  0.91728  0.87414  0.48286  1.0000
  C  Sn13      1.0  0.88523  0.89143  0.32114  1.0000
  C  Sn14      1.0  0.85502  0.84922  0.27076  1.0000
  C   C147      1.0  0.85763  0.79076  0.38356  1.0000
  C   C148      1.0  0.88984  0.77393  0.54506  1.0000
  H   H77       1.0  0.94454  0.80257  0.71962  1.0000
  O  Te13      1.0  0.88335  0.95011  0.21104  1.0000
  O  Te14      1.0  0.82265  0.86531  0.10991  1.0000
  H   H78       1.0  0.89164  0.72860  0.63161  1.0000
  Mg  Mg7       1.0  0.83337  0.95058  0.00507  1.0000
  C   C149      1.0  0.77097  0.31332  0.50897  1.0000
  C   C150      1.0  0.80878  0.30765  0.50943  1.0000
  C  Sn15      1.0  0.83379  0.35748  0.50869  1.0000
  C  Sn16      1.0  0.82064  0.41398  0.50752  1.0000
  C   C151      1.0  0.78277  0.41918  0.50720  1.0000
  C   C152      1.0  0.75798  0.36903  0.50789  1.0000
  H   H79       1.0  0.75179  0.27452  0.50960  1.0000
  O  Te15      1.0  0.87147  0.35102  0.50910  1.0000
  O  Te16      1.0  0.84504  0.46451  0.50683  1.0000
  H   H80       1.0  0.72872  0.37343  0.50765  1.0000
  Mg  Mg8       1.0  0.89385  0.43305  0.50776  1.0000
  C   C153      1.0  0.87345  0.12730  0.56497  1.0000
  C   C154      1.0  0.88169  0.18859  0.50758  1.0000
  C  Sn17      1.0  0.91266  0.20481  0.44817  1.0000
  C  Sn18      1.0  0.93575  0.15872  0.44627  1.0000
  C   C155      1.0  0.92725  0.09754  0.50383  1.0000
  C   C156      1.0  0.89620  0.08182  0.56308  1.0000
  H   H81       1.0  0.84941  0.11513  0.61072  1.0000
  O  Te17      1.0  0.92050  0.26626  0.39135  1.0000
  O  Te18      1.0  0.96687  0.17366  0.38748  1.0000
  H   H82       1.0  0.88981  0.03436  0.60739  1.0000
  Mg  Mg9       1.0  0.96604  0.26376  0.32318  1.0000
  C   C157      1.0  0.28330  0.65628  0.18742  1.0000
  C   C158      1.0  0.24358  0.66430  0.16062  1.0000
  C  Sn19      1.0  0.21810  0.61499  0.15617  1.0000
  C  Sn20      1.0  0.23274  0.55663  0.17907  1.0000
  C   C159      1.0  0.27254  0.54907  0.20592  1.0000
  C   C160      1.0  0.29778  0.59873  0.21008  1.0000
  H   H83       1.0  0.30284  0.69469  0.19074  1.0000
  O  Te19      1.0  0.17849  0.62380  0.12919  1.0000
  O  Te20      1.0  0.20793  0.50656  0.17527  1.0000
  H   H84       1.0  0.32853  0.59250  0.23095  1.0000
  Mg  Mg10      1.0  0.15627  0.54153  0.13455  1.0000
