data_image0
_chemical_formula_structural       H68C110N16SnCSn2CSnTe4Mg2SnCSn2CSnTe4Mg2SnCSn2CSnTe4Mg2SnCSn2CSnTe4Mg2SnCSn2CSnTe4Mg2SnCSn2CSnTe4Mg2SnCSn2CSnTe4Mg2SnCSn2CSnTe4Mg2SnCSn2CSnTe4Mg2SnCSn2CSnTe4Mg2SnCSn2CSnTe4Mg2
_chemical_formula_sum              "H68 C132 N16 Sn44 Te44 Mg22"
_cell_length_a       37.1083
_cell_length_b       22.7698
_cell_length_c       9.04551
_cell_angle_alpha    73.4169
_cell_angle_beta     118.013
_cell_angle_gamma    93.479

_symmetry_space_group_name_H-M    'P1'
_space_group_IT_number       1

loop_
  _space_group_symop_operation_xyz
  'x, y, z'

loop_
  _atom_site_type_symbol
  _atom_site_label
  _atom_site_symmetry_multiplicity
  _atom_site_fract_x
  _atom_site_fract_y
  _atom_site_fract_z
  _atom_site_occupancy
  H   H1        1.0  0.18898  0.01933  0.00071  1.0000
  H   H2        1.0  0.23374  0.10461  0.05416  1.0000
  H   H3        1.0  0.15366  0.22457  0.07664  1.0000
  H   H4        1.0  0.11058  0.13778  0.00582  1.0000
  H   H5        1.0  0.55291  0.57581  0.47409  1.0000
  H   H6        1.0  0.49463  0.58868  0.53174  1.0000
  H   H7        1.0  0.16693  0.96880  0.25722  1.0000
  H   H8        1.0  0.07730  0.10917  0.26213  1.0000
  H   H9        1.0  0.00421  0.11577  0.18195  1.0000
  H   H10       1.0  0.97554  0.86194  0.41496  1.0000
  H   H11       1.0  0.05446  0.84878  0.01211  1.0000
  H   H12       1.0  0.88629  0.00331  0.42129  1.0000
  H   H13       1.0  0.86076  0.95232  0.17202  1.0000
  H   H14       1.0  0.81676  0.86652  0.11258  1.0000
  H   H15       1.0  0.90566  0.74135  0.12685  1.0000
  H   H16       1.0  0.95107  0.82649  0.18795  1.0000
  H   H17       1.0  0.73143  0.39684  0.13430  1.0000
  H   H18       1.0  0.72340  0.37197  0.44263  1.0000
  H   H19       1.0  0.75889  0.27802  0.47563  1.0000
  H   H20       1.0  0.82851  0.47007  0.47182  1.0000
  H   H21       1.0  0.82242  0.50123  0.20108  1.0000
  H   H22       1.0  0.86043  0.59656  0.20242  1.0000
  H   H23       1.0  0.85064  0.14653  0.07244  1.0000
  H   H24       1.0  0.88876  0.05107  0.11655  1.0000
  H   H25       1.0  0.66824  0.40589  0.15018  1.0000
  H   H26       1.0  0.24799  0.21182  0.96016  1.0000
  H   H27       1.0  0.80259  0.76032  0.19761  1.0000
  H   H28       1.0  0.86453  0.30920  0.37044  1.0000
  H   H29       1.0  0.19257  0.66207  0.32671  1.0000
  H   H30       1.0  0.45294  0.54815  0.14113  1.0000
  H   H31       1.0  0.60321  0.41492  0.05359  1.0000
  H   H32       1.0  0.09803  0.80644  0.81190  1.0000
  H   H33       1.0  0.13679  0.71274  0.85475  1.0000
  H   H34       1.0  0.20197  0.82338  0.60480  1.0000
  H   H35       1.0  0.16309  0.91775  0.56173  1.0000
  H   H36       1.0  0.23256  0.46463  0.99963  1.0000
  H   H37       1.0  0.19373  0.37048  0.00833  1.0000
  H   H38       1.0  0.31585  0.38898  0.54649  1.0000
  H   H39       1.0  0.18135  0.02590  0.53755  1.0000
  H   H40       1.0  0.22285  0.11303  0.60998  1.0000
  H   H41       1.0  0.14130  0.22969  0.58603  1.0000
  H   H42       1.0  0.09577  0.14417  0.53396  1.0000
  H   H43       1.0  0.55629  0.37984  0.67112  1.0000
  H   H44       1.0  0.49797  0.39247  0.72845  1.0000
  H   H45       1.0  0.16218  0.96851  0.75905  1.0000
  H   H46       1.0  0.07301  0.11057  0.76376  1.0000
  H   H47       1.0  0.99998  0.11945  0.67822  1.0000
  H   H48       1.0  0.98173  0.85477  0.93603  1.0000
  H   H49       1.0  0.04886  0.85285  0.50261  1.0000
  H   H50       1.0  0.89173  0.99702  0.93255  1.0000
  H   H51       1.0  0.87622  0.93917  0.66102  1.0000
  H   H52       1.0  0.83207  0.85374  0.59779  1.0000
  H   H53       1.0  0.90701  0.74214  0.58901  1.0000
  H   H54       1.0  0.95195  0.82814  0.64698  1.0000
  H   H55       1.0  0.70078  0.57771  0.76525  1.0000
  H   H56       1.0  0.63850  0.58750  0.79130  1.0000
  H   H57       1.0  0.74084  0.57983  0.65423  1.0000
  H   H58       1.0  0.95585  0.16067  0.87375  1.0000
  H   H59       1.0  0.91837  0.25516  0.83342  1.0000
  H   H60       1.0  0.27956  0.29414  0.55347  1.0000
  H   H61       1.0  0.86191  0.37736  0.49027  1.0000
  H   H62       1.0  0.77584  0.67576  0.65686  1.0000
  H   H63       1.0  0.23664  0.22186  0.52526  1.0000
  H   H64       1.0  0.81409  0.74982  0.69126  1.0000
  H   H65       1.0  0.86811  0.30653  0.85824  1.0000
  H   H66       1.0  0.18657  0.66263  0.82684  1.0000
  H   H67       1.0  0.44809  0.54848  0.63489  1.0000
  H   H68       1.0  0.60204  0.42049  0.56207  1.0000
  C   C1        1.0  0.27749  0.43126  0.27048  1.0000
  C   C2        1.0  0.24228  0.42697  0.11979  1.0000
  C   C3        1.0  0.22067  0.37515  0.12483  1.0000
  C   C4        1.0  0.23402  0.32545  0.27888  1.0000
  C   C5        1.0  0.26906  0.33069  0.43075  1.0000
  C   C6        1.0  0.29010  0.38360  0.42712  1.0000
  C   C7        1.0  0.19955  0.70561  0.25736  1.0000
  C   C8        1.0  0.14305  0.07573  0.26707  1.0000
  C   C9        1.0  0.17529  0.06933  0.43641  1.0000
  C   C10       1.0  0.19861  0.11846  0.47683  1.0000
  C   C11       1.0  0.19080  0.17493  0.34729  1.0000
  C   C12       1.0  0.15898  0.18096  0.17625  1.0000
  C   C13       1.0  0.13531  0.13252  0.13780  1.0000
  C   C14       1.0  0.21536  0.22659  0.38644  1.0000
  C   C15       1.0  0.54063  0.53628  0.53017  1.0000
  C   C16       1.0  0.46278  0.49998  0.16745  1.0000
  C   C17       1.0  0.11734  0.02462  0.22026  1.0000
  C   C18       1.0  0.07544  0.02824  0.17841  1.0000
  C   C19       1.0  0.05064  0.98082  0.11852  1.0000
  C   C20       1.0  0.06842  0.92893  0.10833  1.0000
  C   C21       1.0  0.11129  0.92354  0.16706  1.0000
  C   C22       1.0  0.13429  0.97240  0.21627  1.0000
  C   C23       1.0  0.05755  0.07622  0.20259  1.0000
  C   C24       1.0  0.01683  0.08005  0.15716  1.0000
  C   C25       1.0  0.99017  0.03690  0.08070  1.0000
  C   C26       1.0  0.00802  0.98508  0.07049  1.0000
  C   C27       1.0  0.98334  0.93731  0.01281  1.0000
  C   C28       1.0  0.99540  0.89428  0.47669  1.0000
  C   C29       1.0  0.04188  0.88504  0.03518  1.0000
  C   C30       1.0  0.94722  0.04256  0.02098  1.0000
  C   C31       1.0  0.91896  0.99910  0.46317  1.0000
  C   C32       1.0  0.93562  0.94661  0.45854  1.0000
  C   C33       1.0  0.90950  0.89617  0.41416  1.0000
  C   C34       1.0  0.87101  0.90640  0.26399  1.0000
  C   C35       1.0  0.84632  0.85811  0.23031  1.0000
  C   C36       1.0  0.85907  0.79842  0.34734  1.0000
  C   C37       1.0  0.89972  0.78489  0.02625  1.0000
  C   C38       1.0  0.92470  0.83245  0.05949  1.0000
  C   C39       1.0  0.77271  0.42980  0.45305  1.0000
  C   C40       1.0  0.67420  0.44272  0.05933  1.0000
  C   C41       1.0  0.71001  0.43709  0.04919  1.0000
  C   C42       1.0  0.75407  0.37376  0.45700  1.0000
  C   C43       1.0  0.77371  0.32071  0.47206  1.0000
  C   C44       1.0  0.81227  0.32046  0.47781  1.0000
  C   C45       1.0  0.83135  0.37586  0.47861  1.0000
  C   C46       1.0  0.81240  0.42872  0.46832  1.0000
  C   C47       1.0  0.81302  0.53970  0.08317  1.0000
  C   C48       1.0  0.83402  0.59227  0.08379  1.0000
  C   C49       1.0  0.83225  0.74854  0.31816  1.0000
  C   C50       1.0  0.59471  0.46311  0.03329  1.0000
  C   C51       1.0  0.87373  0.14872  0.02960  1.0000
  C   C52       1.0  0.89490  0.09583  0.05278  1.0000
  C   C53       1.0  0.85639  0.26607  0.43638  1.0000
  C   C54       1.0  0.12737  0.86883  0.68165  1.0000
  C   C55       1.0  0.12001  0.81014  0.76263  1.0000
  C   C56       1.0  0.14207  0.75767  0.78788  1.0000
  C   C57       1.0  0.17188  0.76179  0.73158  1.0000
  C   C58       1.0  0.17940  0.82046  0.65085  1.0000
  C   C59       1.0  0.15770  0.87280  0.62772  1.0000
  C   C60       1.0  0.19341  0.70573  0.75507  1.0000
  C   C61       1.0  0.13921  0.07584  0.76348  1.0000
  C   C62       1.0  0.17850  0.06533  0.90923  1.0000
  C   C63       1.0  0.20362  0.11338  0.93935  1.0000
  C   C64       1.0  0.19028  0.17316  0.82315  1.0000
  C   C65       1.0  0.15091  0.18365  0.67709  1.0000
  C   C66       1.0  0.12585  0.13607  0.64866  1.0000
  C   C67       1.0  0.21691  0.22330  0.84829  1.0000
  C   C68       1.0  0.54255  0.42553  0.64049  1.0000
  C   C69       1.0  0.55826  0.47729  0.56835  1.0000
  C   C70       1.0  0.50828  0.54293  0.56227  1.0000
  C   C71       1.0  0.49245  0.49116  0.63393  1.0000
  C   C72       1.0  0.51021  0.43216  0.67277  1.0000
  C   C73       1.0  0.45832  0.50024  0.66443  1.0000
  C   C74       1.0  0.11290  0.02554  0.72097  1.0000
  C   C75       1.0  0.07085  0.03019  0.67756  1.0000
  C   C76       1.0  0.04558  0.98363  0.61494  1.0000
  C   C77       1.0  0.06313  0.93160  0.60414  1.0000
  C   C78       1.0  0.10611  0.92490  0.66559  1.0000
  C   C79       1.0  0.12954  0.97277  0.71780  1.0000
  C   C80       1.0  0.05311  0.07819  0.70219  1.0000
  C   C81       1.0  0.01228  0.08320  0.65406  1.0000
  C   C82       1.0  0.98525  0.04079  0.57573  1.0000
  C   C83       1.0  0.00277  0.98894  0.56407  1.0000
  C   C84       1.0  0.97762  0.94228  0.50127  1.0000
  C   C85       1.0  0.00128  0.88867  0.99126  1.0000
  C   C86       1.0  0.03627  0.88909  0.52583  1.0000
  C   C87       1.0  0.94230  0.04703  0.51624  1.0000
  C   C88       1.0  0.92435  0.99352  0.97310  1.0000
  C   C89       1.0  0.94156  0.94086  0.97204  1.0000
  C   C90       1.0  0.91596  0.88939  0.92961  1.0000
  C   C91       1.0  0.88227  0.89616  0.76362  1.0000
  C   C92       1.0  0.85758  0.84794  0.72846  1.0000
  C   C93       1.0  0.86556  0.79194  0.86008  1.0000
  C   C94       1.0  0.89771  0.78815  0.49765  1.0000
  C   C95       1.0  0.92242  0.83595  0.52942  1.0000
  C   C96       1.0  0.77892  0.53543  0.92919  1.0000
  C   C97       1.0  0.72036  0.48482  0.94126  1.0000
  C   C98       1.0  0.69383  0.53931  0.84834  1.0000
  C   C99       1.0  0.65863  0.54520  0.86253  1.0000
  C   C100      1.0  0.64748  0.49688  0.96605  1.0000
  C   C101      1.0  0.82098  0.64278  0.93190  1.0000
  C   C102      1.0  0.78639  0.63823  0.77763  1.0000
  C   C103      1.0  0.76617  0.58453  0.77557  1.0000
  C   C104      1.0  0.83889  0.74209  0.82644  1.0000
  C   C105      1.0  0.59189  0.46861  0.53446  1.0000
  C   C106      1.0  0.92576  0.09892  0.00206  1.0000
  C   C107      1.0  0.93385  0.15741  0.92284  1.0000
  C   C108      1.0  0.91238  0.21040  0.89810  1.0000
  C   C109      1.0  0.88224  0.20713  0.95212  1.0000
  C   C110      1.0  0.86110  0.26346  0.92964  1.0000
  N   N1        1.0  0.22569  0.70711  0.19950  1.0000
  N   N2        1.0  0.44498  0.45460  0.22128  1.0000
  N   N3        1.0  0.21111  0.27440  0.25930  1.0000
  N   N4        1.0  0.82942  0.26528  0.48960  1.0000
  N   N5        1.0  0.60867  0.51436  0.47535  1.0000
  N   N6        1.0  0.84322  0.69509  0.43332  1.0000
  N   N7        1.0  0.29964  0.48512  0.25961  1.0000
  N   N8        1.0  0.75292  0.48566  0.42620  1.0000
  N   N9        1.0  0.21928  0.70644  0.69630  1.0000
  N   N10       1.0  0.44091  0.45503  0.72169  1.0000
  N   N11       1.0  0.20420  0.27771  0.73855  1.0000
  N   N12       1.0  0.83553  0.26251  0.98988  1.0000
  N   N13       1.0  0.61306  0.50811  0.98165  1.0000
  N   N14       1.0  0.84495  0.69279  0.95272  1.0000
  N   N15       1.0  0.29479  0.48617  0.75435  1.0000
  N   N16       1.0  0.75758  0.48049  0.93374  1.0000
  C  Sn1       1.0  0.13565  0.79562  0.31586  1.0000
  C   C111      1.0  0.13923  0.85698  0.24053  1.0000
  C  Sn2       1.0  0.15996  0.87151  0.14149  1.0000
  C  Sn3       1.0  0.17746  0.82371  0.11714  1.0000
  C   C112      1.0  0.17387  0.76239  0.19242  1.0000
  C  Sn4       1.0  0.15315  0.74782  0.29151  1.0000
  O  Te1       1.0  0.11479  0.78216  0.41436  1.0000
  O  Te2       1.0  0.16315  0.93319  0.06752  1.0000
  O  Te3       1.0  0.19834  0.83722  0.01856  1.0000
  O  Te4       1.0  0.14995  0.68618  0.36543  1.0000
  Mg  Mg1       1.0  0.30519  0.82580  0.94417  1.0000
  Mg  Mg2       1.0  0.11858  0.69109  0.48872  1.0000
  C  Sn5       1.0  0.22423  0.55703  0.66063  1.0000
  C   C113      1.0  0.26295  0.54870  0.67571  1.0000
  C  Sn6       1.0  0.29161  0.59157  0.72284  1.0000
  C  Sn7       1.0  0.28138  0.64383  0.75572  1.0000
  C   C114      1.0  0.24268  0.65213  0.74067  1.0000
  C  Sn8       1.0  0.21400  0.60929  0.69350  1.0000
  O  Te5       1.0  0.19606  0.51359  0.61335  1.0000
  O  Te6       1.0  0.33012  0.58226  0.73702  1.0000
  O  Te7       1.0  0.30959  0.68728  0.80303  1.0000
  O  Te8       1.0  0.17551  0.61857  0.67935  1.0000
  Mg  Mg3       1.0  0.35806  0.65433  0.80532  1.0000
  Mg  Mg4       1.0  0.14756  0.54652  0.61115  1.0000
  C  Sn9       1.0  0.34691  0.51835  0.08732  1.0000
  C   C115      1.0  0.33384  0.47855  0.19850  1.0000
  C  Sn10      1.0  0.36126  0.43274  0.34486  1.0000
  C  Sn11      1.0  0.40262  0.42660  0.38092  1.0000
  C   C116      1.0  0.41568  0.46639  0.26979  1.0000
  C  Sn12      1.0  0.38828  0.51221  0.12338  1.0000
  O  Te9       1.0  0.42965  0.46138  0.94176  1.0000
  O  Te10      1.0  0.34746  0.39348  0.45406  1.0000
  O  Te11      1.0  0.43056  0.38108  0.52662  1.0000
  O  Te12      1.0  0.40205  0.55146  0.01423  1.0000
  Mg  Mg5       1.0  0.39714  0.33876  0.63634  1.0000
  Mg  Mg6       1.0  0.46309  0.50378  0.83198  1.0000
  C  Sn13      1.0  0.68531  0.45378  0.60469  1.0000
  C   C117      1.0  0.65390  0.50139  0.50902  1.0000
  C  Sn14      1.0  0.65083  0.54403  0.35695  1.0000
  C  Sn15      1.0  0.67973  0.53895  0.29923  1.0000
  C   C118      1.0  0.71111  0.49136  0.39486  1.0000
  C  Sn16      1.0  0.71421  0.44870  0.54697  1.0000
  O  Te13      1.0  0.68780  0.41167  0.75633  1.0000
  O  Te14      1.0  0.61917  0.59125  0.26353  1.0000
  O  Te15      1.0  0.67722  0.58112  0.14747  1.0000
  O  Te16      1.0  0.74584  0.40150  0.64035  1.0000
  Mg  Mg7       1.0  0.62863  0.63734  0.06505  1.0000
  Mg  Mg8       1.0  0.73639  0.35537  0.83878  1.0000
  C  Sn17      1.0  0.22842  0.37956  0.58066  1.0000
  C   C119      1.0  0.23345  0.32999  0.72401  1.0000
  C  Sn18      1.0  0.25660  0.33422  0.89427  1.0000
  C  Sn19      1.0  0.27510  0.38917  0.92185  1.0000
  C   C120      1.0  0.27006  0.43870  0.77856  1.0000
  C  Sn20      1.0  0.24692  0.43450  0.60823  1.0000
  O  Te17      1.0  0.20514  0.37430  0.41159  1.0000
  O  Te18      1.0  0.15053  0.38648  0.03551  1.0000
  O  Te19      1.0  0.18772  0.49682  0.09109  1.0000
  O  Te20      1.0  0.24231  0.48464  0.46706  1.0000
  Mg  Mg9       1.0  0.18509  0.41595  0.24107  1.0000
  Mg  Mg10      1.0  0.20774  0.45524  0.26145  1.0000
  C  Sn21      1.0  0.51201  0.54348  0.00693  1.0000
  C   C121      1.0  0.49296  0.49871  0.08086  1.0000
  C  Sn22      1.0  0.51098  0.43839  0.16650  1.0000
  C  Sn23      1.0  0.54884  0.42248  0.17862  1.0000
  C   C122      1.0  0.56787  0.46723  0.10476  1.0000
  C  Sn24      1.0  0.54987  0.52757  0.01905  1.0000
  O  Te21      1.0  0.60412  0.50106  0.92193  1.0000
  O  Te22      1.0  0.49135  0.39443  0.23933  1.0000
  O  Te23      1.0  0.56740  0.36241  0.26371  1.0000
  O  Te24      1.0  0.68016  0.46908  0.94629  1.0000
  Mg  Mg11      1.0  0.52879  0.31886  0.34200  1.0000
  Mg  Mg12      1.0  0.64276  0.54467  0.84367  1.0000
  C  Sn25      1.0  0.77115  0.63810  0.25792  1.0000
  C   C123      1.0  0.80484  0.65145  0.39847  1.0000
  C  Sn26      1.0  0.82716  0.60498  0.55435  1.0000
  C  Sn27      1.0  0.81557  0.54389  0.57005  1.0000
  C   C124      1.0  0.78191  0.53057  0.42955  1.0000
  C  Sn28      1.0  0.75957  0.57702  0.27362  1.0000
  O  Te25      1.0  0.74928  0.68528  0.10331  1.0000
  O  Te26      1.0  0.86072  0.61944  0.69309  1.0000
  O  Te27      1.0  0.83747  0.49671  0.72482  1.0000
  O  Te28      1.0  0.72603  0.56258  0.13493  1.0000
  Mg  Mg13      1.0  0.88085  0.53931  0.87698  1.0000
  Mg  Mg14      1.0  0.81656  0.54023  0.95096  1.0000
  C  Sn29      1.0  0.22936  0.57868  0.26277  1.0000
  C   C125      1.0  0.24415  0.63673  0.25885  1.0000
  C  Sn30      1.0  0.27722  0.65108  0.22519  1.0000
  C  Sn31      1.0  0.29589  0.60649  0.19469  1.0000
  C   C126      1.0  0.28111  0.54848  0.19859  1.0000
  C  Sn32      1.0  0.24804  0.53409  0.23228  1.0000
  O  Te29      1.0  0.19626  0.56533  0.29667  1.0000
  O  Te30      1.0  0.29147  0.70942  0.22199  1.0000
  O  Te31      1.0  0.32902  0.61988  0.16078  1.0000
  O  Te32      1.0  0.23378  0.47579  0.23545  1.0000
  Mg  Mg15      1.0  0.33736  0.70571  0.17005  1.0000
  Mg  Mg16      1.0  0.18788  0.47946  0.28728  1.0000
  C  Sn33      1.0  0.72952  0.48268  0.03684  1.0000
  C   C127      1.0  0.71450  0.42542  0.02608  1.0000
  C  Sn34      1.0  0.78333  0.31623  0.96401  1.0000
  C  Sn35      1.0  0.75592  0.36779  0.91147  1.0000
  C   C128      1.0  0.77093  0.42501  0.92221  1.0000
  C  Sn36      1.0  0.81277  0.43181  0.98431  1.0000
  O  Te33      1.0  0.77147  0.48837  0.09929  1.0000
  O  Te34      1.0  0.76905  0.25852  0.95451  1.0000
  O  Te35      1.0  0.71394  0.36205  0.84899  1.0000
  O  Te36      1.0  0.82706  0.48948  0.99379  1.0000
  Mg  Mg17      1.0  0.70927  0.27399  0.86044  1.0000
  Mg  Mg18      1.0  0.77615  0.57650  0.08775  1.0000
  C  Sn37      1.0  0.34336  0.52107  0.58853  1.0000
  C   C129      1.0  0.32930  0.48052  0.69474  1.0000
  C  Sn38      1.0  0.35589  0.43319  0.83865  1.0000
  C  Sn39      1.0  0.39740  0.42625  0.87730  1.0000
  C   C130      1.0  0.41143  0.46679  0.77115  1.0000
  C  Sn40      1.0  0.38486  0.51413  0.62718  1.0000
  O  Te37      1.0  0.31624  0.56806  0.44534  1.0000
  O  Te38      1.0  0.34113  0.39321  0.94287  1.0000
  O  Te39      1.0  0.31384  0.48165  0.02063  1.0000
  O  Te40      1.0  0.39961  0.55410  0.52301  1.0000
  Mg  Mg19      1.0  0.27925  0.43884  0.12354  1.0000
  Mg  Mg20      1.0  0.35085  0.61094  0.34238  1.0000
  C  Sn41      1.0  0.93525  0.17624  0.46463  1.0000
  C   C131      1.0  0.93027  0.11494  0.53382  1.0000
  C  Sn42      1.0  0.89565  0.09965  0.55534  1.0000
  C  Sn43      1.0  0.86537  0.14660  0.50660  1.0000
  C   C132      1.0  0.87035  0.20786  0.43743  1.0000
  C  Sn44      1.0  0.90497  0.22320  0.41588  1.0000
  O  Te41      1.0  0.97010  0.19048  0.44426  1.0000
  O  Te42      1.0  0.89135  0.03804  0.62484  1.0000
  O  Te43      1.0  0.83050  0.13231  0.52703  1.0000
  O  Te44      1.0  0.90927  0.28476  0.34640  1.0000
  Mg  Mg21      1.0  0.83848  0.04174  0.62733  1.0000
  Mg  Mg22      1.0  0.96211  0.28110  0.34377  1.0000
