data_image0
_chemical_formula_structural       H64C120N16O8SnCSn2CSnTe4Mg2SnCSn2CSnTe4Mg2SnCSn2CSnTe4Mg2SnCSn2CSnTe4Mg2SnCSn2CSnTe4Mg2SnCSn2CSnTe4Mg2SnCSn2CSnTe4Mg2SnCSn2CSnTe4Mg2SnCSn2CSnTe4Mg2SnCSn2CSnTe4Mg2
_chemical_formula_sum              "H64 C140 N16 O8 Sn40 Te40 Mg20"
_cell_length_a       36.5324
_cell_length_b       22.9386
_cell_length_c       8.61984
_cell_angle_alpha    73.326
_cell_angle_beta     113.216
_cell_angle_gamma    95.2296

_symmetry_space_group_name_H-M    'P1'
_space_group_IT_number       1

loop_
  _space_group_symop_operation_xyz
  'x, y, z'

loop_
  _atom_site_type_symbol
  _atom_site_label
  _atom_site_symmetry_multiplicity
  _atom_site_fract_x
  _atom_site_fract_y
  _atom_site_fract_z
  _atom_site_occupancy
  H   H1        1.0  0.35156  0.41431  0.39471  1.0000
  H   H2        1.0  0.41567  0.41153  0.37358  1.0000
  H   H3        1.0  0.32036  0.57798  0.49922  1.0000
  H   H4        1.0  0.32372  0.61696  0.19859  1.0000
  H   H5        1.0  0.28895  0.70685  0.17759  1.0000
  H   H6        1.0  0.21815  0.51278  0.17560  1.0000
  H   H7        1.0  0.52587  0.59365  0.49762  1.0000
  H   H8        1.0  0.52645  0.37254  0.18547  1.0000
  H   H9        1.0  0.16348  0.97105  0.25006  1.0000
  H   H10       1.0  0.07633  0.11314  0.25520  1.0000
  H   H11       1.0  0.00455  0.11995  0.18119  1.0000
  H   H12       1.0  0.97787  0.85406  0.45334  1.0000
  H   H13       1.0  0.05160  0.84833  0.02508  1.0000
  H   H14       1.0  0.89130  0.99779  0.45389  1.0000
  H   H15       1.0  0.87015  0.94093  0.20629  1.0000
  H   H16       1.0  0.82753  0.85255  0.14906  1.0000
  H   H17       1.0  0.72953  0.35343  0.48533  1.0000
  H   H18       1.0  0.76754  0.26376  0.02083  1.0000
  H   H19       1.0  0.83647  0.45981  0.00318  1.0000
  H   H20       1.0  0.74286  0.57202  0.19406  1.0000
  H   H21       1.0  0.85299  0.14135  0.11515  1.0000
  H   H22       1.0  0.88949  0.04922  0.14658  1.0000
  H   H23       1.0  0.38517  0.57357  0.48025  1.0000
  H   H24       1.0  0.18507  0.60173  0.16693  1.0000
  H   H25       1.0  0.87065  0.36984  0.02297  1.0000
  H   H26       1.0  0.77728  0.66879  0.20012  1.0000
  H   H27       1.0  0.24110  0.22559  0.45614  1.0000
  H   H28       1.0  0.81518  0.74350  0.22826  1.0000
  H   H29       1.0  0.87503  0.30089  0.40404  1.0000
  H   H30       1.0  0.18212  0.66769  0.30315  1.0000
  H   H31       1.0  0.09366  0.80344  0.80906  1.0000
  H   H32       1.0  0.13060  0.71309  0.83819  1.0000
  H   H33       1.0  0.20390  0.82819  0.59642  1.0000
  H   H34       1.0  0.16666  0.91930  0.56591  1.0000
  H   H35       1.0  0.35129  0.41307  0.92329  1.0000
  H   H36       1.0  0.41450  0.40658  0.89735  1.0000
  H   H37       1.0  0.32280  0.58606  0.99800  1.0000
  H   H38       1.0  0.32227  0.61401  0.69615  1.0000
  H   H39       1.0  0.28809  0.70506  0.67188  1.0000
  H   H40       1.0  0.21613  0.51175  0.67580  1.0000
  H   H41       1.0  0.52898  0.60355  0.98925  1.0000
  H   H42       1.0  0.52399  0.36243  0.69197  1.0000
  H   H43       1.0  0.16169  0.96919  0.74852  1.0000
  H   H44       1.0  0.07574  0.10906  0.76852  1.0000
  H   H45       1.0  0.00403  0.11596  0.69820  1.0000
  H   H46       1.0  0.97996  0.85485  0.95330  1.0000
  H   H47       1.0  0.04940  0.84718  0.52279  1.0000
  H   H48       1.0  0.89286  0.99778  0.95581  1.0000
  H   H49       1.0  0.90487  0.73807  0.64355  1.0000
  H   H50       1.0  0.94887  0.82635  0.69639  1.0000
  H   H51       1.0  0.73198  0.35412  0.99132  1.0000
  H   H52       1.0  0.76478  0.26341  0.51072  1.0000
  H   H53       1.0  0.83464  0.45843  0.50439  1.0000
  H   H54       1.0  0.82325  0.48985  0.72198  1.0000
  H   H55       1.0  0.86117  0.58638  0.72145  1.0000
  H   H56       1.0  0.96090  0.16250  0.88931  1.0000
  H   H57       1.0  0.92492  0.25391  0.86058  1.0000
  H   H58       1.0  0.38822  0.58528  0.98437  1.0000
  H   H59       1.0  0.18351  0.60210  0.66222  1.0000
  H   H60       1.0  0.86839  0.36925  0.51958  1.0000
  H   H61       1.0  0.23846  0.22356  0.96164  1.0000
  H   H62       1.0  0.81471  0.74629  0.73463  1.0000
  H   H63       1.0  0.87469  0.30139  0.89589  1.0000
  H   H64       1.0  0.18107  0.66681  0.79918  1.0000
  C   C1        1.0  0.27408  0.55625  0.18926  1.0000
  C   C2        1.0  0.33185  0.50153  0.20125  1.0000
  C   C3        1.0  0.35886  0.45219  0.30377  1.0000
  C   C4        1.0  0.39588  0.45068  0.29395  1.0000
  C   C5        1.0  0.40740  0.49888  0.18129  1.0000
  C   C6        1.0  0.38068  0.54822  0.07697  1.0000
  C   C7        1.0  0.34361  0.54897  0.08677  1.0000
  C   C8        1.0  0.29309  0.61281  0.18775  1.0000
  C   C9        1.0  0.27376  0.66378  0.17901  1.0000
  C   C10       1.0  0.23500  0.66126  0.17733  1.0000
  C   C11       1.0  0.21565  0.60536  0.17505  1.0000
  C   C12       1.0  0.23450  0.55455  0.17963  1.0000
  C   C13       1.0  0.19075  0.71130  0.23310  1.0000
  C   C14       1.0  0.21531  0.23321  0.33022  1.0000
  C   C15       1.0  0.55565  0.45314  0.08280  1.0000
  C   C16       1.0  0.55640  0.51685  0.02984  1.0000
  C   C17       1.0  0.52840  0.55410  0.03104  1.0000
  C   C18       1.0  0.49953  0.52290  0.08895  1.0000
  C   C19       1.0  0.49899  0.45928  0.14266  1.0000
  C   C20       1.0  0.52701  0.42197  0.14222  1.0000
  C   C21       1.0  0.11550  0.02695  0.21565  1.0000
  C   C22       1.0  0.07416  0.03023  0.17919  1.0000
  C   C23       1.0  0.04920  0.98191  0.12612  1.0000
  C   C24       1.0  0.06609  0.92963  0.11673  1.0000
  C   C25       1.0  0.10812  0.92485  0.16935  1.0000
  C   C26       1.0  0.13147  0.97416  0.21406  1.0000
  C   C27       1.0  0.05682  0.07906  0.20138  1.0000
  C   C28       1.0  0.01676  0.08302  0.15931  1.0000
  C   C29       1.0  0.99028  0.03870  0.08965  1.0000
  C   C30       1.0  0.00720  0.98621  0.08157  1.0000
  C   C31       1.0  0.98216  0.93799  0.02847  1.0000
  C   C32       1.0  0.99760  0.88782  0.50786  1.0000
  C   C33       1.0  0.03951  0.88520  0.04778  1.0000
  C   C34       1.0  0.94829  0.04381  0.03593  1.0000
  C   C35       1.0  0.92338  0.99381  0.49347  1.0000
  C   C36       1.0  0.93910  0.94075  0.49272  1.0000
  C   C37       1.0  0.91272  0.88953  0.45454  1.0000
  C   C38       1.0  0.87778  0.89657  0.30231  1.0000
  C   C39       1.0  0.85385  0.84686  0.27033  1.0000
  C   C40       1.0  0.86362  0.78912  0.39259  1.0000
  C   C41       1.0  0.78080  0.41584  0.99109  1.0000
  C   C42       1.0  0.77981  0.52482  0.46114  1.0000
  C   C43       1.0  0.76243  0.35864  0.99969  1.0000
  C   C44       1.0  0.78232  0.30724  0.01460  1.0000
  C   C45       1.0  0.82112  0.30974  0.01669  1.0000
  C   C46       1.0  0.83999  0.36619  0.01375  1.0000
  C   C47       1.0  0.82056  0.41754  0.00266  1.0000
  C   C48       1.0  0.82192  0.63471  0.46323  1.0000
  C   C49       1.0  0.78764  0.63021  0.31623  1.0000
  C   C50       1.0  0.76747  0.57560  0.31356  1.0000
  C   C51       1.0  0.83866  0.73690  0.36045  1.0000
  C   C52       1.0  0.92823  0.09904  0.02281  1.0000
  C   C53       1.0  0.87645  0.14514  0.06513  1.0000
  C   C54       1.0  0.89680  0.09410  0.08162  1.0000
  C   C55       1.0  0.86445  0.25767  0.46667  1.0000
  C   C56       1.0  0.46439  0.44090  0.19365  1.0000
  C   C57       1.0  0.46556  0.54745  0.10728  1.0000
  C   C58       1.0  0.58829  0.52576  0.48953  1.0000
  C   C59       1.0  0.58933  0.42812  0.06360  1.0000
  C   C60       1.0  0.12677  0.86819  0.68128  1.0000
  C   C61       1.0  0.11689  0.80909  0.75726  1.0000
  C   C62       1.0  0.13804  0.75835  0.77550  1.0000
  C   C63       1.0  0.16955  0.76456  0.71743  1.0000
  C   C64       1.0  0.17982  0.82358  0.64305  1.0000
  C   C65       1.0  0.15898  0.87405  0.62678  1.0000
  C   C66       1.0  0.27272  0.55375  0.69402  1.0000
  C   C67       1.0  0.33060  0.49693  0.71480  1.0000
  C   C68       1.0  0.35785  0.44848  0.82444  1.0000
  C   C69       1.0  0.39439  0.44493  0.81187  1.0000
  C   C70       1.0  0.40490  0.49045  0.68977  1.0000
  C   C71       1.0  0.37798  0.53890  0.57907  1.0000
  C   C72       1.0  0.34141  0.54162  0.59151  1.0000
  C   C73       1.0  0.29179  0.61039  0.68764  1.0000
  C   C74       1.0  0.27269  0.66211  0.67603  1.0000
  C   C75       1.0  0.23404  0.66036  0.67534  1.0000
  C   C76       1.0  0.21426  0.60476  0.67286  1.0000
  C   C77       1.0  0.23287  0.55319  0.68050  1.0000
  C   C78       1.0  0.19010  0.71061  0.73184  1.0000
  C   C79       1.0  0.21417  0.23023  0.83141  1.0000
  C   C80       1.0  0.55322  0.44349  0.59335  1.0000
  C   C81       1.0  0.55367  0.50714  0.53989  1.0000
  C   C82       1.0  0.52543  0.54420  0.53947  1.0000
  C   C83       1.0  0.49649  0.51265  0.59594  1.0000
  C   C84       1.0  0.49580  0.44897  0.64902  1.0000
  C   C85       1.0  0.52423  0.41192  0.64987  1.0000
  C   C86       1.0  0.11398  0.02471  0.71761  1.0000
  C   C87       1.0  0.07281  0.02779  0.68415  1.0000
  C   C88       1.0  0.04769  0.97981  0.62985  1.0000
  C   C89       1.0  0.06438  0.92774  0.61807  1.0000
  C   C90       1.0  0.10637  0.92291  0.66957  1.0000
  C   C91       1.0  0.12975  0.97219  0.71401  1.0000
  C   C92       1.0  0.05589  0.07590  0.71126  1.0000
  C   C93       1.0  0.01590  0.07998  0.67104  1.0000
  C   C94       1.0  0.98909  0.03660  0.59761  1.0000
  C   C95       1.0  0.00574  0.98437  0.58649  1.0000
  C   C96       1.0  0.98052  0.93658  0.53155  1.0000
  C   C97       1.0  0.99947  0.88902  0.00673  1.0000
  C   C98       1.0  0.03759  0.88374  0.54793  1.0000
  C   C99       1.0  0.94702  0.04243  0.54128  1.0000
  C   C100      1.0  0.92486  0.99464  0.99162  1.0000
  C   C101      1.0  0.94079  0.94175  0.99076  1.0000
  C   C102      1.0  0.89804  0.78249  0.54783  1.0000
  C   C103      1.0  0.92226  0.83157  0.57673  1.0000
  C   C104      1.0  0.77891  0.41459  0.49280  1.0000
  C   C105      1.0  0.76019  0.35776  0.49642  1.0000
  C   C106      1.0  0.77987  0.30660  0.50847  1.0000
  C   C107      1.0  0.81880  0.30906  0.51190  1.0000
  C   C108      1.0  0.83782  0.36530  0.51158  1.0000
  C   C109      1.0  0.81858  0.41633  0.50333  1.0000
  C   C110      1.0  0.81390  0.52907  0.60756  1.0000
  C   C111      1.0  0.83492  0.58264  0.60750  1.0000
  C   C112      1.0  0.83887  0.73905  0.86539  1.0000
  C   C113      1.0  0.93804  0.15764  0.94304  1.0000
  C   C114      1.0  0.91744  0.20894  0.92493  1.0000
  C   C115      1.0  0.88648  0.20367  0.98593  1.0000
  C   C116      1.0  0.86591  0.25823  0.96744  1.0000
  C   C117      1.0  0.46079  0.43120  0.69823  1.0000
  C   C118      1.0  0.46245  0.53784  0.61150  1.0000
  C   C119      1.0  0.59115  0.53474  0.97913  1.0000
  C   C120      1.0  0.58765  0.41913  0.57773  1.0000
  N   N1        1.0  0.21804  0.71448  0.17064  1.0000
  N   N2        1.0  0.20693  0.28468  0.21003  1.0000
  N   N3        1.0  0.83850  0.25600  0.02867  1.0000
  N   N4        1.0  0.84491  0.68644  0.48391  1.0000
  N   N5        1.0  0.29376  0.50241  0.20998  1.0000
  N   N6        1.0  0.75867  0.46848  0.46766  1.0000
  N   N7        1.0  0.44456  0.49584  0.16604  1.0000
  N   N8        1.0  0.61011  0.47940  0.00344  1.0000
  N   N9        1.0  0.21744  0.71382  0.66962  1.0000
  N   N10       1.0  0.20707  0.28082  0.70806  1.0000
  N   N11       1.0  0.83584  0.25550  0.52092  1.0000
  N   N12       1.0  0.84560  0.68828  0.98778  1.0000
  N   N13       1.0  0.29254  0.49908  0.72325  1.0000
  N   N14       1.0  0.76049  0.47001  0.96209  1.0000
  N   N15       1.0  0.44170  0.48662  0.67270  1.0000
  N   N16       1.0  0.60816  0.47101  0.51672  1.0000
  O   O1        1.0  0.45733  0.60062  0.08169  1.0000
  O   O2        1.0  0.45481  0.38895  0.24787  1.0000
  O   O3        1.0  0.59812  0.57771  0.43687  1.0000
  O   O4        1.0  0.59773  0.37485  0.09101  1.0000
  O   O5        1.0  0.45385  0.59132  0.58018  1.0000
  O   O6        1.0  0.44999  0.37983  0.74903  1.0000
  O   O7        1.0  0.60190  0.58621  0.92886  1.0000
  O   O8        1.0  0.59665  0.36598  0.60798  1.0000
  C  Sn1       1.0  0.78118  0.58416  0.78118  1.0000
  C   C121      1.0  0.78824  0.53021  0.91663  1.0000
  C  Sn2       1.0  0.72321  0.62547  0.09038  1.0000
  C  Sn3       1.0  0.73901  0.68071  0.12959  1.0000
  C   C122      1.0  0.81951  0.63952  0.99419  1.0000
  C  Sn4       1.0  0.79698  0.63940  0.82039  1.0000
  O  Te1       1.0  0.75856  0.58294  0.60844  1.0000
  O  Te2       1.0  0.72988  0.57095  0.22355  1.0000
  O  Te3       1.0  0.76164  0.68189  0.30250  1.0000
  O  Te4       1.0  0.79030  0.69388  0.68727  1.0000
  Mg  Mg1       1.0  0.76253  0.59591  0.43829  1.0000
  Mg  Mg2       1.0  0.75764  0.66898  0.47251  1.0000
  C  Sn5       1.0  0.15827  0.86569  0.07578  1.0000
  C   C123      1.0  0.12756  0.86846  0.13178  1.0000
  C  Sn6       1.0  0.11977  0.81811  0.25032  1.0000
  C  Sn7       1.0  0.14318  0.76387  0.31434  1.0000
  C   C124      1.0  0.17387  0.76113  0.25838  1.0000
  C  Sn8       1.0  0.18168  0.81145  0.13980  1.0000
  O  Te5       1.0  0.25310  0.82147  0.95721  1.0000
  O  Te6       1.0  0.08890  0.82196  0.30435  1.0000
  O  Te7       1.0  0.13589  0.71296  0.43300  1.0000
  O  Te8       1.0  0.21253  0.80762  0.08581  1.0000
  Mg  Mg3       1.0  0.09057  0.74051  0.46763  1.0000
  Mg  Mg4       1.0  0.29847  0.79395  0.92261  1.0000
  C  Sn9       1.0  0.94292  0.17062  0.49373  1.0000
  C   C125      1.0  0.93494  0.10967  0.55757  1.0000
  C  Sn10      1.0  0.89853  0.09373  0.57376  1.0000
  C  Sn11      1.0  0.86947  0.13965  0.52502  1.0000
  C   C126      1.0  0.87745  0.20056  0.46120  1.0000
  C  Sn12      1.0  0.91387  0.21654  0.44500  1.0000
  O  Te9       1.0  0.97953  0.18551  0.47864  1.0000
  O  Te10      1.0  0.89124  0.03249  0.63797  1.0000
  O  Te11      1.0  0.83285  0.12471  0.54017  1.0000
  O  Te12      1.0  0.92116  0.27774  0.38081  1.0000
  Mg  Mg5       1.0  0.83688  0.03500  0.63441  1.0000
  Mg  Mg6       1.0  0.97549  0.27527  0.38422  1.0000
  C  Sn13      1.0  0.28915  0.37795  0.36545  1.0000
  C   C127      1.0  0.27986  0.43241  0.23122  1.0000
  C  Sn14      1.0  0.24263  0.44140  0.09236  1.0000
  C  Sn15      1.0  0.21407  0.39499  0.08760  1.0000
  C   C128      1.0  0.22337  0.34057  0.22178  1.0000
  C  Sn16      1.0  0.26060  0.33154  0.36070  1.0000
  O  Te13      1.0  0.32656  0.36995  0.50301  1.0000
  O  Te14      1.0  0.32159  0.40112  0.95964  1.0000
  O  Te15      1.0  0.26422  0.30792  0.94989  1.0000
  O  Te16      1.0  0.26920  0.27676  0.49336  1.0000
  Mg  Mg7       1.0  0.26653  0.39051  0.79998  1.0000
  Mg  Mg8       1.0  0.32424  0.28733  0.65313  1.0000
  C  Sn17      1.0  0.89967  0.79664  0.09271  1.0000
  C   C129      1.0  0.95226  0.70038  0.94744  1.0000
  C  Sn18      1.0  0.94336  0.74678  0.79096  1.0000
  C  Sn19      1.0  0.96999  0.79532  0.77938  1.0000
  C   C130      1.0  0.00495  0.79645  0.92457  1.0000
  C  Sn20      1.0  0.92630  0.84519  0.08113  1.0000
  O  Te17      1.0  0.90797  0.74978  0.24783  1.0000
  O  Te18      1.0  0.90820  0.74465  0.64751  1.0000
  O  Te19      1.0  0.96166  0.84220  0.62409  1.0000
  O  Te20      1.0  0.96144  0.84730  0.22450  1.0000
  Mg  Mg9       1.0  0.91005  0.81905  0.46474  1.0000
  Mg  Mg10      1.0  0.95962  0.77290  0.40730  1.0000
  C  Sn21      1.0  0.68725  0.43364  0.14278  1.0000
  C   C131      1.0  0.65572  0.47553  0.03691  1.0000
  C  Sn22      1.0  0.74299  0.42000  0.87936  1.0000
  C  Sn23      1.0  0.77487  0.41763  0.82646  1.0000
  C   C132      1.0  0.80638  0.37575  0.93228  1.0000
  C  Sn24      1.0  0.71913  0.43127  0.08988  1.0000
  O  Te21      1.0  0.68692  0.39452  0.29975  1.0000
  O  Te22      1.0  0.71115  0.46150  0.77575  1.0000
  O  Te23      1.0  0.77518  0.45680  0.66935  1.0000
  O  Te24      1.0  0.75095  0.38978  0.19344  1.0000
  Mg  Mg11      1.0  0.72511  0.50532  0.57321  1.0000
  Mg  Mg12      1.0  0.73701  0.34592  0.39594  1.0000
  C  Sn25      1.0  0.68598  0.42755  0.65156  1.0000
  C   C133      1.0  0.65390  0.46868  0.54842  1.0000
  C  Sn26      1.0  0.65295  0.50951  0.39145  1.0000
  C  Sn27      1.0  0.68473  0.50920  0.33634  1.0000
  C   C134      1.0  0.71679  0.46808  0.43942  1.0000
  C  Sn28      1.0  0.71776  0.42724  0.59645  1.0000
  O  Te25      1.0  0.68629  0.38713  0.80800  1.0000
  O  Te26      1.0  0.62057  0.55022  0.29059  1.0000
  O  Te27      1.0  0.68439  0.54967  0.17976  1.0000
  O  Te28      1.0  0.75011  0.38654  0.69725  1.0000
  Mg  Mg13      1.0  0.63375  0.59639  0.08772  1.0000
  Mg  Mg14      1.0  0.73696  0.34033  0.90009  1.0000
  C  Sn29      1.0  0.17542  0.08340  0.94264  1.0000
  C   C135      1.0  0.14128  0.08045  0.79568  1.0000
  C  Sn30      1.0  0.13231  0.12635  0.63816  1.0000
  C  Sn31      1.0  0.15802  0.17622  0.62724  1.0000
  C   C136      1.0  0.19214  0.17915  0.77412  1.0000
  C  Sn32      1.0  0.20112  0.13328  0.93172  1.0000
  O  Te29      1.0  0.09623  0.13211  0.09877  1.0000
  O  Te30      1.0  0.09800  0.12241  0.49302  1.0000
  O  Te31      1.0  0.14961  0.22264  0.47094  1.0000
  O  Te32      1.0  0.14785  0.23230  0.07678  1.0000
  Mg  Mg15      1.0  0.09937  0.19685  0.30937  1.0000
  Mg  Mg16      1.0  0.14652  0.15788  0.26045  1.0000
  C  Sn33      1.0  0.22501  0.43419  0.58312  1.0000
  C   C137      1.0  0.25855  0.44715  0.71821  1.0000
  C  Sn34      1.0  0.28074  0.40019  0.86167  1.0000
  C  Sn35      1.0  0.26918  0.33899  0.87027  1.0000
  C   C138      1.0  0.23566  0.32605  0.73523  1.0000
  C  Sn36      1.0  0.21345  0.37299  0.59171  1.0000
  O  Te33      1.0  0.20327  0.48186  0.44094  1.0000
  O  Te34      1.0  0.31415  0.41427  0.99515  1.0000
  O  Te35      1.0  0.20338  0.38642  0.01261  1.0000
  O  Te36      1.0  0.18006  0.35892  0.45828  1.0000
  Mg  Mg17      1.0  0.24658  0.42864  0.16176  1.0000
  Mg  Mg18      1.0  0.16005  0.43962  0.29158  1.0000
  C  Sn37      1.0  0.14211  0.18292  0.15917  1.0000
  C   C139      1.0  0.17837  0.18447  0.29791  1.0000
  C  Sn38      1.0  0.19891  0.13044  0.41145  1.0000
  C  Sn39      1.0  0.18288  0.07368  0.38573  1.0000
  C   C140      1.0  0.14665  0.07215  0.24706  1.0000
  C  Sn40      1.0  0.12608  0.12615  0.13346  1.0000
  O  Te37      1.0  0.12209  0.23750  0.04728  1.0000
  O  Te38      1.0  0.23510  0.13314  0.54925  1.0000
  O  Te39      1.0  0.20294  0.01908  0.49778  1.0000
  O  Te40      1.0  0.17748  0.02836  0.99572  1.0000
  Mg  Mg19      1.0  0.25123  0.04638  0.66650  1.0000
  Mg  Mg20      1.0  0.16134  0.11510  0.87833  1.0000
