data_image0
_chemical_formula_structural       H128C180N16O16C2Sn2C2HTe2HMgC2Sn2C2HTe2HMgC2Sn2C2HTe2HMgC2Sn2C2HTe2HMgC2Sn2C2HTe2HMgC2Sn2C2HTe2HMgC2Sn2C2HTe2HMgC2Sn2C2HTe2HMg
_chemical_formula_sum              "H144 C212 N16 O16 Sn16 Te16 Mg8"
_cell_length_a       27.3137
_cell_length_b       27.1123
_cell_length_c       73.7858
_cell_angle_alpha    89.9523
_cell_angle_beta     90.0475
_cell_angle_gamma    90.905

_symmetry_space_group_name_H-M    'P1'
_space_group_IT_number       1

loop_
  _space_group_symop_operation_xyz
  'x, y, z'

loop_
  _atom_site_type_symbol
  _atom_site_label
  _atom_site_symmetry_multiplicity
  _atom_site_fract_x
  _atom_site_fract_y
  _atom_site_fract_z
  _atom_site_occupancy
  H   H1        1.0  0.21316  0.46398  0.40064  1.0000
  H   H2        1.0  0.96919  0.78680  0.15164  1.0000
  H   H3        1.0  0.78717  0.97307  0.84839  1.0000
  H   H4        1.0  0.97275  0.71561  0.09853  1.0000
  H   H5        1.0  0.71334  0.96326  0.90149  1.0000
  H   H6        1.0  0.96702  0.21380  0.15048  1.0000
  H   H7        1.0  0.54000  0.21644  0.59926  1.0000
  H   H8        1.0  0.97621  0.29200  0.09731  1.0000
  H   H9        1.0  0.53591  0.67961  0.49333  1.0000
  H   H10       1.0  0.03016  0.81409  0.99519  1.0000
  H   H11       1.0  0.31994  0.03893  0.74532  1.0000
  H   H12       1.0  0.18188  0.47824  0.24392  1.0000
  H   H13       1.0  0.45768  0.81658  0.75483  1.0000
  H   H14       1.0  0.02943  0.68431  0.25398  1.0000
  H   H15       1.0  0.67920  0.46812  0.50578  1.0000
  H   H16       1.0  0.81951  0.02882  0.00620  1.0000
  H   H17       1.0  0.04400  0.18092  0.99304  1.0000
  H   H18       1.0  0.46140  0.31536  0.49585  1.0000
  H   H19       1.0  0.81708  0.52329  0.24410  1.0000
  H   H20       1.0  0.67946  0.96331  0.74416  1.0000
  H   H21       1.0  0.97270  0.31580  0.25565  1.0000
  H   H22       1.0  0.52199  0.18382  0.75625  1.0000
  H   H23       1.0  0.18414  0.97523  0.00438  1.0000
  H   H24       1.0  0.31444  0.52239  0.50433  1.0000
  H   H25       1.0  0.50684  0.73392  0.50164  1.0000
  H   H26       1.0  0.96511  0.82115  0.99711  1.0000
  H   H27       1.0  0.26600  0.00776  0.75360  1.0000
  H   H28       1.0  0.23324  0.51368  0.25214  1.0000
  H   H29       1.0  0.48867  0.76274  0.74705  1.0000
  H   H30       1.0  0.99431  0.73544  0.24619  1.0000
  H   H31       1.0  0.73219  0.50101  0.49762  1.0000
  H   H32       1.0  0.76747  0.99347  0.99849  1.0000
  H   H33       1.0  0.01496  0.23627  0.00045  1.0000
  H   H34       1.0  0.49425  0.26256  0.50354  1.0000
  H   H35       1.0  0.76656  0.48726  0.25267  1.0000
  H   H36       1.0  0.73319  0.99478  0.75251  1.0000
  H   H37       1.0  0.00622  0.26418  0.24733  1.0000
  H   H38       1.0  0.48636  0.23325  0.74737  1.0000
  H   H39       1.0  0.23481  0.01081  0.99576  1.0000
  H   H40       1.0  0.26455  0.48443  0.49636  1.0000
  H   H41       1.0  0.47021  0.68255  0.49390  1.0000
  H   H42       1.0  0.99321  0.76580  0.00505  1.0000
  H   H43       1.0  0.31627  0.97271  0.74516  1.0000
  H   H44       1.0  0.17947  0.54442  0.24435  1.0000
  H   H45       1.0  0.52338  0.81437  0.75563  1.0000
  H   H46       1.0  0.96373  0.68189  0.25533  1.0000
  H   H47       1.0  0.68008  0.53443  0.50543  1.0000
  H   H48       1.0  0.82086  0.96257  0.00649  1.0000
  H   H49       1.0  0.97846  0.18529  0.99239  1.0000
  H   H50       1.0  0.52712  0.31508  0.49463  1.0000
  H   H51       1.0  0.82055  0.45717  0.24483  1.0000
  H   H52       1.0  0.68207  0.02958  0.74464  1.0000
  H   H53       1.0  0.03854  0.31799  0.25537  1.0000
  H   H54       1.0  0.45647  0.17768  0.75504  1.0000
  H   H55       1.0  0.18168  0.04140  0.00419  1.0000
  H   H56       1.0  0.31875  0.45629  0.50504  1.0000
  H   H57       1.0  0.10556  0.00467  0.00456  1.0000
  H   H58       1.0  0.39369  0.49421  0.50481  1.0000
  H   H59       1.0  0.99510  0.60486  0.25486  1.0000
  H   H60       1.0  0.49463  0.89282  0.75522  1.0000
  H   H61       1.0  0.89575  0.49529  0.24460  1.0000
  H   H62       1.0  0.60381  0.99579  0.74469  1.0000
  H   H63       1.0  0.00232  0.89553  0.99542  1.0000
  H   H64       1.0  0.50102  0.60307  0.49402  1.0000
  H   H65       1.0  0.60258  0.49991  0.50533  1.0000
  H   H66       1.0  0.89720  0.99714  0.00565  1.0000
  H   H67       1.0  0.49606  0.10306  0.75552  1.0000
  H   H68       1.0  0.00279  0.39445  0.25529  1.0000
  H   H69       1.0  0.39508  0.00156  0.74511  1.0000
  H   H70       1.0  0.10389  0.50555  0.24434  1.0000
  H   H71       1.0  0.49815  0.39280  0.49493  1.0000
  H   H72       1.0  0.00454  0.10569  0.99353  1.0000
  H   H73       1.0  0.04872  0.00230  0.94007  1.0000
  H   H74       1.0  0.44940  0.49549  0.44024  1.0000
  H   H75       1.0  0.99992  0.54894  0.19028  1.0000
  H   H76       1.0  0.50373  0.94847  0.69066  1.0000
  H   H77       1.0  0.95042  0.49975  0.30934  1.0000
  H   H78       1.0  0.55027  0.99916  0.80949  1.0000
  H   H79       1.0  0.00227  0.95458  0.05966  1.0000
  H   H80       1.0  0.49818  0.55014  0.55899  1.0000
  H   H81       1.0  0.54913  0.49752  0.44045  1.0000
  H   H82       1.0  0.94863  0.00013  0.94061  1.0000
  H   H83       1.0  0.50471  0.04924  0.69078  1.0000
  H   H84       1.0  0.99911  0.44879  0.19049  1.0000
  H   H85       1.0  0.45096  0.00041  0.80970  1.0000
  H   H86       1.0  0.05045  0.50231  0.30917  1.0000
  H   H87       1.0  0.49893  0.44944  0.55944  1.0000
  H   H88       1.0  0.00049  0.05495  0.05871  1.0000
  H   H89       1.0  0.18459  0.01234  0.94687  1.0000
  H   H90       1.0  0.31347  0.49687  0.44730  1.0000
  H   H91       1.0  0.00173  0.68575  0.19733  1.0000
  H   H92       1.0  0.49274  0.81187  0.69745  1.0000
  H   H93       1.0  0.81487  0.48887  0.30171  1.0000
  H   H94       1.0  0.68586  0.00367  0.80202  1.0000
  H   H95       1.0  0.01133  0.81776  0.05335  1.0000
  H   H96       1.0  0.49446  0.68656  0.55095  1.0000
  H   H97       1.0  0.68462  0.50760  0.44825  1.0000
  H   H98       1.0  0.81312  0.00081  0.94859  1.0000
  H   H99       1.0  0.49177  0.18494  0.69799  1.0000
  H   H100      1.0  0.00808  0.31252  0.19770  1.0000
  H   H101      1.0  0.31555  0.01018  0.80262  1.0000
  H   H102      1.0  0.18571  0.51342  0.30177  1.0000
  H   H103      1.0  0.49469  0.31252  0.55275  1.0000
  H   H104      1.0  0.01141  0.19067  0.05071  1.0000
  H   H105      1.0  0.38517  0.52268  0.39438  1.0000
  H   H106      1.0  0.02736  0.61557  0.14425  1.0000
  H   H107      1.0  0.61299  0.01758  0.85571  1.0000
  H   H108      1.0  0.02738  0.88960  0.10657  1.0000
  H   H109      1.0  0.88334  0.02787  0.89540  1.0000
  H   H110      1.0  0.02678  0.38683  0.14487  1.0000
  H   H111      1.0  0.47050  0.38349  0.60539  1.0000
  H   H112      1.0  0.01810  0.11570  0.10423  1.0000
  H   H113      1.0  0.32863  0.52689  0.36797  1.0000
  H   H114      1.0  0.03046  0.67385  0.11808  1.0000
  H   H115      1.0  0.66864  0.01929  0.88244  1.0000
  H   H116      1.0  0.02817  0.83176  0.13287  1.0000
  H   H117      1.0  0.82718  0.02920  0.86882  1.0000
  H   H118      1.0  0.02737  0.33166  0.11792  1.0000
  H   H119      1.0  0.47173  0.32702  0.63207  1.0000
  H   H120      1.0  0.01870  0.17079  0.13123  1.0000
  H   H121      1.0  0.26916  0.46021  0.42681  1.0000
  H   H122      1.0  0.96579  0.72898  0.17748  1.0000
  H   H123      1.0  0.73201  0.97136  0.82200  1.0000
  H   H124      1.0  0.97147  0.77302  0.07255  1.0000
  H   H125      1.0  0.76898  0.96221  0.92781  1.0000
  H   H126      1.0  0.96719  0.26844  0.17721  1.0000
  H   H127      1.0  0.53822  0.27239  0.57286  1.0000
  H   H128      1.0  0.97659  0.23762  0.07056  1.0000
  C   C1        1.0  0.09352  0.00401  0.99053  1.0000
  C   C2        1.0  0.40557  0.49433  0.49077  1.0000
  C   C3        1.0  0.99619  0.59305  0.24081  1.0000
  C   C4        1.0  0.49654  0.90462  0.74117  1.0000
  C   C5        1.0  0.90725  0.49577  0.25869  1.0000
  C   C6        1.0  0.59247  0.99660  0.75878  1.0000
  C   C7        1.0  0.00237  0.90808  0.00938  1.0000
  C   C8        1.0  0.50027  0.59187  0.50815  1.0000
  C   C9        1.0  0.59131  0.49943  0.49121  1.0000
  C   C10       1.0  0.90802  0.99780  0.99149  1.0000
  C   C11       1.0  0.49793  0.09162  0.74144  1.0000
  C   C12       1.0  0.00236  0.40610  0.24121  1.0000
  C   C13       1.0  0.40693  0.00101  0.75915  1.0000
  C   C14       1.0  0.09262  0.50499  0.25844  1.0000
  C   C15       1.0  0.49798  0.40474  0.50897  1.0000
  C   C16       1.0  0.00377  0.09499  0.00771  1.0000
  C   C17       1.0  0.12713  0.00564  0.97616  1.0000
  C   C18       1.0  0.37165  0.49199  0.47646  1.0000
  C   C19       1.0  0.99550  0.62719  0.22649  1.0000
  C   C20       1.0  0.49611  0.87034  0.72690  1.0000
  C   C21       1.0  0.87320  0.49460  0.27291  1.0000
  C   C22       1.0  0.62683  0.99654  0.77295  1.0000
  C   C23       1.0  0.00347  0.87468  0.02391  1.0000
  C   C24       1.0  0.50125  0.62676  0.52221  1.0000
  C   C25       1.0  0.62573  0.49982  0.47709  1.0000
  C   C26       1.0  0.87315  0.99702  0.97750  1.0000
  C   C27       1.0  0.49701  0.12615  0.72726  1.0000
  C   C28       1.0  0.00313  0.37160  0.22703  1.0000
  C   C29       1.0  0.37317  0.00286  0.77346  1.0000
  C   C30       1.0  0.12695  0.50703  0.27261  1.0000
  C   C31       1.0  0.49784  0.37069  0.52333  1.0000
  C   C32       1.0  0.00561  0.13031  0.02162  1.0000
  C   C33       1.0  0.11073  0.00504  0.95783  1.0000
  C   C34       1.0  0.38765  0.49315  0.45809  1.0000
  C   C35       1.0  0.99724  0.61102  0.20814  1.0000
  C   C36       1.0  0.49893  0.88643  0.70854  1.0000
  C   C37       1.0  0.88894  0.49612  0.29134  1.0000
  C   C38       1.0  0.61144  0.99765  0.79141  1.0000
  C   C39       1.0  0.00373  0.89168  0.04217  1.0000
  C   C40       1.0  0.49969  0.61149  0.54069  1.0000
  C   C41       1.0  0.61030  0.49932  0.45863  1.0000
  C   C42       1.0  0.88798  0.99801  0.95897  1.0000
  C   C43       1.0  0.50016  0.11065  0.70886  1.0000
  C   C44       1.0  0.00198  0.38719  0.20860  1.0000
  C   C45       1.0  0.38924  0.00229  0.79183  1.0000
  C   C46       1.0  0.11150  0.50567  0.29104  1.0000
  C   C47       1.0  0.49824  0.38718  0.54165  1.0000
  C   C48       1.0  0.00371  0.11561  0.04015  1.0000
  C   C49       1.0  0.06014  0.00266  0.95421  1.0000
  C   C50       1.0  0.43820  0.49490  0.45438  1.0000
  C   C51       1.0  0.99849  0.56015  0.20442  1.0000
  C   C52       1.0  0.50188  0.93734  0.70482  1.0000
  C   C53       1.0  0.93945  0.49849  0.29516  1.0000
  C   C54       1.0  0.56101  0.99817  0.79530  1.0000
  C   C55       1.0  0.00230  0.94269  0.04558  1.0000
  C   C56       1.0  0.49888  0.56072  0.54476  1.0000
  C   C57       1.0  0.55986  0.49790  0.45466  1.0000
  C   C58       1.0  0.93834  0.99929  0.95486  1.0000
  C   C59       1.0  0.50299  0.05994  0.70498  1.0000
  C   C60       1.0  0.00016  0.43796  0.20469  1.0000
  C   C61       1.0  0.43970  0.00034  0.79555  1.0000
  C   C62       1.0  0.06112  0.50295  0.29497  1.0000
  C   C63       1.0  0.49865  0.43814  0.54529  1.0000
  C   C64       1.0  0.00137  0.06501  0.04443  1.0000
  C   C65       1.0  0.02669  0.00132  0.96841  1.0000
  C   C66       1.0  0.47194  0.49624  0.46852  1.0000
  C   C67       1.0  0.99866  0.52624  0.21856  1.0000
  C   C68       1.0  0.50169  0.97140  0.71890  1.0000
  C   C69       1.0  0.97332  0.49916  0.28109  1.0000
  C   C70       1.0  0.52688  0.99796  0.78130  1.0000
  C   C71       1.0  0.00128  0.97591  0.03121  1.0000
  C   C72       1.0  0.49868  0.52606  0.53086  1.0000
  C   C73       1.0  0.52564  0.49746  0.46862  1.0000
  C   C74       1.0  0.97298  0.99982  0.96869  1.0000
  C   C75       1.0  0.50241  0.02551  0.71897  1.0000
  C   C76       1.0  0.99991  0.47225  0.21869  1.0000
  C   C77       1.0  0.47327  0.99887  0.78140  1.0000
  C   C78       1.0  0.02699  0.50142  0.28098  1.0000
  C   C79       1.0  0.49848  0.47196  0.53111  1.0000
  C   C80       1.0  0.00101  0.02994  0.03071  1.0000
  C   C81       1.0  0.04388  0.00187  0.98646  1.0000
  C   C82       1.0  0.45518  0.49646  0.48662  1.0000
  C   C83       1.0  0.99805  0.54314  0.23664  1.0000
  C   C84       1.0  0.49903  0.95456  0.73699  1.0000
  C   C85       1.0  0.95671  0.49796  0.26298  1.0000
  C   C86       1.0  0.54306  0.99749  0.76315  1.0000
  C   C87       1.0  0.00167  0.95819  0.01322  1.0000
  C   C88       1.0  0.49876  0.54210  0.51266  1.0000
  C   C89       1.0  0.54187  0.49833  0.48678  1.0000
  C   C90       1.0  0.95730  0.99933  0.98691  1.0000
  C   C91       1.0  0.50041  0.04187  0.73710  1.0000
  C   C92       1.0  0.00081  0.45591  0.23685  1.0000
  C   C93       1.0  0.45647  0.99892  0.76331  1.0000
  C   C94       1.0  0.04322  0.50214  0.26282  1.0000
  C   C95       1.0  0.49832  0.45476  0.51306  1.0000
  C   C96       1.0  0.00157  0.04542  0.01245  1.0000
  C   C97       1.0  0.14608  0.00713  0.94303  1.0000
  C   C98       1.0  0.35198  0.49376  0.44334  1.0000
  C   C99       1.0  0.99873  0.64684  0.19340  1.0000
  C   C100      1.0  0.49800  0.85076  0.69372  1.0000
  C   C101      1.0  0.85292  0.49529  0.30593  1.0000
  C   C102      1.0  0.64743  0.99899  0.80606  1.0000
  C   C103      1.0  0.00557  0.85638  0.05706  1.0000
  C   C104      1.0  0.49842  0.64806  0.55518  1.0000
  C   C105      1.0  0.64652  0.50103  0.44411  1.0000
  C   C106      1.0  0.85157  0.99851  0.94444  1.0000
  C   C107      1.0  0.49943  0.14676  0.69417  1.0000
  C   C108      1.0  0.00310  0.35123  0.19389  1.0000
  C   C109      1.0  0.35373  0.00426  0.80656  1.0000
  C   C110      1.0  0.14743  0.50695  0.30569  1.0000
  C   C111      1.0  0.49796  0.35157  0.55648  1.0000
  C   C112      1.0  0.00491  0.15212  0.05468  1.0000
  C   C113      1.0  0.34726  0.51025  0.39557  1.0000
  C   C114      1.0  0.01488  0.65325  0.14566  1.0000
  C   C115      1.0  0.65136  0.00815  0.85431  1.0000
  C   C116      1.0  0.01567  0.85131  0.10502  1.0000
  C   C117      1.0  0.84584  0.01416  0.89656  1.0000
  C   C118      1.0  0.01411  0.34870  0.14589  1.0000
  C   C119      1.0  0.48542  0.34665  0.60430  1.0000
  C   C120      1.0  0.00933  0.15452  0.10294  1.0000
  C   C121      1.0  0.31553  0.51227  0.38085  1.0000
  C   C122      1.0  0.01633  0.68589  0.13110  1.0000
  C   C123      1.0  0.68262  0.00878  0.86922  1.0000
  C   C124      1.0  0.01587  0.81891  0.11964  1.0000
  C   C125      1.0  0.81434  0.01455  0.88174  1.0000
  C   C126      1.0  0.01401  0.31778  0.13088  1.0000
  C   C127      1.0  0.48654  0.31507  0.61914  1.0000
  C   C128      1.0  0.00922  0.18538  0.11797  1.0000
  C   C129      1.0  0.26635  0.49644  0.38238  1.0000
  C   C130      1.0  0.00062  0.73482  0.13302  1.0000
  C   C131      1.0  0.73240  0.99689  0.86742  1.0000
  C   C132      1.0  0.00122  0.76922  0.11754  1.0000
  C   C133      1.0  0.76567  0.99703  0.88321  1.0000
  C   C134      1.0  0.99781  0.26833  0.13222  1.0000
  C   C135      1.0  0.50564  0.26727  0.61761  1.0000
  C   C136      1.0  0.99794  0.23568  0.11626  1.0000
  C   C137      1.0  0.25047  0.47821  0.39932  1.0000
  C   C138      1.0  0.98312  0.74966  0.15008  1.0000
  C   C139      1.0  0.74930  0.98410  0.85002  1.0000
  C   C140      1.0  0.98594  0.75341  0.10023  1.0000
  C   C141      1.0  0.75017  0.97878  0.90020  1.0000
  C   C142      1.0  0.98141  0.25132  0.14927  1.0000
  C   C143      1.0  0.52363  0.25259  0.60058  1.0000
  C   C144      1.0  0.98670  0.25365  0.09883  1.0000
  C   C145      1.0  0.28202  0.47615  0.41411  1.0000
  C   C146      1.0  0.98136  0.71713  0.16466  1.0000
  C   C147      1.0  0.71815  0.98325  0.83508  1.0000
  C   C148      1.0  0.98542  0.78570  0.08558  1.0000
  C   C149      1.0  0.78156  0.97826  0.91509  1.0000
  C   C150      1.0  0.98160  0.28206  0.16437  1.0000
  C   C151      1.0  0.52248  0.28400  0.58568  1.0000
  C   C152      1.0  0.98695  0.22297  0.08373  1.0000
  C   C153      1.0  0.33105  0.49289  0.41257  1.0000
  C   C154      1.0  0.99797  0.66837  0.16278  1.0000
  C   C155      1.0  0.66846  0.99593  0.83689  1.0000
  C   C156      1.0  0.00108  0.83522  0.08765  1.0000
  C   C157      1.0  0.83004  0.99669  0.91361  1.0000
  C   C158      1.0  0.99861  0.33135  0.16299  1.0000
  C   C159      1.0  0.50275  0.33159  0.58724  1.0000
  C   C160      1.0  0.99880  0.17270  0.08549  1.0000
  C   C161      1.0  0.50429  0.69362  0.50084  1.0000
  C   C162      1.0  0.99782  0.80583  0.00359  1.0000
  C   C163      1.0  0.30595  0.00615  0.75256  1.0000
  C   C164      1.0  0.19322  0.51163  0.25138  1.0000
  C   C165      1.0  0.49056  0.80303  0.74796  1.0000
  C   C166      1.0  0.99522  0.69519  0.24732  1.0000
  C   C167      1.0  0.69215  0.50103  0.49838  1.0000
  C   C168      1.0  0.80752  0.99500  0.99914  1.0000
  C   C169      1.0  0.01178  0.19599  0.99989  1.0000
  C   C170      1.0  0.49500  0.30287  0.50253  1.0000
  C   C171      1.0  0.80652  0.48995  0.25174  1.0000
  C   C172      1.0  0.69319  0.99574  0.75166  1.0000
  C   C173      1.0  0.00559  0.30448  0.24824  1.0000
  C   C174      1.0  0.48926  0.19309  0.74834  1.0000
  C   C175      1.0  0.19486  0.00881  0.99691  1.0000
  C   C176      1.0  0.30446  0.48778  0.49739  1.0000
  C   C177      1.0  0.00115  0.00096  0.99976  1.0000
  C   C178      1.0  0.49840  0.49799  0.49978  1.0000
  C   C179      1.0  0.99973  0.49975  0.24983  1.0000
  C   C180      1.0  0.49950  0.99807  0.75014  1.0000
  N   N1        1.0  0.50087  0.63475  0.57201  1.0000
  N   N2        1.0  0.00132  0.87044  0.07375  1.0000
  N   N3        1.0  0.36727  0.99991  0.82330  1.0000
  N   N4        1.0  0.13390  0.50095  0.32238  1.0000
  N   N5        1.0  0.50221  0.86523  0.67705  1.0000
  N   N6        1.0  0.99757  0.63292  0.17662  1.0000
  N   N7        1.0  0.63357  0.49617  0.42730  1.0000
  N   N8        1.0  0.86483  0.99731  0.92759  1.0000
  N   N9        1.0  0.99920  0.13834  0.07136  1.0000
  N   N10       1.0  0.50087  0.36612  0.57316  1.0000
  N   N11       1.0  0.86586  0.50182  0.32268  1.0000
  N   N12       1.0  0.63384  0.99567  0.82285  1.0000
  N   N13       1.0  0.99933  0.36548  0.17720  1.0000
  N   N14       1.0  0.50672  0.13351  0.67754  1.0000
  N   N15       1.0  0.13220  0.00382  0.92628  1.0000
  N   N16       1.0  0.36579  0.49230  0.42656  1.0000
  O   O1        1.0  0.50448  0.67674  0.51927  1.0000
  O   O2        1.0  0.00400  0.82448  0.02167  1.0000
  O   O3        1.0  0.32350  0.00501  0.77089  1.0000
  O   O4        1.0  0.17656  0.50991  0.26982  1.0000
  O   O5        1.0  0.49298  0.82026  0.72957  1.0000
  O   O6        1.0  0.99292  0.67725  0.22904  1.0000
  O   O7        1.0  0.67541  0.50011  0.47994  1.0000
  O   O8        1.0  0.82365  0.99501  0.98063  1.0000
  O   O9        1.0  0.00933  0.18008  0.01842  1.0000
  O   O10       1.0  0.49766  0.32048  0.52086  1.0000
  O   O11       1.0  0.82356  0.49252  0.27012  1.0000
  O   O12       1.0  0.67639  0.99511  0.77009  1.0000
  O   O13       1.0  0.00471  0.32165  0.22985  1.0000
  O   O14       1.0  0.49303  0.17598  0.72999  1.0000
  O   O15       1.0  0.17690  0.00751  0.97863  1.0000
  O   O16       1.0  0.32198  0.48776  0.47906  1.0000
  C   C181      1.0  0.83091  0.50295  0.36756  1.0000
  C   C182      1.0  0.77983  0.50475  0.36820  1.0000
  C  Sn1       1.0  0.75241  0.50255  0.35222  1.0000
  C  Sn2       1.0  0.77668  0.49846  0.33530  1.0000
  C   C183      1.0  0.82779  0.49664  0.33481  1.0000
  C   C184      1.0  0.85487  0.49889  0.35088  1.0000
  H   H129      1.0  0.85186  0.50466  0.37999  1.0000
  O  Te1       1.0  0.70141  0.50442  0.35310  1.0000
  O  Te2       1.0  0.75017  0.49617  0.31913  1.0000
  H   H130      1.0  0.89441  0.49746  0.35038  1.0000
  Mg  Mg1       1.0  0.68135  0.50007  0.32734  1.0000
  C   C185      1.0  0.67049  0.51115  0.38298  1.0000
  C   C186      1.0  0.72127  0.50574  0.38244  1.0000
  C  Sn3       1.0  0.74685  0.49245  0.39806  1.0000
  C  Sn4       1.0  0.72103  0.48442  0.41450  1.0000
  C   C187      1.0  0.67023  0.48989  0.41490  1.0000
  C   C188      1.0  0.64499  0.50322  0.39920  1.0000
  H   H131      1.0  0.65096  0.52144  0.37083  1.0000
  O  Te3       1.0  0.79758  0.48722  0.39728  1.0000
  O  Te4       1.0  0.74569  0.47108  0.43031  1.0000
  H   H132      1.0  0.60567  0.50738  0.39962  1.0000
  Mg  Mg2       1.0  0.81486  0.46852  0.42241  1.0000
  C   C189      1.0  0.49466  0.15283  0.64104  1.0000
  C   C190      1.0  0.50824  0.16257  0.65897  1.0000
  C  Sn5       1.0  0.52008  0.21067  0.66437  1.0000
  C  Sn6       1.0  0.51824  0.24968  0.65157  1.0000
  C   C191      1.0  0.50458  0.23956  0.63368  1.0000
  C   C192      1.0  0.49282  0.19129  0.62841  1.0000
  H   H133      1.0  0.48554  0.11549  0.63697  1.0000
  O  Te5       1.0  0.53358  0.21975  0.68233  1.0000
  O  Te6       1.0  0.52987  0.29810  0.65661  1.0000
  H   H134      1.0  0.48228  0.18377  0.61453  1.0000
  Mg  Mg3       1.0  0.54615  0.29190  0.68266  1.0000
  C   C193      1.0  0.48521  0.84603  0.64075  1.0000
  C   C194      1.0  0.49733  0.83569  0.65874  1.0000
  C  Sn7       1.0  0.51454  0.78919  0.66352  1.0000
  C  Sn8       1.0  0.51969  0.75245  0.65000  1.0000
  C   C195      1.0  0.50749  0.76318  0.63204  1.0000
  C   C196      1.0  0.49029  0.80982  0.62740  1.0000
  H   H135      1.0  0.47192  0.88212  0.63716  1.0000
  O  Te7       1.0  0.52647  0.77947  0.68157  1.0000
  O  Te8       1.0  0.53683  0.70568  0.65441  1.0000
  H   H136      1.0  0.48094  0.81782  0.61347  1.0000
  Mg  Mg4       1.0  0.54830  0.71018  0.68086  1.0000
  C   C197      1.0  0.17098  0.51310  0.36686  1.0000
  C   C198      1.0  0.21973  0.49841  0.36779  1.0000
  C  Sn9       1.0  0.24461  0.48498  0.35205  1.0000
  C  Sn10      1.0  0.22013  0.48633  0.33509  1.0000
  C   C199      1.0  0.17136  0.50111  0.33431  1.0000
  C   C200      1.0  0.14681  0.51445  0.35014  1.0000
  H   H137      1.0  0.15199  0.52345  0.37911  1.0000
  O  Te9       1.0  0.29330  0.47038  0.35322  1.0000
  O  Te10      1.0  0.24412  0.47311  0.31916  1.0000
  H   H138      1.0  0.10908  0.52586  0.34942  1.0000
  Mg  Mg5       1.0  0.31039  0.45578  0.32772  1.0000
  C   C201      1.0  0.51580  0.74969  0.59414  1.0000
  C   C202      1.0  0.50133  0.73970  0.61195  1.0000
  C  Sn11      1.0  0.48791  0.69176  0.61708  1.0000
  C  Sn12      1.0  0.48906  0.65317  0.60412  1.0000
  C   C203      1.0  0.50363  0.66353  0.58634  1.0000
  C   C204      1.0  0.51696  0.71165  0.58135  1.0000
  H   H139      1.0  0.52615  0.78691  0.59028  1.0000
  O  Te11      1.0  0.47352  0.68242  0.63493  1.0000
  O  Te12      1.0  0.47585  0.60491  0.60889  1.0000
  H   H140      1.0  0.52820  0.71936  0.56756  1.0000
  Mg  Mg6       1.0  0.45885  0.61064  0.63487  1.0000
  C   C205      1.0  0.32983  0.01576  0.86754  1.0000
  C   C206      1.0  0.27923  0.00739  0.86794  1.0000
  C  Sn13      1.0  0.27016  0.99177  0.85234  1.0000
  C  Sn14      1.0  0.29666  0.98441  0.83606  1.0000
  C   C207      1.0  0.34729  0.99284  0.83581  1.0000
  C   C208      1.0  0.35601  0.00848  0.85149  1.0000
  H   H141      1.0  0.34872  0.02783  0.87968  1.0000
  O  Te13      1.0  0.21959  0.98361  0.85297  1.0000
  O  Te14      1.0  0.27285  0.96879  0.82027  1.0000
  H   H142      1.0  0.39519  0.01492  0.85119  1.0000
  Mg  Mg7       1.0  0.20356  0.96258  0.82793  1.0000
  C   C209      1.0  0.22748  0.98232  0.91261  1.0000
  C   C210      1.0  0.16455  0.00113  0.91366  1.0000
  C  Sn15      1.0  0.14205  0.02030  0.89823  1.0000
  C  Sn16      1.0  0.16741  0.02058  0.88145  1.0000
  C   C211      1.0  0.21466  0.00164  0.88054  1.0000
  C   C212      1.0  0.25251  0.98256  0.89607  1.0000
  H   H143      1.0  0.24463  0.96753  0.92462  1.0000
  O  Te15      1.0  0.09483  0.03897  0.89952  1.0000
  O  Te16      1.0  0.14578  0.03950  0.86582  1.0000
  H   H144      1.0  0.28908  0.96797  0.89525  1.0000
  Mg  Mg8       1.0  0.08083  0.06080  0.87444  1.0000
