data_image0
_chemical_formula_structural       H96C132N16O16SnCSn2CSnTe4Mg2SnCSn2CSnTe4Mg2SnCSn2CSnTe4Mg2SnCSn2CSnTe4Mg2SnCSn2CSnTe4Mg2SnCSn2CSnTe4Mg2SnCSn2CSnTe4Mg2SnCSn2CSnTe4Mg2SnCSn2CSnTe4Mg2SnCSn2CSnTe4Mg2SnCSn2CSnTe4Mg2SnCSn2CSnTe4Mg2SnCSn2CSnTe4Mg2SnCSn2CSnTe4Mg2SnCSn2CSnTe4Mg2SnCSn2CSnTe4Mg2
_chemical_formula_sum              "H96 C164 N16 O16 Sn64 Te64 Mg32"
_cell_length_a       27.3137
_cell_length_b       27.1123
_cell_length_c       73.7858
_cell_angle_alpha    89.9523
_cell_angle_beta     90.0475
_cell_angle_gamma    90.905

_symmetry_space_group_name_H-M    'P1'
_space_group_IT_number       1

loop_
  _space_group_symop_operation_xyz
  'x, y, z'

loop_
  _atom_site_type_symbol
  _atom_site_label
  _atom_site_symmetry_multiplicity
  _atom_site_fract_x
  _atom_site_fract_y
  _atom_site_fract_z
  _atom_site_occupancy
  H   H1        1.0  0.53591  0.67961  0.49333  1.0000
  H   H2        1.0  0.03016  0.81409  0.99519  1.0000
  H   H3        1.0  0.31994  0.03893  0.74532  1.0000
  H   H4        1.0  0.18188  0.47824  0.24392  1.0000
  H   H5        1.0  0.45768  0.81658  0.75483  1.0000
  H   H6        1.0  0.02943  0.68431  0.25398  1.0000
  H   H7        1.0  0.67920  0.46812  0.50578  1.0000
  H   H8        1.0  0.81951  0.02882  0.00620  1.0000
  H   H9        1.0  0.04400  0.18092  0.99304  1.0000
  H   H10       1.0  0.46140  0.31536  0.49585  1.0000
  H   H11       1.0  0.81708  0.52329  0.24410  1.0000
  H   H12       1.0  0.67946  0.96331  0.74416  1.0000
  H   H13       1.0  0.97270  0.31580  0.25565  1.0000
  H   H14       1.0  0.52199  0.18382  0.75625  1.0000
  H   H15       1.0  0.18414  0.97523  0.00438  1.0000
  H   H16       1.0  0.31444  0.52239  0.50433  1.0000
  H   H17       1.0  0.50684  0.73392  0.50164  1.0000
  H   H18       1.0  0.96511  0.82115  0.99711  1.0000
  H   H19       1.0  0.26600  0.00776  0.75360  1.0000
  H   H20       1.0  0.23324  0.51368  0.25214  1.0000
  H   H21       1.0  0.48867  0.76274  0.74705  1.0000
  H   H22       1.0  0.99431  0.73544  0.24619  1.0000
  H   H23       1.0  0.73219  0.50101  0.49762  1.0000
  H   H24       1.0  0.76747  0.99347  0.99849  1.0000
  H   H25       1.0  0.01496  0.23627  0.00045  1.0000
  H   H26       1.0  0.49425  0.26256  0.50354  1.0000
  H   H27       1.0  0.76656  0.48726  0.25267  1.0000
  H   H28       1.0  0.73319  0.99478  0.75251  1.0000
  H   H29       1.0  0.00622  0.26418  0.24733  1.0000
  H   H30       1.0  0.48636  0.23325  0.74737  1.0000
  H   H31       1.0  0.23481  0.01081  0.99576  1.0000
  H   H32       1.0  0.26455  0.48443  0.49636  1.0000
  H   H33       1.0  0.47021  0.68255  0.49390  1.0000
  H   H34       1.0  0.99321  0.76580  0.00505  1.0000
  H   H35       1.0  0.31627  0.97271  0.74516  1.0000
  H   H36       1.0  0.17947  0.54442  0.24435  1.0000
  H   H37       1.0  0.52338  0.81437  0.75563  1.0000
  H   H38       1.0  0.96373  0.68189  0.25533  1.0000
  H   H39       1.0  0.68008  0.53443  0.50543  1.0000
  H   H40       1.0  0.82086  0.96257  0.00649  1.0000
  H   H41       1.0  0.97846  0.18529  0.99239  1.0000
  H   H42       1.0  0.52712  0.31508  0.49463  1.0000
  H   H43       1.0  0.82055  0.45717  0.24483  1.0000
  H   H44       1.0  0.68207  0.02958  0.74464  1.0000
  H   H45       1.0  0.03854  0.31799  0.25537  1.0000
  H   H46       1.0  0.45647  0.17768  0.75504  1.0000
  H   H47       1.0  0.18168  0.04140  0.00419  1.0000
  H   H48       1.0  0.31875  0.45629  0.50504  1.0000
  H   H49       1.0  0.10556  0.00467  0.00456  1.0000
  H   H50       1.0  0.39369  0.49421  0.50481  1.0000
  H   H51       1.0  0.99510  0.60486  0.25486  1.0000
  H   H52       1.0  0.49463  0.89282  0.75522  1.0000
  H   H53       1.0  0.89575  0.49529  0.24460  1.0000
  H   H54       1.0  0.60381  0.99579  0.74469  1.0000
  H   H55       1.0  0.00232  0.89553  0.99542  1.0000
  H   H56       1.0  0.50102  0.60307  0.49402  1.0000
  H   H57       1.0  0.60258  0.49991  0.50533  1.0000
  H   H58       1.0  0.89720  0.99714  0.00565  1.0000
  H   H59       1.0  0.49606  0.10306  0.75552  1.0000
  H   H60       1.0  0.00279  0.39445  0.25529  1.0000
  H   H61       1.0  0.39508  0.00156  0.74511  1.0000
  H   H62       1.0  0.10389  0.50555  0.24434  1.0000
  H   H63       1.0  0.49815  0.39280  0.49493  1.0000
  H   H64       1.0  0.00454  0.10569  0.99353  1.0000
  H   H65       1.0  0.04872  0.00230  0.94007  1.0000
  H   H66       1.0  0.44940  0.49549  0.44024  1.0000
  H   H67       1.0  0.99992  0.54894  0.19028  1.0000
  H   H68       1.0  0.50373  0.94847  0.69066  1.0000
  H   H69       1.0  0.95042  0.49975  0.30934  1.0000
  H   H70       1.0  0.55027  0.99916  0.80949  1.0000
  H   H71       1.0  0.00227  0.95458  0.05966  1.0000
  H   H72       1.0  0.49818  0.55014  0.55899  1.0000
  H   H73       1.0  0.54913  0.49752  0.44045  1.0000
  H   H74       1.0  0.94863  0.00013  0.94061  1.0000
  H   H75       1.0  0.50471  0.04924  0.69078  1.0000
  H   H76       1.0  0.99911  0.44879  0.19049  1.0000
  H   H77       1.0  0.45096  0.00041  0.80970  1.0000
  H   H78       1.0  0.05045  0.50231  0.30917  1.0000
  H   H79       1.0  0.49893  0.44944  0.55944  1.0000
  H   H80       1.0  0.00049  0.05495  0.05871  1.0000
  H   H81       1.0  0.18459  0.01234  0.94687  1.0000
  H   H82       1.0  0.31347  0.49687  0.44730  1.0000
  H   H83       1.0  0.00173  0.68575  0.19733  1.0000
  H   H84       1.0  0.49274  0.81187  0.69745  1.0000
  H   H85       1.0  0.81487  0.48887  0.30171  1.0000
  H   H86       1.0  0.68586  0.00367  0.80202  1.0000
  H   H87       1.0  0.01133  0.81776  0.05335  1.0000
  H   H88       1.0  0.49446  0.68656  0.55095  1.0000
  H   H89       1.0  0.68462  0.50760  0.44825  1.0000
  H   H90       1.0  0.81312  0.00081  0.94859  1.0000
  H   H91       1.0  0.49177  0.18494  0.69799  1.0000
  H   H92       1.0  0.00808  0.31252  0.19770  1.0000
  H   H93       1.0  0.31555  0.01018  0.80262  1.0000
  H   H94       1.0  0.18571  0.51342  0.30177  1.0000
  H   H95       1.0  0.49469  0.31252  0.55275  1.0000
  H   H96       1.0  0.01141  0.19067  0.05071  1.0000
  C   C1        1.0  0.09352  0.00401  0.99053  1.0000
  C   C2        1.0  0.40557  0.49433  0.49077  1.0000
  C   C3        1.0  0.99619  0.59305  0.24081  1.0000
  C   C4        1.0  0.49654  0.90462  0.74117  1.0000
  C   C5        1.0  0.90725  0.49577  0.25869  1.0000
  C   C6        1.0  0.59247  0.99660  0.75878  1.0000
  C   C7        1.0  0.00237  0.90808  0.00938  1.0000
  C   C8        1.0  0.50027  0.59187  0.50815  1.0000
  C   C9        1.0  0.59131  0.49943  0.49121  1.0000
  C   C10       1.0  0.90802  0.99780  0.99149  1.0000
  C   C11       1.0  0.49793  0.09162  0.74144  1.0000
  C   C12       1.0  0.00236  0.40610  0.24121  1.0000
  C   C13       1.0  0.40693  0.00101  0.75915  1.0000
  C   C14       1.0  0.09262  0.50499  0.25844  1.0000
  C   C15       1.0  0.49798  0.40474  0.50897  1.0000
  C   C16       1.0  0.00377  0.09499  0.00771  1.0000
  C   C17       1.0  0.12713  0.00564  0.97616  1.0000
  C   C18       1.0  0.37165  0.49199  0.47646  1.0000
  C   C19       1.0  0.99550  0.62719  0.22649  1.0000
  C   C20       1.0  0.49611  0.87034  0.72690  1.0000
  C   C21       1.0  0.87320  0.49460  0.27291  1.0000
  C   C22       1.0  0.62683  0.99654  0.77295  1.0000
  C   C23       1.0  0.00347  0.87468  0.02391  1.0000
  C   C24       1.0  0.50125  0.62676  0.52221  1.0000
  C   C25       1.0  0.62573  0.49982  0.47709  1.0000
  C   C26       1.0  0.87315  0.99702  0.97750  1.0000
  C   C27       1.0  0.49701  0.12615  0.72726  1.0000
  C   C28       1.0  0.00313  0.37160  0.22703  1.0000
  C   C29       1.0  0.37317  0.00286  0.77346  1.0000
  C   C30       1.0  0.12695  0.50703  0.27261  1.0000
  C   C31       1.0  0.49784  0.37069  0.52333  1.0000
  C   C32       1.0  0.00561  0.13031  0.02162  1.0000
  C   C33       1.0  0.11073  0.00504  0.95783  1.0000
  C   C34       1.0  0.38765  0.49315  0.45809  1.0000
  C   C35       1.0  0.99724  0.61102  0.20814  1.0000
  C   C36       1.0  0.49893  0.88643  0.70854  1.0000
  C   C37       1.0  0.88894  0.49612  0.29134  1.0000
  C   C38       1.0  0.61144  0.99765  0.79141  1.0000
  C   C39       1.0  0.00373  0.89168  0.04217  1.0000
  C   C40       1.0  0.49969  0.61149  0.54069  1.0000
  C   C41       1.0  0.61030  0.49932  0.45863  1.0000
  C   C42       1.0  0.88798  0.99801  0.95897  1.0000
  C   C43       1.0  0.50016  0.11065  0.70886  1.0000
  C   C44       1.0  0.00198  0.38719  0.20860  1.0000
  C   C45       1.0  0.38924  0.00229  0.79183  1.0000
  C   C46       1.0  0.11150  0.50567  0.29104  1.0000
  C   C47       1.0  0.49824  0.38718  0.54165  1.0000
  C   C48       1.0  0.00371  0.11561  0.04015  1.0000
  C   C49       1.0  0.06014  0.00266  0.95421  1.0000
  C   C50       1.0  0.43820  0.49490  0.45438  1.0000
  C   C51       1.0  0.99849  0.56015  0.20442  1.0000
  C   C52       1.0  0.50188  0.93734  0.70482  1.0000
  C   C53       1.0  0.93945  0.49849  0.29516  1.0000
  C   C54       1.0  0.56101  0.99817  0.79530  1.0000
  C   C55       1.0  0.00230  0.94269  0.04558  1.0000
  C   C56       1.0  0.49888  0.56072  0.54476  1.0000
  C   C57       1.0  0.55986  0.49790  0.45466  1.0000
  C   C58       1.0  0.93834  0.99929  0.95486  1.0000
  C   C59       1.0  0.50299  0.05994  0.70498  1.0000
  C   C60       1.0  0.00016  0.43796  0.20469  1.0000
  C   C61       1.0  0.43970  0.00034  0.79555  1.0000
  C   C62       1.0  0.06112  0.50295  0.29497  1.0000
  C   C63       1.0  0.49865  0.43814  0.54529  1.0000
  C   C64       1.0  0.00137  0.06501  0.04443  1.0000
  C   C65       1.0  0.02669  0.00132  0.96841  1.0000
  C   C66       1.0  0.47194  0.49624  0.46852  1.0000
  C   C67       1.0  0.99866  0.52624  0.21856  1.0000
  C   C68       1.0  0.50169  0.97140  0.71890  1.0000
  C   C69       1.0  0.97332  0.49916  0.28109  1.0000
  C   C70       1.0  0.52688  0.99796  0.78130  1.0000
  C   C71       1.0  0.00128  0.97591  0.03121  1.0000
  C   C72       1.0  0.49868  0.52606  0.53086  1.0000
  C   C73       1.0  0.52564  0.49746  0.46862  1.0000
  C   C74       1.0  0.97298  0.99982  0.96869  1.0000
  C   C75       1.0  0.50241  0.02551  0.71897  1.0000
  C   C76       1.0  0.99991  0.47225  0.21869  1.0000
  C   C77       1.0  0.47327  0.99887  0.78140  1.0000
  C   C78       1.0  0.02699  0.50142  0.28098  1.0000
  C   C79       1.0  0.49848  0.47196  0.53111  1.0000
  C   C80       1.0  0.00101  0.02994  0.03071  1.0000
  C   C81       1.0  0.04388  0.00187  0.98646  1.0000
  C   C82       1.0  0.45518  0.49646  0.48662  1.0000
  C   C83       1.0  0.99805  0.54314  0.23664  1.0000
  C   C84       1.0  0.49903  0.95456  0.73699  1.0000
  C   C85       1.0  0.95671  0.49796  0.26298  1.0000
  C   C86       1.0  0.54306  0.99749  0.76315  1.0000
  C   C87       1.0  0.00167  0.95819  0.01322  1.0000
  C   C88       1.0  0.49876  0.54210  0.51266  1.0000
  C   C89       1.0  0.54187  0.49833  0.48678  1.0000
  C   C90       1.0  0.95730  0.99933  0.98691  1.0000
  C   C91       1.0  0.50041  0.04187  0.73710  1.0000
  C   C92       1.0  0.00081  0.45591  0.23685  1.0000
  C   C93       1.0  0.45647  0.99892  0.76331  1.0000
  C   C94       1.0  0.04322  0.50214  0.26282  1.0000
  C   C95       1.0  0.49832  0.45476  0.51306  1.0000
  C   C96       1.0  0.00157  0.04542  0.01245  1.0000
  C   C97       1.0  0.14608  0.00713  0.94303  1.0000
  C   C98       1.0  0.35198  0.49376  0.44334  1.0000
  C   C99       1.0  0.99873  0.64684  0.19340  1.0000
  C   C100      1.0  0.49800  0.85076  0.69372  1.0000
  C   C101      1.0  0.85292  0.49529  0.30593  1.0000
  C   C102      1.0  0.64743  0.99899  0.80606  1.0000
  C   C103      1.0  0.00557  0.85638  0.05706  1.0000
  C   C104      1.0  0.49842  0.64806  0.55518  1.0000
  C   C105      1.0  0.64652  0.50103  0.44411  1.0000
  C   C106      1.0  0.85157  0.99851  0.94444  1.0000
  C   C107      1.0  0.49943  0.14676  0.69417  1.0000
  C   C108      1.0  0.00310  0.35123  0.19389  1.0000
  C   C109      1.0  0.35373  0.00426  0.80656  1.0000
  C   C110      1.0  0.14743  0.50695  0.30569  1.0000
  C   C111      1.0  0.49796  0.35157  0.55648  1.0000
  C   C112      1.0  0.00491  0.15212  0.05468  1.0000
  C   C113      1.0  0.50429  0.69362  0.50084  1.0000
  C   C114      1.0  0.99782  0.80583  0.00359  1.0000
  C   C115      1.0  0.30595  0.00615  0.75256  1.0000
  C   C116      1.0  0.19322  0.51163  0.25138  1.0000
  C   C117      1.0  0.49056  0.80303  0.74796  1.0000
  C   C118      1.0  0.99522  0.69519  0.24732  1.0000
  C   C119      1.0  0.69215  0.50103  0.49838  1.0000
  C   C120      1.0  0.80752  0.99500  0.99914  1.0000
  C   C121      1.0  0.01178  0.19599  0.99989  1.0000
  C   C122      1.0  0.49500  0.30287  0.50253  1.0000
  C   C123      1.0  0.80652  0.48995  0.25174  1.0000
  C   C124      1.0  0.69319  0.99574  0.75166  1.0000
  C   C125      1.0  0.00559  0.30448  0.24824  1.0000
  C   C126      1.0  0.48926  0.19309  0.74834  1.0000
  C   C127      1.0  0.19486  0.00881  0.99691  1.0000
  C   C128      1.0  0.30446  0.48778  0.49739  1.0000
  C   C129      1.0  0.00115  0.00096  0.99976  1.0000
  C   C130      1.0  0.49840  0.49799  0.49978  1.0000
  C   C131      1.0  0.99973  0.49975  0.24983  1.0000
  C   C132      1.0  0.49950  0.99807  0.75014  1.0000
  N   N1        1.0  0.50087  0.63475  0.57201  1.0000
  N   N2        1.0  0.00132  0.87044  0.07375  1.0000
  N   N3        1.0  0.36727  0.99991  0.82330  1.0000
  N   N4        1.0  0.13390  0.50095  0.32238  1.0000
  N   N5        1.0  0.50221  0.86523  0.67705  1.0000
  N   N6        1.0  0.99757  0.63292  0.17662  1.0000
  N   N7        1.0  0.63357  0.49617  0.42730  1.0000
  N   N8        1.0  0.86483  0.99731  0.92759  1.0000
  N   N9        1.0  0.99920  0.13834  0.07136  1.0000
  N   N10       1.0  0.50087  0.36612  0.57316  1.0000
  N   N11       1.0  0.86586  0.50182  0.32268  1.0000
  N   N12       1.0  0.63384  0.99567  0.82285  1.0000
  N   N13       1.0  0.99933  0.36548  0.17720  1.0000
  N   N14       1.0  0.50672  0.13351  0.67754  1.0000
  N   N15       1.0  0.13220  0.00382  0.92628  1.0000
  N   N16       1.0  0.36579  0.49230  0.42656  1.0000
  O   O1        1.0  0.50448  0.67674  0.51927  1.0000
  O   O2        1.0  0.00400  0.82448  0.02167  1.0000
  O   O3        1.0  0.32350  0.00501  0.77089  1.0000
  O   O4        1.0  0.17656  0.50991  0.26982  1.0000
  O   O5        1.0  0.49298  0.82026  0.72957  1.0000
  O   O6        1.0  0.99292  0.67725  0.22904  1.0000
  O   O7        1.0  0.67541  0.50011  0.47994  1.0000
  O   O8        1.0  0.82365  0.99501  0.98063  1.0000
  O   O9        1.0  0.00933  0.18008  0.01842  1.0000
  O   O10       1.0  0.49766  0.32048  0.52086  1.0000
  O   O11       1.0  0.82356  0.49252  0.27012  1.0000
  O   O12       1.0  0.67639  0.99511  0.77009  1.0000
  O   O13       1.0  0.00471  0.32165  0.22985  1.0000
  O   O14       1.0  0.49303  0.17598  0.72999  1.0000
  O   O15       1.0  0.17690  0.00751  0.97863  1.0000
  O   O16       1.0  0.32198  0.48776  0.47906  1.0000
  C  Sn1       1.0  0.18001  0.03464  0.88429  1.0000
  C   C133      1.0  0.22817  0.01802  0.88383  1.0000
  C  Sn2       1.0  0.26156  0.98801  0.89769  1.0000
  C  Sn3       1.0  0.23048  0.97429  0.91230  1.0000
  C   C134      1.0  0.18235  0.99090  0.91274  1.0000
  C  Sn4       1.0  0.14893  0.02092  0.89890  1.0000
  O  Te1       1.0  0.16308  0.06460  0.87029  1.0000
  O  Te2       1.0  0.30984  0.97188  0.89694  1.0000
  O  Te3       1.0  0.24745  0.94430  0.92630  1.0000
  O  Te4       1.0  0.10068  0.03704  0.89964  1.0000
  Mg  Mg1       1.0  0.31599  0.93165  0.91921  1.0000
  Mg  Mg2       1.0  0.09448  0.07724  0.87737  1.0000
  C  Sn5       1.0  0.32883  0.49946  0.38172  1.0000
  C   C135      1.0  0.27923  0.48615  0.38102  1.0000
  C  Sn6       1.0  0.25263  0.47883  0.39699  1.0000
  C  Sn7       1.0  0.27610  0.48497  0.41401  1.0000
  C   C136      1.0  0.32567  0.49829  0.41470  1.0000
  C  Sn8       1.0  0.35230  0.50561  0.39874  1.0000
  O  Te5       1.0  0.35470  0.50659  0.36559  1.0000
  O  Te6       1.0  0.20309  0.46552  0.39595  1.0000
  O  Te7       1.0  0.25018  0.47783  0.43015  1.0000
  O  Te8       1.0  0.40181  0.51892  0.39978  1.0000
  Mg  Mg3       1.0  0.18343  0.45999  0.42170  1.0000
  Mg  Mg4       1.0  0.42149  0.52448  0.37404  1.0000
  C  Sn9       1.0  0.96672  0.72221  0.16082  1.0000
  C   C137      1.0  0.98241  0.67343  0.16144  1.0000
  C  Sn10      1.0  0.01288  0.65517  0.14790  1.0000
  C  Sn11      1.0  0.02801  0.68633  0.13344  1.0000
  C   C138      1.0  0.01234  0.73509  0.13282  1.0000
  C  Sn12      1.0  0.98186  0.75337  0.14636  1.0000
  O  Te9       1.0  0.93627  0.73968  0.17450  1.0000
  O  Te10      1.0  0.02807  0.60626  0.14881  1.0000
  O  Te11      1.0  0.05849  0.66881  0.11975  1.0000
  O  Te12      1.0  0.96668  0.80225  0.14545  1.0000
  Mg  Mg5       1.0  0.06945  0.59953  0.12696  1.0000
  Mg  Mg6       1.0  0.92532  0.80903  0.16730  1.0000
  C  Sn13      1.0  0.49885  0.82981  0.63195  1.0000
  C   C139      1.0  0.51184  0.78021  0.63119  1.0000
  C  Sn14      1.0  0.51756  0.75299  0.64711  1.0000
  C  Sn15      1.0  0.51013  0.77582  0.66415  1.0000
  C   C140      1.0  0.49715  0.82540  0.66491  1.0000
  C  Sn16      1.0  0.49142  0.85264  0.64899  1.0000
  O  Te13      1.0  0.49332  0.85631  0.61586  1.0000
  O  Te14      1.0  0.53058  0.70345  0.64600  1.0000
  O  Te15      1.0  0.51567  0.74928  0.68025  1.0000
  O  Te16      1.0  0.47840  0.90215  0.65010  1.0000
  Mg  Mg7       1.0  0.53373  0.68281  0.67172  1.0000
  Mg  Mg8       1.0  0.47522  0.92282  0.62439  1.0000
  C  Sn17      1.0  0.84593  0.48946  0.35865  1.0000
  C   C141      1.0  0.83346  0.48806  0.34028  1.0000
  C  Sn18      1.0  0.78571  0.49799  0.33473  1.0000
  C  Sn19      1.0  0.74967  0.50960  0.34782  1.0000
  C   C142      1.0  0.76215  0.51100  0.36617  1.0000
  C  Sn20      1.0  0.80989  0.50106  0.37173  1.0000
  O  Te17      1.0  0.89390  0.47940  0.36388  1.0000
  O  Te18      1.0  0.77411  0.49635  0.31629  1.0000
  O  Te19      1.0  0.70167  0.51965  0.34256  1.0000
  O  Te20      1.0  0.82150  0.50270  0.39015  1.0000
  Mg  Mg9       1.0  0.70376  0.51285  0.31587  1.0000
  Mg  Mg10      1.0  0.89183  0.48624  0.39059  1.0000
  C  Sn21      1.0  0.72396  0.96812  0.83854  1.0000
  C   C143      1.0  0.67454  0.98059  0.83783  1.0000
  C  Sn22      1.0  0.63766  0.00686  0.85200  1.0000
  C  Sn23      1.0  0.66645  0.02099  0.86720  1.0000
  C   C144      1.0  0.71584  0.00853  0.86790  1.0000
  C  Sn24      1.0  0.75275  0.98225  0.85374  1.0000
  O  Te21      1.0  0.74439  0.94184  0.82422  1.0000
  O  Te22      1.0  0.58818  0.01889  0.85099  1.0000
  O  Te23      1.0  0.64597  0.04728  0.88152  1.0000
  O  Te24      1.0  0.80220  0.97023  0.85474  1.0000
  Mg  Mg11      1.0  0.57704  0.05505  0.87388  1.0000
  Mg  Mg12      1.0  0.81338  0.93409  0.83185  1.0000
  C  Sn25      1.0  0.00317  0.83221  0.11856  1.0000
  C   C145      1.0  0.99037  0.78210  0.11881  1.0000
  C  Sn26      1.0  0.98577  0.75574  0.10262  1.0000
  C  Sn27      1.0  0.99417  0.77995  0.08584  1.0000
  C   C146      1.0  0.00697  0.83002  0.08559  1.0000
  C  Sn28      1.0  0.01157  0.85642  0.10177  1.0000
  O  Te25      1.0  0.00756  0.85784  0.13490  1.0000
  O  Te26      1.0  0.97292  0.70568  0.10321  1.0000
  O  Te27      1.0  0.98977  0.75427  0.06949  1.0000
  O  Te28      1.0  0.02442  0.90645  0.10119  1.0000
  Mg  Mg13      1.0  0.97149  0.68662  0.07732  1.0000
  Mg  Mg14      1.0  0.02589  0.92554  0.12707  1.0000
  C  Sn29      1.0  0.52791  0.72672  0.58741  1.0000
  C   C147      1.0  0.51565  0.67651  0.58674  1.0000
  C  Sn30      1.0  0.49049  0.65407  0.60110  1.0000
  C  Sn31      1.0  0.47729  0.68241  0.61644  1.0000
  C   C148      1.0  0.48954  0.73258  0.61709  1.0000
  C  Sn32      1.0  0.51470  0.75506  0.60274  1.0000
  O  Te29      1.0  0.55306  0.74838  0.57290  1.0000
  O  Te30      1.0  0.47865  0.60382  0.60013  1.0000
  O  Te31      1.0  0.45212  0.66070  0.63095  1.0000
  O  Te32      1.0  0.52654  0.80528  0.60370  1.0000
  Mg  Mg15      1.0  0.44417  0.59108  0.62330  1.0000
  Mg  Mg16      1.0  0.56099  0.81806  0.58054  1.0000
  C  Sn33      1.0  0.73119  0.49970  0.41411  1.0000
  C   C149      1.0  0.68098  0.50879  0.41456  1.0000
  C  Sn34      1.0  0.65380  0.50982  0.39852  1.0000
  C  Sn35      1.0  0.67728  0.50158  0.38168  1.0000
  C   C150      1.0  0.72745  0.49249  0.38124  1.0000
  C  Sn36      1.0  0.75467  0.49145  0.39727  1.0000
  O  Te33      1.0  0.75764  0.49883  0.43031  1.0000
  O  Te34      1.0  0.60365  0.51900  0.39932  1.0000
  O  Te35      1.0  0.65077  0.50245  0.36548  1.0000
  O  Te36      1.0  0.80478  0.48227  0.39648  1.0000
  Mg  Mg17      1.0  0.58334  0.51646  0.37357  1.0000
  Mg  Mg18      1.0  0.82512  0.48478  0.42222  1.0000
  C  Sn37      1.0  0.83721  0.02938  0.89414  1.0000
  C   C151      1.0  0.82800  0.01091  0.91152  1.0000
  C  Sn38      1.0  0.80318  0.98002  0.91471  1.0000
  C  Sn39      1.0  0.77124  0.96729  0.90023  1.0000
  C   C152      1.0  0.78046  0.98575  0.88286  1.0000
  C  Sn40      1.0  0.80526  0.01666  0.87966  1.0000
  O  Te37      1.0  0.87791  0.06021  0.89127  1.0000
  O  Te38      1.0  0.79472  0.96202  0.93220  1.0000
  O  Te39      1.0  0.73051  0.93644  0.90312  1.0000
  O  Te40      1.0  0.81373  0.03464  0.86219  1.0000
  Mg  Mg19      1.0  0.73445  0.92124  0.92932  1.0000
  Mg  Mg20      1.0  0.87400  0.07540  0.86505  1.0000
  C  Sn41      1.0  0.48233  0.17578  0.63438  1.0000
  C   C153      1.0  0.49301  0.22635  0.63402  1.0000
  C  Sn42      1.0  0.51686  0.24901  0.64863  1.0000
  C  Sn43      1.0  0.53036  0.22053  0.66392  1.0000
  C   C154      1.0  0.51969  0.16999  0.66427  1.0000
  C  Sn44      1.0  0.49583  0.14730  0.64967  1.0000
  O  Te41      1.0  0.45846  0.15389  0.61963  1.0000
  O  Te42      1.0  0.52713  0.29963  0.64795  1.0000
  O  Te43      1.0  0.55425  0.24247  0.67868  1.0000
  O  Te44      1.0  0.48557  0.09671  0.65034  1.0000
  Mg  Mg21      1.0  0.56027  0.31257  0.67138  1.0000
  Mg  Mg22      1.0  0.45246  0.08373  0.62691  1.0000
  C  Sn45      1.0  0.00181  0.34910  0.14068  1.0000
  C   C155      1.0  0.98746  0.33777  0.15840  1.0000
  C  Sn46      1.0  0.98168  0.28868  0.16386  1.0000
  C  Sn47      1.0  0.99045  0.25010  0.15136  1.0000
  C   C156      1.0  0.00480  0.26144  0.13366  1.0000
  C  Sn48      1.0  0.01059  0.31052  0.12818  1.0000
  O  Te45      1.0  0.00737  0.39843  0.13551  1.0000
  O  Te46      1.0  0.96729  0.27827  0.18164  1.0000
  O  Te47      1.0  0.98488  0.20074  0.15654  1.0000
  O  Te48      1.0  0.02498  0.32094  0.11041  1.0000
  Mg  Mg23      1.0  0.96468  0.20526  0.18223  1.0000
  Mg  Mg24      1.0  0.02762  0.39393  0.10981  1.0000
  C  Sn49      1.0  0.32307  0.03000  0.86567  1.0000
  C   C157      1.0  0.27348  0.01653  0.86613  1.0000
  C  Sn50      1.0  0.26838  0.98881  0.85206  1.0000
  C  Sn51      1.0  0.29778  0.97421  0.83723  1.0000
  C   C158      1.0  0.34733  0.98767  0.83677  1.0000
  C  Sn52      1.0  0.35246  0.01540  0.85083  1.0000
  O  Te49      1.0  0.34306  0.05772  0.87988  1.0000
  O  Te50      1.0  0.21872  0.97580  0.85282  1.0000
  O  Te51      1.0  0.27774  0.94647  0.82301  1.0000
  O  Te52      1.0  0.40209  0.02840  0.85008  1.0000
  Mg  Mg25      1.0  0.20834  0.93778  0.83021  1.0000
  Mg  Mg26      1.0  0.41252  0.06640  0.87269  1.0000
  C  Sn53      1.0  0.17044  0.49645  0.36728  1.0000
  C   C159      1.0  0.22049  0.48651  0.36754  1.0000
  C  Sn54      1.0  0.24739  0.48639  0.35145  1.0000
  C  Sn55      1.0  0.22379  0.49644  0.33475  1.0000
  C   C160      1.0  0.17378  0.50638  0.33450  1.0000
  C  Sn56      1.0  0.14684  0.50651  0.35059  1.0000
  O  Te53      1.0  0.14427  0.49638  0.38354  1.0000
  O  Te54      1.0  0.29738  0.47634  0.35205  1.0000
  O  Te55      1.0  0.25001  0.49651  0.31849  1.0000
  O  Te56      1.0  0.09689  0.51656  0.34999  1.0000
  Mg  Mg27      1.0  0.31732  0.48073  0.32630  1.0000
  Mg  Mg28      1.0  0.07692  0.51221  0.37573  1.0000
  C  Sn57      1.0  0.47146  0.31887  0.61532  1.0000
  C   C161      1.0  0.49044  0.27138  0.61631  1.0000
  C  Sn58      1.0  0.52169  0.25433  0.60279  1.0000
  C  Sn59      1.0  0.53424  0.28541  0.58798  1.0000
  C   C162      1.0  0.51527  0.33288  0.58700  1.0000
  C  Sn60      1.0  0.48402  0.34995  0.60052  1.0000
  O  Te57      1.0  0.44029  0.33514  0.62899  1.0000
  O  Te58      1.0  0.54019  0.20670  0.60407  1.0000
  O  Te59      1.0  0.56544  0.26910  0.57431  1.0000
  O  Te60      1.0  0.46553  0.39755  0.59924  1.0000
  Mg  Mg29      1.0  0.58129  0.20131  0.58209  1.0000
  Mg  Mg30      1.0  0.42445  0.40299  0.62122  1.0000
  C  Sn61      1.0  0.97150  0.24644  0.09572  1.0000
  C   C163      1.0  0.98323  0.23474  0.11364  1.0000
  C  Sn62      1.0  0.00789  0.19132  0.11764  1.0000
  C  Sn63      1.0  0.02113  0.15893  0.10345  1.0000
  C   C164      1.0  0.00941  0.17064  0.08554  1.0000
  C  Sn64      1.0  0.98474  0.21405  0.08152  1.0000
  O  Te61      1.0  0.94684  0.29005  0.09202  1.0000
  O  Te62      1.0  0.01921  0.18041  0.13566  1.0000
  O  Te63      1.0  0.04582  0.11529  0.10716  1.0000
  O  Te64      1.0  0.97343  0.22497  0.06351  1.0000
  Mg  Mg31      1.0  0.05315  0.11662  0.13384  1.0000
  Mg  Mg32      1.0  0.93952  0.28876  0.06532  1.0000
