data_image0
_chemical_formula_structural       H56C92N8SnCSn2CSnTe4Mg2SnCSn2CSnTe4Mg2SnCSn2CSnTe4Mg2SnCSn2CSnTe4Mg2SnCSn2CSnTe4Mg2SnCSn2CSnTe4Mg2SnCSn2CSnTe4Mg2SnCSn2CSnTe4Mg2
_chemical_formula_sum              "H56 C108 N8 Sn32 Te32 Mg16"
_cell_length_a       17.3653
_cell_length_b       25.255
_cell_length_c       8.57644
_cell_angle_alpha    94.681
_cell_angle_beta     99.813
_cell_angle_gamma    92.5048

_symmetry_space_group_name_H-M    'P1'
_space_group_IT_number       1

loop_
  _space_group_symop_operation_xyz
  'x, y, z'

loop_
  _atom_site_type_symbol
  _atom_site_label
  _atom_site_symmetry_multiplicity
  _atom_site_fract_x
  _atom_site_fract_y
  _atom_site_fract_z
  _atom_site_occupancy
  H   H1        1.0  0.55241  0.08553  0.96514  1.0000
  H   H2        1.0  0.45251  0.08570  0.02257  1.0000
  H   H3        1.0  0.05385  0.58372  0.96689  1.0000
  H   H4        1.0  0.95412  0.58386  0.02637  1.0000
  H   H5        1.0  0.45342  0.91682  0.05230  1.0000
  H   H6        1.0  0.54505  0.91524  0.96068  1.0000
  H   H7        1.0  0.94935  0.41390  0.02952  1.0000
  H   H8        1.0  0.04277  0.41311  0.94685  1.0000
  H   H9        1.0  0.76261  0.06069  0.71395  1.0000
  H   H10       1.0  0.73678  0.56810  0.26518  1.0000
  H   H11       1.0  0.26179  0.42812  0.72121  1.0000
  H   H12       1.0  0.73439  0.43847  0.27062  1.0000
  H   H13       1.0  0.62906  0.15055  0.01128  1.0000
  H   H14       1.0  0.88719  0.64483  0.98979  1.0000
  H   H15       1.0  0.11260  0.35270  0.00105  1.0000
  H   H16       1.0  0.87546  0.34759  0.99214  1.0000
  H   H17       1.0  0.81990  0.14421  0.64136  1.0000
  H   H18       1.0  0.68586  0.65447  0.33600  1.0000
  H   H19       1.0  0.31210  0.34114  0.65107  1.0000
  H   H20       1.0  0.67632  0.35561  0.34387  1.0000
  H   H21       1.0  0.68135  0.23371  0.92562  1.0000
  H   H22       1.0  0.83910  0.73161  0.06965  1.0000
  H   H23       1.0  0.15915  0.26539  0.92077  1.0000
  H   H24       1.0  0.82267  0.26488  0.08085  1.0000
  H   H25       1.0  0.81756  0.56585  0.56140  1.0000
  H   H26       1.0  0.17679  0.58194  0.45587  1.0000
  H   H27       1.0  0.67547  0.07733  0.43416  1.0000
  H   H28       1.0  0.18130  0.43615  0.43867  1.0000
  H   H29       1.0  0.76095  0.65155  0.63900  1.0000
  H   H30       1.0  0.22877  0.66737  0.37572  1.0000
  H   H31       1.0  0.72742  0.16245  0.35219  1.0000
  H   H32       1.0  0.23781  0.35120  0.35574  1.0000
  H   H33       1.0  0.99330  0.72382  0.78748  1.0000
  H   H34       1.0  0.99384  0.71812  0.26791  1.0000
  H   H35       1.0  0.49331  0.21574  0.26289  1.0000
  H   H36       1.0  0.00529  0.27931  0.20421  1.0000
  H   H37       1.0  0.04955  0.63915  0.71299  1.0000
  H   H38       1.0  0.94241  0.63386  0.34633  1.0000
  H   H39       1.0  0.44208  0.13211  0.34419  1.0000
  H   H40       1.0  0.94948  0.36314  0.28732  1.0000
  H   H41       1.0  0.88402  0.77863  0.78695  1.0000
  H   H42       1.0  0.10130  0.77758  0.23376  1.0000
  H   H43       1.0  0.38201  0.27514  0.78837  1.0000
  H   H44       1.0  0.60032  0.27425  0.22222  1.0000
  H   H45       1.0  0.11323  0.22454  0.20017  1.0000
  H   H46       1.0  0.89844  0.22359  0.76148  1.0000
  H   H47       1.0  0.61549  0.72213  0.20110  1.0000
  H   H48       1.0  0.40302  0.72388  0.78124  1.0000
  H   H49       1.0  0.25525  0.00131  0.14603  1.0000
  H   H50       1.0  0.74746  0.99975  0.85938  1.0000
  H   H51       1.0  0.75439  0.49917  0.13804  1.0000
  H   H52       1.0  0.24988  0.49757  0.86791  1.0000
  H   H53       1.0  0.59649  0.00143  0.31829  1.0000
  H   H54       1.0  0.40563  0.99617  0.68189  1.0000
  H   H55       1.0  0.09609  0.50506  0.32123  1.0000
  H   H56       1.0  0.90236  0.49702  0.67880  1.0000
  C   C1        1.0  0.58000  0.04806  0.95304  1.0000
  C   C2        1.0  0.42360  0.04850  0.04208  1.0000
  C   C3        1.0  0.08099  0.54611  0.95378  1.0000
  C   C4        1.0  0.92387  0.54641  0.03913  1.0000
  C   C5        1.0  0.42381  0.95372  0.05704  1.0000
  C   C6        1.0  0.57619  0.95271  0.95171  1.0000
  C   C7        1.0  0.92097  0.45107  0.04070  1.0000
  C   C8        1.0  0.07503  0.45061  0.94366  1.0000
  C   C9        1.0  0.34984  0.95321  0.10271  1.0000
  C   C10       1.0  0.65002  0.95140  0.90563  1.0000
  C   C11       1.0  0.84734  0.45042  0.08789  1.0000
  C   C12       1.0  0.15005  0.44930  0.90340  1.0000
  C   C13       1.0  0.65367  0.04844  0.90592  1.0000
  C   C14       1.0  0.35026  0.04991  0.09054  1.0000
  C   C15       1.0  0.15589  0.54655  0.91228  1.0000
  C   C16       1.0  0.85024  0.54758  0.08595  1.0000
  C   C17       1.0  0.69129  0.09855  0.86926  1.0000
  C   C18       1.0  0.81577  0.59895  0.12016  1.0000
  C   C19       1.0  0.18361  0.39774  0.86820  1.0000
  C   C20       1.0  0.80964  0.40024  0.12472  1.0000
  C   C21       1.0  0.74652  0.09840  0.76635  1.0000
  C   C22       1.0  0.75805  0.60331  0.21692  1.0000
  C   C23       1.0  0.24085  0.39304  0.77051  1.0000
  C   C24       1.0  0.75218  0.40065  0.22267  1.0000
  C   C25       1.0  0.75535  0.19507  0.78087  1.0000
  C   C26       1.0  0.75790  0.69916  0.20471  1.0000
  C   C27       1.0  0.24003  0.29721  0.78362  1.0000
  C   C28       1.0  0.74472  0.30410  0.21483  1.0000
  C   C29       1.0  0.66971  0.14846  0.92795  1.0000
  C   C30       1.0  0.84346  0.64629  0.06651  1.0000
  C   C31       1.0  0.15558  0.35068  0.92273  1.0000
  C   C32       1.0  0.83288  0.35008  0.07141  1.0000
  C   C33       1.0  0.77892  0.14550  0.72432  1.0000
  C   C34       1.0  0.72894  0.65211  0.25760  1.0000
  C   C35       1.0  0.26924  0.34401  0.72986  1.0000
  C   C36       1.0  0.71932  0.35382  0.26527  1.0000
  C   C37       1.0  0.69928  0.19549  0.88160  1.0000
  C   C38       1.0  0.81671  0.69536  0.11065  1.0000
  C   C39       1.0  0.18167  0.30138  0.87865  1.0000
  C   C40       1.0  0.80310  0.30330  0.11930  1.0000
  C   C41       1.0  0.02666  0.55118  0.45970  1.0000
  C   C42       1.0  0.96958  0.54859  0.55967  1.0000
  C   C43       1.0  0.52699  0.04856  0.45380  1.0000
  C   C44       1.0  0.47049  0.04657  0.55519  1.0000
  C   C45       1.0  0.97201  0.45074  0.54093  1.0000
  C   C46       1.0  0.02906  0.45336  0.44077  1.0000
  C   C47       1.0  0.47468  0.94883  0.54563  1.0000
  C   C48       1.0  0.53123  0.95077  0.44386  1.0000
  C   C49       1.0  0.93737  0.59708  0.62597  1.0000
  C   C50       1.0  0.05590  0.60170  0.40786  1.0000
  C   C51       1.0  0.55524  0.09861  0.39776  1.0000
  C   C52       1.0  0.06152  0.40508  0.37374  1.0000
  C   C53       1.0  0.85572  0.60053  0.61215  1.0000
  C   C54       1.0  0.13686  0.61156  0.41241  1.0000
  C   C55       1.0  0.63574  0.10758  0.39507  1.0000
  C   C56       1.0  0.14309  0.40166  0.38653  1.0000
  C   C57       1.0  0.82388  0.64805  0.65339  1.0000
  C   C58       1.0  0.16629  0.65923  0.36970  1.0000
  C   C59       1.0  0.66518  0.15502  0.35112  1.0000
  C   C60       1.0  0.17486  0.35439  0.34196  1.0000
  C   C61       1.0  0.87299  0.69369  0.71168  1.0000
  C   C62       1.0  0.11542  0.69873  0.31862  1.0000
  C   C63       1.0  0.61467  0.19531  0.30563  1.0000
  C   C64       1.0  0.12581  0.30894  0.28103  1.0000
  C   C65       1.0  0.95458  0.68929  0.73717  1.0000
  C   C66       1.0  0.03437  0.68844  0.30925  1.0000
  C   C67       1.0  0.53380  0.18570  0.30127  1.0000
  C   C68       1.0  0.04417  0.31345  0.25722  1.0000
  C   C69       1.0  0.98636  0.64161  0.69567  1.0000
  C   C70       1.0  0.00512  0.64075  0.35335  1.0000
  C   C71       1.0  0.50462  0.13825  0.34700  1.0000
  C   C72       1.0  0.01259  0.36075  0.30282  1.0000
  C   C73       1.0  0.84110  0.74470  0.74859  1.0000
  C   C74       1.0  0.14525  0.74903  0.27276  1.0000
  C   C75       1.0  0.33899  0.24132  0.74859  1.0000
  C   C76       1.0  0.64440  0.24566  0.26000  1.0000
  C   C77       1.0  0.15698  0.25794  0.23988  1.0000
  C   C78       1.0  0.85470  0.25307  0.73076  1.0000
  C   C79       1.0  0.65915  0.75563  0.23988  1.0000
  C   C80       1.0  0.35898  0.75332  0.75243  1.0000
  C   C81       1.0  0.54040  0.00066  0.97816  1.0000
  C   C82       1.0  0.46144  0.00088  0.02418  1.0000
  C   C83       1.0  0.03968  0.49855  0.97180  1.0000
  C   C84       1.0  0.96024  0.49860  0.01514  1.0000
  C   C85       1.0  0.31355  0.00155  0.11614  1.0000
  C   C86       1.0  0.68877  0.99985  0.88755  1.0000
  C   C87       1.0  0.81236  0.49908  0.10667  1.0000
  C   C88       1.0  0.19038  0.49779  0.89165  1.0000
  C   C89       1.0  0.55609  0.00045  0.40225  1.0000
  C   C90       1.0  0.44575  0.99700  0.59732  1.0000
  C   C91       1.0  0.05510  0.50339  0.40389  1.0000
  C   C92       1.0  0.94340  0.49858  0.59623  1.0000
  N   N1        1.0  0.23078  0.25193  0.24409  1.0000
  N   N2        1.0  0.78180  0.24411  0.73920  1.0000
  N   N3        1.0  0.73298  0.74973  0.24380  1.0000
  N   N4        1.0  0.28639  0.74402  0.76325  1.0000
  N   N5        1.0  0.76702  0.74990  0.74254  1.0000
  N   N6        1.0  0.21884  0.75871  0.27239  1.0000
  N   N7        1.0  0.26501  0.24666  0.74429  1.0000
  N   N8        1.0  0.71789  0.25539  0.25814  1.0000
  C  Sn1       1.0  0.67686  0.85967  0.39416  1.0000
  C   C93       1.0  0.63691  0.81164  0.32831  1.0000
  C  Sn2       1.0  0.55670  0.80984  0.26871  1.0000
  C  Sn3       1.0  0.51557  0.85705  0.27495  1.0000
  C   C94       1.0  0.55551  0.90505  0.34074  1.0000
  C  Sn4       1.0  0.63572  0.90688  0.40040  1.0000
  O  Te1       1.0  0.75705  0.86054  0.45304  1.0000
  O  Te2       1.0  0.51803  0.76135  0.20348  1.0000
  O  Te3       1.0  0.43532  0.85615  0.21600  1.0000
  O  Te4       1.0  0.67440  0.95534  0.46557  1.0000
  Mg  Mg1       1.0  0.40857  0.78049  0.13859  1.0000
  Mg  Mg2       1.0  0.78385  0.93625  0.53041  1.0000
  C  Sn5       1.0  0.26369  0.63362  0.70994  1.0000
  C   C95       1.0  0.25089  0.68553  0.76527  1.0000
  C  Sn6       1.0  0.21442  0.69481  0.89725  1.0000
  C  Sn7       1.0  0.19027  0.65130  0.97563  1.0000
  C   C96       1.0  0.20308  0.59943  0.92032  1.0000
  C  Sn8       1.0  0.23954  0.59011  0.78832  1.0000
  O  Te5       1.0  0.30026  0.62527  0.57779  1.0000
  O  Te6       1.0  0.20224  0.74705  0.95033  1.0000
  O  Te7       1.0  0.06757  0.62938  0.10787  1.0000
  O  Te8       1.0  0.25173  0.53790  0.73526  1.0000
  Mg  Mg3       1.0  0.06395  0.70776  0.13528  1.0000
  Mg  Mg4       1.0  0.30395  0.54684  0.55038  1.0000
  C  Sn9       1.0  0.78305  0.86181  0.76518  1.0000
  C   C97       1.0  0.76296  0.81164  0.80911  1.0000
  C  Sn10      1.0  0.69561  0.80346  0.87485  1.0000
  C  Sn11      1.0  0.64729  0.84631  0.89707  1.0000
  C   C98       1.0  0.66738  0.89644  0.85313  1.0000
  C  Sn12      1.0  0.73474  0.90466  0.78740  1.0000
  O  Te9       1.0  0.85065  0.86907  0.69967  1.0000
  O  Te10      1.0  0.67674  0.75295  0.91789  1.0000
  O  Te11      1.0  0.57965  0.83901  0.96265  1.0000
  O  Te12      1.0  0.75360  0.95513  0.74435  1.0000
  Mg  Mg5       1.0  0.49253  0.73259  0.00240  1.0000
  Mg  Mg6       1.0  0.85167  0.94523  0.65976  1.0000
  C  Sn13      1.0  0.32538  0.12826  0.68319  1.0000
  C   C99       1.0  0.36440  0.17717  0.74300  1.0000
  C  Sn14      1.0  0.44277  0.18704  0.73034  1.0000
  C  Sn15      1.0  0.48298  0.14721  0.65626  1.0000
  C   C100      1.0  0.44396  0.09833  0.59647  1.0000
  C  Sn16      1.0  0.36559  0.08843  0.60911  1.0000
  O  Te13      1.0  0.24703  0.11926  0.69715  1.0000
  O  Te14      1.0  0.48054  0.23624  0.79109  1.0000
  O  Te15      1.0  0.56139  0.15625  0.64234  1.0000
  O  Te16      1.0  0.32782  0.03926  0.54839  1.0000
  Mg  Mg7       1.0  0.58750  0.22958  0.74343  1.0000
  Mg  Mg8       1.0  0.22086  0.04589  0.59591  1.0000
  C  Sn17      1.0  0.26123  0.89646  0.29342  1.0000
  C   C101      1.0  0.31781  0.90237  0.19714  1.0000
  C  Sn18      1.0  0.33478  0.85917  0.09879  1.0000
  C  Sn19      1.0  0.29433  0.80902  0.09653  1.0000
  C   C102      1.0  0.23778  0.80313  0.19275  1.0000
  C  Sn20      1.0  0.22078  0.84631  0.29117  1.0000
  O  Te17      1.0  0.24522  0.94019  0.39082  1.0000
  O  Te18      1.0  0.39159  0.86605  0.00363  1.0000
  O  Te19      1.0  0.39650  0.79558  0.99903  1.0000
  O  Te20      1.0  0.16400  0.83945  0.38626  1.0000
  Mg  Mg9       1.0  0.47878  0.82484  0.89097  1.0000
  Mg  Mg10      1.0  0.16284  0.91093  0.49889  1.0000
  C  Sn21      1.0  0.97935  0.32787  0.72385  1.0000
  C   C103      1.0  0.90177  0.31193  0.72873  1.0000
  C  Sn22      1.0  0.84026  0.33921  0.65158  1.0000
  C  Sn23      1.0  0.85661  0.38332  0.56772  1.0000
  C   C104      1.0  0.93414  0.39923  0.56284  1.0000
  C  Sn24      1.0  0.99570  0.37198  0.63999  1.0000
  O  Te21      1.0  0.03992  0.30001  0.80183  1.0000
  O  Te22      1.0  0.76318  0.32254  0.65818  1.0000
  O  Te23      1.0  0.79595  0.41117  0.48971  1.0000
  O  Te24      1.0  0.07274  0.38861  0.63339  1.0000
  Mg  Mg11      1.0  0.70072  0.37327  0.53297  1.0000
  Mg  Mg12      1.0  0.13524  0.33790  0.75849  1.0000
  C  Sn25      1.0  0.30587  0.18674  0.05566  1.0000
  C   C105      1.0  0.25260  0.19799  0.15726  1.0000
  C  Sn26      1.0  0.23342  0.16051  0.25762  1.0000
  C  Sn27      1.0  0.26825  0.11074  0.25650  1.0000
  C   C106      1.0  0.32149  0.09952  0.15497  1.0000
  C  Sn28      1.0  0.34070  0.13698  0.05454  1.0000
  O  Te25      1.0  0.41029  0.25511  0.95635  1.0000
  O  Te26      1.0  0.17998  0.17265  0.35811  1.0000
  O  Te27      1.0  0.24988  0.07267  0.35593  1.0000
  O  Te28      1.0  0.48021  0.15516  0.95413  1.0000
  Mg  Mg13      1.0  0.17387  0.10781  0.47153  1.0000
  Mg  Mg14      1.0  0.48640  0.21998  0.84072  1.0000
  C  Sn29      1.0  0.33438  0.84899  0.60672  1.0000
  C   C107      1.0  0.37637  0.80600  0.65957  1.0000
  C  Sn30      1.0  0.45786  0.81120  0.70131  1.0000
  C  Sn31      1.0  0.49823  0.86041  0.69009  1.0000
  C   C108      1.0  0.45625  0.90337  0.63730  1.0000
  C  Sn32      1.0  0.37475  0.89820  0.59550  1.0000
  O  Te29      1.0  0.25294  0.84289  0.56563  1.0000
  O  Te30      1.0  0.49857  0.76764  0.75377  1.0000
  O  Te31      1.0  0.57974  0.86648  0.73124  1.0000
  O  Te32      1.0  0.33405  0.94172  0.54310  1.0000
  Mg  Mg15      1.0  0.60914  0.79563  0.79616  1.0000
  Mg  Mg16      1.0  0.22348  0.91379  0.50076  1.0000
