data_image0
_chemical_formula_structural       H24C44N8C2Sn2C2HTe2HMgC2Sn2C2HTe2HMgC2Sn2C2HTe2HMgC2Sn2C2HTe2HMgC2Sn2C2HTe2HMgC2Sn2C2HTe2HMgC2Sn2C2HTe2HMgC2Sn2C2HTe2HMgC2Sn2C2HTe2HMgC2Sn2C2HTe2HMgC2Sn2C2HTe2HMgC2Sn2C2HTe2HMgC2Sn2C2HTe2HMgC2Sn2C2HTe2HMgC2Sn2C2HTe2HMgC2Sn2C2HTe2HMg
_chemical_formula_sum              "H56 C108 N8 Sn32 Te32 Mg16"
_cell_length_a       17.3653
_cell_length_b       25.255
_cell_length_c       8.57644
_cell_angle_alpha    94.681
_cell_angle_beta     99.813
_cell_angle_gamma    92.5048

_symmetry_space_group_name_H-M    'P1'
_space_group_IT_number       1

loop_
  _space_group_symop_operation_xyz
  'x, y, z'

loop_
  _atom_site_type_symbol
  _atom_site_label
  _atom_site_symmetry_multiplicity
  _atom_site_fract_x
  _atom_site_fract_y
  _atom_site_fract_z
  _atom_site_occupancy
  H   H1        1.0  0.55241  0.08553  0.96514  1.0000
  H   H2        1.0  0.45251  0.08570  0.02257  1.0000
  H   H3        1.0  0.05385  0.58372  0.96689  1.0000
  H   H4        1.0  0.95412  0.58386  0.02637  1.0000
  H   H5        1.0  0.45342  0.91682  0.05230  1.0000
  H   H6        1.0  0.54505  0.91524  0.96068  1.0000
  H   H7        1.0  0.94935  0.41390  0.02952  1.0000
  H   H8        1.0  0.04277  0.41311  0.94685  1.0000
  H   H9        1.0  0.88402  0.77863  0.78695  1.0000
  H   H10       1.0  0.10130  0.77758  0.23376  1.0000
  H   H11       1.0  0.38201  0.27514  0.78837  1.0000
  H   H12       1.0  0.60032  0.27425  0.22222  1.0000
  H   H13       1.0  0.11323  0.22454  0.20017  1.0000
  H   H14       1.0  0.89844  0.22359  0.76148  1.0000
  H   H15       1.0  0.61549  0.72213  0.20110  1.0000
  H   H16       1.0  0.40302  0.72388  0.78124  1.0000
  H   H17       1.0  0.25525  0.00131  0.14603  1.0000
  H   H18       1.0  0.74746  0.99975  0.85938  1.0000
  H   H19       1.0  0.75439  0.49917  0.13804  1.0000
  H   H20       1.0  0.24988  0.49757  0.86791  1.0000
  H   H21       1.0  0.59649  0.00143  0.31829  1.0000
  H   H22       1.0  0.40563  0.99617  0.68189  1.0000
  H   H23       1.0  0.09609  0.50506  0.32123  1.0000
  H   H24       1.0  0.90236  0.49702  0.67880  1.0000
  C   C1        1.0  0.58000  0.04806  0.95304  1.0000
  C   C2        1.0  0.42360  0.04850  0.04208  1.0000
  C   C3        1.0  0.08099  0.54611  0.95378  1.0000
  C   C4        1.0  0.92387  0.54641  0.03913  1.0000
  C   C5        1.0  0.42381  0.95372  0.05704  1.0000
  C   C6        1.0  0.57619  0.95271  0.95171  1.0000
  C   C7        1.0  0.92097  0.45107  0.04070  1.0000
  C   C8        1.0  0.07503  0.45061  0.94366  1.0000
  C   C9        1.0  0.34984  0.95321  0.10271  1.0000
  C   C10       1.0  0.65002  0.95140  0.90563  1.0000
  C   C11       1.0  0.84734  0.45042  0.08789  1.0000
  C   C12       1.0  0.15005  0.44930  0.90340  1.0000
  C   C13       1.0  0.65367  0.04844  0.90592  1.0000
  C   C14       1.0  0.35026  0.04991  0.09054  1.0000
  C   C15       1.0  0.15589  0.54655  0.91228  1.0000
  C   C16       1.0  0.85024  0.54758  0.08595  1.0000
  C   C17       1.0  0.02666  0.55118  0.45970  1.0000
  C   C18       1.0  0.96958  0.54859  0.55967  1.0000
  C   C19       1.0  0.52699  0.04856  0.45380  1.0000
  C   C20       1.0  0.47049  0.04657  0.55519  1.0000
  C   C21       1.0  0.97201  0.45074  0.54093  1.0000
  C   C22       1.0  0.02906  0.45336  0.44077  1.0000
  C   C23       1.0  0.47468  0.94883  0.54563  1.0000
  C   C24       1.0  0.53123  0.95077  0.44386  1.0000
  C   C25       1.0  0.84110  0.74470  0.74859  1.0000
  C   C26       1.0  0.14525  0.74903  0.27276  1.0000
  C   C27       1.0  0.33899  0.24132  0.74859  1.0000
  C   C28       1.0  0.64440  0.24566  0.26000  1.0000
  C   C29       1.0  0.15698  0.25794  0.23988  1.0000
  C   C30       1.0  0.85470  0.25307  0.73076  1.0000
  C   C31       1.0  0.65915  0.75563  0.23988  1.0000
  C   C32       1.0  0.35898  0.75332  0.75243  1.0000
  C   C33       1.0  0.54040  0.00066  0.97816  1.0000
  C   C34       1.0  0.46144  0.00088  0.02418  1.0000
  C   C35       1.0  0.03968  0.49855  0.97180  1.0000
  C   C36       1.0  0.96024  0.49860  0.01514  1.0000
  C   C37       1.0  0.31355  0.00155  0.11614  1.0000
  C   C38       1.0  0.68877  0.99985  0.88755  1.0000
  C   C39       1.0  0.81236  0.49908  0.10667  1.0000
  C   C40       1.0  0.19038  0.49779  0.89165  1.0000
  C   C41       1.0  0.55609  0.00045  0.40225  1.0000
  C   C42       1.0  0.44575  0.99700  0.59732  1.0000
  C   C43       1.0  0.05510  0.50339  0.40389  1.0000
  C   C44       1.0  0.94340  0.49858  0.59623  1.0000
  N   N1        1.0  0.23078  0.25193  0.24409  1.0000
  N   N2        1.0  0.78180  0.24411  0.73920  1.0000
  N   N3        1.0  0.73298  0.74973  0.24380  1.0000
  N   N4        1.0  0.28639  0.74402  0.76325  1.0000
  N   N5        1.0  0.76702  0.74990  0.74254  1.0000
  N   N6        1.0  0.21884  0.75871  0.27239  1.0000
  N   N7        1.0  0.26501  0.24666  0.74429  1.0000
  N   N8        1.0  0.71789  0.25539  0.25814  1.0000
  C   C45       1.0  0.24491  0.11351  0.24315  1.0000
  C   C46       1.0  0.29733  0.10111  0.14062  1.0000
  C  Sn1       1.0  0.33288  0.14142  0.07041  1.0000
  C  Sn2       1.0  0.31552  0.19511  0.10372  1.0000
  C   C47       1.0  0.26304  0.20712  0.20655  1.0000
  C   C48       1.0  0.22778  0.16646  0.27612  1.0000
  H   H25       1.0  0.21766  0.08207  0.29706  1.0000
  O  Te1       1.0  0.47119  0.15863  0.96821  1.0000
  O  Te2       1.0  0.35024  0.23619  0.03521  1.0000
  H   H26       1.0  0.18723  0.17609  0.35558  1.0000
  Mg  Mg1       1.0  0.50360  0.22860  0.90379  1.0000
  C   C49       1.0  0.77909  0.13066  0.72360  1.0000
  C   C50       1.0  0.76183  0.18314  0.76222  1.0000
  C  Sn3       1.0  0.70943  0.19412  0.86584  1.0000
  C  Sn4       1.0  0.67376  0.15168  0.93186  1.0000
  C   C51       1.0  0.69146  0.09933  0.89256  1.0000
  C   C52       1.0  0.74396  0.08879  0.78871  1.0000
  H   H27       1.0  0.81974  0.12251  0.64332  1.0000
  O  Te3       1.0  0.69282  0.24677  0.90312  1.0000
  O  Te4       1.0  0.53510  0.13123  0.03578  1.0000
  H   H28       1.0  0.75735  0.04816  0.75891  1.0000
  Mg  Mg2       1.0  0.53123  0.20969  0.05039  1.0000
  C   C53       1.0  0.84273  0.66084  0.06127  1.0000
  C   C54       1.0  0.82580  0.61074  0.10949  1.0000
  C  Sn5       1.0  0.77016  0.60431  0.20750  1.0000
  C  Sn6       1.0  0.73081  0.64895  0.25794  1.0000
  C   C55       1.0  0.74812  0.69890  0.20896  1.0000
  C   C56       1.0  0.80392  0.70488  0.11092  1.0000
  H   H29       1.0  0.97197  0.69578  0.98535  1.0000
  O  Te5       1.0  0.75397  0.55398  0.25462  1.0000
  O  Te6       1.0  0.67492  0.64365  0.35587  1.0000
  H   H30       1.0  0.81698  0.74368  0.07352  1.0000
  Mg  Mg3       1.0  0.67313  0.56691  0.38845  1.0000
  C   C57       1.0  0.18870  0.68723  0.92206  1.0000
  C   C58       1.0  0.24630  0.69564  0.82965  1.0000
  C  Sn7       1.0  0.27823  0.65242  0.75657  1.0000
  C  Sn8       1.0  0.25188  0.59983  0.77655  1.0000
  C   C59       1.0  0.19418  0.59183  0.86914  1.0000
  C   C60       1.0  0.16265  0.63538  0.94178  1.0000
  H   H31       1.0  0.16426  0.72092  0.97820  1.0000
  O  Te7       1.0  0.33576  0.66153  0.66469  1.0000
  O  Te8       1.0  0.28277  0.55591  0.70479  1.0000
  H   H32       1.0  0.03191  0.59855  0.01323  1.0000
  Mg  Mg4       1.0  0.35998  0.58876  0.59095  1.0000
  C   C61       1.0  0.67290  0.81161  0.90502  1.0000
  C   C62       1.0  0.72135  0.79932  0.79430  1.0000
  C  Sn9       1.0  0.75519  0.83982  0.72196  1.0000
  C  Sn10      1.0  0.74016  0.89359  0.76146  1.0000
  C   C63       1.0  0.69165  0.90548  0.87246  1.0000
  C   C64       1.0  0.65807  0.86464  0.94410  1.0000
  H   H33       1.0  0.64695  0.78002  0.96052  1.0000
  O  Te9       1.0  0.80343  0.82684  0.61155  1.0000
  O  Te10      1.0  0.77325  0.93486  0.69099  1.0000
  H   H34       1.0  0.53450  0.84387  0.02990  1.0000
  Mg  Mg5       1.0  0.83495  0.89706  0.54752  1.0000
  C   C65       1.0  0.22426  0.87200  0.28768  1.0000
  C   C66       1.0  0.23335  0.81933  0.23347  1.0000
  C  Sn11      1.0  0.28695  0.80780  0.13287  1.0000
  C  Sn12      1.0  0.33221  0.84985  0.08591  1.0000
  C   C67       1.0  0.32272  0.90241  0.14089  1.0000
  C   C68       1.0  0.26890  0.91351  0.24147  1.0000
  H   H35       1.0  0.18265  0.88059  0.36558  1.0000
  O  Te11      1.0  0.29527  0.75495  0.07975  1.0000
  O  Te12      1.0  0.47233  0.86975  0.98550  1.0000
  H   H36       1.0  0.26192  0.95429  0.28351  1.0000
  Mg  Mg6       1.0  0.46258  0.79123  0.94456  1.0000
  C   C69       1.0  0.15311  0.33584  0.92125  1.0000
  C   C70       1.0  0.17926  0.38660  0.89206  1.0000
  C  Sn13      1.0  0.23554  0.39259  0.79522  1.0000
  C  Sn14      1.0  0.26607  0.34684  0.72646  1.0000
  C   C71       1.0  0.23948  0.29622  0.75630  1.0000
  C   C72       1.0  0.18317  0.29068  0.85343  1.0000
  H   H37       1.0  0.10951  0.33154  0.99633  1.0000
  O  Te13      1.0  0.26104  0.44360  0.76734  1.0000
  O  Te14      1.0  0.32234  0.35168  0.62916  1.0000
  H   H38       1.0  0.16290  0.25137  0.87593  1.0000
  Mg  Mg7       1.0  0.33860  0.42967  0.62650  1.0000
  C   C73       1.0  0.83429  0.33543  0.07420  1.0000
  C   C74       1.0  0.81189  0.38749  0.09894  1.0000
  C  Sn15      1.0  0.75641  0.39886  0.19539  1.0000
  C  Sn16      1.0  0.72285  0.35724  0.26829  1.0000
  C   C75       1.0  0.74569  0.30529  0.24288  1.0000
  C   C76       1.0  0.80125  0.29436  0.14610  1.0000
  H   H39       1.0  0.96341  0.35727  0.99939  1.0000
  O  Te15      1.0  0.73466  0.45110  0.21881  1.0000
  O  Te16      1.0  0.66729  0.36749  0.36530  1.0000
  H   H40       1.0  0.81862  0.25404  0.12705  1.0000
  Mg  Mg8       1.0  0.65664  0.44512  0.36108  1.0000
  C   C77       1.0  0.98973  0.65620  0.70814  1.0000
  C   C78       1.0  0.95136  0.60655  0.65536  1.0000
  C  Sn17      1.0  0.86964  0.60101  0.62607  1.0000
  C  Sn18      1.0  0.82567  0.64609  0.65015  1.0000
  C   C79       1.0  0.86461  0.69560  0.70288  1.0000
  C   C80       1.0  0.94641  0.70069  0.73186  1.0000
  H   H41       1.0  0.05302  0.66015  0.73049  1.0000
  O  Te17      1.0  0.83224  0.55111  0.57343  1.0000
  O  Te18      1.0  0.74394  0.64168  0.62174  1.0000
  H   H42       1.0  0.97610  0.73915  0.77264  1.0000
  Mg  Mg9       1.0  0.71977  0.56525  0.55115  1.0000
  C   C81       1.0  0.17046  0.64661  0.38881  1.0000
  C   C82       1.0  0.12958  0.68801  0.32165  1.0000
  C  Sn19      1.0  0.04798  0.68677  0.30279  1.0000
  C  Sn20      1.0  0.00672  0.64324  0.35224  1.0000
  C   C83       1.0  0.04817  0.60203  0.41941  1.0000
  C   C84       1.0  0.12981  0.60366  0.43768  1.0000
  H   H43       1.0  0.23364  0.64788  0.40304  1.0000
  O  Te19      1.0  0.00805  0.72846  0.23540  1.0000
  O  Te20      1.0  0.92517  0.64100  0.33483  1.0000
  H   H44       1.0  0.16146  0.57162  0.48978  1.0000
  Mg  Mg10      1.0  0.89695  0.70734  0.23646  1.0000
  C   C85       1.0  0.48874  0.15478  0.69869  1.0000
  C   C86       1.0  0.45137  0.10471  0.64760  1.0000
  C  Sn21      1.0  0.36975  0.09813  0.62222  1.0000
  C  Sn22      1.0  0.32487  0.14258  0.64852  1.0000
  C   C87       1.0  0.36282  0.19251  0.69952  1.0000
  C   C88       1.0  0.44452  0.19864  0.72460  1.0000
  H   H45       1.0  0.55195  0.15954  0.71802  1.0000
  O  Te21      1.0  0.33336  0.04783  0.57123  1.0000
  O  Te22      1.0  0.24322  0.13713  0.62402  1.0000
  H   H46       1.0  0.47344  0.23742  0.76406  1.0000
  Mg  Mg11      1.0  0.22060  0.06050  0.55437  1.0000
  C   C89       1.0  0.50088  0.15211  0.33638  1.0000
  C   C90       1.0  0.54039  0.10678  0.37667  1.0000
  C  Sn23      1.0  0.62153  0.10670  0.38662  1.0000
  C  Sn24      1.0  0.66375  0.15293  0.35564  1.0000
  C   C91       1.0  0.62369  0.19809  0.31554  1.0000
  C   C92       1.0  0.54248  0.19773  0.30586  1.0000
  H   H47       1.0  0.43806  0.15184  0.32898  1.0000
  O  Te23      1.0  0.66007  0.06107  0.42697  1.0000
  O  Te24      1.0  0.74487  0.15394  0.36480  1.0000
  H   H48       1.0  0.51192  0.23284  0.27477  1.0000
  Mg  Mg12      1.0  0.77109  0.08192  0.42423  1.0000
  C   C93       1.0  0.17823  0.36891  0.35550  1.0000
  C   C94       1.0  0.13985  0.31949  0.29951  1.0000
  C  Sn25      1.0  0.05813  0.31388  0.27110  1.0000
  C  Sn26      1.0  0.01419  0.35865  0.29933  1.0000
  C   C95       1.0  0.05314  0.40793  0.35524  1.0000
  C   C96       1.0  0.13494  0.41309  0.38332  1.0000
  H   H49       1.0  0.24152  0.37291  0.37715  1.0000
  O  Te25      1.0  0.02072  0.26422  0.21522  1.0000
  O  Te26      1.0  0.93246  0.35417  0.27187  1.0000
  H   H50       1.0  0.16464  0.45137  0.42657  1.0000
  Mg  Mg13      1.0  0.90826  0.27814  0.19580  1.0000
  C   C97       1.0  0.84568  0.38295  0.60395  1.0000
  C   C98       1.0  0.92312  0.40073  0.60489  1.0000
  C  Sn27      1.0  0.98407  0.36730  0.64471  1.0000
  C  Sn28      1.0  0.96700  0.31511  0.68424  1.0000
  C   C99       1.0  0.88933  0.29768  0.68284  1.0000
  C   C100      1.0  0.82879  0.33147  0.64285  1.0000
  H   H51       1.0  0.79883  0.40908  0.57293  1.0000
  O  Te27      1.0  0.06111  0.38571  0.64512  1.0000
  O  Te28      1.0  0.02680  0.28086  0.72444  1.0000
  H   H52       1.0  0.76884  0.31767  0.64204  1.0000
  Mg  Mg14      1.0  0.12241  0.32421  0.70810  1.0000
  C   C101      1.0  0.66287  0.89192  0.38145  1.0000
  C   C102      1.0  0.58444  0.90416  0.36800  1.0000
  C  Sn29      1.0  0.52483  0.86490  0.31116  1.0000
  C  Sn30      1.0  0.54428  0.81244  0.26710  1.0000
  C   C103      1.0  0.62292  0.80058  0.28111  1.0000
  C   C104      1.0  0.68211  0.84019  0.33809  1.0000
  H   H53       1.0  0.70867  0.92255  0.42562  1.0000
  O  Te29      1.0  0.44677  0.87781  0.29841  1.0000
  O  Te30      1.0  0.48587  0.77242  0.20999  1.0000
  H   H54       1.0  0.74283  0.83069  0.34859  1.0000
  Mg  Mg15      1.0  0.38807  0.80958  0.21410  1.0000
  C   C105      1.0  0.33389  0.85839  0.65371  1.0000
  C   C106      1.0  0.37307  0.81270  0.69136  1.0000
  C  Sn31      1.0  0.45356  0.81155  0.69296  1.0000
  C  Sn32      1.0  0.49546  0.85704  0.65618  1.0000
  C   C107      1.0  0.45574  0.90256  0.61877  1.0000
  C   C108      1.0  0.37518  0.90328  0.61748  1.0000
  H   H55       1.0  0.27157  0.85896  0.65279  1.0000
  O  Te31      1.0  0.49179  0.76557  0.73078  1.0000
  O  Te32      1.0  0.57594  0.85697  0.65695  1.0000
  H   H56       1.0  0.34487  0.93868  0.58842  1.0000
  Mg  Mg16      1.0  0.60193  0.78486  0.71595  1.0000
