data_image0
_chemical_formula_structural       H160C208N16SnCSn2CSnTe4Mg2SnCSn2CSnTe4Mg2SnCSn2CSnTe4Mg2SnCSn2CSnTe4Mg2SnCSn2CSnTe4Mg2SnCSn2CSnTe4Mg2SnCSn2CSnTe4Mg2SnCSn2CSnTe4Mg2SnCSn2CSnTe4Mg2SnCSn2CSnTe4Mg2SnCSn2CSnTe4Mg2SnCSn2CSnTe4Mg2SnCSn2CSnTe4Mg2SnCSn2CSnTe4Mg2SnCSn2CSnTe4Mg2SnCSn2CSnTe4Mg2
_chemical_formula_sum              "H160 C240 N16 Sn64 Te64 Mg32"
_cell_length_a       41.0734
_cell_length_b       4.7613
_cell_length_c       37.0841
_cell_angle_alpha    89.7939
_cell_angle_beta     90.1874
_cell_angle_gamma    89.9555

_symmetry_space_group_name_H-M    'P1'
_space_group_IT_number       1

loop_
  _space_group_symop_operation_xyz
  'x, y, z'

loop_
  _atom_site_type_symbol
  _atom_site_label
  _atom_site_symmetry_multiplicity
  _atom_site_fract_x
  _atom_site_fract_y
  _atom_site_fract_z
  _atom_site_occupancy
  H   H1        1.0  0.90781  0.48561  0.33229  1.0000
  H   H2        1.0  0.09357  0.48909  0.17122  1.0000
  H   H3        1.0  0.40813  0.99317  0.33057  1.0000
  H   H4        1.0  0.59230  0.98503  0.16858  1.0000
  H   H5        1.0  0.40753  0.00595  0.83325  1.0000
  H   H6        1.0  0.54726  0.65849  0.31518  1.0000
  H   H7        1.0  0.45363  0.65146  0.18284  1.0000
  H   H8        1.0  0.04704  0.84487  0.81535  1.0000
  H   H9        1.0  0.98048  0.89621  0.36695  1.0000
  H   H10       1.0  0.02132  0.89559  0.13738  1.0000
  H   H11       1.0  0.47993  0.39485  0.36495  1.0000
  H   H12       1.0  0.52024  0.38956  0.13480  1.0000
  H   H13       1.0  0.47980  0.59977  0.86667  1.0000
  H   H14       1.0  0.86514  0.19901  0.36237  1.0000
  H   H15       1.0  0.13641  0.20581  0.14100  1.0000
  H   H16       1.0  0.36505  0.71269  0.36106  1.0000
  H   H17       1.0  0.63523  0.70290  0.13825  1.0000
  H   H18       1.0  0.36478  0.28739  0.86407  1.0000
  H   H19       1.0  0.55622  0.99239  0.39317  1.0000
  H   H20       1.0  0.44409  0.99531  0.10428  1.0000
  H   H21       1.0  0.05610  0.50621  0.89331  1.0000
  H   H22       1.0  0.59963  0.25705  0.42311  1.0000
  H   H23       1.0  0.40042  0.26377  0.07504  1.0000
  H   H24       1.0  0.09971  0.24192  0.92295  1.0000
  H   H25       1.0  0.93874  0.62410  0.40037  1.0000
  H   H26       1.0  0.06312  0.62937  0.10347  1.0000
  H   H27       1.0  0.43786  0.13029  0.39895  1.0000
  H   H28       1.0  0.56210  0.12530  0.10062  1.0000
  H   H29       1.0  0.43807  0.86713  0.90077  1.0000
  H   H30       1.0  0.59570  0.88110  0.33887  1.0000
  H   H31       1.0  0.40532  0.88048  0.15951  1.0000
  H   H32       1.0  0.09548  0.62070  0.83891  1.0000
  H   H33       1.0  0.25283  0.72626  0.93401  1.0000
  H   H34       1.0  0.74708  0.70866  0.56639  1.0000
  H   H35       1.0  0.75500  0.23863  0.93400  1.0000
  H   H36       1.0  0.24541  0.23820  0.56640  1.0000
  H   H37       1.0  0.74857  0.28465  0.06618  1.0000
  H   H38       1.0  0.25273  0.28413  0.43424  1.0000
  H   H39       1.0  0.24702  0.77818  0.06619  1.0000
  H   H40       1.0  0.75322  0.76503  0.43419  1.0000
  H   H41       1.0  0.23192  0.33994  0.06372  1.0000
  H   H42       1.0  0.73219  0.84795  0.06440  1.0000
  H   H43       1.0  0.26806  0.84792  0.43588  1.0000
  H   H44       1.0  0.77010  0.67782  0.93591  1.0000
  H   H45       1.0  0.73108  0.14662  0.56421  1.0000
  H   H46       1.0  0.18678  0.62665  0.09150  1.0000
  H   H47       1.0  0.68596  0.13043  0.09066  1.0000
  H   H48       1.0  0.31382  0.13365  0.40903  1.0000
  H   H49       1.0  0.81546  0.38500  0.90950  1.0000
  H   H50       1.0  0.68519  0.86360  0.59131  1.0000
  H   H51       1.0  0.11701  0.05368  0.04644  1.0000
  H   H52       1.0  0.61796  0.55405  0.04309  1.0000
  H   H53       1.0  0.38261  0.55903  0.45622  1.0000
  H   H54       1.0  0.88513  0.94988  0.95639  1.0000
  H   H55       1.0  0.61667  0.44454  0.54487  1.0000
  H   H56       1.0  0.16173  0.79102  0.01583  1.0000
  H   H57       1.0  0.66374  0.29487  0.01408  1.0000
  H   H58       1.0  0.33727  0.29647  0.48577  1.0000
  H   H59       1.0  0.84020  0.21714  0.98585  1.0000
  H   H60       1.0  0.66211  0.70501  0.51514  1.0000
  H   H61       1.0  0.79154  0.20731  0.09109  1.0000
  H   H62       1.0  0.71124  0.30343  0.90949  1.0000
  H   H63       1.0  0.28853  0.31220  0.59153  1.0000
  H   H64       1.0  0.82941  0.93148  0.12954  1.0000
  H   H65       1.0  0.67241  0.57139  0.87120  1.0000
  H   H66       1.0  0.32700  0.58367  0.62951  1.0000
  H   H67       1.0  0.84249  0.33575  0.04423  1.0000
  H   H68       1.0  0.66035  0.17917  0.95524  1.0000
  H   H69       1.0  0.33952  0.18490  0.54433  1.0000
  H   H70       1.0  0.80224  0.59746  0.00640  1.0000
  H   H71       1.0  0.70147  0.92442  0.99294  1.0000
  H   H72       1.0  0.29932  0.92409  0.50651  1.0000
  H   H73       1.0  0.09827  0.47428  0.07533  1.0000
  H   H74       1.0  0.90279  0.46602  0.42884  1.0000
  H   H75       1.0  0.59804  0.97366  0.07189  1.0000
  H   H76       1.0  0.40203  0.97868  0.42737  1.0000
  H   H77       1.0  0.90384  0.52798  0.92762  1.0000
  H   H78       1.0  0.09590  0.52871  0.57030  1.0000
  H   H79       1.0  0.40236  0.01413  0.93047  1.0000
  H   H80       1.0  0.59707  0.02382  0.57350  1.0000
  H   H81       1.0  0.36201  0.00199  0.13862  1.0000
  H   H82       1.0  0.63909  0.99832  0.36044  1.0000
  H   H83       1.0  0.86280  0.50763  0.13971  1.0000
  H   H84       1.0  0.13788  0.51587  0.36099  1.0000
  H   H85       1.0  0.63860  0.98945  0.86060  1.0000
  H   H86       1.0  0.36036  0.00323  0.63965  1.0000
  H   H87       1.0  0.13904  0.50230  0.86015  1.0000
  H   H88       1.0  0.86152  0.48477  0.63913  1.0000
  H   H89       1.0  0.42132  0.01302  0.77942  1.0000
  H   H90       1.0  0.57528  0.97902  0.72441  1.0000
  H   H91       1.0  0.92302  0.48175  0.77691  1.0000
  H   H92       1.0  0.07598  0.49448  0.72110  1.0000
  H   H93       1.0  0.57653  0.01430  0.22225  1.0000
  H   H94       1.0  0.42298  0.99646  0.27687  1.0000
  H   H95       1.0  0.07722  0.51588  0.22472  1.0000
  H   H96       1.0  0.92280  0.49501  0.27878  1.0000
  H   H97       1.0  0.44174  0.15727  0.74218  1.0000
  H   H98       1.0  0.55592  0.14015  0.76090  1.0000
  H   H99       1.0  0.94202  0.64028  0.73985  1.0000
  H   H100      1.0  0.05644  0.65046  0.75792  1.0000
  H   H101      1.0  0.55722  0.85343  0.25895  1.0000
  H   H102      1.0  0.44296  0.84472  0.24003  1.0000
  H   H103      1.0  0.05745  0.36038  0.26152  1.0000
  H   H104      1.0  0.94316  0.34847  0.24182  1.0000
  H   H105      1.0  0.42948  0.37690  0.77844  1.0000
  H   H106      1.0  0.57060  0.34795  0.72442  1.0000
  H   H107      1.0  0.92789  0.85040  0.77623  1.0000
  H   H108      1.0  0.06983  0.86164  0.72109  1.0000
  H   H109      1.0  0.57164  0.64561  0.22250  1.0000
  H   H110      1.0  0.42980  0.63021  0.27659  1.0000
  H   H111      1.0  0.07175  0.14818  0.22548  1.0000
  H   H112      1.0  0.93015  0.12974  0.27802  1.0000
  H   H113      1.0  0.53836  0.67577  0.74075  1.0000
  H   H114      1.0  0.45481  0.70764  0.76015  1.0000
  H   H115      1.0  0.04104  0.18976  0.73941  1.0000
  H   H116      1.0  0.95899  0.17851  0.75911  1.0000
  H   H117      1.0  0.45732  0.29969  0.25849  1.0000
  H   H118      1.0  0.54043  0.31639  0.23936  1.0000
  H   H119      1.0  0.95686  0.80029  0.26011  1.0000
  H   H120      1.0  0.04032  0.82019  0.24133  1.0000
  H   H121      1.0  0.52602  0.42699  0.77341  1.0000
  H   H122      1.0  0.46863  0.45003  0.72977  1.0000
  H   H123      1.0  0.02828  0.93724  0.77129  1.0000
  H   H124      1.0  0.97148  0.92784  0.72702  1.0000
  H   H125      1.0  0.47070  0.55549  0.22736  1.0000
  H   H126      1.0  0.52816  0.56620  0.27168  1.0000
  H   H127      1.0  0.97098  0.05729  0.22957  1.0000
  H   H128      1.0  0.02763  0.07121  0.27320  1.0000
  H   H129      1.0  0.56427  0.59878  0.77838  1.0000
  H   H130      1.0  0.43108  0.62512  0.72117  1.0000
  H   H131      1.0  0.06624  0.11176  0.77750  1.0000
  H   H132      1.0  0.93342  0.10200  0.72128  1.0000
  H   H133      1.0  0.43296  0.38074  0.21985  1.0000
  H   H134      1.0  0.56614  0.39001  0.27717  1.0000
  H   H135      1.0  0.93328  0.88533  0.22098  1.0000
  H   H136      1.0  0.06572  0.89782  0.27926  1.0000
  H   H137      1.0  0.48225  0.24569  0.60533  1.0000
  H   H138      1.0  0.51791  0.23317  0.89609  1.0000
  H   H139      1.0  0.98029  0.73757  0.60380  1.0000
  H   H140      1.0  0.01819  0.74876  0.89385  1.0000
  H   H141      1.0  0.51709  0.75848  0.39504  1.0000
  H   H142      1.0  0.48233  0.75586  0.10388  1.0000
  H   H143      1.0  0.01852  0.26248  0.39631  1.0000
  H   H144      1.0  0.98380  0.26208  0.10582  1.0000
  H   H145      1.0  0.49306  0.88696  0.59994  1.0000
  H   H146      1.0  0.50643  0.87655  0.90223  1.0000
  H   H147      1.0  0.99275  0.38377  0.59754  1.0000
  H   H148      1.0  0.00663  0.39271  0.90048  1.0000
  H   H149      1.0  0.50684  0.11819  0.40047  1.0000
  H   H150      1.0  0.49450  0.11094  0.09783  1.0000
  H   H151      1.0  0.00596  0.61589  0.40278  1.0000
  H   H152      1.0  0.99578  0.61768  0.09993  1.0000
  H   H153      1.0  0.52341  0.14812  0.60490  1.0000
  H   H154      1.0  0.47661  0.14319  0.89764  1.0000
  H   H155      1.0  0.02183  0.65485  0.60261  1.0000
  H   H156      1.0  0.97689  0.65871  0.89520  1.0000
  H   H157      1.0  0.47613  0.86014  0.39584  1.0000
  H   H158      1.0  0.52380  0.84114  0.10322  1.0000
  H   H159      1.0  0.97695  0.34426  0.39765  1.0000
  H   H160      1.0  0.02523  0.34903  0.10540  1.0000
  C   C1        1.0  0.54932  0.28863  0.34884  1.0000
  C   C2        1.0  0.45108  0.28518  0.14902  1.0000
  C   C3        1.0  0.04926  0.21400  0.84881  1.0000
  C   C4        1.0  0.94720  0.20467  0.34705  1.0000
  C   C5        1.0  0.05432  0.20733  0.15661  1.0000
  C   C6        1.0  0.44704  0.70750  0.34529  1.0000
  C   C7        1.0  0.55322  0.70156  0.15403  1.0000
  C   C8        1.0  0.44662  0.28965  0.84747  1.0000
  C   C9        1.0  0.91487  0.30050  0.34751  1.0000
  C   C10       1.0  0.08660  0.30451  0.15604  1.0000
  C   C11       1.0  0.41492  0.80832  0.34597  1.0000
  C   C12       1.0  0.58541  0.80065  0.15333  1.0000
  C   C13       1.0  0.41447  0.19050  0.84844  1.0000
  C   C14       1.0  0.89833  0.89043  0.38322  1.0000
  C   C15       1.0  0.10334  0.89644  0.12039  1.0000
  C   C16       1.0  0.39784  0.40019  0.38163  1.0000
  C   C17       1.0  0.60224  0.39362  0.11763  1.0000
  C   C18       1.0  0.39789  0.59730  0.88427  1.0000
  C   C19       1.0  0.56000  0.55329  0.33683  1.0000
  C   C20       1.0  0.44071  0.54957  0.16118  1.0000
  C   C21       1.0  0.05985  0.94939  0.83688  1.0000
  C   C22       1.0  0.95501  0.95939  0.36603  1.0000
  C   C23       1.0  0.04671  0.96122  0.13798  1.0000
  C   C24       1.0  0.45457  0.46168  0.36425  1.0000
  C   C25       1.0  0.54561  0.45580  0.13533  1.0000
  C   C26       1.0  0.45441  0.53440  0.86626  1.0000
  C   C27       1.0  0.89062  0.14153  0.36506  1.0000
  C   C28       1.0  0.11096  0.14712  0.13842  1.0000
  C   C29       1.0  0.39044  0.65219  0.36358  1.0000
  C   C30       1.0  0.60978  0.64419  0.13570  1.0000
  C   C31       1.0  0.39023  0.34659  0.86630  1.0000
  C   C32       1.0  0.56501  0.17974  0.38007  1.0000
  C   C33       1.0  0.43532  0.18061  0.11772  1.0000
  C   C34       1.0  0.06498  0.32054  0.88006  1.0000
  C   C35       1.0  0.60185  0.58390  0.38338  1.0000
  C   C36       1.0  0.39861  0.58682  0.11501  1.0000
  C   C37       1.0  0.10189  0.91609  0.88326  1.0000
  C   C38       1.0  0.59019  0.32886  0.39730  1.0000
  C   C39       1.0  0.41007  0.33259  0.10082  1.0000
  C   C40       1.0  0.09024  0.17052  0.89720  1.0000
  C   C41       1.0  0.93150  0.80272  0.38407  1.0000
  C   C42       1.0  0.07027  0.80672  0.11984  1.0000
  C   C43       1.0  0.43086  0.30820  0.38241  1.0000
  C   C44       1.0  0.56920  0.30249  0.11706  1.0000
  C   C45       1.0  0.43094  0.68830  0.88463  1.0000
  C   C46       1.0  0.58640  0.69449  0.35205  1.0000
  C   C47       1.0  0.41437  0.69409  0.14622  1.0000
  C   C48       1.0  0.08626  0.80692  0.85208  1.0000
  C   C49       1.0  0.22715  0.91007  0.97864  1.0000
  C   C50       1.0  0.77259  0.89568  0.52177  1.0000
  C   C51       1.0  0.72897  0.41773  0.97861  1.0000
  C   C52       1.0  0.27157  0.41946  0.52179  1.0000
  C   C53       1.0  0.77439  0.10261  0.02157  1.0000
  C   C54       1.0  0.22666  0.10173  0.47880  1.0000
  C   C55       1.0  0.27236  0.59202  0.02155  1.0000
  C   C56       1.0  0.72734  0.58132  0.47880  1.0000
  C   C57       1.0  0.25058  0.73304  0.96314  1.0000
  C   C58       1.0  0.74918  0.71807  0.53725  1.0000
  C   C59       1.0  0.75271  0.24392  0.96312  1.0000
  C   C60       1.0  0.24788  0.24408  0.53727  1.0000
  C   C61       1.0  0.75079  0.27809  0.03704  1.0000
  C   C62       1.0  0.25027  0.27760  0.46335  1.0000
  C   C63       1.0  0.24909  0.77022  0.03706  1.0000
  C   C64       1.0  0.75091  0.75762  0.46332  1.0000
  C   C65       1.0  0.27344  0.58178  0.98316  1.0000
  C   C66       1.0  0.72617  0.56971  0.51721  1.0000
  C   C67       1.0  0.77569  0.09409  0.98317  1.0000
  C   C68       1.0  0.22510  0.09323  0.51720  1.0000
  C   C69       1.0  0.72773  0.42756  0.01700  1.0000
  C   C70       1.0  0.27307  0.42826  0.48339  1.0000
  C   C71       1.0  0.22611  0.92060  0.01705  1.0000
  C   C72       1.0  0.77379  0.90719  0.48337  1.0000
  C   C73       1.0  0.79514  0.92906  0.04503  1.0000
  C   C74       1.0  0.70789  0.58739  0.95501  1.0000
  C   C75       1.0  0.29230  0.59143  0.54528  1.0000
  C   C76       1.0  0.19952  0.05931  0.03709  1.0000
  C   C77       1.0  0.70074  0.56438  0.03665  1.0000
  C   C78       1.0  0.29991  0.56578  0.46350  1.0000
  C   C79       1.0  0.80240  0.95520  0.96339  1.0000
  C   C80       1.0  0.69933  0.43259  0.53711  1.0000
  C   C81       1.0  0.20659  0.28634  0.05945  1.0000
  C   C82       1.0  0.70704  0.79176  0.05924  1.0000
  C   C83       1.0  0.29328  0.79325  0.44082  1.0000
  C   C84       1.0  0.79542  0.72918  0.94079  1.0000
  C   C85       1.0  0.70588  0.20371  0.55957  1.0000
  C   C86       1.0  0.18179  0.44540  0.07464  1.0000
  C   C87       1.0  0.68166  0.94887  0.07363  1.0000
  C   C88       1.0  0.31841  0.95174  0.42609  1.0000
  C   C89       1.0  0.82030  0.56728  0.92625  1.0000
  C   C90       1.0  0.68069  0.04631  0.57435  1.0000
  C   C91       1.0  0.14898  0.36047  0.06999  1.0000
  C   C92       1.0  0.64905  0.86202  0.06787  1.0000
  C   C93       1.0  0.35112  0.86581  0.43155  1.0000
  C   C94       1.0  0.85315  0.64796  0.93180  1.0000
  C   C95       1.0  0.64803  0.13474  0.56911  1.0000
  C   C96       1.0  0.14218  0.11645  0.05037  1.0000
  C   C97       1.0  0.64296  0.61801  0.04801  1.0000
  C   C98       1.0  0.35751  0.62148  0.45150  1.0000
  C   C99       1.0  0.85992  0.89088  0.95165  1.0000
  C   C100      1.0  0.64174  0.38028  0.54936  1.0000
  C   C101      1.0  0.16727  0.96480  0.03369  1.0000
  C   C102      1.0  0.66864  0.46816  0.03222  1.0000
  C   C103      1.0  0.33208  0.47022  0.46763  1.0000
  C   C104      1.0  0.83474  0.04496  0.96773  1.0000
  C   C105      1.0  0.66724  0.53053  0.53318  1.0000
  C   C106      1.0  0.80298  0.02036  0.08030  1.0000
  C   C107      1.0  0.69965  0.49026  0.92010  1.0000
  C   C108      1.0  0.30017  0.49806  0.58056  1.0000
  C   C109      1.0  0.82430  0.86366  0.10214  1.0000
  C   C110      1.0  0.67795  0.64326  0.89830  1.0000
  C   C111      1.0  0.32167  0.65295  0.60219  1.0000
  C   C112      1.0  0.83855  0.61630  0.08927  1.0000
  C   C113      1.0  0.66384  0.89207  0.91082  1.0000
  C   C114      1.0  0.33586  0.90069  0.58925  1.0000
  C   C115      1.0  0.82999  0.51992  0.05439  1.0000
  C   C116      1.0  0.67289  0.99476  0.94526  1.0000
  C   C117      1.0  0.32711  0.99998  0.55448  1.0000
  C   C118      1.0  0.80819  0.67275  0.03316  1.0000
  C   C119      1.0  0.69502  0.84531  0.96649  1.0000
  C   C120      1.0  0.30532  0.84797  0.53331  1.0000
  C   C121      1.0  0.12278  0.52585  0.08503  1.0000
  C   C122      1.0  0.87846  0.51763  0.41842  1.0000
  C   C123      1.0  0.62235  0.02540  0.08222  1.0000
  C   C124      1.0  0.37768  0.03073  0.41705  1.0000
  C   C125      1.0  0.87940  0.47993  0.91732  1.0000
  C   C126      1.0  0.12022  0.47798  0.58083  1.0000
  C   C127      1.0  0.37807  0.96596  0.91979  1.0000
  C   C128      1.0  0.62145  0.97048  0.58365  1.0000
  C   C129      1.0  0.35991  0.94709  0.11001  1.0000
  C   C130      1.0  0.64064  0.94218  0.38914  1.0000
  C   C131      1.0  0.86118  0.45445  0.11099  1.0000
  C   C132      1.0  0.13971  0.46073  0.38969  1.0000
  C   C133      1.0  0.64074  0.04853  0.88909  1.0000
  C   C134      1.0  0.35867  0.05923  0.61096  1.0000
  C   C135      1.0  0.14072  0.55686  0.88882  1.0000
  C   C136      1.0  0.85963  0.53839  0.61038  1.0000
  C   C137      1.0  0.47104  0.11331  0.79041  1.0000
  C   C138      1.0  0.52695  0.11054  0.71230  1.0000
  C   C139      1.0  0.97155  0.61082  0.78805  1.0000
  C   C140      1.0  0.02704  0.61206  0.70972  1.0000
  C   C141      1.0  0.52811  0.88595  0.21044  1.0000
  C   C142      1.0  0.47214  0.88450  0.28841  1.0000
  C   C143      1.0  0.02863  0.39092  0.21280  1.0000
  C   C144      1.0  0.97212  0.38688  0.29032  1.0000
  C   C145      1.0  0.49791  0.00047  0.77145  1.0000
  C   C146      1.0  0.49938  0.00390  0.73066  1.0000
  C   C147      1.0  0.99871  0.50022  0.76939  1.0000
  C   C148      1.0  0.00004  0.49895  0.72856  1.0000
  C   C149      1.0  0.50077  0.99544  0.22887  1.0000
  C   C150      1.0  0.49925  0.99636  0.26968  1.0000
  C   C151      1.0  0.00103  0.49869  0.23093  1.0000
  C   C152      1.0  0.99921  0.49992  0.27169  1.0000
  C   C153      1.0  0.52105  0.84329  0.79126  1.0000
  C   C154      1.0  0.47566  0.85914  0.71029  1.0000
  C   C155      1.0  0.02232  0.35126  0.78958  1.0000
  C   C156      1.0  0.97697  0.34343  0.70862  1.0000
  C   C157      1.0  0.47722  0.14385  0.20850  1.0000
  C   C158      1.0  0.52240  0.15049  0.28971  1.0000
  C   C159      1.0  0.97762  0.64696  0.21038  1.0000
  C   C160      1.0  0.02212  0.65614  0.29174  1.0000
  C   C161      1.0  0.47485  0.87600  0.67162  1.0000
  C   C162      1.0  0.52310  0.86240  0.82989  1.0000
  C   C163      1.0  0.97536  0.36210  0.66991  1.0000
  C   C164      1.0  0.02397  0.37242  0.82820  1.0000
  C   C165      1.0  0.52395  0.13159  0.32840  1.0000
  C   C166      1.0  0.47609  0.12536  0.16983  1.0000
  C   C167      1.0  0.02355  0.63764  0.33044  1.0000
  C   C168      1.0  0.97693  0.63024  0.17171  1.0000
  C   C169      1.0  0.49874  0.04323  0.65427  1.0000
  C   C170      1.0  0.50003  0.03355  0.84780  1.0000
  C   C171      1.0  0.99831  0.53682  0.65217  1.0000
  C   C172      1.0  0.00067  0.54465  0.84568  1.0000
  C   C173      1.0  0.50055  0.96180  0.34614  1.0000
  C   C174      1.0  0.49966  0.95511  0.15251  1.0000
  C   C175      1.0  0.00049  0.46356  0.34807  1.0000
  C   C176      1.0  0.00073  0.46117  0.15457  1.0000
  C   C177      1.0  0.52537  0.14651  0.67458  1.0000
  C   C178      1.0  0.47323  0.14259  0.82812  1.0000
  C   C179      1.0  0.02494  0.64577  0.67201  1.0000
  C   C180      1.0  0.97385  0.64972  0.82566  1.0000
  C   C181      1.0  0.47394  0.85399  0.32617  1.0000
  C   C182      1.0  0.52631  0.84985  0.17277  1.0000
  C   C183      1.0  0.97393  0.35466  0.32807  1.0000
  C   C184      1.0  0.02723  0.35590  0.17509  1.0000
  C   C185      1.0  0.43929  0.17109  0.77148  1.0000
  C   C186      1.0  0.55882  0.15061  0.73165  1.0000
  C   C187      1.0  0.93948  0.65211  0.76912  1.0000
  C   C188      1.0  0.05894  0.66108  0.72862  1.0000
  C   C189      1.0  0.56000  0.84347  0.22969  1.0000
  C   C190      1.0  0.44037  0.83269  0.26932  1.0000
  C   C191      1.0  0.06038  0.34789  0.23231  1.0000
  C   C192      1.0  0.94046  0.33390  0.27108  1.0000
  C   C193      1.0  0.53912  0.63270  0.76981  1.0000
  C   C194      1.0  0.45577  0.65738  0.73136  1.0000
  C   C195      1.0  0.04120  0.14394  0.76839  1.0000
  C   C196      1.0  0.95852  0.13444  0.73011  1.0000
  C   C197      1.0  0.45781  0.34835  0.22959  1.0000
  C   C198      1.0  0.54100  0.35933  0.26838  1.0000
  C   C199      1.0  0.95792  0.85062  0.23128  1.0000
  C   C200      1.0  0.04067  0.86482  0.27031  1.0000
  C   C201      1.0  0.49934  0.08157  0.61382  1.0000
  C   C202      1.0  0.50032  0.07192  0.88822  1.0000
  C   C203      1.0  0.99823  0.57875  0.61175  1.0000
  C   C204      1.0  0.00067  0.58672  0.88607  1.0000
  C   C205      1.0  0.50020  0.92431  0.38663  1.0000
  C   C206      1.0  0.50003  0.91529  0.11209  1.0000
  C   C207      1.0  0.00053  0.42115  0.38848  1.0000
  C   C208      1.0  0.00137  0.42206  0.11415  1.0000
  N   N1        1.0  0.62505  0.72846  0.40309  1.0000
  N   N2        1.0  0.37522  0.73373  0.09574  1.0000
  N   N3        1.0  0.12427  0.24725  0.40392  1.0000
  N   N4        1.0  0.87666  0.24119  0.09689  1.0000
  N   N5        1.0  0.37428  0.27263  0.59696  1.0000
  N   N6        1.0  0.62535  0.26294  0.90297  1.0000
  N   N7        1.0  0.87500  0.75139  0.59594  1.0000
  N   N8        1.0  0.12519  0.77018  0.90280  1.0000
  N   N9        1.0  0.87287  0.73376  0.39730  1.0000
  N   N10       1.0  0.12873  0.74128  0.10593  1.0000
  N   N11       1.0  0.37220  0.24641  0.39585  1.0000
  N   N12       1.0  0.62781  0.23998  0.10338  1.0000
  N   N13       1.0  0.12581  0.26219  0.60199  1.0000
  N   N14       1.0  0.87349  0.26614  0.89616  1.0000
  N   N15       1.0  0.62703  0.75447  0.60477  1.0000
  N   N16       1.0  0.37244  0.75224  0.89854  1.0000
  C  Sn1       1.0  0.66896  0.06479  0.45650  1.0000
  C   C209      1.0  0.65861  0.12730  0.42144  1.0000
  C  Sn2       1.0  0.67597  0.31782  0.40020  1.0000
  C  Sn3       1.0  0.70428  0.44848  0.41429  1.0000
  C   C210      1.0  0.71462  0.38592  0.44932  1.0000
  C  Sn4       1.0  0.69727  0.19545  0.47058  1.0000
  O  Te1       1.0  0.65113  0.87367  0.47725  1.0000
  O  Te2       1.0  0.66514  0.37703  0.36523  1.0000
  O  Te3       1.0  0.72201  0.63973  0.39350  1.0000
  O  Te4       1.0  0.70809  0.13619  0.50553  1.0000
  Mg  Mg1       1.0  0.69755  0.65174  0.34745  1.0000
  Mg  Mg2       1.0  0.67562  0.86142  0.52333  1.0000
  C  Sn5       1.0  0.29741  0.12280  0.94572  1.0000
  C   C211      1.0  0.29953  0.36877  0.96604  1.0000
  C  Sn6       1.0  0.32877  0.51768  0.96792  1.0000
  C  Sn7       1.0  0.35648  0.41879  0.94907  1.0000
  C   C212      1.0  0.35435  0.17299  0.92876  1.0000
  C  Sn8       1.0  0.32512  0.02390  0.92688  1.0000
  O  Te5       1.0  0.26793  0.97732  0.94423  1.0000
  O  Te6       1.0  0.33030  0.76299  0.98842  1.0000
  O  Te7       1.0  0.38597  0.56450  0.95058  1.0000
  O  Te8       1.0  0.32349  0.77877  0.90639  1.0000
  Mg  Mg3       1.0  0.37590  0.88764  0.98208  1.0000
  Mg  Mg4       1.0  0.27790  0.65403  0.91269  1.0000
  C  Sn9       1.0  0.06302  0.75647  0.39333  1.0000
  C   C213      1.0  0.04688  0.81345  0.36088  1.0000
  C  Sn10      1.0  0.05963  0.00948  0.33659  1.0000
  C  Sn11      1.0  0.08905  0.15143  0.34488  1.0000
  C   C214      1.0  0.10518  0.09440  0.37730  1.0000
  C  Sn12      1.0  0.09244  0.89842  0.40162  1.0000
  O  Te9       1.0  0.04993  0.55967  0.41722  1.0000
  O  Te10      1.0  0.04305  0.06298  0.30432  1.0000
  O  Te11      1.0  0.10214  0.34836  0.32095  1.0000
  O  Te12      1.0  0.10901  0.84487  0.43386  1.0000
  Mg  Mg5       1.0  0.07062  0.34901  0.28047  1.0000
  Mg  Mg6       1.0  0.08147  0.55879  0.45773  1.0000
  C  Sn13      1.0  0.31296  0.53729  0.08253  1.0000
  C   C215      1.0  0.30182  0.47360  0.04787  1.0000
  C  Sn14      1.0  0.30637  0.20526  0.03363  1.0000
  C  Sn15      1.0  0.32229  0.99615  0.05448  1.0000
  C   C216      1.0  0.33351  0.05986  0.08912  1.0000
  C  Sn16      1.0  0.32898  0.32817  0.10338  1.0000
  O  Te13      1.0  0.30815  0.80694  0.09623  1.0000
  O  Te14      1.0  0.29798  0.11856  0.99891  1.0000
  O  Te15      1.0  0.32710  0.72634  0.04075  1.0000
  O  Te16      1.0  0.34031  0.38686  0.13808  1.0000
  Mg  Mg7       1.0  0.31022  0.72025  0.99211  1.0000
  Mg  Mg8       1.0  0.32797  0.78503  0.14491  1.0000
  C  Sn17      1.0  0.82540  0.04034  0.59539  1.0000
  C   C217      1.0  0.84070  0.29495  0.58735  1.0000
  C  Sn18      1.0  0.82977  0.46040  0.55857  1.0000
  C  Sn19      1.0  0.80299  0.36956  0.53739  1.0000
  C   C218      1.0  0.78770  0.11513  0.54544  1.0000
  C  Sn20      1.0  0.79853  0.94950  0.57421  1.0000
  O  Te17      1.0  0.83664  0.87834  0.62428  1.0000
  O  Te18      1.0  0.84546  0.71410  0.55104  1.0000
  O  Te19      1.0  0.79166  0.53182  0.50847  1.0000
  O  Te20      1.0  0.78285  0.69598  0.58174  1.0000
  Mg  Mg9       1.0  0.82104  0.86113  0.50889  1.0000
  Mg  Mg10      1.0  0.80724  0.54886  0.62389  1.0000
  C  Sn21      1.0  0.92142  0.16100  0.59663  1.0000
  C   C219      1.0  0.90779  0.90325  0.60667  1.0000
  C  Sn22      1.0  0.91307  0.79451  0.64123  1.0000
  C  Sn23      1.0  0.93227  0.94664  0.66630  1.0000
  C   C220      1.0  0.94589  0.20424  0.65626  1.0000
  C  Sn24      1.0  0.94062  0.31313  0.62170  1.0000
  O  Te21      1.0  0.91581  0.26570  0.56194  1.0000
  O  Te22      1.0  0.89929  0.53636  0.65064  1.0000
  O  Te23      1.0  0.93787  0.84170  0.70102  1.0000
  O  Te24      1.0  0.95438  0.57113  0.61229  1.0000
  Mg  Mg11      1.0  0.91389  0.48128  0.70111  1.0000
  Mg  Mg12      1.0  0.93979  0.62648  0.56184  1.0000
  C  Sn25      1.0  0.93017  0.04637  0.16807  1.0000
  C   C221      1.0  0.94688  0.81363  0.15474  1.0000
  C  Sn26      1.0  0.94117  0.71929  0.11966  1.0000
  C  Sn27      1.0  0.91822  0.86063  0.09742  1.0000
  C   C222      1.0  0.90153  0.09324  0.11075  1.0000
  C  Sn28      1.0  0.90722  0.18770  0.14583  1.0000
  O  Te25      1.0  0.93626  0.13702  0.20322  1.0000
  O  Te26      1.0  0.95825  0.48609  0.10694  1.0000
  O  Te27      1.0  0.91214  0.76976  0.06225  1.0000
  O  Te28      1.0  0.89016  0.42078  0.15855  1.0000
  Mg  Mg13      1.0  0.94150  0.44252  0.05716  1.0000
  Mg  Mg14      1.0  0.90691  0.46461  0.20832  1.0000
  C  Sn29      1.0  0.04554  0.03649  0.62032  1.0000
  C   C223      1.0  0.04980  0.80013  0.64227  1.0000
  C  Sn30      1.0  0.08089  0.72432  0.65421  1.0000
  C  Sn31      1.0  0.10819  0.88826  0.64402  1.0000
  C   C224      1.0  0.10392  0.12448  0.62209  1.0000
  C  Sn32      1.0  0.07284  0.20042  0.61013  1.0000
  O  Te29      1.0  0.01424  0.10837  0.60869  1.0000
  O  Te30      1.0  0.08464  0.48708  0.67612  1.0000
  O  Te31      1.0  0.13951  0.81617  0.65566  1.0000
  O  Te32      1.0  0.06909  0.43753  0.58824  1.0000
  Mg  Mg15      1.0  0.13216  0.47467  0.68511  1.0000
  Mg  Mg16      1.0  0.02158  0.45022  0.57924  1.0000
  C  Sn33      1.0  0.17470  0.05815  0.90456  1.0000
  C   C225      1.0  0.15938  0.31289  0.91235  1.0000
  C  Sn34      1.0  0.17002  0.47668  0.94125  1.0000
  C  Sn35      1.0  0.19655  0.38402  0.96280  1.0000
  C   C226      1.0  0.21186  0.12945  0.95501  1.0000
  C  Sn36      1.0  0.20113  0.96549  0.92612  1.0000
  O  Te33      1.0  0.16356  0.89783  0.87554  1.0000
  O  Te34      1.0  0.15431  0.73054  0.94851  1.0000
  O  Te35      1.0  0.20759  0.54460  0.99184  1.0000
  O  Te36      1.0  0.21683  0.71181  0.91885  1.0000
  Mg  Mg17      1.0  0.17829  0.87487  0.99096  1.0000
  Mg  Mg18      1.0  0.19288  0.56739  0.87639  1.0000
  C  Sn37      1.0  0.54655  0.53535  0.62346  1.0000
  C   C227      1.0  0.55072  0.29973  0.64558  1.0000
  C  Sn38      1.0  0.58177  0.22171  0.65741  1.0000
  C  Sn39      1.0  0.60922  0.38265  0.64693  1.0000
  C   C228      1.0  0.60504  0.61814  0.62483  1.0000
  C  Sn40      1.0  0.57400  0.69629  0.61298  1.0000
  O  Te37      1.0  0.51528  0.60948  0.61196  1.0000
  O  Te38      1.0  0.58533  0.98525  0.67950  1.0000
  O  Te39      1.0  0.64050  0.30832  0.65846  1.0000
  O  Te40      1.0  0.57043  0.93262  0.59091  1.0000
  Mg  Mg19      1.0  0.63279  0.96899  0.68824  1.0000
  Mg  Mg20      1.0  0.52290  0.94916  0.58218  1.0000
  C  Sn41      1.0  0.57705  0.83785  0.88052  1.0000
  C   C229      1.0  0.55964  0.77189  0.84925  1.0000
  C  Sn42      1.0  0.56084  0.50084  0.83502  1.0000
  C  Sn43      1.0  0.57983  0.29128  0.85243  1.0000
  C   C230      1.0  0.59723  0.35726  0.88368  1.0000
  C  Sn44      1.0  0.59605  0.62829  0.89793  1.0000
  O  Te41      1.0  0.57558  0.11020  0.89427  1.0000
  O  Te42      1.0  0.54323  0.43994  0.80372  1.0000
  O  Te43      1.0  0.58138  0.01878  0.83865  1.0000
  O  Te44      1.0  0.61364  0.68921  0.92921  1.0000
  Mg  Mg21      1.0  0.55310  0.03835  0.79539  1.0000
  Mg  Mg22      1.0  0.60386  0.09067  0.93758  1.0000
  C  Sn45      1.0  0.43927  0.36219  0.65560  1.0000
  C   C231      1.0  0.45504  0.60409  0.64333  1.0000
  C  Sn46      1.0  0.43949  0.78606  0.61917  1.0000
  C  Sn47      1.0  0.40749  0.72509  0.60704  1.0000
  C   C232      1.0  0.39173  0.48335  0.61932  1.0000
  C  Sn48      1.0  0.40727  0.30122  0.64348  1.0000
  O  Te45      1.0  0.45528  0.18325  0.67975  1.0000
  O  Te46      1.0  0.45585  0.02656  0.60726  1.0000
  O  Te47      1.0  0.39148  0.90427  0.58287  1.0000
  O  Te48      1.0  0.39101  0.06088  0.65538  1.0000
  Mg  Mg23      1.0  0.42384  0.20574  0.57442  1.0000
  Mg  Mg24      1.0  0.42290  0.88164  0.68824  1.0000
  C  Sn49      1.0  0.79762  0.27330  0.42788  1.0000
  C   C233      1.0  0.79978  0.03373  0.44965  1.0000
  C  Sn50      1.0  0.82907  0.96268  0.46644  1.0000
  C  Sn51      1.0  0.85696  0.13477  0.46139  1.0000
  C   C234      1.0  0.85479  0.37419  0.43964  1.0000
  C  Sn52      1.0  0.82542  0.44538  0.42284  1.0000
  O  Te49      1.0  0.76800  0.34031  0.41136  1.0000
  O  Te50      1.0  0.83064  0.72210  0.48806  1.0000
  O  Te51      1.0  0.88659  0.06754  0.47793  1.0000
  O  Te52      1.0  0.82384  0.68583  0.40123  1.0000
  Mg  Mg25      1.0  0.87644  0.71874  0.50486  1.0000
  Mg  Mg26      1.0  0.77805  0.68947  0.38444  1.0000
  C  Sn53      1.0  0.95358  0.04060  0.87695  1.0000
  C   C235      1.0  0.94900  0.80543  0.85506  1.0000
  C  Sn54      1.0  0.91782  0.73003  0.84346  1.0000
  C  Sn55      1.0  0.89057  0.89319  0.85396  1.0000
  C   C236      1.0  0.89516  0.12823  0.87583  1.0000
  C  Sn56      1.0  0.92633  0.20376  0.88745  1.0000
  O  Te53      1.0  0.98496  0.11209  0.88822  1.0000
  O  Te54      1.0  0.91394  0.49398  0.82160  1.0000
  O  Te55      1.0  0.85917  0.82150  0.84267  1.0000
  O  Te56      1.0  0.93021  0.43968  0.90929  1.0000
  Mg  Mg27      1.0  0.86635  0.48169  0.81314  1.0000
  Mg  Mg28      1.0  0.97780  0.45225  0.91775  1.0000
  C  Sn57      1.0  0.18624  0.63437  0.58043  1.0000
  C   C237      1.0  0.15287  0.67202  0.57474  1.0000
  C  Sn58      1.0  0.14170  0.84678  0.54700  1.0000
  C  Sn59      1.0  0.16446  0.98671  0.52445  1.0000
  C   C238      1.0  0.19772  0.94900  0.53014  1.0000
  C  Sn60      1.0  0.20891  0.77431  0.55789  1.0000
  O  Te57      1.0  0.19685  0.45867  0.60833  1.0000
  O  Te58      1.0  0.10822  0.88121  0.54184  1.0000
  O  Te59      1.0  0.15382  0.16253  0.49654  1.0000
  O  Te60      1.0  0.24236  0.73982  0.56304  1.0000
  Mg  Mg29      1.0  0.10582  0.14219  0.50024  1.0000
  Mg  Mg30      1.0  0.24489  0.47878  0.60462  1.0000
  C  Sn61      1.0  0.18907  0.86973  0.39686  1.0000
  C   C239      1.0  0.17241  0.62293  0.40554  1.0000
  C  Sn62      1.0  0.17022  0.53338  0.44137  1.0000
  C  Sn63      1.0  0.18498  0.69394  0.46909  1.0000
  C   C240      1.0  0.20163  0.94059  0.46041  1.0000
  C  Sn64      1.0  0.20392  0.03028  0.42459  1.0000
  O  Te61      1.0  0.19096  0.95527  0.36087  1.0000
  O  Te62      1.0  0.15343  0.28589  0.44938  1.0000
  O  Te63      1.0  0.18308  0.60817  0.50511  1.0000
  O  Te64      1.0  0.22069  0.27764  0.41658  1.0000
  Mg  Mg31      1.0  0.15756  0.25636  0.50246  1.0000
  Mg  Mg32      1.0  0.21657  0.30743  0.36350  1.0000
