data_image0
_chemical_formula_structural       H24C44N8SnCSn2CSnTe4Mg2SnCSn2CSnTe4Mg2SnCSn2CSnTe4Mg2SnCSn2CSnTe4Mg2SnCSn2CSnTe4Mg2SnCSn2CSnTe4Mg2SnCSn2CSnTe4Mg2SnCSn2CSnTe4Mg2SnCSn2CSnTe4Mg2SnCSn2CSnTe4Mg2SnCSn2CSnTe4Mg2SnCSn2CSnTe4Mg2SnCSn2CSnTe4Mg2SnCSn2CSnTe4Mg2SnCSn2CSnTe4Mg2SnCSn2CSnTe4Mg2
_chemical_formula_sum              "H24 C76 N8 Sn64 Te64 Mg32"
_cell_length_a       17.3653
_cell_length_b       25.255
_cell_length_c       8.57644
_cell_angle_alpha    94.681
_cell_angle_beta     99.813
_cell_angle_gamma    92.5048

_symmetry_space_group_name_H-M    'P1'
_space_group_IT_number       1

loop_
  _space_group_symop_operation_xyz
  'x, y, z'

loop_
  _atom_site_type_symbol
  _atom_site_label
  _atom_site_symmetry_multiplicity
  _atom_site_fract_x
  _atom_site_fract_y
  _atom_site_fract_z
  _atom_site_occupancy
  H   H1        1.0  0.55241  0.08553  0.96514  1.0000
  H   H2        1.0  0.45251  0.08570  0.02257  1.0000
  H   H3        1.0  0.05385  0.58372  0.96689  1.0000
  H   H4        1.0  0.95412  0.58386  0.02637  1.0000
  H   H5        1.0  0.45342  0.91682  0.05230  1.0000
  H   H6        1.0  0.54505  0.91524  0.96068  1.0000
  H   H7        1.0  0.94935  0.41390  0.02952  1.0000
  H   H8        1.0  0.04277  0.41311  0.94685  1.0000
  H   H9        1.0  0.88402  0.77863  0.78695  1.0000
  H   H10       1.0  0.10130  0.77758  0.23376  1.0000
  H   H11       1.0  0.38201  0.27514  0.78837  1.0000
  H   H12       1.0  0.60032  0.27425  0.22222  1.0000
  H   H13       1.0  0.11323  0.22454  0.20017  1.0000
  H   H14       1.0  0.89844  0.22359  0.76148  1.0000
  H   H15       1.0  0.61549  0.72213  0.20110  1.0000
  H   H16       1.0  0.40302  0.72388  0.78124  1.0000
  H   H17       1.0  0.25525  0.00131  0.14603  1.0000
  H   H18       1.0  0.74746  0.99975  0.85938  1.0000
  H   H19       1.0  0.75439  0.49917  0.13804  1.0000
  H   H20       1.0  0.24988  0.49757  0.86791  1.0000
  H   H21       1.0  0.59649  0.00143  0.31829  1.0000
  H   H22       1.0  0.40563  0.99617  0.68189  1.0000
  H   H23       1.0  0.09609  0.50506  0.32123  1.0000
  H   H24       1.0  0.90236  0.49702  0.67880  1.0000
  C   C1        1.0  0.58000  0.04806  0.95304  1.0000
  C   C2        1.0  0.42360  0.04850  0.04208  1.0000
  C   C3        1.0  0.08099  0.54611  0.95378  1.0000
  C   C4        1.0  0.92387  0.54641  0.03913  1.0000
  C   C5        1.0  0.42381  0.95372  0.05704  1.0000
  C   C6        1.0  0.57619  0.95271  0.95171  1.0000
  C   C7        1.0  0.92097  0.45107  0.04070  1.0000
  C   C8        1.0  0.07503  0.45061  0.94366  1.0000
  C   C9        1.0  0.34984  0.95321  0.10271  1.0000
  C   C10       1.0  0.65002  0.95140  0.90563  1.0000
  C   C11       1.0  0.84734  0.45042  0.08789  1.0000
  C   C12       1.0  0.15005  0.44930  0.90340  1.0000
  C   C13       1.0  0.65367  0.04844  0.90592  1.0000
  C   C14       1.0  0.35026  0.04991  0.09054  1.0000
  C   C15       1.0  0.15589  0.54655  0.91228  1.0000
  C   C16       1.0  0.85024  0.54758  0.08595  1.0000
  C   C17       1.0  0.02666  0.55118  0.45970  1.0000
  C   C18       1.0  0.96958  0.54859  0.55967  1.0000
  C   C19       1.0  0.52699  0.04856  0.45380  1.0000
  C   C20       1.0  0.47049  0.04657  0.55519  1.0000
  C   C21       1.0  0.97201  0.45074  0.54093  1.0000
  C   C22       1.0  0.02906  0.45336  0.44077  1.0000
  C   C23       1.0  0.47468  0.94883  0.54563  1.0000
  C   C24       1.0  0.53123  0.95077  0.44386  1.0000
  C   C25       1.0  0.84110  0.74470  0.74859  1.0000
  C   C26       1.0  0.14525  0.74903  0.27276  1.0000
  C   C27       1.0  0.33899  0.24132  0.74859  1.0000
  C   C28       1.0  0.64440  0.24566  0.26000  1.0000
  C   C29       1.0  0.15698  0.25794  0.23988  1.0000
  C   C30       1.0  0.85470  0.25307  0.73076  1.0000
  C   C31       1.0  0.65915  0.75563  0.23988  1.0000
  C   C32       1.0  0.35898  0.75332  0.75243  1.0000
  C   C33       1.0  0.54040  0.00066  0.97816  1.0000
  C   C34       1.0  0.46144  0.00088  0.02418  1.0000
  C   C35       1.0  0.03968  0.49855  0.97180  1.0000
  C   C36       1.0  0.96024  0.49860  0.01514  1.0000
  C   C37       1.0  0.31355  0.00155  0.11614  1.0000
  C   C38       1.0  0.68877  0.99985  0.88755  1.0000
  C   C39       1.0  0.81236  0.49908  0.10667  1.0000
  C   C40       1.0  0.19038  0.49779  0.89165  1.0000
  C   C41       1.0  0.55609  0.00045  0.40225  1.0000
  C   C42       1.0  0.44575  0.99700  0.59732  1.0000
  C   C43       1.0  0.05510  0.50339  0.40389  1.0000
  C   C44       1.0  0.94340  0.49858  0.59623  1.0000
  N   N1        1.0  0.23078  0.25193  0.24409  1.0000
  N   N2        1.0  0.78180  0.24411  0.73920  1.0000
  N   N3        1.0  0.73298  0.74973  0.24380  1.0000
  N   N4        1.0  0.28639  0.74402  0.76325  1.0000
  N   N5        1.0  0.76702  0.74990  0.74254  1.0000
  N   N6        1.0  0.21884  0.75871  0.27239  1.0000
  N   N7        1.0  0.26501  0.24666  0.74429  1.0000
  N   N8        1.0  0.71789  0.25539  0.25814  1.0000
  C  Sn1       1.0  0.35626  0.16250  0.10847  1.0000
  C   C45       1.0  0.33321  0.11216  0.14680  1.0000
  C  Sn2       1.0  0.26434  0.10456  0.20787  1.0000
  C  Sn3       1.0  0.21750  0.14817  0.23102  1.0000
  C   C46       1.0  0.24055  0.19846  0.19268  1.0000
  C  Sn4       1.0  0.30943  0.20611  0.13163  1.0000
  O  Te1       1.0  0.42533  0.16918  0.04756  1.0000
  O  Te2       1.0  0.24251  0.05386  0.24535  1.0000
  O  Te3       1.0  0.14839  0.14144  0.29199  1.0000
  O  Te4       1.0  0.33125  0.25676  0.09412  1.0000
  Mg  Mg1       1.0  0.14334  0.06480  0.32498  1.0000
  Mg  Mg2       1.0  0.43038  0.24587  0.01442  1.0000
  C  Sn5       1.0  0.65495  0.15953  0.88669  1.0000
  C   C47       1.0  0.67373  0.10746  0.84715  1.0000
  C  Sn6       1.0  0.74004  0.09797  0.77935  1.0000
  C  Sn7       1.0  0.78863  0.14142  0.75055  1.0000
  C   C48       1.0  0.76985  0.19345  0.79010  1.0000
  C  Sn8       1.0  0.70354  0.20299  0.85788  1.0000
  O  Te5       1.0  0.58838  0.16809  0.95437  1.0000
  O  Te6       1.0  0.75761  0.04556  0.74079  1.0000
  O  Te7       1.0  0.85525  0.13282  0.68281  1.0000
  O  Te8       1.0  0.68598  0.25535  0.89646  1.0000
  Mg  Mg3       1.0  0.85466  0.05428  0.65099  1.0000
  Mg  Mg4       1.0  0.58896  0.24668  0.98633  1.0000
  C  Sn9       1.0  0.80840  0.68480  0.05659  1.0000
  C   C49       1.0  0.75494  0.69596  0.15784  1.0000
  C  Sn10      1.0  0.73500  0.65819  0.25666  1.0000
  C  Sn11      1.0  0.76924  0.60823  0.25432  1.0000
  C   C50       1.0  0.82267  0.59709  0.15314  1.0000
  C  Sn12      1.0  0.84264  0.63483  0.05424  1.0000
  O  Te9       1.0  0.91359  0.75345  0.95882  1.0000
  O  Te10      1.0  0.68139  0.67026  0.35683  1.0000
  O  Te11      1.0  0.75011  0.56987  0.35220  1.0000
  O  Te12      1.0  0.98232  0.65309  0.95414  1.0000
  Mg  Mg5       1.0  0.67415  0.60500  0.46795  1.0000
  Mg  Mg6       1.0  0.98964  0.71833  0.84304  1.0000
  C  Sn13      1.0  0.15872  0.65784  0.90318  1.0000
  C   C51       1.0  0.17830  0.60605  0.86260  1.0000
  C  Sn14      1.0  0.24563  0.59727  0.79760  1.0000
  C  Sn15      1.0  0.29443  0.64119  0.77272  1.0000
  C   C52       1.0  0.27484  0.69295  0.81332  1.0000
  C  Sn16      1.0  0.20751  0.70176  0.87830  1.0000
  O  Te13      1.0  0.09114  0.66568  0.96801  1.0000
  O  Te14      1.0  0.26398  0.54513  0.75792  1.0000
  O  Te15      1.0  0.36205  0.63331  0.70783  1.0000
  O  Te16      1.0  0.18916  0.75387  0.91799  1.0000
  Mg  Mg7       1.0  0.36228  0.55487  0.67306  1.0000
  Mg  Mg8       1.0  0.00480  0.71387  0.00293  1.0000
  C  Sn17      1.0  0.73163  0.88495  0.71370  1.0000
  C   C53       1.0  0.67753  0.89564  0.81387  1.0000
  C  Sn18      1.0  0.65905  0.85815  0.91483  1.0000
  C  Sn19      1.0  0.69545  0.80895  0.91578  1.0000
  C   C54       1.0  0.74952  0.79829  0.81568  1.0000
  C  Sn20      1.0  0.76803  0.83575  0.71465  1.0000
  O  Te17      1.0  0.74922  0.92302  0.61376  1.0000
  O  Te18      1.0  0.51866  0.83943  0.01387  1.0000
  O  Te19      1.0  0.59171  0.74058  0.01584  1.0000
  O  Te20      1.0  0.82229  0.82420  0.61569  1.0000
  Mg  Mg9       1.0  0.51405  0.77483  0.12889  1.0000
  Mg  Mg10      1.0  0.82698  0.88878  0.50068  1.0000
  C  Sn21      1.0  0.26123  0.89646  0.29342  1.0000
  C   C55       1.0  0.31781  0.90237  0.19714  1.0000
  C  Sn22      1.0  0.33478  0.85917  0.09879  1.0000
  C  Sn23      1.0  0.29433  0.80902  0.09653  1.0000
  C   C56       1.0  0.23778  0.80313  0.19275  1.0000
  C  Sn24      1.0  0.22078  0.84631  0.29117  1.0000
  O  Te21      1.0  0.24522  0.94019  0.39082  1.0000
  O  Te22      1.0  0.39159  0.86605  0.00363  1.0000
  O  Te23      1.0  0.39650  0.79558  0.99903  1.0000
  O  Te24      1.0  0.16400  0.83945  0.38626  1.0000
  Mg  Mg11      1.0  0.47878  0.82484  0.89097  1.0000
  Mg  Mg12      1.0  0.16284  0.91093  0.49889  1.0000
  C  Sn25      1.0  0.17492  0.34018  0.95793  1.0000
  C   C57       1.0  0.19621  0.39005  0.91361  1.0000
  C  Sn26      1.0  0.23535  0.39405  0.78524  1.0000
  C  Sn27      1.0  0.25354  0.34722  0.69930  1.0000
  C   C58       1.0  0.23224  0.29738  0.74360  1.0000
  C  Sn28      1.0  0.19311  0.29335  0.87199  1.0000
  O  Te25      1.0  0.04973  0.30682  0.08665  1.0000
  O  Te26      1.0  0.25605  0.44435  0.74321  1.0000
  O  Te27      1.0  0.29266  0.35031  0.57049  1.0000
  O  Te28      1.0  0.17240  0.24308  0.91401  1.0000
  Mg  Mg13      1.0  0.30859  0.42788  0.55896  1.0000
  Mg  Mg14      1.0  0.03373  0.22921  0.09818  1.0000
  C  Sn29      1.0  0.81264  0.33676  0.03738  1.0000
  C   C59       1.0  0.79510  0.38908  0.07726  1.0000
  C  Sn30      1.0  0.75674  0.40100  0.20521  1.0000
  C  Sn31      1.0  0.73552  0.35976  0.29527  1.0000
  C   C60       1.0  0.75307  0.30747  0.25540  1.0000
  C  Sn32      1.0  0.79142  0.29552  0.12743  1.0000
  O  Te29      1.0  0.93712  0.35606  0.90898  1.0000
  O  Te30      1.0  0.73980  0.45361  0.24277  1.0000
  O  Te31      1.0  0.69711  0.37080  0.42374  1.0000
  O  Te32      1.0  0.80837  0.24295  0.08988  1.0000
  Mg  Mg15      1.0  0.68679  0.44863  0.42840  1.0000
  Mg  Mg16      1.0  0.94751  0.27818  0.90434  1.0000
  C  Sn33      1.0  0.82538  0.63176  0.68510  1.0000
  C   C61       1.0  0.86526  0.68026  0.74649  1.0000
  C  Sn34      1.0  0.94431  0.68909  0.73770  1.0000
  C  Sn35      1.0  0.98434  0.64862  0.66597  1.0000
  C   C62       1.0  0.94448  0.60017  0.60461  1.0000
  C  Sn36      1.0  0.86542  0.59129  0.61337  1.0000
  O  Te33      1.0  0.74636  0.62380  0.69518  1.0000
  O  Te34      1.0  0.98293  0.73790  0.79995  1.0000
  O  Te35      1.0  0.06343  0.65662  0.65594  1.0000
  O  Te36      1.0  0.82680  0.54253  0.55115  1.0000
  Mg  Mg17      1.0  0.09058  0.72977  0.75774  1.0000
  Mg  Mg18      1.0  0.71914  0.55062  0.59321  1.0000
  C  Sn37      1.0  0.00417  0.64540  0.29625  1.0000
  C   C63       1.0  0.04620  0.60326  0.35552  1.0000
  C  Sn38      1.0  0.12671  0.61028  0.41121  1.0000
  C  Sn39      1.0  0.16603  0.66048  0.40770  1.0000
  C   C64       1.0  0.12401  0.70258  0.34849  1.0000
  C  Sn40      1.0  0.04349  0.69559  0.29274  1.0000
  O  Te37      1.0  0.92371  0.63748  0.24120  1.0000
  O  Te38      1.0  0.16748  0.56756  0.46986  1.0000
  O  Te39      1.0  0.24656  0.66837  0.46282  1.0000
  O  Te40      1.0  0.00273  0.73828  0.23415  1.0000
  Mg  Mg19      1.0  0.27647  0.59805  0.53154  1.0000
  Mg  Mg20      1.0  0.89373  0.70784  0.17252  1.0000
  C  Sn41      1.0  0.46437  0.18350  0.67884  1.0000
  C   C65       1.0  0.38534  0.19299  0.67391  1.0000
  C  Sn42      1.0  0.32930  0.15053  0.65594  1.0000
  C  Sn43      1.0  0.35273  0.09749  0.64274  1.0000
  C   C66       1.0  0.43171  0.08802  0.64770  1.0000
  C  Sn44      1.0  0.48780  0.13046  0.66563  1.0000
  O  Te41      1.0  0.51939  0.22655  0.69689  1.0000
  O  Te42      1.0  0.25063  0.16101  0.65128  1.0000
  O  Te43      1.0  0.29762  0.05443  0.62467  1.0000
  O  Te44      1.0  0.56642  0.12000  0.67033  1.0000
  Mg  Mg21      1.0  0.19755  0.08904  0.62504  1.0000
  Mg  Mg22      1.0  0.61955  0.19194  0.69665  1.0000
  C  Sn45      1.0  0.64986  0.12299  0.43288  1.0000
  C   C67       1.0  0.57205  0.10669  0.43429  1.0000
  C  Sn46      1.0  0.51091  0.13324  0.35278  1.0000
  C  Sn47      1.0  0.52789  0.17698  0.26800  1.0000
  C   C68       1.0  0.60565  0.19325  0.26659  1.0000
  C  Sn48      1.0  0.66683  0.16673  0.34810  1.0000
  O  Te45      1.0  0.71005  0.09586  0.51519  1.0000
  O  Te46      1.0  0.43359  0.11622  0.35597  1.0000
  O  Te47      1.0  0.46761  0.20411  0.18566  1.0000
  O  Te48      1.0  0.74411  0.18372  0.34491  1.0000
  Mg  Mg23      1.0  0.37183  0.16595  0.22540  1.0000
  Mg  Mg24      1.0  0.80591  0.13400  0.47536  1.0000
  C  Sn49      1.0  0.03198  0.32672  0.21981  1.0000
  C   C69       1.0  0.11084  0.31557  0.23329  1.0000
  C  Sn50      1.0  0.16851  0.34901  0.33183  1.0000
  C  Sn51      1.0  0.14690  0.39452  0.41881  1.0000
  C   C70       1.0  0.06808  0.40565  0.40533  1.0000
  C  Sn52      1.0  0.01037  0.37223  0.30679  1.0000
  O  Te49      1.0  0.97532  0.29274  0.12059  1.0000
  O  Te50      1.0  0.24696  0.33705  0.34333  1.0000
  O  Te51      1.0  0.20364  0.42851  0.51807  1.0000
  O  Te52      1.0  0.93196  0.38416  0.29529  1.0000
  Mg  Mg25      1.0  0.30270  0.39540  0.49421  1.0000
  Mg  Mg26      1.0  0.87617  0.32583  0.14452  1.0000
  C  Sn53      1.0  0.98936  0.34254  0.60628  1.0000
  C   C71       1.0  0.94815  0.38695  0.56347  1.0000
  C  Sn54      1.0  0.87280  0.39249  0.59692  1.0000
  C  Sn55      1.0  0.83793  0.35282  0.67488  1.0000
  C   C72       1.0  0.87914  0.30844  0.71766  1.0000
  C  Sn56      1.0  0.95449  0.30287  0.68423  1.0000
  O  Te53      1.0  0.06462  0.33783  0.57167  1.0000
  O  Te54      1.0  0.83274  0.43723  0.55293  1.0000
  O  Te55      1.0  0.76261  0.35756  0.70947  1.0000
  O  Te56      1.0  0.99455  0.25816  0.72821  1.0000
  Mg  Mg27      1.0  0.73161  0.42573  0.62591  1.0000
  Mg  Mg28      1.0  0.09569  0.26964  0.65536  1.0000
  C  Sn57      1.0  0.65553  0.89597  0.33084  1.0000
  C   C73       1.0  0.57696  0.90565  0.33145  1.0000
  C  Sn58      1.0  0.52084  0.86333  0.31603  1.0000
  C  Sn59      1.0  0.54374  0.81022  0.29975  1.0000
  C   C74       1.0  0.62227  0.80056  0.29917  1.0000
  C  Sn60      1.0  0.67843  0.84286  0.31456  1.0000
  O  Te57      1.0  0.71064  0.93888  0.34644  1.0000
  O  Te58      1.0  0.44264  0.87400  0.31691  1.0000
  O  Te59      1.0  0.48855  0.76729  0.28414  1.0000
  O  Te60      1.0  0.75660  0.83220  0.31371  1.0000
  Mg  Mg29      1.0  0.38924  0.80216  0.29217  1.0000
  Mg  Mg30      1.0  0.81004  0.90401  0.33853  1.0000
  C  Sn61      1.0  0.33438  0.84899  0.60672  1.0000
  C   C75       1.0  0.37637  0.80600  0.65957  1.0000
  C  Sn62      1.0  0.45786  0.81120  0.70131  1.0000
  C  Sn63      1.0  0.49823  0.86041  0.69009  1.0000
  C   C76       1.0  0.45625  0.90337  0.63730  1.0000
  C  Sn64      1.0  0.37475  0.89820  0.59550  1.0000
  O  Te61      1.0  0.25294  0.84289  0.56563  1.0000
  O  Te62      1.0  0.49857  0.76764  0.75377  1.0000
  O  Te63      1.0  0.57974  0.86648  0.73124  1.0000
  O  Te64      1.0  0.33405  0.94172  0.54310  1.0000
  Mg  Mg31      1.0  0.60914  0.79563  0.79616  1.0000
  Mg  Mg32      1.0  0.22348  0.91379  0.50076  1.0000
