data_image0
_chemical_formula_structural       H96C112N16SnCSn2CSnTe4Mg2SnCSn2CSnTe4Mg2SnCSn2CSnTe4Mg2SnCSn2CSnTe4Mg2SnCSn2CSnTe4Mg2SnCSn2CSnTe4Mg2SnCSn2CSnTe4Mg2SnCSn2CSnTe4Mg2SnCSn2CSnTe4Mg2SnCSn2CSnTe4Mg2SnCSn2CSnTe4Mg2SnCSn2CSnTe4Mg2SnCSn2CSnTe4Mg2SnCSn2CSnTe4Mg2SnCSn2CSnTe4Mg2SnCSn2CSnTe4Mg2SnCSn2CSnTe4Mg2SnCSn2CSnTe4Mg2SnCSn2CSnTe4Mg2SnCSn2CSnTe4Mg2SnCSn2CSnTe4Mg2SnCSn2CSnTe4Mg2SnCSn2CSnTe4Mg2SnCSn2CSnTe4Mg2SnCSn2CSnTe4Mg2SnCSn2CSnTe4Mg2SnCSn2CSnTe4Mg2SnCSn2CSnTe4Mg2SnCSn2CSnTe4Mg2SnCSn2CSnTe4Mg2SnCSn2CSnTe4Mg2SnCSn2CSnTe4Mg2
_chemical_formula_sum              "H96 C176 N16 Sn128 Te128 Mg64"
_cell_length_a       41.0734
_cell_length_b       4.7613
_cell_length_c       37.0841
_cell_angle_alpha    89.7939
_cell_angle_beta     90.1874
_cell_angle_gamma    89.9555

_symmetry_space_group_name_H-M    'P1'
_space_group_IT_number       1

loop_
  _space_group_symop_operation_xyz
  'x, y, z'

loop_
  _atom_site_type_symbol
  _atom_site_label
  _atom_site_symmetry_multiplicity
  _atom_site_fract_x
  _atom_site_fract_y
  _atom_site_fract_z
  _atom_site_occupancy
  H   H1        1.0  0.25283  0.72626  0.93401  1.0000
  H   H2        1.0  0.74708  0.70866  0.56639  1.0000
  H   H3        1.0  0.75500  0.23863  0.93400  1.0000
  H   H4        1.0  0.24541  0.23820  0.56640  1.0000
  H   H5        1.0  0.74857  0.28465  0.06618  1.0000
  H   H6        1.0  0.25273  0.28413  0.43424  1.0000
  H   H7        1.0  0.24702  0.77818  0.06619  1.0000
  H   H8        1.0  0.75322  0.76503  0.43419  1.0000
  H   H9        1.0  0.09827  0.47428  0.07533  1.0000
  H   H10       1.0  0.90279  0.46602  0.42884  1.0000
  H   H11       1.0  0.59804  0.97366  0.07189  1.0000
  H   H12       1.0  0.40203  0.97868  0.42737  1.0000
  H   H13       1.0  0.90384  0.52798  0.92762  1.0000
  H   H14       1.0  0.09590  0.52871  0.57030  1.0000
  H   H15       1.0  0.40236  0.01413  0.93047  1.0000
  H   H16       1.0  0.59707  0.02382  0.57350  1.0000
  H   H17       1.0  0.36201  0.00199  0.13862  1.0000
  H   H18       1.0  0.63909  0.99832  0.36044  1.0000
  H   H19       1.0  0.86280  0.50763  0.13971  1.0000
  H   H20       1.0  0.13788  0.51587  0.36099  1.0000
  H   H21       1.0  0.63860  0.98945  0.86060  1.0000
  H   H22       1.0  0.36036  0.00323  0.63965  1.0000
  H   H23       1.0  0.13904  0.50230  0.86015  1.0000
  H   H24       1.0  0.86152  0.48477  0.63913  1.0000
  H   H25       1.0  0.42132  0.01302  0.77942  1.0000
  H   H26       1.0  0.57528  0.97902  0.72441  1.0000
  H   H27       1.0  0.92302  0.48175  0.77691  1.0000
  H   H28       1.0  0.07598  0.49448  0.72110  1.0000
  H   H29       1.0  0.57653  0.01430  0.22225  1.0000
  H   H30       1.0  0.42298  0.99646  0.27687  1.0000
  H   H31       1.0  0.07722  0.51588  0.22472  1.0000
  H   H32       1.0  0.92280  0.49501  0.27878  1.0000
  H   H33       1.0  0.44174  0.15727  0.74218  1.0000
  H   H34       1.0  0.55592  0.14015  0.76090  1.0000
  H   H35       1.0  0.94202  0.64028  0.73985  1.0000
  H   H36       1.0  0.05644  0.65046  0.75792  1.0000
  H   H37       1.0  0.55722  0.85343  0.25895  1.0000
  H   H38       1.0  0.44296  0.84472  0.24003  1.0000
  H   H39       1.0  0.05745  0.36038  0.26152  1.0000
  H   H40       1.0  0.94316  0.34847  0.24182  1.0000
  H   H41       1.0  0.42948  0.37690  0.77844  1.0000
  H   H42       1.0  0.57060  0.34795  0.72442  1.0000
  H   H43       1.0  0.92789  0.85040  0.77623  1.0000
  H   H44       1.0  0.06983  0.86164  0.72109  1.0000
  H   H45       1.0  0.57164  0.64561  0.22250  1.0000
  H   H46       1.0  0.42980  0.63021  0.27659  1.0000
  H   H47       1.0  0.07175  0.14818  0.22548  1.0000
  H   H48       1.0  0.93015  0.12974  0.27802  1.0000
  H   H49       1.0  0.53836  0.67577  0.74075  1.0000
  H   H50       1.0  0.45481  0.70764  0.76015  1.0000
  H   H51       1.0  0.04104  0.18976  0.73941  1.0000
  H   H52       1.0  0.95899  0.17851  0.75911  1.0000
  H   H53       1.0  0.45732  0.29969  0.25849  1.0000
  H   H54       1.0  0.54043  0.31639  0.23936  1.0000
  H   H55       1.0  0.95686  0.80029  0.26011  1.0000
  H   H56       1.0  0.04032  0.82019  0.24133  1.0000
  H   H57       1.0  0.52602  0.42699  0.77341  1.0000
  H   H58       1.0  0.46863  0.45003  0.72977  1.0000
  H   H59       1.0  0.02828  0.93724  0.77129  1.0000
  H   H60       1.0  0.97148  0.92784  0.72702  1.0000
  H   H61       1.0  0.47070  0.55549  0.22736  1.0000
  H   H62       1.0  0.52816  0.56620  0.27168  1.0000
  H   H63       1.0  0.97098  0.05729  0.22957  1.0000
  H   H64       1.0  0.02763  0.07121  0.27320  1.0000
  H   H65       1.0  0.56427  0.59878  0.77838  1.0000
  H   H66       1.0  0.43108  0.62512  0.72117  1.0000
  H   H67       1.0  0.06624  0.11176  0.77750  1.0000
  H   H68       1.0  0.93342  0.10200  0.72128  1.0000
  H   H69       1.0  0.43296  0.38074  0.21985  1.0000
  H   H70       1.0  0.56614  0.39001  0.27717  1.0000
  H   H71       1.0  0.93328  0.88533  0.22098  1.0000
  H   H72       1.0  0.06572  0.89782  0.27926  1.0000
  H   H73       1.0  0.48225  0.24569  0.60533  1.0000
  H   H74       1.0  0.51791  0.23317  0.89609  1.0000
  H   H75       1.0  0.98029  0.73757  0.60380  1.0000
  H   H76       1.0  0.01819  0.74876  0.89385  1.0000
  H   H77       1.0  0.51709  0.75848  0.39504  1.0000
  H   H78       1.0  0.48233  0.75586  0.10388  1.0000
  H   H79       1.0  0.01852  0.26248  0.39631  1.0000
  H   H80       1.0  0.98380  0.26208  0.10582  1.0000
  H   H81       1.0  0.49306  0.88696  0.59994  1.0000
  H   H82       1.0  0.50643  0.87655  0.90223  1.0000
  H   H83       1.0  0.99275  0.38377  0.59754  1.0000
  H   H84       1.0  0.00663  0.39271  0.90048  1.0000
  H   H85       1.0  0.50684  0.11819  0.40047  1.0000
  H   H86       1.0  0.49450  0.11094  0.09783  1.0000
  H   H87       1.0  0.00596  0.61589  0.40278  1.0000
  H   H88       1.0  0.99578  0.61768  0.09993  1.0000
  H   H89       1.0  0.52341  0.14812  0.60490  1.0000
  H   H90       1.0  0.47661  0.14319  0.89764  1.0000
  H   H91       1.0  0.02183  0.65485  0.60261  1.0000
  H   H92       1.0  0.97689  0.65871  0.89520  1.0000
  H   H93       1.0  0.47613  0.86014  0.39584  1.0000
  H   H94       1.0  0.52380  0.84114  0.10322  1.0000
  H   H95       1.0  0.97695  0.34426  0.39765  1.0000
  H   H96       1.0  0.02523  0.34903  0.10540  1.0000
  C   C1        1.0  0.22715  0.91007  0.97864  1.0000
  C   C2        1.0  0.77259  0.89568  0.52177  1.0000
  C   C3        1.0  0.72897  0.41773  0.97861  1.0000
  C   C4        1.0  0.27157  0.41946  0.52179  1.0000
  C   C5        1.0  0.77439  0.10261  0.02157  1.0000
  C   C6        1.0  0.22666  0.10173  0.47880  1.0000
  C   C7        1.0  0.27236  0.59202  0.02155  1.0000
  C   C8        1.0  0.72734  0.58132  0.47880  1.0000
  C   C9        1.0  0.25058  0.73304  0.96314  1.0000
  C   C10       1.0  0.74918  0.71807  0.53725  1.0000
  C   C11       1.0  0.75271  0.24392  0.96312  1.0000
  C   C12       1.0  0.24788  0.24408  0.53727  1.0000
  C   C13       1.0  0.75079  0.27809  0.03704  1.0000
  C   C14       1.0  0.25027  0.27760  0.46335  1.0000
  C   C15       1.0  0.24909  0.77022  0.03706  1.0000
  C   C16       1.0  0.75091  0.75762  0.46332  1.0000
  C   C17       1.0  0.27344  0.58178  0.98316  1.0000
  C   C18       1.0  0.72617  0.56971  0.51721  1.0000
  C   C19       1.0  0.77569  0.09409  0.98317  1.0000
  C   C20       1.0  0.22510  0.09323  0.51720  1.0000
  C   C21       1.0  0.72773  0.42756  0.01700  1.0000
  C   C22       1.0  0.27307  0.42826  0.48339  1.0000
  C   C23       1.0  0.22611  0.92060  0.01705  1.0000
  C   C24       1.0  0.77379  0.90719  0.48337  1.0000
  C   C25       1.0  0.12278  0.52585  0.08503  1.0000
  C   C26       1.0  0.87846  0.51763  0.41842  1.0000
  C   C27       1.0  0.62235  0.02540  0.08222  1.0000
  C   C28       1.0  0.37768  0.03073  0.41705  1.0000
  C   C29       1.0  0.87940  0.47993  0.91732  1.0000
  C   C30       1.0  0.12022  0.47798  0.58083  1.0000
  C   C31       1.0  0.37807  0.96596  0.91979  1.0000
  C   C32       1.0  0.62145  0.97048  0.58365  1.0000
  C   C33       1.0  0.35991  0.94709  0.11001  1.0000
  C   C34       1.0  0.64064  0.94218  0.38914  1.0000
  C   C35       1.0  0.86118  0.45445  0.11099  1.0000
  C   C36       1.0  0.13971  0.46073  0.38969  1.0000
  C   C37       1.0  0.64074  0.04853  0.88909  1.0000
  C   C38       1.0  0.35867  0.05923  0.61096  1.0000
  C   C39       1.0  0.14072  0.55686  0.88882  1.0000
  C   C40       1.0  0.85963  0.53839  0.61038  1.0000
  C   C41       1.0  0.47104  0.11331  0.79041  1.0000
  C   C42       1.0  0.52695  0.11054  0.71230  1.0000
  C   C43       1.0  0.97155  0.61082  0.78805  1.0000
  C   C44       1.0  0.02704  0.61206  0.70972  1.0000
  C   C45       1.0  0.52811  0.88595  0.21044  1.0000
  C   C46       1.0  0.47214  0.88450  0.28841  1.0000
  C   C47       1.0  0.02863  0.39092  0.21280  1.0000
  C   C48       1.0  0.97212  0.38688  0.29032  1.0000
  C   C49       1.0  0.49791  0.00047  0.77145  1.0000
  C   C50       1.0  0.49938  0.00390  0.73066  1.0000
  C   C51       1.0  0.99871  0.50022  0.76939  1.0000
  C   C52       1.0  0.00004  0.49895  0.72856  1.0000
  C   C53       1.0  0.50077  0.99544  0.22887  1.0000
  C   C54       1.0  0.49925  0.99636  0.26968  1.0000
  C   C55       1.0  0.00103  0.49869  0.23093  1.0000
  C   C56       1.0  0.99921  0.49992  0.27169  1.0000
  C   C57       1.0  0.52105  0.84329  0.79126  1.0000
  C   C58       1.0  0.47566  0.85914  0.71029  1.0000
  C   C59       1.0  0.02232  0.35126  0.78958  1.0000
  C   C60       1.0  0.97697  0.34343  0.70862  1.0000
  C   C61       1.0  0.47722  0.14385  0.20850  1.0000
  C   C62       1.0  0.52240  0.15049  0.28971  1.0000
  C   C63       1.0  0.97762  0.64696  0.21038  1.0000
  C   C64       1.0  0.02212  0.65614  0.29174  1.0000
  C   C65       1.0  0.47485  0.87600  0.67162  1.0000
  C   C66       1.0  0.52310  0.86240  0.82989  1.0000
  C   C67       1.0  0.97536  0.36210  0.66991  1.0000
  C   C68       1.0  0.02397  0.37242  0.82820  1.0000
  C   C69       1.0  0.52395  0.13159  0.32840  1.0000
  C   C70       1.0  0.47609  0.12536  0.16983  1.0000
  C   C71       1.0  0.02355  0.63764  0.33044  1.0000
  C   C72       1.0  0.97693  0.63024  0.17171  1.0000
  C   C73       1.0  0.49874  0.04323  0.65427  1.0000
  C   C74       1.0  0.50003  0.03355  0.84780  1.0000
  C   C75       1.0  0.99831  0.53682  0.65217  1.0000
  C   C76       1.0  0.00067  0.54465  0.84568  1.0000
  C   C77       1.0  0.50055  0.96180  0.34614  1.0000
  C   C78       1.0  0.49966  0.95511  0.15251  1.0000
  C   C79       1.0  0.00049  0.46356  0.34807  1.0000
  C   C80       1.0  0.00073  0.46117  0.15457  1.0000
  C   C81       1.0  0.52537  0.14651  0.67458  1.0000
  C   C82       1.0  0.47323  0.14259  0.82812  1.0000
  C   C83       1.0  0.02494  0.64577  0.67201  1.0000
  C   C84       1.0  0.97385  0.64972  0.82566  1.0000
  C   C85       1.0  0.47394  0.85399  0.32617  1.0000
  C   C86       1.0  0.52631  0.84985  0.17277  1.0000
  C   C87       1.0  0.97393  0.35466  0.32807  1.0000
  C   C88       1.0  0.02723  0.35590  0.17509  1.0000
  C   C89       1.0  0.43929  0.17109  0.77148  1.0000
  C   C90       1.0  0.55882  0.15061  0.73165  1.0000
  C   C91       1.0  0.93948  0.65211  0.76912  1.0000
  C   C92       1.0  0.05894  0.66108  0.72862  1.0000
  C   C93       1.0  0.56000  0.84347  0.22969  1.0000
  C   C94       1.0  0.44037  0.83269  0.26932  1.0000
  C   C95       1.0  0.06038  0.34789  0.23231  1.0000
  C   C96       1.0  0.94046  0.33390  0.27108  1.0000
  C   C97       1.0  0.53912  0.63270  0.76981  1.0000
  C   C98       1.0  0.45577  0.65738  0.73136  1.0000
  C   C99       1.0  0.04120  0.14394  0.76839  1.0000
  C   C100      1.0  0.95852  0.13444  0.73011  1.0000
  C   C101      1.0  0.45781  0.34835  0.22959  1.0000
  C   C102      1.0  0.54100  0.35933  0.26838  1.0000
  C   C103      1.0  0.95792  0.85062  0.23128  1.0000
  C   C104      1.0  0.04067  0.86482  0.27031  1.0000
  C   C105      1.0  0.49934  0.08157  0.61382  1.0000
  C   C106      1.0  0.50032  0.07192  0.88822  1.0000
  C   C107      1.0  0.99823  0.57875  0.61175  1.0000
  C   C108      1.0  0.00067  0.58672  0.88607  1.0000
  C   C109      1.0  0.50020  0.92431  0.38663  1.0000
  C   C110      1.0  0.50003  0.91529  0.11209  1.0000
  C   C111      1.0  0.00053  0.42115  0.38848  1.0000
  C   C112      1.0  0.00137  0.42206  0.11415  1.0000
  N   N1        1.0  0.62505  0.72846  0.40309  1.0000
  N   N2        1.0  0.37522  0.73373  0.09574  1.0000
  N   N3        1.0  0.12427  0.24725  0.40392  1.0000
  N   N4        1.0  0.87666  0.24119  0.09689  1.0000
  N   N5        1.0  0.37428  0.27263  0.59696  1.0000
  N   N6        1.0  0.62535  0.26294  0.90297  1.0000
  N   N7        1.0  0.87500  0.75139  0.59594  1.0000
  N   N8        1.0  0.12519  0.77018  0.90280  1.0000
  N   N9        1.0  0.87287  0.73376  0.39730  1.0000
  N   N10       1.0  0.12873  0.74128  0.10593  1.0000
  N   N11       1.0  0.37220  0.24641  0.39585  1.0000
  N   N12       1.0  0.62781  0.23998  0.10338  1.0000
  N   N13       1.0  0.12581  0.26219  0.60199  1.0000
  N   N14       1.0  0.87349  0.26614  0.89616  1.0000
  N   N15       1.0  0.62703  0.75447  0.60477  1.0000
  N   N16       1.0  0.37244  0.75224  0.89854  1.0000
  C  Sn1       1.0  0.93984  0.86841  0.38980  1.0000
  C   C113      1.0  0.90643  0.92158  0.39170  1.0000
  C  Sn2       1.0  0.89174  0.10685  0.36736  1.0000
  C  Sn3       1.0  0.91075  0.24168  0.34055  1.0000
  C   C114      1.0  0.94414  0.18846  0.33865  1.0000
  C  Sn4       1.0  0.95895  0.00324  0.36299  1.0000
  O  Te1       1.0  0.95411  0.68240  0.41441  1.0000
  O  Te2       1.0  0.85829  0.15674  0.36979  1.0000
  O  Te3       1.0  0.89645  0.42781  0.31593  1.0000
  O  Te4       1.0  0.99228  0.95330  0.36056  1.0000
  Mg  Mg1       1.0  0.85005  0.42736  0.33014  1.0000
  Mg  Mg2       1.0  0.00055  0.68262  0.40018  1.0000
  C  Sn5       1.0  0.09218  0.33039  0.14421  1.0000
  C   C115      1.0  0.05876  0.27735  0.14591  1.0000
  C  Sn6       1.0  0.04651  0.01306  0.13690  1.0000
  C  Sn7       1.0  0.06802  0.79719  0.12598  1.0000
  C   C116      1.0  0.10142  0.85025  0.12429  1.0000
  C  Sn8       1.0  0.11379  0.11451  0.13329  1.0000
  O  Te5       1.0  0.10389  0.59616  0.15334  1.0000
  O  Te6       1.0  0.01291  0.96509  0.13880  1.0000
  O  Te7       1.0  0.05628  0.53127  0.11685  1.0000
  O  Te8       1.0  0.14727  0.16251  0.13140  1.0000
  Mg  Mg3       1.0  0.00870  0.56833  0.12369  1.0000
  Mg  Mg4       1.0  0.15151  0.55912  0.14652  1.0000
  C  Sn9       1.0  0.43938  0.37289  0.38802  1.0000
  C   C117      1.0  0.40609  0.43104  0.39018  1.0000
  C  Sn10      1.0  0.39149  0.61745  0.36585  1.0000
  C  Sn11      1.0  0.41056  0.74835  0.33877  1.0000
  C   C118      1.0  0.44383  0.69015  0.33661  1.0000
  C  Sn12      1.0  0.45845  0.50379  0.36094  1.0000
  O  Te9       1.0  0.45345  0.18584  0.41263  1.0000
  O  Te10      1.0  0.35817  0.67234  0.36855  1.0000
  O  Te11      1.0  0.39645  0.93553  0.31415  1.0000
  O  Te12      1.0  0.49175  0.44885  0.35824  1.0000
  Mg  Mg5       1.0  0.35016  0.94248  0.32879  1.0000
  Mg  Mg6       1.0  0.49978  0.17865  0.39798  1.0000
  C  Sn13      1.0  0.59098  0.82683  0.14150  1.0000
  C   C119      1.0  0.55758  0.77297  0.14320  1.0000
  C  Sn14      1.0  0.54541  0.50851  0.13414  1.0000
  C  Sn15      1.0  0.56708  0.29332  0.12316  1.0000
  C   C120      1.0  0.60046  0.34720  0.12147  1.0000
  C  Sn16      1.0  0.61265  0.61164  0.13053  1.0000
  O  Te13      1.0  0.60270  0.09276  0.15069  1.0000
  O  Te14      1.0  0.51192  0.45970  0.13604  1.0000
  O  Te15      1.0  0.55542  0.02724  0.11397  1.0000
  O  Te16      1.0  0.64612  0.66047  0.12864  1.0000
  Mg  Mg7       1.0  0.50783  0.06306  0.12084  1.0000
  Mg  Mg8       1.0  0.65032  0.05697  0.14385  1.0000
  C  Sn17      1.0  0.10324  0.76299  0.62942  1.0000
  C   C121      1.0  0.09955  0.01716  0.61091  1.0000
  C  Sn18      1.0  0.07110  0.17503  0.61479  1.0000
  C  Sn19      1.0  0.04592  0.07692  0.63766  1.0000
  C   C122      1.0  0.04962  0.82293  0.65617  1.0000
  C  Sn20      1.0  0.07806  0.66488  0.65230  1.0000
  O  Te17      1.0  0.13189  0.60863  0.62514  1.0000
  O  Te18      1.0  0.06788  0.42844  0.59599  1.0000
  O  Te19      1.0  0.01726  0.23153  0.64193  1.0000
  O  Te20      1.0  0.08129  0.41166  0.67109  1.0000
  Mg  Mg9       1.0  0.02431  0.56360  0.61066  1.0000
  Mg  Mg10      1.0  0.12486  0.27639  0.65645  1.0000
  C  Sn21      1.0  0.89581  0.76777  0.86855  1.0000
  C   C123      1.0  0.89976  0.02146  0.88691  1.0000
  C  Sn22      1.0  0.92813  0.17964  0.88267  1.0000
  C  Sn23      1.0  0.95316  0.08232  0.85959  1.0000
  C   C124      1.0  0.94919  0.82881  0.84124  1.0000
  C  Sn24      1.0  0.92083  0.67046  0.84547  1.0000
  O  Te21      1.0  0.86724  0.61309  0.87319  1.0000
  O  Te22      1.0  0.93144  0.43255  0.90131  1.0000
  O  Te23      1.0  0.98174  0.23726  0.85496  1.0000
  O  Te24      1.0  0.91751  0.41772  0.82684  1.0000
  Mg  Mg11      1.0  0.97485  0.56843  0.88614  1.0000
  Mg  Mg12      1.0  0.87411  0.28175  0.84198  1.0000
  C  Sn25      1.0  0.59254  0.25868  0.66118  1.0000
  C   C125      1.0  0.55897  0.30647  0.66154  1.0000
  C  Sn26      1.0  0.54476  0.49212  0.63683  1.0000
  C  Sn27      1.0  0.56453  0.63283  0.61121  1.0000
  C   C126      1.0  0.59808  0.58498  0.61086  1.0000
  C  Sn28      1.0  0.61230  0.39938  0.63556  1.0000
  O  Te25      1.0  0.60621  0.07218  0.68614  1.0000
  O  Te26      1.0  0.51115  0.53657  0.63772  1.0000
  O  Te27      1.0  0.55082  0.81944  0.58624  1.0000
  O  Te28      1.0  0.64589  0.35488  0.63468  1.0000
  Mg  Mg13      1.0  0.50390  0.81026  0.59818  1.0000
  Mg  Mg14      1.0  0.65317  0.08114  0.67419  1.0000
  C  Sn29      1.0  0.40651  0.25730  0.84219  1.0000
  C   C127      1.0  0.44010  0.30378  0.84170  1.0000
  C  Sn30      1.0  0.45443  0.48820  0.86628  1.0000
  C  Sn31      1.0  0.43478  0.62900  0.89190  1.0000
  C   C128      1.0  0.40121  0.58247  0.89238  1.0000
  C  Sn32      1.0  0.38686  0.39810  0.86780  1.0000
  O  Te29      1.0  0.39271  0.07201  0.81737  1.0000
  O  Te30      1.0  0.48806  0.53134  0.86527  1.0000
  O  Te31      1.0  0.44861  0.81440  0.91673  1.0000
  O  Te32      1.0  0.35326  0.35490  0.86882  1.0000
  Mg  Mg15      1.0  0.49550  0.80368  0.90465  1.0000
  Mg  Mg16      1.0  0.34579  0.08251  0.82946  1.0000
  C  Sn33      1.0  0.56358  0.24127  0.39120  1.0000
  C   C129      1.0  0.54777  0.30199  0.35866  1.0000
  C  Sn34      1.0  0.56082  0.49907  0.33476  1.0000
  C  Sn35      1.0  0.59029  0.63827  0.34355  1.0000
  C   C130      1.0  0.60609  0.57750  0.37607  1.0000
  C  Sn36      1.0  0.59306  0.38046  0.39999  1.0000
  O  Te33      1.0  0.55009  0.04348  0.41469  1.0000
  O  Te34      1.0  0.54456  0.55633  0.30240  1.0000
  O  Te35      1.0  0.60377  0.83618  0.32003  1.0000
  O  Te36      1.0  0.60930  0.32315  0.43233  1.0000
  Mg  Mg17      1.0  0.57260  0.84232  0.27922  1.0000
  Mg  Mg18      1.0  0.58129  0.03711  0.45552  1.0000
  C  Sn37      1.0  0.42929  0.54109  0.16646  1.0000
  C   C131      1.0  0.44598  0.30796  0.15309  1.0000
  C  Sn38      1.0  0.44002  0.21275  0.11810  1.0000
  C  Sn39      1.0  0.41692  0.35359  0.09600  1.0000
  C   C132      1.0  0.40025  0.58659  0.10937  1.0000
  C  Sn40      1.0  0.40618  0.68193  0.14436  1.0000
  O  Te37      1.0  0.43563  0.63263  0.20152  1.0000
  O  Te38      1.0  0.45691  0.97916  0.10533  1.0000
  O  Te39      1.0  0.41058  0.26184  0.06092  1.0000
  O  Te40      1.0  0.38922  0.91539  0.15713  1.0000
  Mg  Mg19      1.0  0.43980  0.93438  0.05571  1.0000
  Mg  Mg20      1.0  0.40633  0.96045  0.20674  1.0000
  C  Sn41      1.0  0.07029  0.05500  0.33325  1.0000
  C   C133      1.0  0.05364  0.82120  0.34678  1.0000
  C  Sn42      1.0  0.05961  0.72594  0.38186  1.0000
  C  Sn43      1.0  0.08260  0.86739  0.40388  1.0000
  C   C134      1.0  0.09923  0.10106  0.39035  1.0000
  C  Sn44      1.0  0.09328  0.19645  0.35527  1.0000
  O  Te41      1.0  0.06394  0.14658  0.29810  1.0000
  O  Te42      1.0  0.04276  0.49169  0.39478  1.0000
  O  Te43      1.0  0.08894  0.77560  0.43904  1.0000
  O  Te44      1.0  0.11011  0.43058  0.34234  1.0000
  Mg  Mg21      1.0  0.05984  0.44711  0.44447  1.0000
  Mg  Mg22      1.0  0.09304  0.47542  0.29267  1.0000
  C  Sn45      1.0  0.92707  0.23120  0.14553  1.0000
  C   C135      1.0  0.90678  0.14302  0.11745  1.0000
  C  Sn46      1.0  0.90839  0.86748  0.10478  1.0000
  C  Sn47      1.0  0.93082  0.67601  0.12052  1.0000
  C   C136      1.0  0.95109  0.76419  0.14858  1.0000
  C  Sn48      1.0  0.94950  0.03973  0.16127  1.0000
  O  Te45      1.0  0.92496  0.50763  0.15778  1.0000
  O  Te46      1.0  0.88786  0.78423  0.07667  1.0000
  O  Te47      1.0  0.93292  0.39940  0.10825  1.0000
  O  Te48      1.0  0.97001  0.12298  0.18936  1.0000
  Mg  Mg23      1.0  0.89984  0.38567  0.06936  1.0000
  Mg  Mg24      1.0  0.95804  0.52143  0.19671  1.0000
  C  Sn49      1.0  0.42211  0.84849  0.61962  1.0000
  C   C137      1.0  0.43922  0.78206  0.65116  1.0000
  C  Sn50      1.0  0.43800  0.51057  0.66549  1.0000
  C  Sn51      1.0  0.41931  0.30103  0.64793  1.0000
  C   C138      1.0  0.40222  0.36747  0.61641  1.0000
  C  Sn52      1.0  0.40342  0.63894  0.60206  1.0000
  O  Te49      1.0  0.42377  0.12127  0.60578  1.0000
  O  Te50      1.0  0.45531  0.44921  0.69705  1.0000
  O  Te51      1.0  0.41775  0.02809  0.66181  1.0000
  O  Te52      1.0  0.38613  0.70032  0.57052  1.0000
  Mg  Mg25      1.0  0.44555  0.04713  0.70543  1.0000
  Mg  Mg26      1.0  0.39597  0.10227  0.56211  1.0000
  C  Sn53      1.0  0.57705  0.83785  0.88052  1.0000
  C   C139      1.0  0.55964  0.77189  0.84925  1.0000
  C  Sn54      1.0  0.56084  0.50084  0.83502  1.0000
  C  Sn55      1.0  0.57983  0.29128  0.85243  1.0000
  C   C140      1.0  0.59723  0.35726  0.88368  1.0000
  C  Sn56      1.0  0.59605  0.62829  0.89793  1.0000
  O  Te53      1.0  0.57558  0.11020  0.89427  1.0000
  O  Te54      1.0  0.54323  0.43994  0.80372  1.0000
  O  Te55      1.0  0.58138  0.01878  0.83865  1.0000
  O  Te56      1.0  0.61364  0.68921  0.92921  1.0000
  Mg  Mg27      1.0  0.55310  0.03835  0.79539  1.0000
  Mg  Mg28      1.0  0.60386  0.09067  0.93758  1.0000
  C  Sn57      1.0  0.91418  0.84958  0.65828  1.0000
  C   C141      1.0  0.89493  0.92967  0.62884  1.0000
  C  Sn58      1.0  0.90635  0.12873  0.60414  1.0000
  C  Sn59      1.0  0.93758  0.25016  0.60894  1.0000
  C   C142      1.0  0.95681  0.17004  0.63836  1.0000
  C  Sn60      1.0  0.94541  0.97102  0.66308  1.0000
  O  Te57      1.0  0.90236  0.65019  0.68264  1.0000
  O  Te58      1.0  0.88666  0.20551  0.57492  1.0000
  O  Te59      1.0  0.94938  0.44971  0.58455  1.0000
  O  Te60      1.0  0.96508  0.89420  0.69228  1.0000
  Mg  Mg29      1.0  0.91353  0.48577  0.54904  1.0000
  Mg  Mg30      1.0  0.93825  0.61387  0.71816  1.0000
  C  Sn61      1.0  0.08564  0.86428  0.84044  1.0000
  C   C143      1.0  0.10506  0.94757  0.86951  1.0000
  C  Sn62      1.0  0.09377  0.14666  0.89401  1.0000
  C  Sn63      1.0  0.06232  0.26487  0.88939  1.0000
  C   C144      1.0  0.04292  0.18155  0.86034  1.0000
  C  Sn64      1.0  0.05428  0.98249  0.83581  1.0000
  O  Te61      1.0  0.09751  0.66491  0.81627  1.0000
  O  Te62      1.0  0.11363  0.22668  0.92286  1.0000
  O  Te63      1.0  0.05046  0.46439  0.91359  1.0000
  O  Te64      1.0  0.03435  0.90244  0.80699  1.0000
  Mg  Mg31      1.0  0.08660  0.50553  0.94860  1.0000
  Mg  Mg32      1.0  0.06134  0.62351  0.78125  1.0000
  C  Sn65      1.0  0.15952  0.03293  0.02749  1.0000
  C   C145      1.0  0.19296  0.08544  0.02932  1.0000
  C  Sn66      1.0  0.20561  0.26071  0.05603  1.0000
  C  Sn67      1.0  0.18441  0.38598  0.08146  1.0000
  C   C146      1.0  0.15100  0.33342  0.07962  1.0000
  C  Sn68      1.0  0.13832  0.15820  0.05291  1.0000
  O  Te65      1.0  0.14731  0.85700  0.00055  1.0000
  O  Te66      1.0  0.23912  0.31015  0.05732  1.0000
  O  Te67      1.0  0.19656  0.56203  0.10840  1.0000
  O  Te68      1.0  0.10483  0.10871  0.05163  1.0000
  Mg  Mg33      1.0  0.24397  0.56514  0.09904  1.0000
  Mg  Mg34      1.0  0.09987  0.85366  0.00993  1.0000
  C  Sn69      1.0  0.84052  0.02139  0.47482  1.0000
  C   C147      1.0  0.80712  0.07293  0.47177  1.0000
  C  Sn70      1.0  0.79515  0.24886  0.44456  1.0000
  C  Sn71      1.0  0.81702  0.37581  0.41988  1.0000
  C   C148      1.0  0.85039  0.32422  0.42294  1.0000
  C  Sn72      1.0  0.86238  0.14833  0.45014  1.0000
  O  Te69      1.0  0.85186  0.84477  0.50223  1.0000
  O  Te70      1.0  0.76166  0.29730  0.44205  1.0000
  O  Te71      1.0  0.80556  0.55254  0.39246  1.0000
  O  Te72      1.0  0.89585  0.09984  0.45265  1.0000
  Mg  Mg35      1.0  0.75789  0.55379  0.40011  1.0000
  Mg  Mg36      1.0  0.89956  0.84329  0.49458  1.0000
  C  Sn73      1.0  0.66093  0.53592  0.02576  1.0000
  C   C149      1.0  0.69426  0.59028  0.02877  1.0000
  C  Sn74      1.0  0.70601  0.76596  0.05594  1.0000
  C  Sn75      1.0  0.68400  0.88975  0.08063  1.0000
  C   C150      1.0  0.65069  0.83533  0.07761  1.0000
  C  Sn76      1.0  0.63892  0.65971  0.05045  1.0000
  O  Te73      1.0  0.65268  0.33158  0.99839  1.0000
  O  Te74      1.0  0.73943  0.81726  0.05840  1.0000
  O  Te75      1.0  0.69533  0.06617  0.10801  1.0000
  O  Te76      1.0  0.60552  0.60836  0.04798  1.0000
  Mg  Mg37      1.0  0.74298  0.07204  0.10031  1.0000
  Mg  Mg38      1.0  0.60203  0.35351  0.00609  1.0000
  C  Sn77      1.0  0.29672  0.79177  0.42761  1.0000
  C   C151      1.0  0.29893  0.55298  0.44951  1.0000
  C  Sn78      1.0  0.32844  0.48089  0.46595  1.0000
  C  Sn79      1.0  0.35631  0.65110  0.46041  1.0000
  C   C152      1.0  0.35409  0.88974  0.43853  1.0000
  C  Sn80      1.0  0.32460  0.96198  0.42207  1.0000
  O  Te77      1.0  0.26698  0.85985  0.41144  1.0000
  O  Te78      1.0  0.33005  0.24112  0.48772  1.0000
  O  Te79      1.0  0.38607  0.58281  0.47660  1.0000
  O  Te80      1.0  0.32307  0.20161  0.40032  1.0000
  Mg  Mg39      1.0  0.37603  0.23574  0.50390  1.0000
  Mg  Mg40      1.0  0.27710  0.20727  0.38414  1.0000
  C  Sn81      1.0  0.81340  0.63821  0.91924  1.0000
  C   C153      1.0  0.84689  0.67491  0.92407  1.0000
  C  Sn82      1.0  0.85864  0.84742  0.95158  1.0000
  C  Sn83      1.0  0.83655  0.98601  0.97475  1.0000
  C   C154      1.0  0.80300  0.94924  0.96991  1.0000
  C  Sn84      1.0  0.79123  0.77680  0.94241  1.0000
  O  Te81      1.0  0.80220  0.46476  0.89157  1.0000
  O  Te82      1.0  0.89222  0.88094  0.95588  1.0000
  O  Te83      1.0  0.84483  0.18760  0.00243  1.0000
  O  Te84      1.0  0.75767  0.74322  0.93811  1.0000
  Mg  Mg41      1.0  0.89569  0.13876  0.99749  1.0000
  Mg  Mg42      1.0  0.75426  0.48534  0.89652  1.0000
  C  Sn85      1.0  0.18624  0.63437  0.58043  1.0000
  C   C155      1.0  0.15287  0.67202  0.57474  1.0000
  C  Sn86      1.0  0.14170  0.84678  0.54700  1.0000
  C  Sn87      1.0  0.16446  0.98671  0.52445  1.0000
  C   C156      1.0  0.19772  0.94900  0.53014  1.0000
  C  Sn88      1.0  0.20891  0.77431  0.55789  1.0000
  O  Te85      1.0  0.19685  0.45867  0.60833  1.0000
  O  Te86      1.0  0.10822  0.88121  0.54184  1.0000
  O  Te87      1.0  0.15382  0.16253  0.49654  1.0000
  O  Te88      1.0  0.24236  0.73982  0.56304  1.0000
  Mg  Mg43      1.0  0.10582  0.14219  0.50024  1.0000
  Mg  Mg44      1.0  0.24489  0.47878  0.60462  1.0000
  C  Sn89      1.0  0.35442  0.36726  0.96690  1.0000
  C   C157      1.0  0.35228  0.14224  0.94292  1.0000
  C  Sn90      1.0  0.32292  0.08253  0.92546  1.0000
  C  Sn91      1.0  0.29512  0.25136  0.93208  1.0000
  C   C158      1.0  0.29728  0.47625  0.95604  1.0000
  C  Sn92      1.0  0.32663  0.53609  0.97353  1.0000
  O  Te89      1.0  0.38402  0.42311  0.98406  1.0000
  O  Te90      1.0  0.32128  0.85639  0.90161  1.0000
  O  Te91      1.0  0.26551  0.19531  0.91490  1.0000
  O  Te92      1.0  0.32818  0.76210  0.99736  1.0000
  Mg  Mg45      1.0  0.27550  0.86444  0.88475  1.0000
  Mg  Mg46      1.0  0.37100  0.78236  0.01421  1.0000
  C  Sn93      1.0  0.66116  0.56303  0.54440  1.0000
  C   C159      1.0  0.69436  0.49885  0.54533  1.0000
  C  Sn94      1.0  0.70494  0.23503  0.55710  1.0000
  C  Sn95      1.0  0.68186  0.03101  0.56816  1.0000
  C   C160      1.0  0.64868  0.09521  0.56722  1.0000
  C  Sn96      1.0  0.63808  0.35902  0.55546  1.0000
  O  Te93      1.0  0.65113  0.82812  0.53254  1.0000
  O  Te94      1.0  0.73826  0.17578  0.55780  1.0000
  O  Te95      1.0  0.69183  0.76578  0.58003  1.0000
  O  Te96      1.0  0.60478  0.41828  0.55475  1.0000
  Mg  Mg47      1.0  0.73982  0.78487  0.57611  1.0000
  Mg  Mg48      1.0  0.60310  0.80905  0.53644  1.0000
  C  Sn97      1.0  0.31049  0.35580  0.10322  1.0000
  C   C161      1.0  0.32728  0.11019  0.09440  1.0000
  C  Sn98      1.0  0.32921  0.02240  0.05857  1.0000
  C  Sn99      1.0  0.31407  0.18353  0.03098  1.0000
  C   C162      1.0  0.29730  0.42900  0.03981  1.0000
  C  Sn100     1.0  0.29535  0.51693  0.07563  1.0000
  O  Te97      1.0  0.30887  0.43960  0.13922  1.0000
  O  Te98      1.0  0.34603  0.77606  0.05041  1.0000
  O  Te99      1.0  0.31866  0.07147  0.99495  1.0000
  O  Te100     1.0  0.27846  0.76312  0.08380  1.0000
  Mg  Mg49      1.0  0.34440  0.72075  0.99737  1.0000
  Mg  Mg50      1.0  0.28304  0.79067  0.13682  1.0000
  C  Sn101     1.0  0.69579  0.06191  0.46049  1.0000
  C   C163      1.0  0.71226  0.31024  0.45207  1.0000
  C  Sn102     1.0  0.70194  0.47778  0.42321  1.0000
  C  Sn103     1.0  0.67458  0.39552  0.40236  1.0000
  C   C164      1.0  0.65812  0.14737  0.41079  1.0000
  C  Sn104     1.0  0.66834  0.97965  0.43964  1.0000
  O  Te101     1.0  0.70644  0.89766  0.48946  1.0000
  O  Te102     1.0  0.71880  0.72508  0.41530  1.0000
  O  Te103     1.0  0.66385  0.56002  0.37337  1.0000
  O  Te104     1.0  0.65149  0.73252  0.44756  1.0000
  Mg  Mg51      1.0  0.69481  0.87834  0.37321  1.0000
  Mg  Mg52      1.0  0.67545  0.57918  0.48965  1.0000
  C  Sn105     1.0  0.83279  0.58330  0.04371  1.0000
  C   C165      1.0  0.84329  0.64429  0.07870  1.0000
  C  Sn106     1.0  0.82602  0.83427  0.09997  1.0000
  C  Sn107     1.0  0.79766  0.96593  0.08599  1.0000
  C   C166      1.0  0.78717  0.90489  0.05103  1.0000
  C  Sn108     1.0  0.80443  0.71495  0.02973  1.0000
  O  Te105     1.0  0.85043  0.39268  0.02293  1.0000
  O  Te106     1.0  0.83700  0.89196  0.13487  1.0000
  O  Te107     1.0  0.78011  0.15667  0.10681  1.0000
  O  Te108     1.0  0.79642  0.62918  0.99486  1.0000
  Mg  Mg53      1.0  0.80476  0.16651  0.15274  1.0000
  Mg  Mg54      1.0  0.82871  0.35457  0.97697  1.0000
  C  Sn109     1.0  0.19538  0.58043  0.46051  1.0000
  C   C167      1.0  0.21186  0.82837  0.45193  1.0000
  C  Sn110     1.0  0.20150  0.99590  0.42313  1.0000
  C  Sn111     1.0  0.17391  0.91402  0.40249  1.0000
  C   C168      1.0  0.15744  0.66625  0.41107  1.0000
  C  Sn112     1.0  0.16787  0.49855  0.43986  1.0000
  O  Te109     1.0  0.20624  0.41618  0.48942  1.0000
  O  Te110     1.0  0.21838  0.24281  0.41507  1.0000
  O  Te111     1.0  0.16314  0.07851  0.37356  1.0000
  O  Te112     1.0  0.15101  0.25181  0.44794  1.0000
  Mg  Mg55      1.0  0.19419  0.39623  0.37313  1.0000
  Mg  Mg56      1.0  0.17517  0.09831  0.48987  1.0000
  C  Sn113     1.0  0.68271  0.84186  0.96833  1.0000
  C   C169      1.0  0.70057  0.60242  0.95929  1.0000
  C  Sn114     1.0  0.70234  0.51402  0.92348  1.0000
  C  Sn115     1.0  0.68594  0.66824  0.89612  1.0000
  C   C170      1.0  0.66811  0.90755  0.90516  1.0000
  C  Sn116     1.0  0.66641  0.99609  0.94097  1.0000
  O  Te113     1.0  0.67832  0.95444  0.00432  1.0000
  O  Te114     1.0  0.72034  0.27392  0.91510  1.0000
  O  Te115     1.0  0.68739  0.58349  0.86011  1.0000
  O  Te116     1.0  0.64843  0.23605  0.94935  1.0000
  Mg  Mg57      1.0  0.71500  0.24286  0.86218  1.0000
  Mg  Mg58      1.0  0.65081  0.29542  0.00225  1.0000
  C  Sn117     1.0  0.31537  0.02890  0.55240  1.0000
  C   C171      1.0  0.32702  0.95876  0.58668  1.0000
  C  Sn118     1.0  0.32239  0.68881  0.60061  1.0000
  C  Sn119     1.0  0.30571  0.48462  0.57983  1.0000
  C   C172      1.0  0.29398  0.55477  0.54557  1.0000
  C  Sn120     1.0  0.29859  0.82471  0.53162  1.0000
  O  Te117     1.0  0.32027  0.30006  0.53901  1.0000
  O  Te118     1.0  0.33434  0.62367  0.63496  1.0000
  O  Te119     1.0  0.30081  0.21330  0.59325  1.0000
  O  Te120     1.0  0.28666  0.88987  0.49729  1.0000
  Mg  Mg59      1.0  0.32162  0.22573  0.64144  1.0000
  Mg  Mg60      1.0  0.29947  0.28768  0.49078  1.0000
  C  Sn121     1.0  0.20227  0.05647  0.90944  1.0000
  C   C173      1.0  0.21134  0.10960  0.94512  1.0000
  C  Sn122     1.0  0.19352  0.29845  0.96601  1.0000
  C  Sn123     1.0  0.16607  0.43698  0.95092  1.0000
  C   C174      1.0  0.15702  0.38379  0.91526  1.0000
  C  Sn124     1.0  0.17482  0.19499  0.89435  1.0000
  O  Te121     1.0  0.22034  0.86684  0.88906  1.0000
  O  Te122     1.0  0.20010  0.37626  0.00162  1.0000
  O  Te123     1.0  0.14791  0.62672  0.97134  1.0000
  O  Te124     1.0  0.16529  0.14517  0.85877  1.0000
  Mg  Mg61      1.0  0.16757  0.65260  0.01855  1.0000
  Mg  Mg62      1.0  0.19771  0.86877  0.84182  1.0000
  C  Sn125     1.0  0.81603  0.50630  0.55229  1.0000
  C   C175      1.0  0.82794  0.43590  0.58650  1.0000
  C  Sn126     1.0  0.82340  0.16580  0.60041  1.0000
  C  Sn127     1.0  0.80654  0.96171  0.57970  1.0000
  C   C176      1.0  0.79473  0.03212  0.54552  1.0000
  C  Sn128     1.0  0.79925  0.30221  0.53159  1.0000
  O  Te125     1.0  0.82084  0.77761  0.53892  1.0000
  O  Te126     1.0  0.83552  0.10040  0.63468  1.0000
  O  Te127     1.0  0.80173  0.69024  0.59311  1.0000
  O  Te128     1.0  0.78715  0.36762  0.49734  1.0000
  Mg  Mg63      1.0  0.82277  0.70233  0.64117  1.0000
  Mg  Mg64      1.0  0.79981  0.76556  0.49081  1.0000
