data_image0
_chemical_formula_structural       H56C92N8C2Sn2C2HTe2HMgC2Sn2C2HTe2HMgC2Sn2C2HTe2HMgC2Sn2C2HTe2HMgC2Sn2C2HTe2HMgC2Sn2C2HTe2HMgC2Sn2C2HTe2HMgC2Sn2C2HTe2HMg
_chemical_formula_sum              "H72 C124 N8 Sn16 Te16 Mg8"
_cell_length_a       17.3653
_cell_length_b       25.255
_cell_length_c       8.57644
_cell_angle_alpha    94.681
_cell_angle_beta     99.813
_cell_angle_gamma    92.5048

_symmetry_space_group_name_H-M    'P1'
_space_group_IT_number       1

loop_
  _space_group_symop_operation_xyz
  'x, y, z'

loop_
  _atom_site_type_symbol
  _atom_site_label
  _atom_site_symmetry_multiplicity
  _atom_site_fract_x
  _atom_site_fract_y
  _atom_site_fract_z
  _atom_site_occupancy
  H   H1        1.0  0.55241  0.08553  0.96514  1.0000
  H   H2        1.0  0.45251  0.08570  0.02257  1.0000
  H   H3        1.0  0.05385  0.58372  0.96689  1.0000
  H   H4        1.0  0.95412  0.58386  0.02637  1.0000
  H   H5        1.0  0.45342  0.91682  0.05230  1.0000
  H   H6        1.0  0.54505  0.91524  0.96068  1.0000
  H   H7        1.0  0.94935  0.41390  0.02952  1.0000
  H   H8        1.0  0.04277  0.41311  0.94685  1.0000
  H   H9        1.0  0.76261  0.06069  0.71395  1.0000
  H   H10       1.0  0.73678  0.56810  0.26518  1.0000
  H   H11       1.0  0.75880  0.93116  0.71647  1.0000
  H   H12       1.0  0.23765  0.94188  0.28810  1.0000
  H   H13       1.0  0.26179  0.42812  0.72121  1.0000
  H   H14       1.0  0.62906  0.15055  0.01128  1.0000
  H   H15       1.0  0.88719  0.64483  0.98979  1.0000
  H   H16       1.0  0.61497  0.85398  0.00381  1.0000
  H   H17       1.0  0.37719  0.85057  0.00723  1.0000
  H   H18       1.0  0.11260  0.35270  0.00105  1.0000
  H   H19       1.0  0.81990  0.14421  0.64136  1.0000
  H   H20       1.0  0.68586  0.65447  0.33600  1.0000
  H   H21       1.0  0.81007  0.84479  0.64332  1.0000
  H   H22       1.0  0.17830  0.85893  0.35942  1.0000
  H   H23       1.0  0.31210  0.34114  0.65107  1.0000
  H   H24       1.0  0.68135  0.23371  0.92562  1.0000
  H   H25       1.0  0.83910  0.73161  0.06965  1.0000
  H   H26       1.0  0.66302  0.76739  0.92092  1.0000
  H   H27       1.0  0.32383  0.76798  0.09446  1.0000
  H   H28       1.0  0.15915  0.26539  0.92077  1.0000
  H   H29       1.0  0.82334  0.42254  0.56598  1.0000
  H   H30       1.0  0.68332  0.93467  0.42949  1.0000
  H   H31       1.0  0.32672  0.92196  0.57993  1.0000
  H   H32       1.0  0.77196  0.33742  0.64824  1.0000
  H   H33       1.0  0.73971  0.84993  0.34457  1.0000
  H   H34       1.0  0.27585  0.83825  0.67060  1.0000
  H   H35       1.0  0.00497  0.28224  0.72121  1.0000
  H   H36       1.0  0.50758  0.77555  0.21737  1.0000
  H   H37       1.0  0.50827  0.78154  0.73574  1.0000
  H   H38       1.0  0.05604  0.36620  0.64157  1.0000
  H   H39       1.0  0.45186  0.85914  0.30164  1.0000
  H   H40       1.0  0.55875  0.86466  0.64824  1.0000
  H   H41       1.0  0.88402  0.77863  0.78695  1.0000
  H   H42       1.0  0.10130  0.77758  0.23376  1.0000
  H   H43       1.0  0.38201  0.27514  0.78837  1.0000
  H   H44       1.0  0.60032  0.27425  0.22222  1.0000
  H   H45       1.0  0.11323  0.22454  0.20017  1.0000
  H   H46       1.0  0.89844  0.22359  0.76148  1.0000
  H   H47       1.0  0.61549  0.72213  0.20110  1.0000
  H   H48       1.0  0.40302  0.72388  0.78124  1.0000
  H   H49       1.0  0.25525  0.00131  0.14603  1.0000
  H   H50       1.0  0.74746  0.99975  0.85938  1.0000
  H   H51       1.0  0.75439  0.49917  0.13804  1.0000
  H   H52       1.0  0.24988  0.49757  0.86791  1.0000
  H   H53       1.0  0.59649  0.00143  0.31829  1.0000
  H   H54       1.0  0.40563  0.99617  0.68189  1.0000
  H   H55       1.0  0.09609  0.50506  0.32123  1.0000
  H   H56       1.0  0.90236  0.49702  0.67880  1.0000
  C   C1        1.0  0.58000  0.04806  0.95304  1.0000
  C   C2        1.0  0.42360  0.04850  0.04208  1.0000
  C   C3        1.0  0.08099  0.54611  0.95378  1.0000
  C   C4        1.0  0.92387  0.54641  0.03913  1.0000
  C   C5        1.0  0.42381  0.95372  0.05704  1.0000
  C   C6        1.0  0.57619  0.95271  0.95171  1.0000
  C   C7        1.0  0.92097  0.45107  0.04070  1.0000
  C   C8        1.0  0.07503  0.45061  0.94366  1.0000
  C   C9        1.0  0.34984  0.95321  0.10271  1.0000
  C   C10       1.0  0.65002  0.95140  0.90563  1.0000
  C   C11       1.0  0.84734  0.45042  0.08789  1.0000
  C   C12       1.0  0.15005  0.44930  0.90340  1.0000
  C   C13       1.0  0.65367  0.04844  0.90592  1.0000
  C   C14       1.0  0.35026  0.04991  0.09054  1.0000
  C   C15       1.0  0.15589  0.54655  0.91228  1.0000
  C   C16       1.0  0.85024  0.54758  0.08595  1.0000
  C   C17       1.0  0.69129  0.09855  0.86926  1.0000
  C   C18       1.0  0.81577  0.59895  0.12016  1.0000
  C   C19       1.0  0.68375  0.90003  0.86866  1.0000
  C   C20       1.0  0.31233  0.90332  0.14145  1.0000
  C   C21       1.0  0.18361  0.39774  0.86820  1.0000
  C   C22       1.0  0.74652  0.09840  0.76635  1.0000
  C   C23       1.0  0.75805  0.60331  0.21692  1.0000
  C   C24       1.0  0.73946  0.89590  0.76726  1.0000
  C   C25       1.0  0.25492  0.90396  0.23950  1.0000
  C   C26       1.0  0.24085  0.39304  0.77051  1.0000
  C   C27       1.0  0.75535  0.19507  0.78087  1.0000
  C   C28       1.0  0.75790  0.69916  0.20471  1.0000
  C   C29       1.0  0.74122  0.80025  0.78051  1.0000
  C   C30       1.0  0.24620  0.80735  0.22952  1.0000
  C   C31       1.0  0.24003  0.29721  0.78362  1.0000
  C   C32       1.0  0.66971  0.14846  0.92795  1.0000
  C   C33       1.0  0.84346  0.64629  0.06651  1.0000
  C   C34       1.0  0.65733  0.85265  0.92406  1.0000
  C   C35       1.0  0.33506  0.85313  0.08745  1.0000
  C   C36       1.0  0.15558  0.35068  0.92273  1.0000
  C   C37       1.0  0.77892  0.14550  0.72432  1.0000
  C   C38       1.0  0.72894  0.65211  0.25760  1.0000
  C   C39       1.0  0.76844  0.84725  0.72480  1.0000
  C   C40       1.0  0.22135  0.85716  0.28089  1.0000
  C   C41       1.0  0.26924  0.34401  0.72986  1.0000
  C   C42       1.0  0.69928  0.19549  0.88160  1.0000
  C   C43       1.0  0.81671  0.69536  0.11065  1.0000
  C   C44       1.0  0.68395  0.80374  0.87820  1.0000
  C   C45       1.0  0.30462  0.80637  0.13412  1.0000
  C   C46       1.0  0.18167  0.30138  0.87865  1.0000
  C   C47       1.0  0.02666  0.55118  0.45970  1.0000
  C   C48       1.0  0.96958  0.54859  0.55967  1.0000
  C   C49       1.0  0.52699  0.04856  0.45380  1.0000
  C   C50       1.0  0.47049  0.04657  0.55519  1.0000
  C   C51       1.0  0.97201  0.45074  0.54093  1.0000
  C   C52       1.0  0.02906  0.45336  0.44077  1.0000
  C   C53       1.0  0.47468  0.94883  0.54563  1.0000
  C   C54       1.0  0.53123  0.95077  0.44386  1.0000
  C   C55       1.0  0.94325  0.40038  0.59423  1.0000
  C   C56       1.0  0.56371  0.90240  0.37713  1.0000
  C   C57       1.0  0.44629  0.89922  0.60404  1.0000
  C   C58       1.0  0.86308  0.39183  0.60081  1.0000
  C   C59       1.0  0.64506  0.89969  0.38253  1.0000
  C   C60       1.0  0.36650  0.89134  0.61542  1.0000
  C   C61       1.0  0.83386  0.34439  0.64515  1.0000
  C   C62       1.0  0.67686  0.85256  0.33671  1.0000
  C   C63       1.0  0.33758  0.84453  0.66438  1.0000
  C   C64       1.0  0.88416  0.30356  0.68600  1.0000
  C   C65       1.0  0.62801  0.80654  0.28147  1.0000
  C   C66       1.0  0.38787  0.80364  0.70525  1.0000
  C   C67       1.0  0.96465  0.31268  0.68598  1.0000
  C   C68       1.0  0.54643  0.81025  0.26509  1.0000
  C   C69       1.0  0.46810  0.81215  0.70071  1.0000
  C   C70       1.0  0.99369  0.36021  0.64084  1.0000
  C   C71       1.0  0.51487  0.85738  0.31196  1.0000
  C   C72       1.0  0.49670  0.85908  0.65099  1.0000
  C   C73       1.0  0.84110  0.74470  0.74859  1.0000
  C   C74       1.0  0.14525  0.74903  0.27276  1.0000
  C   C75       1.0  0.33899  0.24132  0.74859  1.0000
  C   C76       1.0  0.64440  0.24566  0.26000  1.0000
  C   C77       1.0  0.15698  0.25794  0.23988  1.0000
  C   C78       1.0  0.85470  0.25307  0.73076  1.0000
  C   C79       1.0  0.65915  0.75563  0.23988  1.0000
  C   C80       1.0  0.35898  0.75332  0.75243  1.0000
  C   C81       1.0  0.54040  0.00066  0.97816  1.0000
  C   C82       1.0  0.46144  0.00088  0.02418  1.0000
  C   C83       1.0  0.03968  0.49855  0.97180  1.0000
  C   C84       1.0  0.96024  0.49860  0.01514  1.0000
  C   C85       1.0  0.31355  0.00155  0.11614  1.0000
  C   C86       1.0  0.68877  0.99985  0.88755  1.0000
  C   C87       1.0  0.81236  0.49908  0.10667  1.0000
  C   C88       1.0  0.19038  0.49779  0.89165  1.0000
  C   C89       1.0  0.55609  0.00045  0.40225  1.0000
  C   C90       1.0  0.44575  0.99700  0.59732  1.0000
  C   C91       1.0  0.05510  0.50339  0.40389  1.0000
  C   C92       1.0  0.94340  0.49858  0.59623  1.0000
  N   N1        1.0  0.23078  0.25193  0.24409  1.0000
  N   N2        1.0  0.78180  0.24411  0.73920  1.0000
  N   N3        1.0  0.73298  0.74973  0.24380  1.0000
  N   N4        1.0  0.28639  0.74402  0.76325  1.0000
  N   N5        1.0  0.76702  0.74990  0.74254  1.0000
  N   N6        1.0  0.21884  0.75871  0.27239  1.0000
  N   N7        1.0  0.26501  0.24666  0.74429  1.0000
  N   N8        1.0  0.71789  0.25539  0.25814  1.0000
  C   C93       1.0  0.97232  0.68132  0.73834  1.0000
  C   C94       1.0  0.89407  0.69438  0.71573  1.0000
  C  Sn1       1.0  0.83449  0.65559  0.65367  1.0000
  C  Sn2       1.0  0.85380  0.60277  0.61365  1.0000
  C   C95       1.0  0.93227  0.59010  0.63683  1.0000
  C   C96       1.0  0.99142  0.62923  0.69896  1.0000
  H   H57       1.0  0.01809  0.71159  0.78650  1.0000
  O  Te1       1.0  0.75661  0.66932  0.63179  1.0000
  O  Te2       1.0  0.79542  0.56322  0.55148  1.0000
  H   H58       1.0  0.05200  0.61910  0.71655  1.0000
  Mg  Mg1       1.0  0.69789  0.60147  0.54339  1.0000
  C   C97       1.0  0.02648  0.32050  0.26490  1.0000
  C   C98       1.0  0.10461  0.31006  0.26198  1.0000
  C  Sn3       1.0  0.16426  0.34890  0.32310  1.0000
  C  Sn4       1.0  0.14515  0.39907  0.38832  1.0000
  C   C99       1.0  0.06681  0.40911  0.39079  1.0000
  C   C100      1.0  0.00758  0.36997  0.32926  1.0000
  H   H59       1.0  0.98065  0.29020  0.21738  1.0000
  O  Te3       1.0  0.24202  0.33781  0.31919  1.0000
  O  Te4       1.0  0.20361  0.43860  0.45026  1.0000
  H   H60       1.0  0.94709  0.37805  0.33164  1.0000
  Mg  Mg2       1.0  0.30092  0.40452  0.41797  1.0000
  C   C101      1.0  0.48874  0.15478  0.69869  1.0000
  C   C102      1.0  0.45137  0.10471  0.64760  1.0000
  C  Sn5       1.0  0.36975  0.09813  0.62222  1.0000
  C  Sn6       1.0  0.32487  0.14258  0.64852  1.0000
  C   C103      1.0  0.36282  0.19251  0.69952  1.0000
  C   C104      1.0  0.44452  0.19864  0.72460  1.0000
  H   H61       1.0  0.55195  0.15954  0.71802  1.0000
  O  Te5       1.0  0.33336  0.04783  0.57123  1.0000
  O  Te6       1.0  0.24322  0.13713  0.62402  1.0000
  H   H62       1.0  0.47344  0.23742  0.76406  1.0000
  Mg  Mg3       1.0  0.22060  0.06050  0.55437  1.0000
  C   C105      1.0  0.73655  0.39398  0.24062  1.0000
  C   C106      1.0  0.79849  0.40122  0.15820  1.0000
  C  Sn7       1.0  0.83225  0.35725  0.09347  1.0000
  C  Sn8       1.0  0.80332  0.30512  0.11175  1.0000
  C   C107      1.0  0.74130  0.29830  0.19431  1.0000
  C   C108      1.0  0.70797  0.34257  0.25865  1.0000
  H   H63       1.0  0.71073  0.42823  0.29033  1.0000
  O  Te7       1.0  0.89410  0.36520  0.01153  1.0000
  O  Te8       1.0  0.83596  0.26048  0.04820  1.0000
  H   H64       1.0  0.65998  0.33695  0.32237  1.0000
  Mg  Mg4       1.0  0.00533  0.32210  0.94647  1.0000
  C   C109      1.0  0.28525  0.63057  0.74501  1.0000
  C   C110      1.0  0.26754  0.68281  0.78551  1.0000
  C  Sn9       1.0  0.21386  0.69296  0.88692  1.0000
  C  Sn10      1.0  0.17734  0.64992  0.94878  1.0000
  C   C111      1.0  0.19550  0.59781  0.90764  1.0000
  C   C112      1.0  0.24929  0.58810  0.80603  1.0000
  H   H65       1.0  0.32690  0.62306  0.66646  1.0000
  O  Te9       1.0  0.19681  0.74539  0.92611  1.0000
  O  Te10      1.0  0.03740  0.62864  0.05043  1.0000
  H   H66       1.0  0.26303  0.54766  0.77478  1.0000
  Mg  Mg5       1.0  0.03338  0.70709  0.06900  1.0000
  C   C113      1.0  0.00127  0.65455  0.34227  1.0000
  C   C114      1.0  0.04121  0.60973  0.38612  1.0000
  C  Sn11      1.0  0.12270  0.61057  0.40225  1.0000
  C  Sn12      1.0  0.16482  0.65720  0.37393  1.0000
  C   C115      1.0  0.12432  0.70185  0.33023  1.0000
  C   C116      1.0  0.04277  0.70057  0.31438  1.0000
  H   H67       1.0  0.93818  0.65357  0.33009  1.0000
  O  Te11      1.0  0.16168  0.56543  0.44609  1.0000
  O  Te12      1.0  0.24628  0.65913  0.38926  1.0000
  H   H68       1.0  0.01187  0.73529  0.28053  1.0000
  Mg  Mg6       1.0  0.27304  0.58750  0.45156  1.0000
  C   C117      1.0  0.51638  0.17674  0.30377  1.0000
  C   C118      1.0  0.59396  0.19496  0.30843  1.0000
  C  Sn13      1.0  0.65508  0.16210  0.35308  1.0000
  C  Sn14      1.0  0.63803  0.11005  0.39372  1.0000
  C   C119      1.0  0.56021  0.09218  0.38858  1.0000
  C   C120      1.0  0.49951  0.12540  0.34378  1.0000
  H   H69       1.0  0.46940  0.20242  0.26903  1.0000
  O  Te13      1.0  0.73226  0.18094  0.35715  1.0000
  O  Te14      1.0  0.69798  0.07637  0.43871  1.0000
  H   H70       1.0  0.43944  0.11127  0.34008  1.0000
  Mg  Mg7       1.0  0.79376  0.12016  0.42611  1.0000
  C   C121      1.0  0.22592  0.13951  0.25848  1.0000
  C   C122      1.0  0.24855  0.19036  0.22341  1.0000
  C  Sn15      1.0  0.30444  0.19687  0.12598  1.0000
  C  Sn16      1.0  0.33817  0.15156  0.06263  1.0000
  C   C123      1.0  0.31510  0.10086  0.09834  1.0000
  C   C124      1.0  0.25914  0.09480  0.19600  1.0000
  H   H71       1.0  0.18260  0.13482  0.33398  1.0000
  O  Te15      1.0  0.32640  0.24795  0.09218  1.0000
  O  Te16      1.0  0.48023  0.18723  0.96488  1.0000
  H   H72       1.0  0.24159  0.05543  0.22306  1.0000
  Mg  Mg8       1.0  0.49107  0.26510  0.95313  1.0000
