data_image0
_chemical_formula_structural       H160C208N16C2Sn2C2HTe2HMgC2Sn2C2HTe2HMgC2Sn2C2HTe2HMgC2Sn2C2HTe2HMgC2Sn2C2HTe2HMgC2Sn2C2HTe2HMgC2Sn2C2HTe2HMgC2Sn2C2HTe2HMgC2Sn2C2HTe2HMgC2Sn2C2HTe2HMgC2Sn2C2HTe2HMgC2Sn2C2HTe2HMgC2Sn2C2HTe2HMgC2Sn2C2HTe2HMgC2Sn2C2HTe2HMgC2Sn2C2HTe2HMg
_chemical_formula_sum              "H192 C272 N16 Sn32 Te32 Mg16"
_cell_length_a       41.0734
_cell_length_b       4.7613
_cell_length_c       37.0841
_cell_angle_alpha    89.7939
_cell_angle_beta     90.1874
_cell_angle_gamma    89.9555

_symmetry_space_group_name_H-M    'P1'
_space_group_IT_number       1

loop_
  _space_group_symop_operation_xyz
  'x, y, z'

loop_
  _atom_site_type_symbol
  _atom_site_label
  _atom_site_symmetry_multiplicity
  _atom_site_fract_x
  _atom_site_fract_y
  _atom_site_fract_z
  _atom_site_occupancy
  H   H1        1.0  0.09357  0.48909  0.17122  1.0000
  H   H2        1.0  0.59230  0.98503  0.16858  1.0000
  H   H3        1.0  0.09089  0.51211  0.66726  1.0000
  H   H4        1.0  0.45363  0.65146  0.18284  1.0000
  H   H5        1.0  0.95257  0.83399  0.68380  1.0000
  H   H6        1.0  0.04704  0.84487  0.81535  1.0000
  H   H7        1.0  0.02132  0.89559  0.13738  1.0000
  H   H8        1.0  0.52024  0.38956  0.13480  1.0000
  H   H9        1.0  0.01834  0.10455  0.63328  1.0000
  H   H10       1.0  0.13641  0.20581  0.14100  1.0000
  H   H11       1.0  0.63523  0.70290  0.13825  1.0000
  H   H12       1.0  0.13352  0.79580  0.63658  1.0000
  H   H13       1.0  0.44409  0.99531  0.10428  1.0000
  H   H14       1.0  0.94335  0.49121  0.60462  1.0000
  H   H15       1.0  0.05610  0.50621  0.89331  1.0000
  H   H16       1.0  0.40042  0.26377  0.07504  1.0000
  H   H17       1.0  0.90029  0.22240  0.57501  1.0000
  H   H18       1.0  0.09971  0.24192  0.92295  1.0000
  H   H19       1.0  0.06312  0.62937  0.10347  1.0000
  H   H20       1.0  0.56210  0.12530  0.10062  1.0000
  H   H21       1.0  0.06002  0.37485  0.59942  1.0000
  H   H22       1.0  0.40532  0.88048  0.15951  1.0000
  H   H23       1.0  0.90474  0.60459  0.66003  1.0000
  H   H24       1.0  0.09548  0.62070  0.83891  1.0000
  H   H25       1.0  0.25283  0.72626  0.93401  1.0000
  H   H26       1.0  0.74708  0.70866  0.56639  1.0000
  H   H27       1.0  0.75500  0.23863  0.93400  1.0000
  H   H28       1.0  0.24541  0.23820  0.56640  1.0000
  H   H29       1.0  0.74857  0.28465  0.06618  1.0000
  H   H30       1.0  0.25273  0.28413  0.43424  1.0000
  H   H31       1.0  0.24702  0.77818  0.06619  1.0000
  H   H32       1.0  0.75322  0.76503  0.43419  1.0000
  H   H33       1.0  0.23192  0.33994  0.06372  1.0000
  H   H34       1.0  0.26806  0.84792  0.43588  1.0000
  H   H35       1.0  0.77010  0.67782  0.93591  1.0000
  H   H36       1.0  0.22987  0.67434  0.56500  1.0000
  H   H37       1.0  0.73108  0.14662  0.56421  1.0000
  H   H38       1.0  0.18678  0.62665  0.09150  1.0000
  H   H39       1.0  0.31382  0.13365  0.40903  1.0000
  H   H40       1.0  0.81546  0.38500  0.90950  1.0000
  H   H41       1.0  0.18396  0.38085  0.59009  1.0000
  H   H42       1.0  0.68519  0.86360  0.59131  1.0000
  H   H43       1.0  0.11701  0.05368  0.04644  1.0000
  H   H44       1.0  0.38261  0.55903  0.45622  1.0000
  H   H45       1.0  0.88513  0.94988  0.95639  1.0000
  H   H46       1.0  0.11530  0.95102  0.54171  1.0000
  H   H47       1.0  0.61667  0.44454  0.54487  1.0000
  H   H48       1.0  0.16173  0.79102  0.01583  1.0000
  H   H49       1.0  0.33727  0.29647  0.48577  1.0000
  H   H50       1.0  0.84020  0.21714  0.98585  1.0000
  H   H51       1.0  0.16088  0.21872  0.51342  1.0000
  H   H52       1.0  0.66211  0.70501  0.51514  1.0000
  H   H53       1.0  0.71040  0.69035  0.40913  1.0000
  H   H54       1.0  0.79154  0.20731  0.09109  1.0000
  H   H55       1.0  0.20970  0.20942  0.40910  1.0000
  H   H56       1.0  0.71124  0.30343  0.90949  1.0000
  H   H57       1.0  0.78958  0.78932  0.59150  1.0000
  H   H58       1.0  0.67209  0.41976  0.37093  1.0000
  H   H59       1.0  0.82941  0.93148  0.12954  1.0000
  H   H60       1.0  0.17137  0.93767  0.37100  1.0000
  H   H61       1.0  0.67241  0.57139  0.87120  1.0000
  H   H62       1.0  0.82792  0.06187  0.62947  1.0000
  H   H63       1.0  0.65921  0.81763  0.45599  1.0000
  H   H64       1.0  0.84249  0.33575  0.04423  1.0000
  H   H65       1.0  0.15883  0.33636  0.45623  1.0000
  H   H66       1.0  0.66035  0.17917  0.95524  1.0000
  H   H67       1.0  0.84026  0.66247  0.54414  1.0000
  H   H68       1.0  0.69934  0.07738  0.49398  1.0000
  H   H69       1.0  0.80224  0.59746  0.00640  1.0000
  H   H70       1.0  0.19926  0.59563  0.49391  1.0000
  H   H71       1.0  0.70147  0.92442  0.99294  1.0000
  H   H72       1.0  0.79988  0.40177  0.50650  1.0000
  H   H73       1.0  0.09827  0.47428  0.07533  1.0000
  H   H74       1.0  0.90279  0.46602  0.42884  1.0000
  H   H75       1.0  0.59804  0.97366  0.07189  1.0000
  H   H76       1.0  0.40203  0.97868  0.42737  1.0000
  H   H77       1.0  0.90384  0.52798  0.92762  1.0000
  H   H78       1.0  0.09590  0.52871  0.57030  1.0000
  H   H79       1.0  0.40236  0.01413  0.93047  1.0000
  H   H80       1.0  0.59707  0.02382  0.57350  1.0000
  H   H81       1.0  0.36201  0.00199  0.13862  1.0000
  H   H82       1.0  0.63909  0.99832  0.36044  1.0000
  H   H83       1.0  0.86280  0.50763  0.13971  1.0000
  H   H84       1.0  0.13788  0.51587  0.36099  1.0000
  H   H85       1.0  0.63860  0.98945  0.86060  1.0000
  H   H86       1.0  0.36036  0.00323  0.63965  1.0000
  H   H87       1.0  0.13904  0.50230  0.86015  1.0000
  H   H88       1.0  0.86152  0.48477  0.63913  1.0000
  H   H89       1.0  0.42132  0.01302  0.77942  1.0000
  H   H90       1.0  0.57528  0.97902  0.72441  1.0000
  H   H91       1.0  0.92302  0.48175  0.77691  1.0000
  H   H92       1.0  0.07598  0.49448  0.72110  1.0000
  H   H93       1.0  0.57653  0.01430  0.22225  1.0000
  H   H94       1.0  0.42298  0.99646  0.27687  1.0000
  H   H95       1.0  0.07722  0.51588  0.22472  1.0000
  H   H96       1.0  0.92280  0.49501  0.27878  1.0000
  H   H97       1.0  0.44174  0.15727  0.74218  1.0000
  H   H98       1.0  0.55592  0.14015  0.76090  1.0000
  H   H99       1.0  0.94202  0.64028  0.73985  1.0000
  H   H100      1.0  0.05644  0.65046  0.75792  1.0000
  H   H101      1.0  0.55722  0.85343  0.25895  1.0000
  H   H102      1.0  0.44296  0.84472  0.24003  1.0000
  H   H103      1.0  0.05745  0.36038  0.26152  1.0000
  H   H104      1.0  0.94316  0.34847  0.24182  1.0000
  H   H105      1.0  0.42948  0.37690  0.77844  1.0000
  H   H106      1.0  0.57060  0.34795  0.72442  1.0000
  H   H107      1.0  0.92789  0.85040  0.77623  1.0000
  H   H108      1.0  0.06983  0.86164  0.72109  1.0000
  H   H109      1.0  0.57164  0.64561  0.22250  1.0000
  H   H110      1.0  0.42980  0.63021  0.27659  1.0000
  H   H111      1.0  0.07175  0.14818  0.22548  1.0000
  H   H112      1.0  0.93015  0.12974  0.27802  1.0000
  H   H113      1.0  0.53836  0.67577  0.74075  1.0000
  H   H114      1.0  0.45481  0.70764  0.76015  1.0000
  H   H115      1.0  0.04104  0.18976  0.73941  1.0000
  H   H116      1.0  0.95899  0.17851  0.75911  1.0000
  H   H117      1.0  0.45732  0.29969  0.25849  1.0000
  H   H118      1.0  0.54043  0.31639  0.23936  1.0000
  H   H119      1.0  0.95686  0.80029  0.26011  1.0000
  H   H120      1.0  0.04032  0.82019  0.24133  1.0000
  H   H121      1.0  0.52602  0.42699  0.77341  1.0000
  H   H122      1.0  0.46863  0.45003  0.72977  1.0000
  H   H123      1.0  0.02828  0.93724  0.77129  1.0000
  H   H124      1.0  0.97148  0.92784  0.72702  1.0000
  H   H125      1.0  0.47070  0.55549  0.22736  1.0000
  H   H126      1.0  0.52816  0.56620  0.27168  1.0000
  H   H127      1.0  0.97098  0.05729  0.22957  1.0000
  H   H128      1.0  0.02763  0.07121  0.27320  1.0000
  H   H129      1.0  0.56427  0.59878  0.77838  1.0000
  H   H130      1.0  0.43108  0.62512  0.72117  1.0000
  H   H131      1.0  0.06624  0.11176  0.77750  1.0000
  H   H132      1.0  0.93342  0.10200  0.72128  1.0000
  H   H133      1.0  0.43296  0.38074  0.21985  1.0000
  H   H134      1.0  0.56614  0.39001  0.27717  1.0000
  H   H135      1.0  0.93328  0.88533  0.22098  1.0000
  H   H136      1.0  0.06572  0.89782  0.27926  1.0000
  H   H137      1.0  0.48225  0.24569  0.60533  1.0000
  H   H138      1.0  0.51791  0.23317  0.89609  1.0000
  H   H139      1.0  0.98029  0.73757  0.60380  1.0000
  H   H140      1.0  0.01819  0.74876  0.89385  1.0000
  H   H141      1.0  0.51709  0.75848  0.39504  1.0000
  H   H142      1.0  0.48233  0.75586  0.10388  1.0000
  H   H143      1.0  0.01852  0.26248  0.39631  1.0000
  H   H144      1.0  0.98380  0.26208  0.10582  1.0000
  H   H145      1.0  0.49306  0.88696  0.59994  1.0000
  H   H146      1.0  0.50643  0.87655  0.90223  1.0000
  H   H147      1.0  0.99275  0.38377  0.59754  1.0000
  H   H148      1.0  0.00663  0.39271  0.90048  1.0000
  H   H149      1.0  0.50684  0.11819  0.40047  1.0000
  H   H150      1.0  0.49450  0.11094  0.09783  1.0000
  H   H151      1.0  0.00596  0.61589  0.40278  1.0000
  H   H152      1.0  0.99578  0.61768  0.09993  1.0000
  H   H153      1.0  0.52341  0.14812  0.60490  1.0000
  H   H154      1.0  0.47661  0.14319  0.89764  1.0000
  H   H155      1.0  0.02183  0.65485  0.60261  1.0000
  H   H156      1.0  0.97689  0.65871  0.89520  1.0000
  H   H157      1.0  0.47613  0.86014  0.39584  1.0000
  H   H158      1.0  0.52380  0.84114  0.10322  1.0000
  H   H159      1.0  0.97695  0.34426  0.39765  1.0000
  H   H160      1.0  0.02523  0.34903  0.10540  1.0000
  C   C1        1.0  0.45108  0.28518  0.14902  1.0000
  C   C2        1.0  0.95040  0.20049  0.64948  1.0000
  C   C3        1.0  0.04926  0.21400  0.84881  1.0000
  C   C4        1.0  0.05432  0.20733  0.15661  1.0000
  C   C5        1.0  0.55322  0.70156  0.15403  1.0000
  C   C6        1.0  0.05162  0.79477  0.65282  1.0000
  C   C7        1.0  0.08660  0.30451  0.15604  1.0000
  C   C8        1.0  0.58541  0.80065  0.15333  1.0000
  C   C9        1.0  0.08385  0.69682  0.65198  1.0000
  C   C10       1.0  0.10334  0.89644  0.12039  1.0000
  C   C11       1.0  0.60224  0.39362  0.11763  1.0000
  C   C12       1.0  0.10036  0.10609  0.61618  1.0000
  C   C13       1.0  0.44071  0.54957  0.16118  1.0000
  C   C14       1.0  0.93994  0.93614  0.66187  1.0000
  C   C15       1.0  0.05985  0.94939  0.83688  1.0000
  C   C16       1.0  0.04671  0.96122  0.13798  1.0000
  C   C17       1.0  0.54561  0.45580  0.13533  1.0000
  C   C18       1.0  0.04379  0.04033  0.63393  1.0000
  C   C19       1.0  0.11096  0.14712  0.13842  1.0000
  C   C20       1.0  0.60978  0.64419  0.13570  1.0000
  C   C21       1.0  0.10806  0.85449  0.63419  1.0000
  C   C22       1.0  0.43532  0.18061  0.11772  1.0000
  C   C23       1.0  0.93471  0.30481  0.61801  1.0000
  C   C24       1.0  0.06498  0.32054  0.88006  1.0000
  C   C25       1.0  0.39861  0.58682  0.11501  1.0000
  C   C26       1.0  0.89820  0.89849  0.61526  1.0000
  C   C27       1.0  0.10189  0.91609  0.88326  1.0000
  C   C28       1.0  0.41007  0.33259  0.10082  1.0000
  C   C29       1.0  0.90967  0.15302  0.60097  1.0000
  C   C30       1.0  0.09024  0.17052  0.89720  1.0000
  C   C31       1.0  0.07027  0.80672  0.11984  1.0000
  C   C32       1.0  0.56920  0.30249  0.11706  1.0000
  C   C33       1.0  0.06725  0.19586  0.61566  1.0000
  C   C34       1.0  0.41437  0.69409  0.14622  1.0000
  C   C35       1.0  0.91376  0.79164  0.64673  1.0000
  C   C36       1.0  0.08626  0.80692  0.85208  1.0000
  C   C37       1.0  0.22715  0.91007  0.97864  1.0000
  C   C38       1.0  0.77259  0.89568  0.52177  1.0000
  C   C39       1.0  0.72897  0.41773  0.97861  1.0000
  C   C40       1.0  0.27157  0.41946  0.52179  1.0000
  C   C41       1.0  0.77439  0.10261  0.02157  1.0000
  C   C42       1.0  0.22666  0.10173  0.47880  1.0000
  C   C43       1.0  0.27236  0.59202  0.02155  1.0000
  C   C44       1.0  0.72734  0.58132  0.47880  1.0000
  C   C45       1.0  0.25058  0.73304  0.96314  1.0000
  C   C46       1.0  0.74918  0.71807  0.53725  1.0000
  C   C47       1.0  0.75271  0.24392  0.96312  1.0000
  C   C48       1.0  0.24788  0.24408  0.53727  1.0000
  C   C49       1.0  0.75079  0.27809  0.03704  1.0000
  C   C50       1.0  0.25027  0.27760  0.46335  1.0000
  C   C51       1.0  0.24909  0.77022  0.03706  1.0000
  C   C52       1.0  0.75091  0.75762  0.46332  1.0000
  C   C53       1.0  0.27344  0.58178  0.98316  1.0000
  C   C54       1.0  0.72617  0.56971  0.51721  1.0000
  C   C55       1.0  0.77569  0.09409  0.98317  1.0000
  C   C56       1.0  0.22510  0.09323  0.51720  1.0000
  C   C57       1.0  0.72773  0.42756  0.01700  1.0000
  C   C58       1.0  0.27307  0.42826  0.48339  1.0000
  C   C59       1.0  0.22611  0.92060  0.01705  1.0000
  C   C60       1.0  0.77379  0.90719  0.48337  1.0000
  C   C61       1.0  0.70656  0.41022  0.45528  1.0000
  C   C62       1.0  0.79514  0.92906  0.04503  1.0000
  C   C63       1.0  0.20605  0.92925  0.45525  1.0000
  C   C64       1.0  0.70789  0.58739  0.95501  1.0000
  C   C65       1.0  0.79323  0.06826  0.54522  1.0000
  C   C66       1.0  0.19952  0.05931  0.03709  1.0000
  C   C67       1.0  0.29991  0.56578  0.46350  1.0000
  C   C68       1.0  0.80240  0.95520  0.96339  1.0000
  C   C69       1.0  0.19816  0.95408  0.53666  1.0000
  C   C70       1.0  0.69933  0.43259  0.53711  1.0000
  C   C71       1.0  0.20659  0.28634  0.05945  1.0000
  C   C72       1.0  0.29328  0.79325  0.44082  1.0000
  C   C73       1.0  0.79542  0.72918  0.94079  1.0000
  C   C74       1.0  0.20468  0.72650  0.55939  1.0000
  C   C75       1.0  0.70588  0.20371  0.55957  1.0000
  C   C76       1.0  0.18179  0.44540  0.07464  1.0000
  C   C77       1.0  0.31841  0.95174  0.42609  1.0000
  C   C78       1.0  0.82030  0.56728  0.92625  1.0000
  C   C79       1.0  0.17949  0.56409  0.57322  1.0000
  C   C80       1.0  0.68069  0.04631  0.57435  1.0000
  C   C81       1.0  0.14898  0.36047  0.06999  1.0000
  C   C82       1.0  0.35112  0.86581  0.43155  1.0000
  C   C83       1.0  0.85315  0.64796  0.93180  1.0000
  C   C84       1.0  0.14676  0.64607  0.56690  1.0000
  C   C85       1.0  0.64803  0.13474  0.56911  1.0000
  C   C86       1.0  0.14218  0.11645  0.05037  1.0000
  C   C87       1.0  0.35751  0.62148  0.45150  1.0000
  C   C88       1.0  0.85992  0.89088  0.95165  1.0000
  C   C89       1.0  0.14039  0.89068  0.54699  1.0000
  C   C90       1.0  0.64174  0.38028  0.54936  1.0000
  C   C91       1.0  0.16727  0.96480  0.03369  1.0000
  C   C92       1.0  0.33208  0.47022  0.46763  1.0000
  C   C93       1.0  0.83474  0.04496  0.96773  1.0000
  C   C94       1.0  0.16593  0.04495  0.53158  1.0000
  C   C95       1.0  0.66724  0.53053  0.53318  1.0000
  C   C96       1.0  0.69878  0.50417  0.42001  1.0000
  C   C97       1.0  0.80298  0.02036  0.08030  1.0000
  C   C98       1.0  0.19818  0.02279  0.42000  1.0000
  C   C99       1.0  0.69965  0.49026  0.92010  1.0000
  C   C100      1.0  0.80115  0.97530  0.58049  1.0000
  C   C101      1.0  0.67739  0.34954  0.39822  1.0000
  C   C102      1.0  0.82430  0.86366  0.10214  1.0000
  C   C103      1.0  0.17672  0.86796  0.39831  1.0000
  C   C104      1.0  0.67795  0.64326  0.89830  1.0000
  C   C105      1.0  0.82263  0.13062  0.60210  1.0000
  C   C106      1.0  0.66323  0.10130  0.41103  1.0000
  C   C107      1.0  0.83855  0.61630  0.08927  1.0000
  C   C108      1.0  0.16254  0.62016  0.41126  1.0000
  C   C109      1.0  0.66384  0.89207  0.91082  1.0000
  C   C110      1.0  0.83673  0.37837  0.58903  1.0000
  C   C111      1.0  0.67180  0.00178  0.44585  1.0000
  C   C112      1.0  0.82999  0.51992  0.05439  1.0000
  C   C113      1.0  0.17132  0.52074  0.44602  1.0000
  C   C114      1.0  0.67289  0.99476  0.94526  1.0000
  C   C115      1.0  0.82787  0.47742  0.55430  1.0000
  C   C116      1.0  0.69351  0.15352  0.46714  1.0000
  C   C117      1.0  0.80819  0.67275  0.03316  1.0000
  C   C118      1.0  0.19316  0.67213  0.46716  1.0000
  C   C119      1.0  0.69502  0.84531  0.96649  1.0000
  C   C120      1.0  0.80604  0.32548  0.53323  1.0000
  C   C121      1.0  0.12278  0.52585  0.08503  1.0000
  C   C122      1.0  0.87846  0.51763  0.41842  1.0000
  C   C123      1.0  0.62235  0.02540  0.08222  1.0000
  C   C124      1.0  0.37768  0.03073  0.41705  1.0000
  C   C125      1.0  0.87940  0.47993  0.91732  1.0000
  C   C126      1.0  0.12022  0.47798  0.58083  1.0000
  C   C127      1.0  0.37807  0.96596  0.91979  1.0000
  C   C128      1.0  0.62145  0.97048  0.58365  1.0000
  C   C129      1.0  0.35991  0.94709  0.11001  1.0000
  C   C130      1.0  0.64064  0.94218  0.38914  1.0000
  C   C131      1.0  0.86118  0.45445  0.11099  1.0000
  C   C132      1.0  0.13971  0.46073  0.38969  1.0000
  C   C133      1.0  0.64074  0.04853  0.88909  1.0000
  C   C134      1.0  0.35867  0.05923  0.61096  1.0000
  C   C135      1.0  0.14072  0.55686  0.88882  1.0000
  C   C136      1.0  0.85963  0.53839  0.61038  1.0000
  C   C137      1.0  0.47104  0.11331  0.79041  1.0000
  C   C138      1.0  0.52695  0.11054  0.71230  1.0000
  C   C139      1.0  0.97155  0.61082  0.78805  1.0000
  C   C140      1.0  0.02704  0.61206  0.70972  1.0000
  C   C141      1.0  0.52811  0.88595  0.21044  1.0000
  C   C142      1.0  0.47214  0.88450  0.28841  1.0000
  C   C143      1.0  0.02863  0.39092  0.21280  1.0000
  C   C144      1.0  0.97212  0.38688  0.29032  1.0000
  C   C145      1.0  0.49791  0.00047  0.77145  1.0000
  C   C146      1.0  0.49938  0.00390  0.73066  1.0000
  C   C147      1.0  0.99871  0.50022  0.76939  1.0000
  C   C148      1.0  0.00004  0.49895  0.72856  1.0000
  C   C149      1.0  0.50077  0.99544  0.22887  1.0000
  C   C150      1.0  0.49925  0.99636  0.26968  1.0000
  C   C151      1.0  0.00103  0.49869  0.23093  1.0000
  C   C152      1.0  0.99921  0.49992  0.27169  1.0000
  C   C153      1.0  0.52105  0.84329  0.79126  1.0000
  C   C154      1.0  0.47566  0.85914  0.71029  1.0000
  C   C155      1.0  0.02232  0.35126  0.78958  1.0000
  C   C156      1.0  0.97697  0.34343  0.70862  1.0000
  C   C157      1.0  0.47722  0.14385  0.20850  1.0000
  C   C158      1.0  0.52240  0.15049  0.28971  1.0000
  C   C159      1.0  0.97762  0.64696  0.21038  1.0000
  C   C160      1.0  0.02212  0.65614  0.29174  1.0000
  C   C161      1.0  0.47485  0.87600  0.67162  1.0000
  C   C162      1.0  0.52310  0.86240  0.82989  1.0000
  C   C163      1.0  0.97536  0.36210  0.66991  1.0000
  C   C164      1.0  0.02397  0.37242  0.82820  1.0000
  C   C165      1.0  0.52395  0.13159  0.32840  1.0000
  C   C166      1.0  0.47609  0.12536  0.16983  1.0000
  C   C167      1.0  0.02355  0.63764  0.33044  1.0000
  C   C168      1.0  0.97693  0.63024  0.17171  1.0000
  C   C169      1.0  0.49874  0.04323  0.65427  1.0000
  C   C170      1.0  0.50003  0.03355  0.84780  1.0000
  C   C171      1.0  0.99831  0.53682  0.65217  1.0000
  C   C172      1.0  0.00067  0.54465  0.84568  1.0000
  C   C173      1.0  0.50055  0.96180  0.34614  1.0000
  C   C174      1.0  0.49966  0.95511  0.15251  1.0000
  C   C175      1.0  0.00049  0.46356  0.34807  1.0000
  C   C176      1.0  0.00073  0.46117  0.15457  1.0000
  C   C177      1.0  0.52537  0.14651  0.67458  1.0000
  C   C178      1.0  0.47323  0.14259  0.82812  1.0000
  C   C179      1.0  0.02494  0.64577  0.67201  1.0000
  C   C180      1.0  0.97385  0.64972  0.82566  1.0000
  C   C181      1.0  0.47394  0.85399  0.32617  1.0000
  C   C182      1.0  0.52631  0.84985  0.17277  1.0000
  C   C183      1.0  0.97393  0.35466  0.32807  1.0000
  C   C184      1.0  0.02723  0.35590  0.17509  1.0000
  C   C185      1.0  0.43929  0.17109  0.77148  1.0000
  C   C186      1.0  0.55882  0.15061  0.73165  1.0000
  C   C187      1.0  0.93948  0.65211  0.76912  1.0000
  C   C188      1.0  0.05894  0.66108  0.72862  1.0000
  C   C189      1.0  0.56000  0.84347  0.22969  1.0000
  C   C190      1.0  0.44037  0.83269  0.26932  1.0000
  C   C191      1.0  0.06038  0.34789  0.23231  1.0000
  C   C192      1.0  0.94046  0.33390  0.27108  1.0000
  C   C193      1.0  0.53912  0.63270  0.76981  1.0000
  C   C194      1.0  0.45577  0.65738  0.73136  1.0000
  C   C195      1.0  0.04120  0.14394  0.76839  1.0000
  C   C196      1.0  0.95852  0.13444  0.73011  1.0000
  C   C197      1.0  0.45781  0.34835  0.22959  1.0000
  C   C198      1.0  0.54100  0.35933  0.26838  1.0000
  C   C199      1.0  0.95792  0.85062  0.23128  1.0000
  C   C200      1.0  0.04067  0.86482  0.27031  1.0000
  C   C201      1.0  0.49934  0.08157  0.61382  1.0000
  C   C202      1.0  0.50032  0.07192  0.88822  1.0000
  C   C203      1.0  0.99823  0.57875  0.61175  1.0000
  C   C204      1.0  0.00067  0.58672  0.88607  1.0000
  C   C205      1.0  0.50020  0.92431  0.38663  1.0000
  C   C206      1.0  0.50003  0.91529  0.11209  1.0000
  C   C207      1.0  0.00053  0.42115  0.38848  1.0000
  C   C208      1.0  0.00137  0.42206  0.11415  1.0000
  N   N1        1.0  0.62505  0.72846  0.40309  1.0000
  N   N2        1.0  0.37522  0.73373  0.09574  1.0000
  N   N3        1.0  0.12427  0.24725  0.40392  1.0000
  N   N4        1.0  0.87666  0.24119  0.09689  1.0000
  N   N5        1.0  0.37428  0.27263  0.59696  1.0000
  N   N6        1.0  0.62535  0.26294  0.90297  1.0000
  N   N7        1.0  0.87500  0.75139  0.59594  1.0000
  N   N8        1.0  0.12519  0.77018  0.90280  1.0000
  N   N9        1.0  0.87287  0.73376  0.39730  1.0000
  N   N10       1.0  0.12873  0.74128  0.10593  1.0000
  N   N11       1.0  0.37220  0.24641  0.39585  1.0000
  N   N12       1.0  0.62781  0.23998  0.10338  1.0000
  N   N13       1.0  0.12581  0.26219  0.60199  1.0000
  N   N14       1.0  0.87349  0.26614  0.89616  1.0000
  N   N15       1.0  0.62703  0.75447  0.60477  1.0000
  N   N16       1.0  0.37244  0.75224  0.89854  1.0000
  C   C209      1.0  0.90639  0.70808  0.84891  1.0000
  C   C210      1.0  0.93955  0.76453  0.84474  1.0000
  C  Sn1       1.0  0.95366  0.99704  0.86160  1.0000
  C  Sn2       1.0  0.93407  0.17594  0.88303  1.0000
  C   C211      1.0  0.90092  0.11755  0.88706  1.0000
  C   C212      1.0  0.88705  0.88436  0.87006  1.0000
  H   H161      1.0  0.89573  0.52759  0.83577  1.0000
  O  Te1       1.0  0.98683  0.05043  0.85713  1.0000
  O  Te2       1.0  0.94746  0.40969  0.90020  1.0000
  H   H162      1.0  0.86138  0.84061  0.87332  1.0000
  Mg  Mg1       1.0  0.99384  0.39477  0.88594  1.0000
  C   C213      1.0  0.58436  0.26842  0.39742  1.0000
  C   C214      1.0  0.59951  0.51919  0.38730  1.0000
  C  Sn3       1.0  0.58836  0.66966  0.35729  1.0000
  C  Sn4       1.0  0.56154  0.56669  0.33709  1.0000
  C   C215      1.0  0.54654  0.31571  0.34745  1.0000
  C   C216      1.0  0.55790  0.16677  0.37752  1.0000
  H   H163      1.0  0.59314  0.15325  0.42069  1.0000
  O  Te3       1.0  0.60379  0.91977  0.34754  1.0000
  O  Te4       1.0  0.54989  0.71293  0.30699  1.0000
  H   H164      1.0  0.54606  0.97272  0.38536  1.0000
  Mg  Mg2       1.0  0.57910  0.04359  0.30441  1.0000
  C   C217      1.0  0.94004  0.80623  0.38061  1.0000
  C   C218      1.0  0.90722  0.87079  0.38597  1.0000
  C  Sn5       1.0  0.89343  0.10508  0.36912  1.0000
  C  Sn6       1.0  0.91282  0.27750  0.34649  1.0000
  C   C219      1.0  0.94562  0.21101  0.34127  1.0000
  C   C220      1.0  0.95918  0.97612  0.35828  1.0000
  H   H165      1.0  0.95060  0.62441  0.39375  1.0000
  O  Te5       1.0  0.86060  0.16662  0.37478  1.0000
  O  Te6       1.0  0.89955  0.51286  0.32930  1.0000
  H   H166      1.0  0.98459  0.92608  0.35410  1.0000
  Mg  Mg3       1.0  0.85365  0.51003  0.34544  1.0000
  C   C221      1.0  0.06449  0.12488  0.33839  1.0000
  C   C222      1.0  0.04938  0.87523  0.34919  1.0000
  C  Sn7       1.0  0.06061  0.73017  0.37960  1.0000
  C  Sn8       1.0  0.08737  0.83759  0.39952  1.0000
  C   C223      1.0  0.10230  0.08762  0.38850  1.0000
  C   C224      1.0  0.09087  0.23103  0.35803  1.0000
  H   H167      1.0  0.05564  0.23594  0.31482  1.0000
  O  Te7       1.0  0.04534  0.48099  0.39001  1.0000
  O  Te8       1.0  0.09908  0.69691  0.43002  1.0000
  H   H168      1.0  0.10249  0.42441  0.34968  1.0000
  Mg  Mg4       1.0  0.07017  0.36536  0.43347  1.0000
  C   C225      1.0  0.17567  0.48283  0.95460  1.0000
  C   C226      1.0  0.16619  0.43443  0.91894  1.0000
  C  Sn9       1.0  0.17769  0.19899  0.90054  1.0000
  C  Sn10      1.0  0.19907  0.00881  0.91826  1.0000
  C   C227      1.0  0.20839  0.05900  0.95395  1.0000
  C   C228      1.0  0.19674  0.29530  0.97210  1.0000
  H   H169      1.0  0.16664  0.66557  0.96865  1.0000
  O  Te9       1.0  0.16799  0.15386  0.86491  1.0000
  O  Te10      1.0  0.21083  0.77179  0.90051  1.0000
  H   H170      1.0  0.20407  0.33262  0.99972  1.0000
  Mg  Mg5       1.0  0.19061  0.80106  0.85210  1.0000
  C   C229      1.0  0.45223  0.59884  0.87149  1.0000
  C   C230      1.0  0.44914  0.34720  0.85250  1.0000
  C  Sn11      1.0  0.41861  0.22192  0.84831  1.0000
  C  Sn12      1.0  0.39072  0.35150  0.86343  1.0000
  C   C231      1.0  0.39407  0.60333  0.88235  1.0000
  C   C232      1.0  0.42473  0.72683  0.88639  1.0000
  H   H171      1.0  0.47595  0.69450  0.87460  1.0000
  O  Te11      1.0  0.41587  0.97045  0.82928  1.0000
  O  Te12      1.0  0.35992  0.23087  0.85964  1.0000
  H   H172      1.0  0.42712  0.92176  0.90107  1.0000
  Mg  Mg6       1.0  0.36867  0.88726  0.83138  1.0000
  C   C233      1.0  0.56596  0.38854  0.83663  1.0000
  C   C234      1.0  0.54770  0.60967  0.85081  1.0000
  C  Sn13      1.0  0.55873  0.75384  0.88124  1.0000
  C  Sn14      1.0  0.58861  0.67474  0.89770  1.0000
  C   C235      1.0  0.60671  0.45335  0.88329  1.0000
  C   C236      1.0  0.59544  0.31045  0.85284  1.0000
  H   H173      1.0  0.55725  0.27807  0.81306  1.0000
  O  Te13      1.0  0.54018  0.97421  0.89506  1.0000
  O  Te14      1.0  0.60021  0.81532  0.92812  1.0000
  H   H174      1.0  0.60959  0.13937  0.84185  1.0000
  Mg  Mg7       1.0  0.56630  0.10169  0.93697  1.0000
  C   C237      1.0  0.55962  0.68300  0.62076  1.0000
  C   C238      1.0  0.59320  0.63702  0.61938  1.0000
  C  Sn15      1.0  0.60694  0.40389  0.63664  1.0000
  C  Sn16      1.0  0.58662  0.21359  0.65562  1.0000
  C   C239      1.0  0.55305  0.26135  0.65683  1.0000
  C   C240      1.0  0.53956  0.49535  0.63946  1.0000
  H   H175      1.0  0.54918  0.86396  0.60732  1.0000
  O  Te15      1.0  0.64054  0.36115  0.63499  1.0000
  O  Te16      1.0  0.59962  0.97884  0.67310  1.0000
  H   H176      1.0  0.51356  0.53080  0.64053  1.0000
  Mg  Mg8       1.0  0.64690  0.01091  0.66314  1.0000
  C   C241      1.0  0.43938  0.31031  0.37887  1.0000
  C   C242      1.0  0.40674  0.37991  0.38448  1.0000
  C  Sn17      1.0  0.39319  0.61550  0.36760  1.0000
  C  Sn18      1.0  0.41274  0.78410  0.34467  1.0000
  C   C243      1.0  0.44537  0.71259  0.33921  1.0000
  C   C244      1.0  0.45869  0.47643  0.35625  1.0000
  H   H177      1.0  0.44968  0.12751  0.39204  1.0000
  O  Te17      1.0  0.36053  0.68209  0.37351  1.0000
  O  Te18      1.0  0.39991  0.02066  0.32744  1.0000
  H   H178      1.0  0.48396  0.42250  0.35188  1.0000
  Mg  Mg9       1.0  0.35413  0.02525  0.34399  1.0000
  C   C245      1.0  0.84169  0.95617  0.46610  1.0000
  C   C246      1.0  0.80858  0.02030  0.46649  1.0000
  C  Sn19      1.0  0.79663  0.24780  0.44655  1.0000
  C  Sn20      1.0  0.81838  0.41374  0.42585  1.0000
  C   C247      1.0  0.85155  0.34773  0.42562  1.0000
  C   C248      1.0  0.86325  0.11967  0.44568  1.0000
  H   H179      1.0  0.85074  0.77963  0.48160  1.0000
  O  Te19      1.0  0.76339  0.30901  0.44726  1.0000
  O  Te20      1.0  0.80709  0.64223  0.40566  1.0000
  H   H180      1.0  0.88896  0.06996  0.44535  1.0000
  Mg  Mg10      1.0  0.75970  0.64179  0.41530  1.0000
  C   C249      1.0  0.32251  0.01001  0.04584  1.0000
  C   C250      1.0  0.33610  0.08224  0.07914  1.0000
  C  Sn21      1.0  0.32521  0.32045  0.09741  1.0000
  C  Sn22      1.0  0.30026  0.48902  0.08200  1.0000
  C   C251      1.0  0.28680  0.41486  0.04869  1.0000
  C   C252      1.0  0.29788  0.17610  0.03063  1.0000
  H   H181      1.0  0.33097  0.82520  0.03188  1.0000
  O  Te21      1.0  0.33906  0.38964  0.13064  1.0000
  O  Te22      1.0  0.28892  0.72816  0.09969  1.0000
  H   H182      1.0  0.28734  0.12013  0.00487  1.0000
  Mg  Mg11      1.0  0.31543  0.73575  0.14436  1.0000
  C   C253      1.0  0.70433  0.85741  0.06388  1.0000
  C   C254      1.0  0.70325  0.60321  0.04520  1.0000
  C  Sn23      1.0  0.67334  0.48233  0.03619  1.0000
  C  Sn24      1.0  0.64401  0.61900  0.04610  1.0000
  C   C255      1.0  0.64535  0.87334  0.06477  1.0000
  C   C256      1.0  0.67541  0.99240  0.07366  1.0000
  H   H183      1.0  0.72759  0.94963  0.07074  1.0000
  O  Te23      1.0  0.67269  0.22821  0.01753  1.0000
  O  Te24      1.0  0.61378  0.50287  0.03743  1.0000
  H   H184      1.0  0.67633  0.18931  0.08811  1.0000
  Mg  Mg12      1.0  0.62553  0.15321  0.01181  1.0000
  C   C257      1.0  0.42042  0.30506  0.65398  1.0000
  C   C258      1.0  0.39878  0.39824  0.62734  1.0000
  C  Sn25      1.0  0.40517  0.64512  0.60816  1.0000
  C  Sn26      1.0  0.43376  0.80111  0.61584  1.0000
  C   C259      1.0  0.45527  0.70601  0.64253  1.0000
  C   C260      1.0  0.44864  0.45874  0.66157  1.0000
  H   H185      1.0  0.41530  0.11367  0.66870  1.0000
  O  Te25      1.0  0.38329  0.73527  0.58164  1.0000
  O  Te26      1.0  0.44083  0.04852  0.59707  1.0000
  H   H186      1.0  0.46540  0.38655  0.68218  1.0000
  Mg  Mg13      1.0  0.40356  0.08550  0.56339  1.0000
  C   C261      1.0  0.92166  0.19524  0.15510  1.0000
  C   C262      1.0  0.90297  0.12717  0.12482  1.0000
  C  Sn27      1.0  0.90963  0.88411  0.10521  1.0000
  C  Sn28      1.0  0.93559  0.70626  0.11619  1.0000
  C   C263      1.0  0.95414  0.77611  0.14653  1.0000
  C   C264      1.0  0.94726  0.01989  0.16595  1.0000
  H   H187      1.0  0.91627  0.38378  0.17014  1.0000
  O  Te27      1.0  0.89072  0.81928  0.07502  1.0000
  O  Te28      1.0  0.94286  0.46199  0.09709  1.0000
  H   H188      1.0  0.96173  0.07244  0.18941  1.0000
  Mg  Mg14      1.0  0.91012  0.46343  0.05778  1.0000
  C   C265      1.0  0.29628  0.15974  0.93453  1.0000
  C   C266      1.0  0.29772  0.38890  0.95792  1.0000
  C  Sn29      1.0  0.32779  0.49976  0.96832  1.0000
  C  Sn30      1.0  0.35692  0.37855  0.95500  1.0000
  C   C267      1.0  0.35522  0.14945  0.93159  1.0000
  C   C268      1.0  0.32500  0.04013  0.92137  1.0000
  H   H189      1.0  0.27290  0.07523  0.92661  1.0000
  O  Te29      1.0  0.32879  0.72871  0.99172  1.0000
  O  Te30      1.0  0.38730  0.48525  0.96494  1.0000
  H   H190      1.0  0.32380  0.86281  0.90324  1.0000
  Mg  Mg15      1.0  0.37604  0.79940  0.99745  1.0000
  C   C269      1.0  0.31035  0.91277  0.53456  1.0000
  C   C270      1.0  0.29492  0.65723  0.54174  1.0000
  C  Sn31      1.0  0.29926  0.52408  0.57505  1.0000
  C  Sn32      1.0  0.31942  0.64963  0.60161  1.0000
  C   C271      1.0  0.33473  0.90542  0.59417  1.0000
  C   C272      1.0  0.33033  0.03680  0.56075  1.0000
  H   H191      1.0  0.30695  0.01452  0.50871  1.0000
  O  Te31      1.0  0.28367  0.26880  0.58178  1.0000
  O  Te32      1.0  0.32417  0.52114  0.63513  1.0000
  H   H192      1.0  0.34226  0.23474  0.55520  1.0000
  Mg  Mg16      1.0  0.29771  0.17487  0.63153  1.0000
