data_image0
_chemical_formula_structural       H96C112N16C2Sn2C2HTe2HMgC2Sn2C2HTe2HMgC2Sn2C2HTe2HMgC2Sn2C2HTe2HMgC2Sn2C2HTe2HMgC2Sn2C2HTe2HMgC2Sn2C2HTe2HMgC2Sn2C2HTe2HMgC2Sn2C2HTe2HMgC2Sn2C2HTe2HMgC2Sn2C2HTe2HMgC2Sn2C2HTe2HMgC2Sn2C2HTe2HMgC2Sn2C2HTe2HMgC2Sn2C2HTe2HMgC2Sn2C2HTe2HMgC2Sn2C2HTe2HMgC2Sn2C2HTe2HMgC2Sn2C2HTe2HMgC2Sn2C2HTe2HMgC2Sn2C2HTe2HMgC2Sn2C2HTe2HMgC2Sn2C2HTe2HMgC2Sn2C2HTe2HMgC2Sn2C2HTe2HMgC2Sn2C2HTe2HMgC2Sn2C2HTe2HMgC2Sn2C2HTe2HMgC2Sn2C2HTe2HMgC2Sn2C2HTe2HMgC2Sn2C2HTe2HMgC2Sn2C2HTe2HMg
_chemical_formula_sum              "H160 C240 N16 Sn64 Te64 Mg32"
_cell_length_a       41.0734
_cell_length_b       4.7613
_cell_length_c       37.0841
_cell_angle_alpha    89.7939
_cell_angle_beta     90.1874
_cell_angle_gamma    89.9555

_symmetry_space_group_name_H-M    'P1'
_space_group_IT_number       1

loop_
  _space_group_symop_operation_xyz
  'x, y, z'

loop_
  _atom_site_type_symbol
  _atom_site_label
  _atom_site_symmetry_multiplicity
  _atom_site_fract_x
  _atom_site_fract_y
  _atom_site_fract_z
  _atom_site_occupancy
  H   H1        1.0  0.25283  0.72626  0.93401  1.0000
  H   H2        1.0  0.74708  0.70866  0.56639  1.0000
  H   H3        1.0  0.75500  0.23863  0.93400  1.0000
  H   H4        1.0  0.24541  0.23820  0.56640  1.0000
  H   H5        1.0  0.74857  0.28465  0.06618  1.0000
  H   H6        1.0  0.25273  0.28413  0.43424  1.0000
  H   H7        1.0  0.24702  0.77818  0.06619  1.0000
  H   H8        1.0  0.75322  0.76503  0.43419  1.0000
  H   H9        1.0  0.09827  0.47428  0.07533  1.0000
  H   H10       1.0  0.90279  0.46602  0.42884  1.0000
  H   H11       1.0  0.59804  0.97366  0.07189  1.0000
  H   H12       1.0  0.40203  0.97868  0.42737  1.0000
  H   H13       1.0  0.90384  0.52798  0.92762  1.0000
  H   H14       1.0  0.09590  0.52871  0.57030  1.0000
  H   H15       1.0  0.40236  0.01413  0.93047  1.0000
  H   H16       1.0  0.59707  0.02382  0.57350  1.0000
  H   H17       1.0  0.36201  0.00199  0.13862  1.0000
  H   H18       1.0  0.63909  0.99832  0.36044  1.0000
  H   H19       1.0  0.86280  0.50763  0.13971  1.0000
  H   H20       1.0  0.13788  0.51587  0.36099  1.0000
  H   H21       1.0  0.63860  0.98945  0.86060  1.0000
  H   H22       1.0  0.36036  0.00323  0.63965  1.0000
  H   H23       1.0  0.13904  0.50230  0.86015  1.0000
  H   H24       1.0  0.86152  0.48477  0.63913  1.0000
  H   H25       1.0  0.42132  0.01302  0.77942  1.0000
  H   H26       1.0  0.57528  0.97902  0.72441  1.0000
  H   H27       1.0  0.92302  0.48175  0.77691  1.0000
  H   H28       1.0  0.07598  0.49448  0.72110  1.0000
  H   H29       1.0  0.57653  0.01430  0.22225  1.0000
  H   H30       1.0  0.42298  0.99646  0.27687  1.0000
  H   H31       1.0  0.07722  0.51588  0.22472  1.0000
  H   H32       1.0  0.92280  0.49501  0.27878  1.0000
  H   H33       1.0  0.44174  0.15727  0.74218  1.0000
  H   H34       1.0  0.55592  0.14015  0.76090  1.0000
  H   H35       1.0  0.94202  0.64028  0.73985  1.0000
  H   H36       1.0  0.05644  0.65046  0.75792  1.0000
  H   H37       1.0  0.55722  0.85343  0.25895  1.0000
  H   H38       1.0  0.44296  0.84472  0.24003  1.0000
  H   H39       1.0  0.05745  0.36038  0.26152  1.0000
  H   H40       1.0  0.94316  0.34847  0.24182  1.0000
  H   H41       1.0  0.42948  0.37690  0.77844  1.0000
  H   H42       1.0  0.57060  0.34795  0.72442  1.0000
  H   H43       1.0  0.92789  0.85040  0.77623  1.0000
  H   H44       1.0  0.06983  0.86164  0.72109  1.0000
  H   H45       1.0  0.57164  0.64561  0.22250  1.0000
  H   H46       1.0  0.42980  0.63021  0.27659  1.0000
  H   H47       1.0  0.07175  0.14818  0.22548  1.0000
  H   H48       1.0  0.93015  0.12974  0.27802  1.0000
  H   H49       1.0  0.53836  0.67577  0.74075  1.0000
  H   H50       1.0  0.45481  0.70764  0.76015  1.0000
  H   H51       1.0  0.04104  0.18976  0.73941  1.0000
  H   H52       1.0  0.95899  0.17851  0.75911  1.0000
  H   H53       1.0  0.45732  0.29969  0.25849  1.0000
  H   H54       1.0  0.54043  0.31639  0.23936  1.0000
  H   H55       1.0  0.95686  0.80029  0.26011  1.0000
  H   H56       1.0  0.04032  0.82019  0.24133  1.0000
  H   H57       1.0  0.52602  0.42699  0.77341  1.0000
  H   H58       1.0  0.46863  0.45003  0.72977  1.0000
  H   H59       1.0  0.02828  0.93724  0.77129  1.0000
  H   H60       1.0  0.97148  0.92784  0.72702  1.0000
  H   H61       1.0  0.47070  0.55549  0.22736  1.0000
  H   H62       1.0  0.52816  0.56620  0.27168  1.0000
  H   H63       1.0  0.97098  0.05729  0.22957  1.0000
  H   H64       1.0  0.02763  0.07121  0.27320  1.0000
  H   H65       1.0  0.56427  0.59878  0.77838  1.0000
  H   H66       1.0  0.43108  0.62512  0.72117  1.0000
  H   H67       1.0  0.06624  0.11176  0.77750  1.0000
  H   H68       1.0  0.93342  0.10200  0.72128  1.0000
  H   H69       1.0  0.43296  0.38074  0.21985  1.0000
  H   H70       1.0  0.56614  0.39001  0.27717  1.0000
  H   H71       1.0  0.93328  0.88533  0.22098  1.0000
  H   H72       1.0  0.06572  0.89782  0.27926  1.0000
  H   H73       1.0  0.48225  0.24569  0.60533  1.0000
  H   H74       1.0  0.51791  0.23317  0.89609  1.0000
  H   H75       1.0  0.98029  0.73757  0.60380  1.0000
  H   H76       1.0  0.01819  0.74876  0.89385  1.0000
  H   H77       1.0  0.51709  0.75848  0.39504  1.0000
  H   H78       1.0  0.48233  0.75586  0.10388  1.0000
  H   H79       1.0  0.01852  0.26248  0.39631  1.0000
  H   H80       1.0  0.98380  0.26208  0.10582  1.0000
  H   H81       1.0  0.49306  0.88696  0.59994  1.0000
  H   H82       1.0  0.50643  0.87655  0.90223  1.0000
  H   H83       1.0  0.99275  0.38377  0.59754  1.0000
  H   H84       1.0  0.00663  0.39271  0.90048  1.0000
  H   H85       1.0  0.50684  0.11819  0.40047  1.0000
  H   H86       1.0  0.49450  0.11094  0.09783  1.0000
  H   H87       1.0  0.00596  0.61589  0.40278  1.0000
  H   H88       1.0  0.99578  0.61768  0.09993  1.0000
  H   H89       1.0  0.52341  0.14812  0.60490  1.0000
  H   H90       1.0  0.47661  0.14319  0.89764  1.0000
  H   H91       1.0  0.02183  0.65485  0.60261  1.0000
  H   H92       1.0  0.97689  0.65871  0.89520  1.0000
  H   H93       1.0  0.47613  0.86014  0.39584  1.0000
  H   H94       1.0  0.52380  0.84114  0.10322  1.0000
  H   H95       1.0  0.97695  0.34426  0.39765  1.0000
  H   H96       1.0  0.02523  0.34903  0.10540  1.0000
  C   C1        1.0  0.22715  0.91007  0.97864  1.0000
  C   C2        1.0  0.77259  0.89568  0.52177  1.0000
  C   C3        1.0  0.72897  0.41773  0.97861  1.0000
  C   C4        1.0  0.27157  0.41946  0.52179  1.0000
  C   C5        1.0  0.77439  0.10261  0.02157  1.0000
  C   C6        1.0  0.22666  0.10173  0.47880  1.0000
  C   C7        1.0  0.27236  0.59202  0.02155  1.0000
  C   C8        1.0  0.72734  0.58132  0.47880  1.0000
  C   C9        1.0  0.25058  0.73304  0.96314  1.0000
  C   C10       1.0  0.74918  0.71807  0.53725  1.0000
  C   C11       1.0  0.75271  0.24392  0.96312  1.0000
  C   C12       1.0  0.24788  0.24408  0.53727  1.0000
  C   C13       1.0  0.75079  0.27809  0.03704  1.0000
  C   C14       1.0  0.25027  0.27760  0.46335  1.0000
  C   C15       1.0  0.24909  0.77022  0.03706  1.0000
  C   C16       1.0  0.75091  0.75762  0.46332  1.0000
  C   C17       1.0  0.27344  0.58178  0.98316  1.0000
  C   C18       1.0  0.72617  0.56971  0.51721  1.0000
  C   C19       1.0  0.77569  0.09409  0.98317  1.0000
  C   C20       1.0  0.22510  0.09323  0.51720  1.0000
  C   C21       1.0  0.72773  0.42756  0.01700  1.0000
  C   C22       1.0  0.27307  0.42826  0.48339  1.0000
  C   C23       1.0  0.22611  0.92060  0.01705  1.0000
  C   C24       1.0  0.77379  0.90719  0.48337  1.0000
  C   C25       1.0  0.12278  0.52585  0.08503  1.0000
  C   C26       1.0  0.87846  0.51763  0.41842  1.0000
  C   C27       1.0  0.62235  0.02540  0.08222  1.0000
  C   C28       1.0  0.37768  0.03073  0.41705  1.0000
  C   C29       1.0  0.87940  0.47993  0.91732  1.0000
  C   C30       1.0  0.12022  0.47798  0.58083  1.0000
  C   C31       1.0  0.37807  0.96596  0.91979  1.0000
  C   C32       1.0  0.62145  0.97048  0.58365  1.0000
  C   C33       1.0  0.35991  0.94709  0.11001  1.0000
  C   C34       1.0  0.64064  0.94218  0.38914  1.0000
  C   C35       1.0  0.86118  0.45445  0.11099  1.0000
  C   C36       1.0  0.13971  0.46073  0.38969  1.0000
  C   C37       1.0  0.64074  0.04853  0.88909  1.0000
  C   C38       1.0  0.35867  0.05923  0.61096  1.0000
  C   C39       1.0  0.14072  0.55686  0.88882  1.0000
  C   C40       1.0  0.85963  0.53839  0.61038  1.0000
  C   C41       1.0  0.47104  0.11331  0.79041  1.0000
  C   C42       1.0  0.52695  0.11054  0.71230  1.0000
  C   C43       1.0  0.97155  0.61082  0.78805  1.0000
  C   C44       1.0  0.02704  0.61206  0.70972  1.0000
  C   C45       1.0  0.52811  0.88595  0.21044  1.0000
  C   C46       1.0  0.47214  0.88450  0.28841  1.0000
  C   C47       1.0  0.02863  0.39092  0.21280  1.0000
  C   C48       1.0  0.97212  0.38688  0.29032  1.0000
  C   C49       1.0  0.49791  0.00047  0.77145  1.0000
  C   C50       1.0  0.49938  0.00390  0.73066  1.0000
  C   C51       1.0  0.99871  0.50022  0.76939  1.0000
  C   C52       1.0  0.00004  0.49895  0.72856  1.0000
  C   C53       1.0  0.50077  0.99544  0.22887  1.0000
  C   C54       1.0  0.49925  0.99636  0.26968  1.0000
  C   C55       1.0  0.00103  0.49869  0.23093  1.0000
  C   C56       1.0  0.99921  0.49992  0.27169  1.0000
  C   C57       1.0  0.52105  0.84329  0.79126  1.0000
  C   C58       1.0  0.47566  0.85914  0.71029  1.0000
  C   C59       1.0  0.02232  0.35126  0.78958  1.0000
  C   C60       1.0  0.97697  0.34343  0.70862  1.0000
  C   C61       1.0  0.47722  0.14385  0.20850  1.0000
  C   C62       1.0  0.52240  0.15049  0.28971  1.0000
  C   C63       1.0  0.97762  0.64696  0.21038  1.0000
  C   C64       1.0  0.02212  0.65614  0.29174  1.0000
  C   C65       1.0  0.47485  0.87600  0.67162  1.0000
  C   C66       1.0  0.52310  0.86240  0.82989  1.0000
  C   C67       1.0  0.97536  0.36210  0.66991  1.0000
  C   C68       1.0  0.02397  0.37242  0.82820  1.0000
  C   C69       1.0  0.52395  0.13159  0.32840  1.0000
  C   C70       1.0  0.47609  0.12536  0.16983  1.0000
  C   C71       1.0  0.02355  0.63764  0.33044  1.0000
  C   C72       1.0  0.97693  0.63024  0.17171  1.0000
  C   C73       1.0  0.49874  0.04323  0.65427  1.0000
  C   C74       1.0  0.50003  0.03355  0.84780  1.0000
  C   C75       1.0  0.99831  0.53682  0.65217  1.0000
  C   C76       1.0  0.00067  0.54465  0.84568  1.0000
  C   C77       1.0  0.50055  0.96180  0.34614  1.0000
  C   C78       1.0  0.49966  0.95511  0.15251  1.0000
  C   C79       1.0  0.00049  0.46356  0.34807  1.0000
  C   C80       1.0  0.00073  0.46117  0.15457  1.0000
  C   C81       1.0  0.52537  0.14651  0.67458  1.0000
  C   C82       1.0  0.47323  0.14259  0.82812  1.0000
  C   C83       1.0  0.02494  0.64577  0.67201  1.0000
  C   C84       1.0  0.97385  0.64972  0.82566  1.0000
  C   C85       1.0  0.47394  0.85399  0.32617  1.0000
  C   C86       1.0  0.52631  0.84985  0.17277  1.0000
  C   C87       1.0  0.97393  0.35466  0.32807  1.0000
  C   C88       1.0  0.02723  0.35590  0.17509  1.0000
  C   C89       1.0  0.43929  0.17109  0.77148  1.0000
  C   C90       1.0  0.55882  0.15061  0.73165  1.0000
  C   C91       1.0  0.93948  0.65211  0.76912  1.0000
  C   C92       1.0  0.05894  0.66108  0.72862  1.0000
  C   C93       1.0  0.56000  0.84347  0.22969  1.0000
  C   C94       1.0  0.44037  0.83269  0.26932  1.0000
  C   C95       1.0  0.06038  0.34789  0.23231  1.0000
  C   C96       1.0  0.94046  0.33390  0.27108  1.0000
  C   C97       1.0  0.53912  0.63270  0.76981  1.0000
  C   C98       1.0  0.45577  0.65738  0.73136  1.0000
  C   C99       1.0  0.04120  0.14394  0.76839  1.0000
  C   C100      1.0  0.95852  0.13444  0.73011  1.0000
  C   C101      1.0  0.45781  0.34835  0.22959  1.0000
  C   C102      1.0  0.54100  0.35933  0.26838  1.0000
  C   C103      1.0  0.95792  0.85062  0.23128  1.0000
  C   C104      1.0  0.04067  0.86482  0.27031  1.0000
  C   C105      1.0  0.49934  0.08157  0.61382  1.0000
  C   C106      1.0  0.50032  0.07192  0.88822  1.0000
  C   C107      1.0  0.99823  0.57875  0.61175  1.0000
  C   C108      1.0  0.00067  0.58672  0.88607  1.0000
  C   C109      1.0  0.50020  0.92431  0.38663  1.0000
  C   C110      1.0  0.50003  0.91529  0.11209  1.0000
  C   C111      1.0  0.00053  0.42115  0.38848  1.0000
  C   C112      1.0  0.00137  0.42206  0.11415  1.0000
  N   N1        1.0  0.62505  0.72846  0.40309  1.0000
  N   N2        1.0  0.37522  0.73373  0.09574  1.0000
  N   N3        1.0  0.12427  0.24725  0.40392  1.0000
  N   N4        1.0  0.87666  0.24119  0.09689  1.0000
  N   N5        1.0  0.37428  0.27263  0.59696  1.0000
  N   N6        1.0  0.62535  0.26294  0.90297  1.0000
  N   N7        1.0  0.87500  0.75139  0.59594  1.0000
  N   N8        1.0  0.12519  0.77018  0.90280  1.0000
  N   N9        1.0  0.87287  0.73376  0.39730  1.0000
  N   N10       1.0  0.12873  0.74128  0.10593  1.0000
  N   N11       1.0  0.37220  0.24641  0.39585  1.0000
  N   N12       1.0  0.62781  0.23998  0.10338  1.0000
  N   N13       1.0  0.12581  0.26219  0.60199  1.0000
  N   N14       1.0  0.87349  0.26614  0.89616  1.0000
  N   N15       1.0  0.62703  0.75447  0.60477  1.0000
  N   N16       1.0  0.37244  0.75224  0.89854  1.0000
  C   C113      1.0  0.95310  0.90312  0.37278  1.0000
  C   C114      1.0  0.94928  0.13049  0.34922  1.0000
  C  Sn1       1.0  0.91857  0.25052  0.34398  1.0000
  C  Sn2       1.0  0.89132  0.14049  0.36271  1.0000
  C   C115      1.0  0.89541  0.91311  0.38624  1.0000
  C   C116      1.0  0.92624  0.79453  0.39128  1.0000
  H   H97       1.0  0.97697  0.81146  0.37669  1.0000
  O  Te1       1.0  0.91509  0.47753  0.32033  1.0000
  O  Te2       1.0  0.86035  0.25652  0.35799  1.0000
  H   H98       1.0  0.92927  0.61862  0.40954  1.0000
  Mg  Mg1       1.0  0.86797  0.56368  0.32288  1.0000
  C   C117      1.0  0.10868  0.21422  0.14301  1.0000
  C   C118      1.0  0.10586  0.95324  0.12615  1.0000
  C  Sn3       1.0  0.07539  0.82679  0.12206  1.0000
  C  Sn4       1.0  0.04718  0.96472  0.13512  1.0000
  C   C119      1.0  0.05026  0.22586  0.15192  1.0000
  C   C120      1.0  0.08087  0.35046  0.15588  1.0000
  H   H99       1.0  0.13236  0.31071  0.14605  1.0000
  O  Te3       1.0  0.07310  0.56593  0.10516  1.0000
  O  Te4       1.0  0.01643  0.84313  0.13138  1.0000
  H   H100      1.0  0.08297  0.55261  0.16891  1.0000
  Mg  Mg2       1.0  0.02581  0.48520  0.10645  1.0000
  C   C121      1.0  0.43938  0.31031  0.37887  1.0000
  C   C122      1.0  0.40674  0.37991  0.38448  1.0000
  C  Sn5       1.0  0.39319  0.61550  0.36760  1.0000
  C  Sn6       1.0  0.41274  0.78410  0.34467  1.0000
  C   C123      1.0  0.44537  0.71259  0.33921  1.0000
  C   C124      1.0  0.45869  0.47643  0.35625  1.0000
  H   H101      1.0  0.44968  0.12751  0.39204  1.0000
  O  Te5       1.0  0.36053  0.68209  0.37351  1.0000
  O  Te6       1.0  0.39991  0.02066  0.32744  1.0000
  H   H102      1.0  0.48396  0.42250  0.35188  1.0000
  Mg  Mg3       1.0  0.35413  0.02525  0.34399  1.0000
  C   C125      1.0  0.60748  0.71120  0.14029  1.0000
  C   C126      1.0  0.60482  0.45023  0.12342  1.0000
  C  Sn7       1.0  0.57439  0.32297  0.11938  1.0000
  C  Sn8       1.0  0.54615  0.46008  0.13249  1.0000
  C   C127      1.0  0.54907  0.72123  0.14931  1.0000
  C   C128      1.0  0.57964  0.84663  0.15322  1.0000
  H   H103      1.0  0.63113  0.80833  0.14331  1.0000
  O  Te7       1.0  0.57217  0.06213  0.10246  1.0000
  O  Te8       1.0  0.51544  0.33768  0.12879  1.0000
  H   H104      1.0  0.58178  0.04878  0.16627  1.0000
  Mg  Mg4       1.0  0.52483  0.98011  0.10382  1.0000
  C   C129      1.0  0.09251  0.70271  0.64895  1.0000
  C   C130      1.0  0.05931  0.75910  0.65281  1.0000
  C  Sn9       1.0  0.04547  0.99229  0.63575  1.0000
  C  Sn10      1.0  0.06520  0.17192  0.61444  1.0000
  C   C131      1.0  0.09839  0.11357  0.61073  1.0000
  C   C132      1.0  0.11199  0.87972  0.62793  1.0000
  H   H105      1.0  0.10310  0.52169  0.66225  1.0000
  O  Te9       1.0  0.01226  0.04562  0.63990  1.0000
  O  Te10      1.0  0.05191  0.40635  0.59708  1.0000
  H   H106      1.0  0.13769  0.83601  0.62492  1.0000
  Mg  Mg5       1.0  0.00542  0.39104  0.61092  1.0000
  C   C133      1.0  0.89288  0.80021  0.85753  1.0000
  C   C134      1.0  0.89670  0.03804  0.87912  1.0000
  C  Sn11      1.0  0.92731  0.16160  0.88334  1.0000
  C  Sn12      1.0  0.95465  0.04446  0.86556  1.0000
  C   C135      1.0  0.95057  0.80661  0.84400  1.0000
  C   C136      1.0  0.91983  0.68460  0.83998  1.0000
  H   H107      1.0  0.86910  0.70588  0.85440  1.0000
  O  Te11      1.0  0.93061  0.39909  0.90502  1.0000
  O  Te12      1.0  0.98552  0.16379  0.86930  1.0000
  H   H108      1.0  0.91695  0.50057  0.82324  1.0000
  Mg  Mg6       1.0  0.97766  0.48600  0.90174  1.0000
  C   C137      1.0  0.59324  0.19757  0.65191  1.0000
  C   C138      1.0  0.56010  0.25646  0.65577  1.0000
  C  Sn13      1.0  0.54638  0.49042  0.63867  1.0000
  C  Sn14      1.0  0.56628  0.66829  0.61731  1.0000
  C   C139      1.0  0.59940  0.60746  0.61358  1.0000
  C   C140      1.0  0.61287  0.37284  0.63083  1.0000
  H   H109      1.0  0.60366  0.01597  0.66523  1.0000
  O  Te13      1.0  0.51323  0.54625  0.64283  1.0000
  O  Te14      1.0  0.55320  0.90345  0.59990  1.0000
  H   H110      1.0  0.63853  0.32720  0.62781  1.0000
  Mg  Mg7       1.0  0.50671  0.89176  0.61378  1.0000
  C   C141      1.0  0.40581  0.19597  0.85150  1.0000
  C   C142      1.0  0.43896  0.25365  0.84750  1.0000
  C  Sn15      1.0  0.45280  0.48661  0.86445  1.0000
  C  Sn16      1.0  0.43302  0.66470  0.88579  1.0000
  C   C143      1.0  0.39989  0.60507  0.88964  1.0000
  C   C144      1.0  0.38629  0.37145  0.87255  1.0000
  H   H111      1.0  0.39530  0.01514  0.83829  1.0000
  O  Te15      1.0  0.48596  0.54124  0.86016  1.0000
  O  Te16      1.0  0.44622  0.89887  0.90304  1.0000
  H   H112      1.0  0.36063  0.32675  0.87567  1.0000
  Mg  Mg8       1.0  0.49267  0.88571  0.88902  1.0000
  C   C145      1.0  0.58436  0.26842  0.39742  1.0000
  C   C146      1.0  0.59951  0.51919  0.38730  1.0000
  C  Sn17      1.0  0.58836  0.66966  0.35729  1.0000
  C  Sn18      1.0  0.56154  0.56669  0.33709  1.0000
  C   C147      1.0  0.54654  0.31571  0.34745  1.0000
  C   C148      1.0  0.55790  0.16677  0.37752  1.0000
  H   H113      1.0  0.59314  0.15325  0.42069  1.0000
  O  Te17      1.0  0.60379  0.91977  0.34754  1.0000
  O  Te18      1.0  0.54989  0.71293  0.30699  1.0000
  H   H114      1.0  0.54606  0.97272  0.38536  1.0000
  Mg  Mg9       1.0  0.57910  0.04359  0.30441  1.0000
  C   C149      1.0  0.43504  0.61121  0.16125  1.0000
  C   C150      1.0  0.45020  0.36215  0.15063  1.0000
  C  Sn19      1.0  0.43902  0.21693  0.12035  1.0000
  C  Sn20      1.0  0.41217  0.32359  0.10040  1.0000
  C   C151      1.0  0.39719  0.57304  0.11123  1.0000
  C   C152      1.0  0.40857  0.71661  0.14157  1.0000
  H   H115      1.0  0.44386  0.72240  0.18472  1.0000
  O  Te19      1.0  0.45435  0.96835  0.11012  1.0000
  O  Te20      1.0  0.40051  0.18274  0.07002  1.0000
  H   H116      1.0  0.39684  0.90954  0.14978  1.0000
  Mg  Mg10      1.0  0.42953  0.85220  0.06679  1.0000
  C   C153      1.0  0.08383  0.78552  0.39928  1.0000
  C   C154      1.0  0.09883  0.03593  0.38859  1.0000
  C  Sn21      1.0  0.08738  0.18251  0.35840  1.0000
  C  Sn22      1.0  0.06051  0.07594  0.33860  1.0000
  C   C155      1.0  0.04566  0.82534  0.34953  1.0000
  C   C156      1.0  0.05731  0.68031  0.37978  1.0000
  H   H117      1.0  0.09283  0.67337  0.42269  1.0000
  O  Te21      1.0  0.10257  0.43232  0.34808  1.0000
  O  Te22      1.0  0.04857  0.21825  0.30833  1.0000
  H   H118      1.0  0.04575  0.48654  0.38806  1.0000
  Mg  Mg11      1.0  0.07744  0.55009  0.30492  1.0000
  C   C157      1.0  0.93006  0.69038  0.11212  1.0000
  C   C158      1.0  0.94855  0.75697  0.14261  1.0000
  C  Sn23      1.0  0.94165  0.99838  0.16245  1.0000
  C  Sn24      1.0  0.91566  0.17598  0.15151  1.0000
  C   C159      1.0  0.89729  0.10742  0.12098  1.0000
  C   C160      1.0  0.90441  0.86538  0.10132  1.0000
  H   H119      1.0  0.93562  0.50304  0.09691  1.0000
  O  Te23      1.0  0.96038  0.06184  0.19284  1.0000
  O  Te24      1.0  0.90814  0.41850  0.17086  1.0000
  H   H120      1.0  0.89008  0.81379  0.07772  1.0000
  Mg  Mg12      1.0  0.94069  0.41568  0.21036  1.0000
  C   C161      1.0  0.42896  0.81287  0.61127  1.0000
  C   C162      1.0  0.44406  0.76623  0.64459  1.0000
  C  Sn25      1.0  0.43671  0.52624  0.66475  1.0000
  C  Sn26      1.0  0.41381  0.32965  0.65125  1.0000
  C   C163      1.0  0.39885  0.37814  0.61788  1.0000
  C   C164      1.0  0.40638  0.61903  0.59793  1.0000
  H   H121      1.0  0.43488  0.99917  0.59582  1.0000
  O  Te25      1.0  0.45201  0.48293  0.69799  1.0000
  O  Te26      1.0  0.40602  0.08799  0.67084  1.0000
  H   H122      1.0  0.39470  0.65499  0.57212  1.0000
  Mg  Mg13      1.0  0.43332  0.12208  0.71471  1.0000
  C   C165      1.0  0.57032  0.80183  0.88898  1.0000
  C   C166      1.0  0.55488  0.75574  0.85589  1.0000
  C  Sn27      1.0  0.56214  0.51652  0.83573  1.0000
  C  Sn28      1.0  0.58528  0.32014  0.84902  1.0000
  C   C167      1.0  0.60058  0.36806  0.88217  1.0000
  C   C168      1.0  0.59314  0.60818  0.90211  1.0000
  H   H123      1.0  0.56464  0.98753  0.90442  1.0000
  O  Te27      1.0  0.54650  0.47377  0.80272  1.0000
  O  Te28      1.0  0.59298  0.07924  0.82943  1.0000
  H   H124      1.0  0.60508  0.64371  0.92774  1.0000
  Mg  Mg14      1.0  0.56519  0.11388  0.78591  1.0000
  C   C169      1.0  0.92102  0.78850  0.65285  1.0000
  C   C170      1.0  0.89950  0.87907  0.62595  1.0000
  C  Sn29      1.0  0.90591  0.12540  0.60663  1.0000
  C  Sn30      1.0  0.93432  0.28350  0.61444  1.0000
  C   C171      1.0  0.95571  0.19100  0.64139  1.0000
  C   C172      1.0  0.94905  0.94425  0.66057  1.0000
  H   H125      1.0  0.91595  0.59751  0.66768  1.0000
  O  Te29      1.0  0.88415  0.21293  0.57985  1.0000
  O  Te30      1.0  0.94124  0.53041  0.59553  1.0000
  H   H126      1.0  0.96573  0.87408  0.68138  1.0000
  Mg  Mg15      1.0  0.90418  0.56349  0.56150  1.0000
  C   C173      1.0  0.07027  0.31005  0.88820  1.0000
  C   C174      1.0  0.05505  0.26260  0.85502  1.0000
  C  Sn31      1.0  0.06249  0.02288  0.83504  1.0000
  C  Sn32      1.0  0.08552  0.82737  0.84861  1.0000
  C   C175      1.0  0.10060  0.87665  0.88184  1.0000
  C   C176      1.0  0.09306  0.11727  0.90160  1.0000
  H   H127      1.0  0.06436  0.49613  0.90350  1.0000
  O  Te31      1.0  0.04707  0.97876  0.80194  1.0000
  O  Te32      1.0  0.09340  0.58599  0.82921  1.0000
  H   H128      1.0  0.10484  0.15386  0.92730  1.0000
  Mg  Mg16      1.0  0.06588  0.61870  0.78546  1.0000
  C   C177      1.0  0.14455  0.06254  0.04354  1.0000
  C   C178      1.0  0.14684  0.28030  0.06858  1.0000
  C  Sn33      1.0  0.17715  0.39436  0.07740  1.0000
  C  Sn34      1.0  0.20566  0.28807  0.06078  1.0000
  C   C179      1.0  0.20311  0.07032  0.03574  1.0000
  C   C180      1.0  0.17257  0.95765  0.02712  1.0000
  H   H129      1.0  0.12089  0.97546  0.03685  1.0000
  O  Te33      1.0  0.17901  0.61178  0.10249  1.0000
  O  Te34      1.0  0.23627  0.39829  0.06909  1.0000
  H   H130      1.0  0.17080  0.78918  0.00771  1.0000
  Mg  Mg17      1.0  0.22625  0.69286  0.10494  1.0000
  C   C181      1.0  0.85577  0.05191  0.45936  1.0000
  C   C182      1.0  0.85410  0.27035  0.43415  1.0000
  C  Sn35      1.0  0.82399  0.38366  0.42416  1.0000
  C  Sn36      1.0  0.79506  0.27590  0.43975  1.0000
  C   C183      1.0  0.79699  0.05747  0.46496  1.0000
  C   C184      1.0  0.82715  0.94557  0.47476  1.0000
  H   H131      1.0  0.87908  0.96542  0.46695  1.0000
  O  Te35      1.0  0.82277  0.60178  0.39892  1.0000
  O  Te36      1.0  0.76465  0.38534  0.43026  1.0000
  H   H132      1.0  0.82844  0.77657  0.49429  1.0000
  Mg  Mg18      1.0  0.77557  0.68133  0.39467  1.0000
  C   C185      1.0  0.64557  0.56430  0.04126  1.0000
  C   C186      1.0  0.64695  0.78205  0.06638  1.0000
  C  Sn37      1.0  0.67691  0.89803  0.07626  1.0000
  C  Sn38      1.0  0.70597  0.79368  0.06063  1.0000
  C   C187      1.0  0.70432  0.57592  0.03550  1.0000
  C   C188      1.0  0.67422  0.46133  0.02583  1.0000
  H   H133      1.0  0.62228  0.47572  0.03375  1.0000
  O  Te37      1.0  0.67794  0.11542  0.10141  1.0000
  O  Te38      1.0  0.73623  0.90584  0.07001  1.0000
  H   H134      1.0  0.67316  0.29286  0.00636  1.0000
  Mg  Mg19      1.0  0.72502  0.19954  0.10551  1.0000
  C   C189      1.0  0.29590  0.85916  0.43612  1.0000
  C   C190      1.0  0.29734  0.60448  0.45491  1.0000
  C  Sn39      1.0  0.32741  0.48476  0.46369  1.0000
  C  Sn40      1.0  0.35655  0.62310  0.45343  1.0000
  C   C191      1.0  0.35485  0.87792  0.43467  1.0000
  C   C192      1.0  0.32472  0.99581  0.42601  1.0000
  H   H135      1.0  0.27251  0.95047  0.42944  1.0000
  O  Te39      1.0  0.32841  0.23013  0.48246  1.0000
  O  Te40      1.0  0.38694  0.50817  0.46187  1.0000
  H   H136      1.0  0.32361  0.19309  0.41149  1.0000
  Mg  Mg20      1.0  0.37567  0.15721  0.48776  1.0000
  C   C193      1.0  0.85741  0.95417  0.95692  1.0000
  C   C194      1.0  0.85554  0.71047  0.93613  1.0000
  C  Sn41      1.0  0.82527  0.59718  0.92697  1.0000
  C  Sn42      1.0  0.79637  0.73086  0.93888  1.0000
  C   C195      1.0  0.79859  0.97468  0.95965  1.0000
  C   C196      1.0  0.82901  0.08621  0.96867  1.0000
  H   H137      1.0  0.88103  0.04056  0.96389  1.0000
  O  Te41      1.0  0.82385  0.35351  0.90619  1.0000
  O  Te42      1.0  0.76580  0.62217  0.93010  1.0000
  H   H138      1.0  0.83045  0.27500  0.98475  1.0000
  Mg  Mg21      1.0  0.77647  0.28576  0.90120  1.0000
  C   C197      1.0  0.15694  0.03276  0.53218  1.0000
  C   C198      1.0  0.19047  0.99574  0.53667  1.0000
  C  Sn43      1.0  0.20231  0.77132  0.55720  1.0000
  C  Sn44      1.0  0.18021  0.58073  0.57348  1.0000
  C   C199      1.0  0.14671  0.61947  0.56880  1.0000
  C   C200      1.0  0.13504  0.84481  0.54821  1.0000
  H   H139      1.0  0.14791  0.20701  0.51624  1.0000
  O  Te43      1.0  0.23588  0.73748  0.56143  1.0000
  O  Te44      1.0  0.19147  0.35457  0.59412  1.0000
  H   H140      1.0  0.10908  0.87331  0.54472  1.0000
  Mg  Mg22      1.0  0.23938  0.39697  0.59204  1.0000
  C   C201      1.0  0.30989  0.06262  0.92841  1.0000
  C   C202      1.0  0.34338  0.11027  0.93090  1.0000
  C  Sn45      1.0  0.35532  0.33229  0.95161  1.0000
  C  Sn46      1.0  0.33325  0.50949  0.97016  1.0000
  C   C203      1.0  0.29979  0.45993  0.96751  1.0000
  C   C204      1.0  0.28810  0.23722  0.94670  1.0000
  H   H141      1.0  0.30075  0.89021  0.91233  1.0000
  O  Te45      1.0  0.38886  0.37700  0.95380  1.0000
  O  Te46      1.0  0.34453  0.73284  0.99105  1.0000
  H   H142      1.0  0.26217  0.20026  0.94480  1.0000
  Mg  Mg23      1.0  0.39239  0.70868  0.98566  1.0000
  C   C205      1.0  0.70330  0.14621  0.56585  1.0000
  C   C206      1.0  0.70178  0.37733  0.54257  1.0000
  C  Sn47      1.0  0.67174  0.49669  0.53354  1.0000
  C  Sn48      1.0  0.64273  0.38212  0.54814  1.0000
  C   C207      1.0  0.64452  0.15100  0.57143  1.0000
  C   C208      1.0  0.67471  0.03314  0.58027  1.0000
  H   H143      1.0  0.72666  0.05510  0.57271  1.0000
  O  Te47      1.0  0.67066  0.72749  0.51023  1.0000
  O  Te48      1.0  0.61239  0.49737  0.53958  1.0000
  H   H144      1.0  0.67579  0.85431  0.59832  1.0000
  Mg  Mg24      1.0  0.62350  0.81081  0.50662  1.0000
  C   C209      1.0  0.31220  0.10442  0.03352  1.0000
  C   C210      1.0  0.29308  0.33566  0.04289  1.0000
  C  Sn49      1.0  0.29726  0.46524  0.07633  1.0000
  C  Sn50      1.0  0.32105  0.36096  0.10077  1.0000
  C   C211      1.0  0.34007  0.12963  0.09113  1.0000
  C   C212      1.0  0.33568  0.00150  0.05761  1.0000
  H   H145      1.0  0.30882  0.00536  0.00757  1.0000
  O  Te49      1.0  0.27795  0.69599  0.08527  1.0000
  O  Te50      1.0  0.32574  0.48655  0.13436  1.0000
  H   H146      1.0  0.35041  0.82259  0.05035  1.0000
  Mg  Mg25      1.0  0.29345  0.79556  0.13421  1.0000
  C   C213      1.0  0.67704  0.00304  0.45413  1.0000
  C   C214      1.0  0.66382  0.07660  0.42063  1.0000
  C  Sn51      1.0  0.67487  0.31549  0.40245  1.0000
  C  Sn52      1.0  0.69963  0.48340  0.41815  1.0000
  C   C215      1.0  0.71271  0.40791  0.45166  1.0000
  C   C216      1.0  0.70147  0.16847  0.46963  1.0000
  H   H147      1.0  0.66826  0.81770  0.46803  1.0000
  O  Te51      1.0  0.66139  0.38601  0.36900  1.0000
  O  Te52      1.0  0.71113  0.72320  0.40055  1.0000
  H   H148      1.0  0.71172  0.11147  0.49556  1.0000
  Mg  Mg26      1.0  0.68512  0.73260  0.35552  1.0000
  C   C217      1.0  0.80657  0.00833  0.08947  1.0000
  C   C218      1.0  0.79823  0.96771  0.05328  1.0000
  C  Sn53      1.0  0.80987  0.73348  0.03474  1.0000
  C  Sn54      1.0  0.83014  0.53659  0.05284  1.0000
  C   C219      1.0  0.83823  0.57902  0.08906  1.0000
  C   C220      1.0  0.82645  0.81418  0.10735  1.0000
  H   H149      1.0  0.79744  0.19018  0.10363  1.0000
  O  Te53      1.0  0.80436  0.66812  0.99857  1.0000
  O  Te54      1.0  0.84210  0.30061  0.03496  1.0000
  H   H150      1.0  0.83283  0.84547  0.13539  1.0000
  Mg  Mg27      1.0  0.82672  0.31366  0.98578  1.0000
  C   C221      1.0  0.17662  0.52187  0.45425  1.0000
  C   C222      1.0  0.16315  0.59591  0.42089  1.0000
  C  Sn55      1.0  0.17408  0.83501  0.40265  1.0000
  C  Sn56      1.0  0.19905  0.00264  0.41817  1.0000
  C   C223      1.0  0.21229  0.92668  0.45155  1.0000
  C   C224      1.0  0.20117  0.68704  0.46957  1.0000
  H   H151      1.0  0.16803  0.33638  0.46819  1.0000
  O  Te55      1.0  0.16036  0.90601  0.36935  1.0000
  O  Te56      1.0  0.21044  0.24264  0.40052  1.0000
  H   H152      1.0  0.21161  0.62967  0.49539  1.0000
  Mg  Mg28      1.0  0.18409  0.25270  0.35572  1.0000
  C   C225      1.0  0.68989  0.90960  0.96518  1.0000
  C   C226      1.0  0.70554  0.65471  0.95831  1.0000
  C  Sn57      1.0  0.70088  0.51844  0.92539  1.0000
  C  Sn58      1.0  0.68017  0.64015  0.89891  1.0000
  C   C227      1.0  0.66464  0.89531  0.90604  1.0000
  C   C228      1.0  0.66956  0.02984  0.93908  1.0000
  H   H153      1.0  0.69372  0.01378  0.99073  1.0000
  O  Te57      1.0  0.71669  0.26386  0.91897  1.0000
  O  Te58      1.0  0.67510  0.50848  0.86578  1.0000
  H   H154      1.0  0.65745  0.22727  0.94438  1.0000
  Mg  Mg29      1.0  0.70204  0.16466  0.86969  1.0000
  C   C229      1.0  0.30518  0.50113  0.58900  1.0000
  C   C230      1.0  0.29275  0.56835  0.55492  1.0000
  C  Sn59      1.0  0.30389  0.80608  0.53655  1.0000
  C  Sn60      1.0  0.32793  0.97928  0.55266  1.0000
  C   C231      1.0  0.34023  0.91012  0.58676  1.0000
  C   C232      1.0  0.32890  0.67179  0.60491  1.0000
  H   H155      1.0  0.29643  0.31666  0.60304  1.0000
  O  Te59      1.0  0.29120  0.87023  0.50253  1.0000
  O  Te60      1.0  0.33960  0.21805  0.53490  1.0000
  H   H156      1.0  0.33855  0.61970  0.63128  1.0000
  Mg  Mg30      1.0  0.31480  0.21790  0.48902  1.0000
  C   C233      1.0  0.17567  0.48283  0.95460  1.0000
  C   C234      1.0  0.16619  0.43443  0.91894  1.0000
  C  Sn61      1.0  0.17769  0.19899  0.90054  1.0000
  C  Sn62      1.0  0.19907  0.00881  0.91826  1.0000
  C   C235      1.0  0.20839  0.05900  0.95395  1.0000
  C   C236      1.0  0.19674  0.29530  0.97210  1.0000
  H   H157      1.0  0.16664  0.66557  0.96865  1.0000
  O  Te61      1.0  0.16799  0.15386  0.86491  1.0000
  O  Te62      1.0  0.21083  0.77179  0.90051  1.0000
  H   H158      1.0  0.20407  0.33262  0.99972  1.0000
  Mg  Mg31      1.0  0.19061  0.80106  0.85210  1.0000
  C   C237      1.0  0.81109  0.39023  0.53445  1.0000
  C   C238      1.0  0.79564  0.13493  0.54173  1.0000
  C  Sn63      1.0  0.80006  0.00199  0.57504  1.0000
  C  Sn64      1.0  0.82034  0.12751  0.60150  1.0000
  C   C239      1.0  0.83566  0.38305  0.59397  1.0000
  C   C240      1.0  0.83108  0.51423  0.56054  1.0000
  H   H159      1.0  0.80752  0.49182  0.50860  1.0000
  O  Te63      1.0  0.78437  0.74694  0.58186  1.0000
  O  Te64      1.0  0.82517  0.99921  0.63502  1.0000
  H   H160      1.0  0.84302  0.71198  0.55493  1.0000
  Mg  Mg32      1.0  0.79855  0.65323  0.63157  1.0000
