data_image0
_chemical_formula_structural       H36C72Br12N12C2Sn2C2HTe2HMgC2Sn2C2HTe2HMgC2Sn2C2HTe2HMgC2Sn2C2HTe2HMgC2Sn2C2HTe2HMgC2Sn2C2HTe2HMgC2Sn2C2HTe2HMgC2Sn2C2HTe2HMgC2Sn2C2HTe2HMgC2Sn2C2HTe2HMgC2Sn2C2HTe2HMgC2Sn2C2HTe2HMg
_chemical_formula_sum              "H60 C120 Br12 N12 Sn24 Te24 Mg12"
_cell_length_a       37.3022
_cell_length_b       37.4873
_cell_length_c       8.27378
_cell_angle_alpha    111.847
_cell_angle_beta     61.4753
_cell_angle_gamma    120.423

_symmetry_space_group_name_H-M    'P1'
_space_group_IT_number       1

loop_
  _space_group_symop_operation_xyz
  'x, y, z'

loop_
  _atom_site_type_symbol
  _atom_site_label
  _atom_site_symmetry_multiplicity
  _atom_site_fract_x
  _atom_site_fract_y
  _atom_site_fract_z
  _atom_site_occupancy
  H   H1        1.0  0.41319  0.69894  0.98954  1.0000
  H   H2        1.0  0.30135  0.70923  0.00961  1.0000
  H   H3        1.0  0.28784  0.59233  0.05176  1.0000
  H   H4        1.0  0.58687  0.30160  0.04379  1.0000
  H   H5        1.0  0.70202  0.29161  0.98789  1.0000
  H   H6        1.0  0.71016  0.40987  0.98581  1.0000
  H   H7        1.0  0.49183  0.58581  0.98518  1.0000
  H   H8        1.0  0.41296  0.90138  0.00575  1.0000
  H   H9        1.0  0.09872  0.51493  0.02649  1.0000
  H   H10       1.0  0.50535  0.40783  0.01113  1.0000
  H   H11       1.0  0.59090  0.09943  0.98996  1.0000
  H   H12       1.0  0.90185  0.49229  0.00972  1.0000
  H   H13       1.0  0.42706  0.46963  0.95215  1.0000
  H   H14       1.0  0.52841  0.95277  0.00987  1.0000
  H   H15       1.0  0.05161  0.57862  0.99704  1.0000
  H   H16       1.0  0.56962  0.52352  0.03952  1.0000
  H   H17       1.0  0.47472  0.04841  0.99672  1.0000
  H   H18       1.0  0.95411  0.42669  0.97960  1.0000
  H   H19       1.0  0.41048  0.70049  0.49395  1.0000
  H   H20       1.0  0.29796  0.70548  0.49305  1.0000
  H   H21       1.0  0.28722  0.59161  0.55269  1.0000
  H   H22       1.0  0.58538  0.30181  0.52739  1.0000
  H   H23       1.0  0.69901  0.28887  0.47126  1.0000
  H   H24       1.0  0.70933  0.40898  0.48390  1.0000
  H   H25       1.0  0.49634  0.59487  0.50279  1.0000
  H   H26       1.0  0.40732  0.90026  0.49405  1.0000
  H   H27       1.0  0.09592  0.50951  0.52941  1.0000
  H   H28       1.0  0.50926  0.41527  0.51461  1.0000
  H   H29       1.0  0.58597  0.09781  0.49253  1.0000
  H   H30       1.0  0.89936  0.48829  0.51263  1.0000
  H   H31       1.0  0.43281  0.47899  0.45988  1.0000
  H   H32       1.0  0.52305  0.94995  0.48954  1.0000
  H   H33       1.0  0.04911  0.57337  0.50071  1.0000
  H   H34       1.0  0.57443  0.53097  0.55143  1.0000
  H   H35       1.0  0.47121  0.04784  0.48393  1.0000
  H   H36       1.0  0.95088  0.42152  0.48079  1.0000
  C   C1        1.0  0.37835  0.68550  0.00594  1.0000
  C   C2        1.0  0.31586  0.69125  0.01648  1.0000
  C   C3        1.0  0.30845  0.62492  0.03379  1.0000
  C   C4        1.0  0.62205  0.31547  0.02224  1.0000
  C   C5        1.0  0.68633  0.31044  0.99781  1.0000
  C   C6        1.0  0.69116  0.37674  0.99490  1.0000
  C   C7        1.0  0.36047  0.71052  0.00422  1.0000
  C   C8        1.0  0.28962  0.64859  0.02887  1.0000
  C   C9        1.0  0.35295  0.64274  0.02035  1.0000
  C   C10       1.0  0.64140  0.29080  0.01455  1.0000
  C   C11       1.0  0.71154  0.35362  0.99265  1.0000
  C   C12       1.0  0.64665  0.35818  0.00795  1.0000
  C   C13       1.0  0.46829  0.55281  0.98573  1.0000
  C   C14       1.0  0.44740  0.91164  0.99152  1.0000
  C   C15       1.0  0.08978  0.53645  0.00758  1.0000
  C   C16       1.0  0.52828  0.44102  0.01245  1.0000
  C   C17       1.0  0.55632  0.08909  0.00583  1.0000
  C   C18       1.0  0.91472  0.46930  0.98397  1.0000
  C   C19       1.0  0.48364  0.52481  0.99283  1.0000
  C   C20       1.0  0.47452  0.95658  0.99618  1.0000
  C   C21       1.0  0.04598  0.51876  0.99593  1.0000
  C   C22       1.0  0.51266  0.46848  0.00274  1.0000
  C   C23       1.0  0.52899  0.04435  0.00564  1.0000
  C   C24       1.0  0.95952  0.48669  0.98454  1.0000
  C   C25       1.0  0.45793  0.48109  0.97374  1.0000
  C   C26       1.0  0.51727  0.97396  0.00470  1.0000
  C   C27       1.0  0.02989  0.54544  0.99408  1.0000
  C   C28       1.0  0.53851  0.51213  0.02008  1.0000
  C   C29       1.0  0.48603  0.02710  0.99964  1.0000
  C   C30       1.0  0.97585  0.45990  0.98360  1.0000
  C   C31       1.0  0.47224  0.45398  0.97831  1.0000
  C   C32       1.0  0.54365  0.01649  0.00791  1.0000
  C   C33       1.0  0.98784  0.52982  0.98986  1.0000
  C   C34       1.0  0.52419  0.53925  0.01613  1.0000
  C   C35       1.0  0.45986  0.98451  0.99430  1.0000
  C   C36       1.0  0.01771  0.47561  0.99018  1.0000
  C   C37       1.0  0.37591  0.68600  0.50598  1.0000
  C   C38       1.0  0.31295  0.68897  0.50700  1.0000
  C   C39       1.0  0.30719  0.62412  0.53292  1.0000
  C   C40       1.0  0.62028  0.31517  0.50967  1.0000
  C   C41       1.0  0.68362  0.30830  0.48450  1.0000
  C   C42       1.0  0.68987  0.37570  0.48828  1.0000
  C   C43       1.0  0.35729  0.70963  0.49880  1.0000
  C   C44       1.0  0.28759  0.64643  0.52323  1.0000
  C   C45       1.0  0.35162  0.64335  0.52233  1.0000
  C   C46       1.0  0.63864  0.28957  0.50199  1.0000
  C   C47       1.0  0.70950  0.35151  0.48274  1.0000
  C   C48       1.0  0.64554  0.35815  0.50016  1.0000
  C   C49       1.0  0.47382  0.56152  0.49583  1.0000
  C   C50       1.0  0.44158  0.91047  0.48222  1.0000
  C   C51       1.0  0.08698  0.53089  0.50933  1.0000
  C   C52       1.0  0.53253  0.44836  0.51872  1.0000
  C   C53       1.0  0.55217  0.08759  0.49878  1.0000
  C   C54       1.0  0.91175  0.46500  0.48798  1.0000
  C   C55       1.0  0.48965  0.53361  0.50041  1.0000
  C   C56       1.0  0.46914  0.95521  0.48406  1.0000
  C   C57       1.0  0.04309  0.51323  0.49804  1.0000
  C   C58       1.0  0.51766  0.47653  0.51023  1.0000
  C   C59       1.0  0.52469  0.04275  0.49403  1.0000
  C   C60       1.0  0.95666  0.48182  0.48700  1.0000
  C   C61       1.0  0.46368  0.48997  0.48055  1.0000
  C   C62       1.0  0.51214  0.97180  0.48870  1.0000
  C   C63       1.0  0.02726  0.54020  0.49673  1.0000
  C   C64       1.0  0.54377  0.52014  0.52936  1.0000
  C   C65       1.0  0.48187  0.02608  0.48738  1.0000
  C   C66       1.0  0.97275  0.45472  0.48522  1.0000
  C   C67       1.0  0.47729  0.46249  0.48631  1.0000
  C   C68       1.0  0.53881  0.01427  0.49481  1.0000
  C   C69       1.0  0.98527  0.52487  0.49219  1.0000
  C   C70       1.0  0.52987  0.54768  0.52578  1.0000
  C   C71       1.0  0.45494  0.98369  0.48419  1.0000
  C   C72       1.0  0.01459  0.47013  0.49179  1.0000
  Br  Br1       1.0  0.56124  0.59857  0.05285  1.0000
  Br  Br2       1.0  0.40235  0.96423  0.97901  1.0000
  Br  Br3       1.0  0.03649  0.43607  0.98880  1.0000
  Br  Br4       1.0  0.43544  0.39450  0.94227  1.0000
  Br  Br5       1.0  0.60176  0.03680  0.01778  1.0000
  Br  Br6       1.0  0.96914  0.56948  0.99130  1.0000
  Br  Br7       1.0  0.56681  0.60702  0.56578  1.0000
  Br  Br8       1.0  0.39666  0.96449  0.47843  1.0000
  Br  Br9       1.0  0.03315  0.43018  0.48851  1.0000
  Br  Br10      1.0  0.43885  0.40343  0.45674  1.0000
  Br  Br11      1.0  0.59625  0.03347  0.50835  1.0000
  Br  Br12      1.0  0.96702  0.56480  0.49295  1.0000
  N   N1        1.0  0.46360  0.88637  0.97377  1.0000
  N   N2        1.0  0.11571  0.57569  0.00065  1.0000
  N   N3        1.0  0.42933  0.53879  0.97908  1.0000
  N   N4        1.0  0.54021  0.11416  0.02075  1.0000
  N   N5        1.0  0.89187  0.42912  0.95834  1.0000
  N   N6        1.0  0.56693  0.45611  0.02406  1.0000
  N   N7        1.0  0.45748  0.88545  0.46962  1.0000
  N   N8        1.0  0.11286  0.57008  0.50072  1.0000
  N   N9        1.0  0.43526  0.54652  0.48362  1.0000
  N   N10       1.0  0.53683  0.11280  0.50822  1.0000
  N   N11       1.0  0.88821  0.42493  0.46550  1.0000
  N   N12       1.0  0.57083  0.46243  0.53190  1.0000
  C   C73       1.0  0.44107  0.78666  0.99458  1.0000
  C   C74       1.0  0.39790  0.76051  0.99490  1.0000
  C  Sn1       1.0  0.37400  0.77567  0.96888  1.0000
  C  Sn2       1.0  0.39377  0.81781  0.94203  1.0000
  C   C75       1.0  0.43698  0.84371  0.94181  1.0000
  C   C76       1.0  0.46060  0.82822  0.96803  1.0000
  H   H37       1.0  0.54558  0.73599  0.01476  1.0000
  O  Te1       1.0  0.33090  0.74912  0.96966  1.0000
  O  Te2       1.0  0.37063  0.83376  0.91564  1.0000
  H   H38       1.0  0.49403  0.84847  0.96766  1.0000
  Mg  Mg1       1.0  0.31278  0.78538  0.92802  1.0000
  C   C77       1.0  0.19451  0.56715  0.92343  1.0000
  C   C78       1.0  0.16258  0.58377  0.99742  1.0000
  C  Sn3       1.0  0.25871  0.58700  0.08525  1.0000
  C  Sn4       1.0  0.30138  0.61267  0.09901  1.0000
  C   C79       1.0  0.33310  0.59575  0.02442  1.0000
  C   C80       1.0  0.23662  0.59245  0.93687  1.0000
  H   H39       1.0  0.18659  0.53467  0.85560  1.0000
  O  Te3       1.0  0.22641  0.60310  0.15848  1.0000
  O  Te4       1.0  0.31215  0.65467  0.18601  1.0000
  H   H40       1.0  0.26135  0.57959  0.87949  1.0000
  Mg  Mg2       1.0  0.25694  0.66220  0.26416  1.0000
  C   C81       1.0  0.35785  0.56269  0.92797  1.0000
  C   C82       1.0  0.45315  0.56646  0.00294  1.0000
  C  Sn5       1.0  0.48824  0.59124  0.06921  1.0000
  C  Sn6       1.0  0.51470  0.57309  0.06002  1.0000
  C   C83       1.0  0.41915  0.56927  0.98464  1.0000
  C   C84       1.0  0.38394  0.54476  0.91879  1.0000
  H   H41       1.0  0.33063  0.54373  0.87691  1.0000
  O  Te5       1.0  0.49683  0.63361  0.14374  1.0000
  O  Te6       1.0  0.54999  0.59713  0.12519  1.0000
  H   H42       1.0  0.37695  0.51190  0.86064  1.0000
  Mg  Mg3       1.0  0.54856  0.65345  0.21462  1.0000
  C   C85       1.0  0.62985  0.21211  0.05869  1.0000
  C   C86       1.0  0.62095  0.23952  0.02055  1.0000
  C  Sn7       1.0  0.49563  0.26390  0.98876  1.0000
  C  Sn8       1.0  0.46494  0.22136  0.99543  1.0000
  C   C87       1.0  0.56038  0.15551  0.03383  1.0000
  C   C88       1.0  0.59960  0.17014  0.06537  1.0000
  H   H43       1.0  0.66018  0.22343  0.08320  1.0000
  O  Te7       1.0  0.48726  0.29170  0.95077  1.0000
  O  Te8       1.0  0.42562  0.20624  0.96426  1.0000
  H   H44       1.0  0.60647  0.14892  0.09502  1.0000
  Mg  Mg4       1.0  0.42909  0.25624  0.91782  1.0000
  C   C89       1.0  0.79668  0.42520  0.94593  1.0000
  C   C90       1.0  0.76572  0.38386  0.96406  1.0000
  C  Sn9       1.0  0.77609  0.35619  0.99221  1.0000
  C  Sn10      1.0  0.90450  0.33159  0.00240  1.0000
  C   C91       1.0  0.84900  0.41170  0.98422  1.0000
  C   C92       1.0  0.83828  0.43911  0.95602  1.0000
  H   H45       1.0  0.78838  0.44642  0.92421  1.0000
  O  Te9       1.0  0.83102  0.27631  0.00997  1.0000
  O  Te10      1.0  0.91573  0.30461  0.03051  1.0000
  H   H46       1.0  0.86224  0.47113  0.94211  1.0000
  Mg  Mg5       1.0  0.86186  0.25135  0.04650  1.0000
  C   C93       1.0  0.64226  0.43734  0.07222  1.0000
  C   C94       1.0  0.62896  0.39386  0.03691  1.0000
  C  Sn11      1.0  0.50633  0.40569  0.98002  1.0000
  C  Sn12      1.0  0.48287  0.42278  0.95816  1.0000
  C   C95       1.0  0.49646  0.46632  0.99370  1.0000
  C   C96       1.0  0.61916  0.45422  0.05062  1.0000
  H   H47       1.0  0.67049  0.45791  0.11615  1.0000
  O  Te11      1.0  0.49348  0.36233  0.94540  1.0000
  O  Te12      1.0  0.44638  0.39667  0.90141  1.0000
  H   H48       1.0  0.62946  0.48788  0.07783  1.0000
  Mg  Mg6       1.0  0.44163  0.33966  0.87105  1.0000
  C   C97       1.0  0.43819  0.78581  0.47365  1.0000
  C   C98       1.0  0.39411  0.75960  0.48693  1.0000
  C  Sn13      1.0  0.36772  0.77495  0.48035  1.0000
  C  Sn14      1.0  0.38590  0.81736  0.46002  1.0000
  C   C99       1.0  0.43004  0.84332  0.44672  1.0000
  C   C100      1.0  0.45615  0.82763  0.45353  1.0000
  H   H49       1.0  0.45840  0.77367  0.47882  1.0000
  O  Te13      1.0  0.32374  0.74834  0.49389  1.0000
  O  Te14      1.0  0.36027  0.83351  0.45297  1.0000
  H   H50       1.0  0.49029  0.84793  0.44312  1.0000
  Mg  Mg7       1.0  0.30208  0.78494  0.47720  1.0000
  C   C101      1.0  0.19293  0.56329  0.41877  1.0000
  C   C102      1.0  0.16022  0.57910  0.49636  1.0000
  C  Sn15      1.0  0.16943  0.62084  0.58606  1.0000
  C  Sn16      1.0  0.21221  0.64716  0.59803  1.0000
  C   C103      1.0  0.24471  0.63105  0.51984  1.0000
  C   C104      1.0  0.23513  0.58923  0.43045  1.0000
  H   H51       1.0  0.18553  0.53094  0.34952  1.0000
  O  Te15      1.0  0.13637  0.63613  0.66288  1.0000
  O  Te16      1.0  0.22231  0.68901  0.68683  1.0000
  H   H52       1.0  0.26047  0.57700  0.37029  1.0000
  Mg  Mg8       1.0  0.16617  0.69533  0.76987  1.0000
  C   C105      1.0  0.43303  0.62691  0.56329  1.0000
  C   C106      1.0  0.42162  0.58364  0.51516  1.0000
  C  Sn17      1.0  0.38573  0.55693  0.45484  1.0000
  C  Sn18      1.0  0.36089  0.57395  0.44256  1.0000
  C   C107      1.0  0.37259  0.61728  0.49090  1.0000
  C   C108      1.0  0.40855  0.64373  0.55115  1.0000
  H   H53       1.0  0.46087  0.64738  0.60980  1.0000
  O  Te17      1.0  0.37477  0.51377  0.40737  1.0000
  O  Te18      1.0  0.32488  0.54797  0.38264  1.0000
  H   H54       1.0  0.41740  0.67723  0.58828  1.0000
  Mg  Mg9       1.0  0.32288  0.49122  0.33346  1.0000
  C   C109      1.0  0.56025  0.21254  0.48488  1.0000
  C   C110      1.0  0.59969  0.24004  0.51914  1.0000
  C  Sn19      1.0  0.62277  0.22476  0.54999  1.0000
  C  Sn20      1.0  0.60596  0.18112  0.54633  1.0000
  C   C111      1.0  0.56648  0.15385  0.51181  1.0000
  C   C112      1.0  0.54366  0.16948  0.48118  1.0000
  H   H55       1.0  0.54259  0.22462  0.46108  1.0000
  O  Te19      1.0  0.66212  0.25268  0.58408  1.0000
  O  Te20      1.0  0.62836  0.16500  0.57664  1.0000
  H   H56       1.0  0.51313  0.14818  0.45454  1.0000
  Mg  Mg10      1.0  0.68064  0.21561  0.61734  1.0000
  C   C113      1.0  0.82018  0.43046  0.41730  1.0000
  C   C114      1.0  0.84090  0.41685  0.47108  1.0000
  C  Sn21      1.0  0.81870  0.37747  0.52387  1.0000
  C  Sn22      1.0  0.77495  0.35130  0.52259  1.0000
  C   C115      1.0  0.75452  0.36519  0.46843  1.0000
  C   C116      1.0  0.77703  0.40466  0.41594  1.0000
  H   H57       1.0  0.83760  0.46099  0.37659  1.0000
  O  Te21      1.0  0.83989  0.36437  0.57728  1.0000
  O  Te22      1.0  0.75201  0.31179  0.57462  1.0000
  H   H58       1.0  0.76099  0.41518  0.37419  1.0000
  Mg  Mg11      1.0  0.79493  0.30791  0.63646  1.0000
  C   C117      1.0  0.57819  0.36707  0.45783  1.0000
  C   C118      1.0  0.61692  0.37963  0.48902  1.0000
  C  Sn23      1.0  0.64000  0.42183  0.55219  1.0000
  C  Sn24      1.0  0.62390  0.45194  0.58466  1.0000
  C   C119      1.0  0.58510  0.43905  0.55317  1.0000
  C   C120      1.0  0.56228  0.39674  0.48989  1.0000
  H   H59       1.0  0.56051  0.33433  0.40897  1.0000
  O  Te23      1.0  0.67866  0.43385  0.58257  1.0000
  O  Te24      1.0  0.64630  0.49432  0.64788  1.0000
  H   H60       1.0  0.53227  0.38702  0.46588  1.0000
  Mg  Mg12      1.0  0.69749  0.49528  0.66885  1.0000
