data_image0
_chemical_formula_structural       H60C108Br12N12C2Sn2C2HTe2HMgC2Sn2C2HTe2HMgC2Sn2C2HTe2HMgC2Sn2C2HTe2HMgC2Sn2C2HTe2HMgC2Sn2C2HTe2HMg
_chemical_formula_sum              "H72 C132 Br12 N12 Sn12 Te12 Mg6"
_cell_length_a       37.3022
_cell_length_b       37.4873
_cell_length_c       8.27378
_cell_angle_alpha    111.847
_cell_angle_beta     61.4753
_cell_angle_gamma    120.423

_symmetry_space_group_name_H-M    'P1'
_space_group_IT_number       1

loop_
  _space_group_symop_operation_xyz
  'x, y, z'

loop_
  _atom_site_type_symbol
  _atom_site_label
  _atom_site_symmetry_multiplicity
  _atom_site_fract_x
  _atom_site_fract_y
  _atom_site_fract_z
  _atom_site_occupancy
  H   H1        1.0  0.38188  0.83735  0.92247  1.0000
  H   H2        1.0  0.45758  0.62453  0.10248  1.0000
  H   H3        1.0  0.62079  0.16261  0.07783  1.0000
  H   H4        1.0  0.34036  0.76312  0.93341  1.0000
  H   H5        1.0  0.42280  0.66753  0.12330  1.0000
  H   H6        1.0  0.66168  0.23769  0.07921  1.0000
  H   H7        1.0  0.44461  0.76104  0.01928  1.0000
  H   H8        1.0  0.32939  0.55843  0.89579  1.0000
  H   H9        1.0  0.56041  0.23978  0.97229  1.0000
  H   H10       1.0  0.48712  0.83640  0.00236  1.0000
  H   H11       1.0  0.36395  0.51492  0.87979  1.0000
  H   H12       1.0  0.51826  0.16404  0.97995  1.0000
  H   H13       1.0  0.41319  0.69894  0.98954  1.0000
  H   H14       1.0  0.30135  0.70923  0.00961  1.0000
  H   H15       1.0  0.28784  0.59233  0.05176  1.0000
  H   H16       1.0  0.58687  0.30160  0.04379  1.0000
  H   H17       1.0  0.70202  0.29161  0.98789  1.0000
  H   H18       1.0  0.71016  0.40987  0.98581  1.0000
  H   H19       1.0  0.49183  0.58581  0.98518  1.0000
  H   H20       1.0  0.41296  0.90138  0.00575  1.0000
  H   H21       1.0  0.09872  0.51493  0.02649  1.0000
  H   H22       1.0  0.50535  0.40783  0.01113  1.0000
  H   H23       1.0  0.59090  0.09943  0.98996  1.0000
  H   H24       1.0  0.90185  0.49229  0.00972  1.0000
  H   H25       1.0  0.42706  0.46963  0.95215  1.0000
  H   H26       1.0  0.52841  0.95277  0.00987  1.0000
  H   H27       1.0  0.05161  0.57862  0.99704  1.0000
  H   H28       1.0  0.56962  0.52352  0.03952  1.0000
  H   H29       1.0  0.47472  0.04841  0.99672  1.0000
  H   H30       1.0  0.95411  0.42669  0.97960  1.0000
  H   H31       1.0  0.37201  0.83711  0.45548  1.0000
  H   H32       1.0  0.16980  0.53136  0.36491  1.0000
  H   H33       1.0  0.46095  0.63258  0.60351  1.0000
  H   H34       1.0  0.33160  0.76259  0.46555  1.0000
  H   H35       1.0  0.24514  0.56557  0.37990  1.0000
  H   H36       1.0  0.42281  0.67228  0.62382  1.0000
  H   H37       1.0  0.44362  0.76001  0.48646  1.0000
  H   H38       1.0  0.22729  0.68096  0.66004  1.0000
  H   H39       1.0  0.33023  0.55928  0.40756  1.0000
  H   H40       1.0  0.48435  0.83572  0.47553  1.0000
  H   H41       1.0  0.15253  0.64694  0.63594  1.0000
  H   H42       1.0  0.36831  0.51904  0.39196  1.0000
  H   H43       1.0  0.41048  0.70049  0.49395  1.0000
  H   H44       1.0  0.29796  0.70548  0.49305  1.0000
  H   H45       1.0  0.28722  0.59161  0.55269  1.0000
  H   H46       1.0  0.58538  0.30181  0.52739  1.0000
  H   H47       1.0  0.69901  0.28887  0.47126  1.0000
  H   H48       1.0  0.70933  0.40898  0.48390  1.0000
  H   H49       1.0  0.49634  0.59487  0.50279  1.0000
  H   H50       1.0  0.40732  0.90026  0.49405  1.0000
  H   H51       1.0  0.09592  0.50951  0.52941  1.0000
  H   H52       1.0  0.50926  0.41527  0.51461  1.0000
  H   H53       1.0  0.58597  0.09781  0.49253  1.0000
  H   H54       1.0  0.89936  0.48829  0.51263  1.0000
  H   H55       1.0  0.43281  0.47899  0.45988  1.0000
  H   H56       1.0  0.52305  0.94995  0.48954  1.0000
  H   H57       1.0  0.04911  0.57337  0.50071  1.0000
  H   H58       1.0  0.57443  0.53097  0.55143  1.0000
  H   H59       1.0  0.47121  0.04784  0.48393  1.0000
  H   H60       1.0  0.95088  0.42152  0.48079  1.0000
  C   C1        1.0  0.43723  0.84326  0.97108  1.0000
  C   C2        1.0  0.41362  0.56636  0.98555  1.0000
  C   C3        1.0  0.56672  0.15720  0.02239  1.0000
  C   C4        1.0  0.39553  0.82135  0.94910  1.0000
  C   C5        1.0  0.43031  0.61000  0.05185  1.0000
  C   C6        1.0  0.60786  0.17895  0.04910  1.0000
  C   C7        1.0  0.37176  0.77870  0.95563  1.0000
  C   C8        1.0  0.41045  0.63432  0.06439  1.0000
  C   C9        1.0  0.63120  0.22186  0.04957  1.0000
  C   C10       1.0  0.38765  0.75542  0.98536  1.0000
  C   C11       1.0  0.37326  0.61660  0.01168  1.0000
  C   C12       1.0  0.61533  0.24538  0.02172  1.0000
  C   C13       1.0  0.43029  0.77721  0.99807  1.0000
  C   C14       1.0  0.35693  0.57305  0.94474  1.0000
  C   C15       1.0  0.57385  0.22351  0.99841  1.0000
  C   C16       1.0  0.45455  0.81984  0.98960  1.0000
  C   C17       1.0  0.37643  0.54846  0.93305  1.0000
  C   C18       1.0  0.54994  0.18064  0.00071  1.0000
  C   C19       1.0  0.37835  0.68550  0.00594  1.0000
  C   C20       1.0  0.31586  0.69125  0.01648  1.0000
  C   C21       1.0  0.30845  0.62492  0.03379  1.0000
  C   C22       1.0  0.62205  0.31547  0.02224  1.0000
  C   C23       1.0  0.68633  0.31044  0.99781  1.0000
  C   C24       1.0  0.69116  0.37674  0.99490  1.0000
  C   C25       1.0  0.36047  0.71052  0.00422  1.0000
  C   C26       1.0  0.28962  0.64859  0.02887  1.0000
  C   C27       1.0  0.35295  0.64274  0.02035  1.0000
  C   C28       1.0  0.64140  0.29080  0.01455  1.0000
  C   C29       1.0  0.71154  0.35362  0.99265  1.0000
  C   C30       1.0  0.64665  0.35818  0.00795  1.0000
  C   C31       1.0  0.46829  0.55281  0.98573  1.0000
  C   C32       1.0  0.44740  0.91164  0.99152  1.0000
  C   C33       1.0  0.08978  0.53645  0.00758  1.0000
  C   C34       1.0  0.52828  0.44102  0.01245  1.0000
  C   C35       1.0  0.55632  0.08909  0.00583  1.0000
  C   C36       1.0  0.91472  0.46930  0.98397  1.0000
  C   C37       1.0  0.48364  0.52481  0.99283  1.0000
  C   C38       1.0  0.47452  0.95658  0.99618  1.0000
  C   C39       1.0  0.04598  0.51876  0.99593  1.0000
  C   C40       1.0  0.51266  0.46848  0.00274  1.0000
  C   C41       1.0  0.52899  0.04435  0.00564  1.0000
  C   C42       1.0  0.95952  0.48669  0.98454  1.0000
  C   C43       1.0  0.45793  0.48109  0.97374  1.0000
  C   C44       1.0  0.51727  0.97396  0.00470  1.0000
  C   C45       1.0  0.02989  0.54544  0.99408  1.0000
  C   C46       1.0  0.53851  0.51213  0.02008  1.0000
  C   C47       1.0  0.48603  0.02710  0.99964  1.0000
  C   C48       1.0  0.97585  0.45990  0.98360  1.0000
  C   C49       1.0  0.47224  0.45398  0.97831  1.0000
  C   C50       1.0  0.54365  0.01649  0.00791  1.0000
  C   C51       1.0  0.98784  0.52982  0.98986  1.0000
  C   C52       1.0  0.52419  0.53925  0.01613  1.0000
  C   C53       1.0  0.45986  0.98451  0.99430  1.0000
  C   C54       1.0  0.01771  0.47561  0.99018  1.0000
  C   C55       1.0  0.43131  0.84245  0.46964  1.0000
  C   C56       1.0  0.15537  0.58664  0.50614  1.0000
  C   C57       1.0  0.41771  0.57266  0.49178  1.0000
  C   C58       1.0  0.38784  0.82074  0.46530  1.0000
  C   C59       1.0  0.18198  0.56381  0.43393  1.0000
  C   C60       1.0  0.43309  0.61644  0.55549  1.0000
  C   C61       1.0  0.36483  0.77807  0.47085  1.0000
  C   C62       1.0  0.22437  0.58316  0.44203  1.0000
  C   C63       1.0  0.41125  0.63887  0.56797  1.0000
  C   C64       1.0  0.38343  0.75458  0.48105  1.0000
  C   C65       1.0  0.24180  0.62570  0.52285  1.0000
  C   C66       1.0  0.37337  0.61908  0.51792  1.0000
  C   C67       1.0  0.42740  0.77632  0.47912  1.0000
  C   C68       1.0  0.21501  0.64826  0.59397  1.0000
  C   C69       1.0  0.35828  0.57542  0.45435  1.0000
  C   C70       1.0  0.45074  0.81906  0.47320  1.0000
  C   C71       1.0  0.17301  0.62940  0.58319  1.0000
  C   C72       1.0  0.37978  0.55271  0.44252  1.0000
  C   C73       1.0  0.37591  0.68600  0.50598  1.0000
  C   C74       1.0  0.31295  0.68897  0.50700  1.0000
  C   C75       1.0  0.30719  0.62412  0.53292  1.0000
  C   C76       1.0  0.62028  0.31517  0.50967  1.0000
  C   C77       1.0  0.68362  0.30830  0.48450  1.0000
  C   C78       1.0  0.68987  0.37570  0.48828  1.0000
  C   C79       1.0  0.35729  0.70963  0.49880  1.0000
  C   C80       1.0  0.28759  0.64643  0.52323  1.0000
  C   C81       1.0  0.35162  0.64335  0.52233  1.0000
  C   C82       1.0  0.63864  0.28957  0.50199  1.0000
  C   C83       1.0  0.70950  0.35151  0.48274  1.0000
  C   C84       1.0  0.64554  0.35815  0.50016  1.0000
  C   C85       1.0  0.47382  0.56152  0.49583  1.0000
  C   C86       1.0  0.44158  0.91047  0.48222  1.0000
  C   C87       1.0  0.08698  0.53089  0.50933  1.0000
  C   C88       1.0  0.53253  0.44836  0.51872  1.0000
  C   C89       1.0  0.55217  0.08759  0.49878  1.0000
  C   C90       1.0  0.91175  0.46500  0.48798  1.0000
  C   C91       1.0  0.48965  0.53361  0.50041  1.0000
  C   C92       1.0  0.46914  0.95521  0.48406  1.0000
  C   C93       1.0  0.04309  0.51323  0.49804  1.0000
  C   C94       1.0  0.51766  0.47653  0.51023  1.0000
  C   C95       1.0  0.52469  0.04275  0.49403  1.0000
  C   C96       1.0  0.95666  0.48182  0.48700  1.0000
  C   C97       1.0  0.46368  0.48997  0.48055  1.0000
  C   C98       1.0  0.51214  0.97180  0.48870  1.0000
  C   C99       1.0  0.02726  0.54020  0.49673  1.0000
  C   C100      1.0  0.54377  0.52014  0.52936  1.0000
  C   C101      1.0  0.48187  0.02608  0.48738  1.0000
  C   C102      1.0  0.97275  0.45472  0.48522  1.0000
  C   C103      1.0  0.47729  0.46249  0.48631  1.0000
  C   C104      1.0  0.53881  0.01427  0.49481  1.0000
  C   C105      1.0  0.98527  0.52487  0.49219  1.0000
  C   C106      1.0  0.52987  0.54768  0.52578  1.0000
  C   C107      1.0  0.45494  0.98369  0.48419  1.0000
  C   C108      1.0  0.01459  0.47013  0.49179  1.0000
  Br  Br1       1.0  0.56124  0.59857  0.05285  1.0000
  Br  Br2       1.0  0.40235  0.96423  0.97901  1.0000
  Br  Br3       1.0  0.03649  0.43607  0.98880  1.0000
  Br  Br4       1.0  0.43544  0.39450  0.94227  1.0000
  Br  Br5       1.0  0.60176  0.03680  0.01778  1.0000
  Br  Br6       1.0  0.96914  0.56948  0.99130  1.0000
  Br  Br7       1.0  0.56681  0.60702  0.56578  1.0000
  Br  Br8       1.0  0.39666  0.96449  0.47843  1.0000
  Br  Br9       1.0  0.03315  0.43018  0.48851  1.0000
  Br  Br10      1.0  0.43885  0.40343  0.45674  1.0000
  Br  Br11      1.0  0.59625  0.03347  0.50835  1.0000
  Br  Br12      1.0  0.96702  0.56480  0.49295  1.0000
  N   N1        1.0  0.46360  0.88637  0.97377  1.0000
  N   N2        1.0  0.11571  0.57569  0.00065  1.0000
  N   N3        1.0  0.42933  0.53879  0.97908  1.0000
  N   N4        1.0  0.54021  0.11416  0.02075  1.0000
  N   N5        1.0  0.89187  0.42912  0.95834  1.0000
  N   N6        1.0  0.56693  0.45611  0.02406  1.0000
  N   N7        1.0  0.45748  0.88545  0.46962  1.0000
  N   N8        1.0  0.11286  0.57008  0.50072  1.0000
  N   N9        1.0  0.43526  0.54652  0.48362  1.0000
  N   N10       1.0  0.53683  0.11280  0.50822  1.0000
  N   N11       1.0  0.88821  0.42493  0.46550  1.0000
  N   N12       1.0  0.57083  0.46243  0.53190  1.0000
  C   C109      1.0  0.63170  0.45210  0.59008  1.0000
  C   C110      1.0  0.59771  0.44054  0.52838  1.0000
  C  Sn1       1.0  0.57522  0.39846  0.46145  1.0000
  C  Sn2       1.0  0.58704  0.36745  0.45643  1.0000
  C   C111      1.0  0.62107  0.37934  0.51860  1.0000
  C   C112      1.0  0.64337  0.42154  0.58524  1.0000
  H   H61       1.0  0.64893  0.48475  0.64174  1.0000
  O  Te1       1.0  0.54135  0.38745  0.40028  1.0000
  O  Te2       1.0  0.56510  0.32517  0.39028  1.0000
  H   H62       1.0  0.66966  0.43048  0.63312  1.0000
  Mg  Mg1       1.0  0.52123  0.32575  0.32223  1.0000
  C   C113      1.0  0.78671  0.35144  0.00398  1.0000
  C   C114      1.0  0.76149  0.36865  0.00079  1.0000
  C  Sn3       1.0  0.69533  0.44807  0.96450  1.0000
  C  Sn4       1.0  0.74153  0.47195  0.93078  1.0000
  C   C115      1.0  0.76648  0.45445  0.93414  1.0000
  C   C116      1.0  0.74605  0.41365  0.97065  1.0000
  H   H63       1.0  0.77091  0.31987  0.03213  1.0000
  O  Te3       1.0  0.66964  0.46479  0.96191  1.0000
  O  Te4       1.0  0.76245  0.51275  0.89408  1.0000
  H   H64       1.0  0.76559  0.40033  0.97299  1.0000
  Mg  Mg2       1.0  0.71330  0.52175  0.90551  1.0000
  C   C117      1.0  0.18471  0.64335  0.10296  1.0000
  C   C118      1.0  0.16348  0.60343  0.01315  1.0000
  C  Sn5       1.0  0.09653  0.61299  0.93401  1.0000
  C  Sn6       1.0  0.13784  0.62412  0.94525  1.0000
  C   C119      1.0  0.24503  0.62545  0.03550  1.0000
  C   C120      1.0  0.22544  0.65435  0.11416  1.0000
  H   H65       1.0  0.16955  0.66571  0.16391  1.0000
  O  Te5       1.0  0.07488  0.57324  0.84474  1.0000
  O  Te6       1.0  0.15785  0.59561  0.86741  1.0000
  H   H66       1.0  0.24187  0.68525  0.18379  1.0000
  Mg  Mg3       1.0  0.11543  0.54530  0.76021  1.0000
  C   C121      1.0  0.82018  0.43046  0.41730  1.0000
  C   C122      1.0  0.84090  0.41685  0.47108  1.0000
  C  Sn7       1.0  0.81870  0.37747  0.52387  1.0000
  C  Sn8       1.0  0.77495  0.35130  0.52259  1.0000
  C   C123      1.0  0.75452  0.36519  0.46843  1.0000
  C   C124      1.0  0.77703  0.40466  0.41594  1.0000
  H   H67       1.0  0.83760  0.46099  0.37659  1.0000
  O  Te7       1.0  0.83989  0.36437  0.57728  1.0000
  O  Te8       1.0  0.75201  0.31179  0.57462  1.0000
  H   H68       1.0  0.76099  0.41518  0.37419  1.0000
  Mg  Mg4       1.0  0.79493  0.30791  0.63646  1.0000
  C   C125      1.0  0.64226  0.43734  0.07222  1.0000
  C   C126      1.0  0.62896  0.39386  0.03691  1.0000
  C  Sn9       1.0  0.50633  0.40569  0.98002  1.0000
  C  Sn10      1.0  0.48287  0.42278  0.95816  1.0000
  C   C127      1.0  0.49646  0.46632  0.99370  1.0000
  C   C128      1.0  0.61916  0.45422  0.05062  1.0000
  H   H69       1.0  0.67049  0.45791  0.11615  1.0000
  O  Te9       1.0  0.49348  0.36233  0.94540  1.0000
  O  Te10      1.0  0.44638  0.39667  0.90141  1.0000
  H   H70       1.0  0.62946  0.48788  0.07783  1.0000
  Mg  Mg5       1.0  0.44163  0.33966  0.87105  1.0000
  C   C129      1.0  0.56025  0.21254  0.48488  1.0000
  C   C130      1.0  0.59969  0.24004  0.51914  1.0000
  C  Sn11      1.0  0.62277  0.22476  0.54999  1.0000
  C  Sn12      1.0  0.60596  0.18112  0.54633  1.0000
  C   C131      1.0  0.56648  0.15385  0.51181  1.0000
  C   C132      1.0  0.54366  0.16948  0.48118  1.0000
  H   H71       1.0  0.54259  0.22462  0.46108  1.0000
  O  Te11      1.0  0.66212  0.25268  0.58408  1.0000
  O  Te12      1.0  0.62836  0.16500  0.57664  1.0000
  H   H72       1.0  0.51313  0.14818  0.45454  1.0000
  Mg  Mg6       1.0  0.68064  0.21561  0.61734  1.0000
