data_image0
_chemical_formula_structural       H36C72Br12N12SnCSn2CSnTe4Mg2SnCSn2CSnTe4Mg2SnCSn2CSnTe4Mg2SnCSn2CSnTe4Mg2SnCSn2CSnTe4Mg2SnCSn2CSnTe4Mg2SnCSn2CSnTe4Mg2SnCSn2CSnTe4Mg2SnCSn2CSnTe4Mg2SnCSn2CSnTe4Mg2SnCSn2CSnTe4Mg2SnCSn2CSnTe4Mg2
_chemical_formula_sum              "H36 C96 Br12 N12 Sn48 Te48 Mg24"
_cell_length_a       37.3022
_cell_length_b       37.4873
_cell_length_c       8.27378
_cell_angle_alpha    111.847
_cell_angle_beta     61.4753
_cell_angle_gamma    120.423

_symmetry_space_group_name_H-M    'P1'
_space_group_IT_number       1

loop_
  _space_group_symop_operation_xyz
  'x, y, z'

loop_
  _atom_site_type_symbol
  _atom_site_label
  _atom_site_symmetry_multiplicity
  _atom_site_fract_x
  _atom_site_fract_y
  _atom_site_fract_z
  _atom_site_occupancy
  H   H1        1.0  0.41319  0.69894  0.98954  1.0000
  H   H2        1.0  0.30135  0.70923  0.00961  1.0000
  H   H3        1.0  0.28784  0.59233  0.05176  1.0000
  H   H4        1.0  0.58687  0.30160  0.04379  1.0000
  H   H5        1.0  0.70202  0.29161  0.98789  1.0000
  H   H6        1.0  0.71016  0.40987  0.98581  1.0000
  H   H7        1.0  0.49183  0.58581  0.98518  1.0000
  H   H8        1.0  0.41296  0.90138  0.00575  1.0000
  H   H9        1.0  0.09872  0.51493  0.02649  1.0000
  H   H10       1.0  0.50535  0.40783  0.01113  1.0000
  H   H11       1.0  0.59090  0.09943  0.98996  1.0000
  H   H12       1.0  0.90185  0.49229  0.00972  1.0000
  H   H13       1.0  0.42706  0.46963  0.95215  1.0000
  H   H14       1.0  0.52841  0.95277  0.00987  1.0000
  H   H15       1.0  0.05161  0.57862  0.99704  1.0000
  H   H16       1.0  0.56962  0.52352  0.03952  1.0000
  H   H17       1.0  0.47472  0.04841  0.99672  1.0000
  H   H18       1.0  0.95411  0.42669  0.97960  1.0000
  H   H19       1.0  0.41048  0.70049  0.49395  1.0000
  H   H20       1.0  0.29796  0.70548  0.49305  1.0000
  H   H21       1.0  0.28722  0.59161  0.55269  1.0000
  H   H22       1.0  0.58538  0.30181  0.52739  1.0000
  H   H23       1.0  0.69901  0.28887  0.47126  1.0000
  H   H24       1.0  0.70933  0.40898  0.48390  1.0000
  H   H25       1.0  0.49634  0.59487  0.50279  1.0000
  H   H26       1.0  0.40732  0.90026  0.49405  1.0000
  H   H27       1.0  0.09592  0.50951  0.52941  1.0000
  H   H28       1.0  0.50926  0.41527  0.51461  1.0000
  H   H29       1.0  0.58597  0.09781  0.49253  1.0000
  H   H30       1.0  0.89936  0.48829  0.51263  1.0000
  H   H31       1.0  0.43281  0.47899  0.45988  1.0000
  H   H32       1.0  0.52305  0.94995  0.48954  1.0000
  H   H33       1.0  0.04911  0.57337  0.50071  1.0000
  H   H34       1.0  0.57443  0.53097  0.55143  1.0000
  H   H35       1.0  0.47121  0.04784  0.48393  1.0000
  H   H36       1.0  0.95088  0.42152  0.48079  1.0000
  C   C1        1.0  0.37835  0.68550  0.00594  1.0000
  C   C2        1.0  0.31586  0.69125  0.01648  1.0000
  C   C3        1.0  0.30845  0.62492  0.03379  1.0000
  C   C4        1.0  0.62205  0.31547  0.02224  1.0000
  C   C5        1.0  0.68633  0.31044  0.99781  1.0000
  C   C6        1.0  0.69116  0.37674  0.99490  1.0000
  C   C7        1.0  0.36047  0.71052  0.00422  1.0000
  C   C8        1.0  0.28962  0.64859  0.02887  1.0000
  C   C9        1.0  0.35295  0.64274  0.02035  1.0000
  C   C10       1.0  0.64140  0.29080  0.01455  1.0000
  C   C11       1.0  0.71154  0.35362  0.99265  1.0000
  C   C12       1.0  0.64665  0.35818  0.00795  1.0000
  C   C13       1.0  0.46829  0.55281  0.98573  1.0000
  C   C14       1.0  0.44740  0.91164  0.99152  1.0000
  C   C15       1.0  0.08978  0.53645  0.00758  1.0000
  C   C16       1.0  0.52828  0.44102  0.01245  1.0000
  C   C17       1.0  0.55632  0.08909  0.00583  1.0000
  C   C18       1.0  0.91472  0.46930  0.98397  1.0000
  C   C19       1.0  0.48364  0.52481  0.99283  1.0000
  C   C20       1.0  0.47452  0.95658  0.99618  1.0000
  C   C21       1.0  0.04598  0.51876  0.99593  1.0000
  C   C22       1.0  0.51266  0.46848  0.00274  1.0000
  C   C23       1.0  0.52899  0.04435  0.00564  1.0000
  C   C24       1.0  0.95952  0.48669  0.98454  1.0000
  C   C25       1.0  0.45793  0.48109  0.97374  1.0000
  C   C26       1.0  0.51727  0.97396  0.00470  1.0000
  C   C27       1.0  0.02989  0.54544  0.99408  1.0000
  C   C28       1.0  0.53851  0.51213  0.02008  1.0000
  C   C29       1.0  0.48603  0.02710  0.99964  1.0000
  C   C30       1.0  0.97585  0.45990  0.98360  1.0000
  C   C31       1.0  0.47224  0.45398  0.97831  1.0000
  C   C32       1.0  0.54365  0.01649  0.00791  1.0000
  C   C33       1.0  0.98784  0.52982  0.98986  1.0000
  C   C34       1.0  0.52419  0.53925  0.01613  1.0000
  C   C35       1.0  0.45986  0.98451  0.99430  1.0000
  C   C36       1.0  0.01771  0.47561  0.99018  1.0000
  C   C37       1.0  0.37591  0.68600  0.50598  1.0000
  C   C38       1.0  0.31295  0.68897  0.50700  1.0000
  C   C39       1.0  0.30719  0.62412  0.53292  1.0000
  C   C40       1.0  0.62028  0.31517  0.50967  1.0000
  C   C41       1.0  0.68362  0.30830  0.48450  1.0000
  C   C42       1.0  0.68987  0.37570  0.48828  1.0000
  C   C43       1.0  0.35729  0.70963  0.49880  1.0000
  C   C44       1.0  0.28759  0.64643  0.52323  1.0000
  C   C45       1.0  0.35162  0.64335  0.52233  1.0000
  C   C46       1.0  0.63864  0.28957  0.50199  1.0000
  C   C47       1.0  0.70950  0.35151  0.48274  1.0000
  C   C48       1.0  0.64554  0.35815  0.50016  1.0000
  C   C49       1.0  0.47382  0.56152  0.49583  1.0000
  C   C50       1.0  0.44158  0.91047  0.48222  1.0000
  C   C51       1.0  0.08698  0.53089  0.50933  1.0000
  C   C52       1.0  0.53253  0.44836  0.51872  1.0000
  C   C53       1.0  0.55217  0.08759  0.49878  1.0000
  C   C54       1.0  0.91175  0.46500  0.48798  1.0000
  C   C55       1.0  0.48965  0.53361  0.50041  1.0000
  C   C56       1.0  0.46914  0.95521  0.48406  1.0000
  C   C57       1.0  0.04309  0.51323  0.49804  1.0000
  C   C58       1.0  0.51766  0.47653  0.51023  1.0000
  C   C59       1.0  0.52469  0.04275  0.49403  1.0000
  C   C60       1.0  0.95666  0.48182  0.48700  1.0000
  C   C61       1.0  0.46368  0.48997  0.48055  1.0000
  C   C62       1.0  0.51214  0.97180  0.48870  1.0000
  C   C63       1.0  0.02726  0.54020  0.49673  1.0000
  C   C64       1.0  0.54377  0.52014  0.52936  1.0000
  C   C65       1.0  0.48187  0.02608  0.48738  1.0000
  C   C66       1.0  0.97275  0.45472  0.48522  1.0000
  C   C67       1.0  0.47729  0.46249  0.48631  1.0000
  C   C68       1.0  0.53881  0.01427  0.49481  1.0000
  C   C69       1.0  0.98527  0.52487  0.49219  1.0000
  C   C70       1.0  0.52987  0.54768  0.52578  1.0000
  C   C71       1.0  0.45494  0.98369  0.48419  1.0000
  C   C72       1.0  0.01459  0.47013  0.49179  1.0000
  Br  Br1       1.0  0.56124  0.59857  0.05285  1.0000
  Br  Br2       1.0  0.40235  0.96423  0.97901  1.0000
  Br  Br3       1.0  0.03649  0.43607  0.98880  1.0000
  Br  Br4       1.0  0.43544  0.39450  0.94227  1.0000
  Br  Br5       1.0  0.60176  0.03680  0.01778  1.0000
  Br  Br6       1.0  0.96914  0.56948  0.99130  1.0000
  Br  Br7       1.0  0.56681  0.60702  0.56578  1.0000
  Br  Br8       1.0  0.39666  0.96449  0.47843  1.0000
  Br  Br9       1.0  0.03315  0.43018  0.48851  1.0000
  Br  Br10      1.0  0.43885  0.40343  0.45674  1.0000
  Br  Br11      1.0  0.59625  0.03347  0.50835  1.0000
  Br  Br12      1.0  0.96702  0.56480  0.49295  1.0000
  N   N1        1.0  0.46360  0.88637  0.97377  1.0000
  N   N2        1.0  0.11571  0.57569  0.00065  1.0000
  N   N3        1.0  0.42933  0.53879  0.97908  1.0000
  N   N4        1.0  0.54021  0.11416  0.02075  1.0000
  N   N5        1.0  0.89187  0.42912  0.95834  1.0000
  N   N6        1.0  0.56693  0.45611  0.02406  1.0000
  N   N7        1.0  0.45748  0.88545  0.46962  1.0000
  N   N8        1.0  0.11286  0.57008  0.50072  1.0000
  N   N9        1.0  0.43526  0.54652  0.48362  1.0000
  N   N10       1.0  0.53683  0.11280  0.50822  1.0000
  N   N11       1.0  0.88821  0.42493  0.46550  1.0000
  N   N12       1.0  0.57083  0.46243  0.53190  1.0000
  C  Sn1       1.0  0.38056  0.78518  0.89647  1.0000
  C   C73       1.0  0.39170  0.75825  0.92572  1.0000
  C  Sn2       1.0  0.42550  0.77451  0.99563  1.0000
  C  Sn3       1.0  0.53486  0.77993  0.03729  1.0000
  C   C74       1.0  0.52372  0.80683  0.00808  1.0000
  C  Sn4       1.0  0.40369  0.82928  0.93814  1.0000
  O  Te1       1.0  0.34666  0.76823  0.82647  1.0000
  O  Te2       1.0  0.52228  0.70828  0.02364  1.0000
  O  Te3       1.0  0.56879  0.79686  0.10734  1.0000
  O  Te4       1.0  0.39314  0.85680  0.91016  1.0000
  Mg  Mg1       1.0  0.57100  0.74651  0.12173  1.0000
  Mg  Mg2       1.0  0.34442  0.81861  0.81217  1.0000
  C  Sn5       1.0  0.19065  0.64426  0.04177  1.0000
  C   C75       1.0  0.08184  0.64151  0.96821  1.0000
  C  Sn6       1.0  0.09558  0.61032  0.93680  1.0000
  C  Sn7       1.0  0.13264  0.62074  0.97993  1.0000
  C   C76       1.0  0.24143  0.62347  0.05348  1.0000
  C  Sn8       1.0  0.22771  0.65468  0.08490  1.0000
  O  Te5       1.0  0.17633  0.67493  0.07204  1.0000
  O  Te6       1.0  0.07249  0.56912  0.86308  1.0000
  O  Te7       1.0  0.14695  0.59003  0.94959  1.0000
  O  Te8       1.0  0.25077  0.69585  0.15860  1.0000
  Mg  Mg3       1.0  0.10470  0.53840  0.84686  1.0000
  Mg  Mg4       1.0  0.21858  0.72659  0.17497  1.0000
  C  Sn9       1.0  0.35042  0.56328  0.99031  1.0000
  C   C77       1.0  0.44933  0.56795  0.04816  1.0000
  C  Sn10      1.0  0.49094  0.59362  0.06523  1.0000
  C  Sn11      1.0  0.52052  0.57559  0.02351  1.0000
  C   C78       1.0  0.42161  0.57094  0.96568  1.0000
  C  Sn12      1.0  0.38000  0.54524  0.94859  1.0000
  O  Te9       1.0  0.30865  0.53821  0.97421  1.0000
  O  Te10      1.0  0.50286  0.63688  0.12337  1.0000
  O  Te11      1.0  0.56231  0.60070  0.03968  1.0000
  O  Te12      1.0  0.36808  0.50201  0.89046  1.0000
  Mg  Mg5       1.0  0.56336  0.65792  0.12396  1.0000
  Mg  Mg6       1.0  0.30760  0.48094  0.88973  1.0000
  C  Sn13      1.0  0.60835  0.19026  0.10731  1.0000
  C   C79       1.0  0.56857  0.16352  0.07479  1.0000
  C  Sn14      1.0  0.46620  0.21531  0.99548  1.0000
  C  Sn15      1.0  0.49034  0.25599  0.94755  1.0000
  C   C80       1.0  0.53010  0.28270  0.98003  1.0000
  C  Sn16      1.0  0.63249  0.23094  0.05937  1.0000
  O  Te13      1.0  0.62386  0.17650  0.18673  1.0000
  O  Te14      1.0  0.42635  0.18803  0.96437  1.0000
  O  Te15      1.0  0.47480  0.26974  0.86807  1.0000
  O  Te16      1.0  0.67233  0.25819  0.09045  1.0000
  Mg  Mg7       1.0  0.41888  0.22115  0.85280  1.0000
  Mg  Mg8       1.0  0.67984  0.22510  0.20191  1.0000
  C  Sn17      1.0  0.80006  0.41754  0.88801  1.0000
  C   C81       1.0  0.76821  0.37745  0.92561  1.0000
  C  Sn18      1.0  0.86107  0.31610  0.00241  1.0000
  C  Sn19      1.0  0.90033  0.33388  0.04258  1.0000
  C   C82       1.0  0.93215  0.37394  0.00502  1.0000
  C  Sn20      1.0  0.83933  0.43531  0.92818  1.0000
  O  Te17      1.0  0.79274  0.43963  0.81122  1.0000
  O  Te18      1.0  0.82875  0.27608  0.03872  1.0000
  O  Te19      1.0  0.90763  0.31174  0.11943  1.0000
  O  Te20      1.0  0.87161  0.47531  0.89191  1.0000
  Mg  Mg9       1.0  0.85387  0.25834  0.14395  1.0000
  Mg  Mg10      1.0  0.84651  0.49309  0.78678  1.0000
  C  Sn21      1.0  0.64714  0.33810  0.01617  1.0000
  C   C83       1.0  0.65892  0.38142  0.06689  1.0000
  C  Sn22      1.0  0.70088  0.40864  0.07825  1.0000
  C  Sn23      1.0  0.73172  0.39222  0.03796  1.0000
  C   C84       1.0  0.63370  0.38760  0.98725  1.0000
  C  Sn24      1.0  0.59174  0.36035  0.97588  1.0000
  O  Te21      1.0  0.60501  0.31147  0.00569  1.0000
  O  Te22      1.0  0.71189  0.45184  0.12932  1.0000
  O  Te23      1.0  0.77387  0.41889  0.04848  1.0000
  O  Te24      1.0  0.58073  0.31719  0.92482  1.0000
  Mg  Mg11      1.0  0.77334  0.47536  0.12406  1.0000
  Mg  Mg12      1.0  0.51930  0.29364  0.92994  1.0000
  C  Sn25      1.0  0.37540  0.81426  0.52261  1.0000
  C   C85       1.0  0.41882  0.84034  0.51923  1.0000
  C  Sn26      1.0  0.44837  0.82309  0.47844  1.0000
  C  Sn27      1.0  0.43424  0.77885  0.44010  1.0000
  C   C86       1.0  0.39085  0.75280  0.44346  1.0000
  C  Sn28      1.0  0.36127  0.77002  0.48427  1.0000
  O  Te25      1.0  0.34642  0.83219  0.56372  1.0000
  O  Te26      1.0  0.49161  0.84980  0.47595  1.0000
  O  Te27      1.0  0.46326  0.76093  0.39898  1.0000
  O  Te28      1.0  0.31807  0.74334  0.48674  1.0000
  Mg  Mg13      1.0  0.51880  0.81038  0.41240  1.0000
  Mg  Mg14      1.0  0.29085  0.78272  0.55018  1.0000
  C  Sn29      1.0  0.22104  0.57983  0.38369  1.0000
  C   C87       1.0  0.24246  0.62108  0.46283  1.0000
  C  Sn30      1.0  0.21824  0.64557  0.58328  1.0000
  C  Sn31      1.0  0.17165  0.62848  0.62562  1.0000
  C   C88       1.0  0.15026  0.58725  0.54653  1.0000
  C  Sn32      1.0  0.17445  0.56273  0.42603  1.0000
  O  Te29      1.0  0.24591  0.55591  0.26365  1.0000
  O  Te30      1.0  0.24039  0.68674  0.66065  1.0000
  O  Te31      1.0  0.14679  0.65243  0.74577  1.0000
  O  Te32      1.0  0.15233  0.52159  0.34872  1.0000
  Mg  Mg15      1.0  0.19201  0.70686  0.81637  1.0000
  Mg  Mg16      1.0  0.20066  0.50143  0.19306  1.0000
  C  Sn33      1.0  0.38150  0.55710  0.38686  1.0000
  C   C89       1.0  0.41750  0.57167  0.44110  1.0000
  C  Sn34      1.0  0.43020  0.61095  0.55339  1.0000
  C  Sn35      1.0  0.40640  0.63618  0.61282  1.0000
  C   C90       1.0  0.37042  0.62160  0.55862  1.0000
  C  Sn36      1.0  0.35771  0.58233  0.44630  1.0000
  O  Te33      1.0  0.36940  0.51773  0.27457  1.0000
  O  Te34      1.0  0.46631  0.62485  0.60577  1.0000
  O  Te35      1.0  0.41854  0.67557  0.72520  1.0000
  O  Te36      1.0  0.32162  0.56842  0.39396  1.0000
  Mg  Mg17      1.0  0.47003  0.68073  0.75990  1.0000
  Mg  Mg18      1.0  0.31785  0.51254  0.23991  1.0000
  C  Sn37      1.0  0.63128  0.20930  0.48630  1.0000
  C   C91       1.0  0.61908  0.23694  0.46887  1.0000
  C  Sn38      1.0  0.57517  0.22483  0.49005  1.0000
  C  Sn39      1.0  0.54278  0.18426  0.52961  1.0000
  C   C92       1.0  0.55499  0.15665  0.54705  1.0000
  C  Sn40      1.0  0.59889  0.16873  0.52586  1.0000
  O  Te37      1.0  0.67537  0.22207  0.46458  1.0000
  O  Te38      1.0  0.56377  0.25300  0.47193  1.0000
  O  Te39      1.0  0.49867  0.17151  0.55132  1.0000
  O  Te40      1.0  0.61029  0.14059  0.54399  1.0000
  Mg  Mg19      1.0  0.49942  0.22107  0.51378  1.0000
  Mg  Mg20      1.0  0.67463  0.17249  0.50227  1.0000
  C  Sn41      1.0  0.77750  0.35685  0.57277  1.0000
  C   C93       1.0  0.75610  0.37288  0.53542  1.0000
  C  Sn42      1.0  0.78090  0.40678  0.44009  1.0000
  C  Sn43      1.0  0.82808  0.42503  0.38074  1.0000
  C   C94       1.0  0.84945  0.40900  0.41806  1.0000
  C  Sn44      1.0  0.82467  0.37510  0.51342  1.0000
  O  Te41      1.0  0.75203  0.32294  0.66826  1.0000
  O  Te42      1.0  0.75875  0.42226  0.40442  1.0000
  O  Te43      1.0  0.85353  0.45896  0.28518  1.0000
  O  Te44      1.0  0.84679  0.35961  0.54906  1.0000
  Mg  Mg21      1.0  0.80806  0.46890  0.26957  1.0000
  Mg  Mg22      1.0  0.79752  0.31296  0.68381  1.0000
  C  Sn45      1.0  0.63275  0.43434  0.62795  1.0000
  C   C95       1.0  0.62057  0.39108  0.56808  1.0000
  C  Sn46      1.0  0.59269  0.36832  0.46458  1.0000
  C  Sn47      1.0  0.57666  0.38925  0.41987  1.0000
  C   C96       1.0  0.58885  0.43249  0.47970  1.0000
  C  Sn48      1.0  0.61673  0.45527  0.58324  1.0000
  O  Te45      1.0  0.66067  0.45646  0.73125  1.0000
  O  Te46      1.0  0.58095  0.32509  0.40632  1.0000
  O  Te47      1.0  0.54873  0.36709  0.31649  1.0000
  O  Te48      1.0  0.62847  0.49848  0.64145  1.0000
  Mg  Mg23      1.0  0.54214  0.30866  0.26877  1.0000
  Mg  Mg24      1.0  0.66729  0.51494  0.77892  1.0000
