data_image0
_chemical_formula_structural       H32C56N8O8C2Sn2C2HTe2HMgC2Sn2C2HTe2HMgC2Sn2C2HTe2HMgC2Sn2C2HTe2HMgC2Sn2C2HTe2HMgC2Sn2C2HTe2HMgC2Sn2C2HTe2HMgC2Sn2C2HTe2HMgC2Sn2C2HTe2HMgC2Sn2C2HTe2HMgC2Sn2C2HTe2HMgC2Sn2C2HTe2HMgC2Sn2C2HTe2HMgC2Sn2C2HTe2HMgC2Sn2C2HTe2HMgC2Sn2C2HTe2HMg
_chemical_formula_sum              "H64 C120 N8 O8 Sn32 Te32 Mg16"
_cell_length_a       26.5035
_cell_length_b       22.4851
_cell_length_c       8.05676
_cell_angle_alpha    99.5117
_cell_angle_beta     79.2846
_cell_angle_gamma    89.7092

_symmetry_space_group_name_H-M    'P1'
_space_group_IT_number       1

loop_
  _space_group_symop_operation_xyz
  'x, y, z'

loop_
  _atom_site_type_symbol
  _atom_site_label
  _atom_site_symmetry_multiplicity
  _atom_site_fract_x
  _atom_site_fract_y
  _atom_site_fract_z
  _atom_site_occupancy
  H   H1        1.0  0.51649  0.06537  0.03240  1.0000
  H   H2        1.0  0.94229  0.09106  0.49458  1.0000
  H   H3        1.0  0.66428  0.81544  0.13482  1.0000
  H   H4        1.0  0.73525  0.98500  0.22657  1.0000
  H   H5        1.0  0.73433  0.57237  0.25538  1.0000
  H   H6        1.0  0.81415  0.73545  0.20585  1.0000
  H   H7        1.0  0.82802  0.85474  0.41568  1.0000
  H   H8        1.0  0.61290  0.71528  0.29028  1.0000
  H   H9        1.0  0.50188  0.49111  0.11990  1.0000
  H   H10       1.0  0.97026  0.49942  0.32970  1.0000
  H   H11       1.0  0.16341  0.31211  0.14250  1.0000
  H   H12       1.0  0.24089  0.47866  0.21067  1.0000
  H   H13       1.0  0.22762  0.07075  0.29027  1.0000
  H   H14       1.0  0.31112  0.22673  0.18058  1.0000
  H   H15       1.0  0.33158  0.34614  0.39992  1.0000
  H   H16       1.0  0.10956  0.22092  0.35945  1.0000
  H   H17       1.0  0.52230  0.08202  0.54146  1.0000
  H   H18       1.0  0.94644  0.08984  0.99191  1.0000
  H   H19       1.0  0.66395  0.82259  0.62721  1.0000
  H   H20       1.0  0.73820  0.98972  0.73132  1.0000
  H   H21       1.0  0.72743  0.57818  0.76714  1.0000
  H   H22       1.0  0.81026  0.73800  0.69932  1.0000
  H   H23       1.0  0.82329  0.85497  0.93084  1.0000
  H   H24       1.0  0.60851  0.72452  0.79496  1.0000
  H   H25       1.0  0.49446  0.50070  0.64351  1.0000
  H   H26       1.0  0.96411  0.50008  0.82715  1.0000
  H   H27       1.0  0.16065  0.31462  0.63058  1.0000
  H   H28       1.0  0.23443  0.48335  0.71001  1.0000
  H   H29       1.0  0.23177  0.07461  0.77784  1.0000
  H   H30       1.0  0.31007  0.23373  0.66430  1.0000
  H   H31       1.0  0.32343  0.35254  0.91297  1.0000
  H   H32       1.0  0.10957  0.21935  0.84683  1.0000
  C   C1        1.0  0.69272  0.90406  0.18492  1.0000
  C   C2        1.0  0.69451  0.84149  0.18158  1.0000
  C   C3        1.0  0.73330  0.81136  0.23641  1.0000
  C   C4        1.0  0.77297  0.84722  0.29120  1.0000
  C   C5        1.0  0.77557  0.90886  0.27540  1.0000
  C   C6        1.0  0.73450  0.93677  0.22775  1.0000
  C   C7        1.0  0.73241  0.74557  0.24021  1.0000
  C   C8        1.0  0.68623  0.71374  0.26284  1.0000
  C   C9        1.0  0.68731  0.65105  0.26619  1.0000
  C   C10       1.0  0.73441  0.62050  0.25167  1.0000
  C   C11       1.0  0.78081  0.65037  0.23185  1.0000
  C   C12       1.0  0.77853  0.71193  0.22215  1.0000
  C   C13       1.0  0.51021  0.02694  0.10160  1.0000
  C   C14       1.0  0.50139  0.52053  0.24363  1.0000
  C   C15       1.0  0.95071  0.04501  0.42186  1.0000
  C   C16       1.0  0.97229  0.52576  0.22529  1.0000
  C   C17       1.0  0.19477  0.39987  0.18180  1.0000
  C   C18       1.0  0.19470  0.33755  0.18431  1.0000
  C   C19       1.0  0.23295  0.30665  0.23900  1.0000
  C   C20       1.0  0.27454  0.34056  0.28565  1.0000
  C   C21       1.0  0.27907  0.40153  0.26377  1.0000
  C   C22       1.0  0.23830  0.43084  0.21773  1.0000
  C   C23       1.0  0.22990  0.24152  0.25041  1.0000
  C   C24       1.0  0.18287  0.21348  0.29762  1.0000
  C   C25       1.0  0.18227  0.15146  0.31050  1.0000
  C   C26       1.0  0.22891  0.11826  0.27896  1.0000
  C   C27       1.0  0.27619  0.14428  0.23284  1.0000
  C   C28       1.0  0.27514  0.20536  0.21646  1.0000
  C   C29       1.0  0.69412  0.91034  0.68216  1.0000
  C   C30       1.0  0.69420  0.84761  0.67739  1.0000
  C   C31       1.0  0.73144  0.81601  0.73516  1.0000
  C   C32       1.0  0.77142  0.85017  0.79421  1.0000
  C   C33       1.0  0.77581  0.91190  0.78118  1.0000
  C   C34       1.0  0.73611  0.94142  0.73051  1.0000
  C   C35       1.0  0.72878  0.75034  0.74014  1.0000
  C   C36       1.0  0.68187  0.72005  0.76657  1.0000
  C   C37       1.0  0.68158  0.65770  0.77624  1.0000
  C   C38       1.0  0.72837  0.62607  0.76024  1.0000
  C   C39       1.0  0.77551  0.65433  0.73497  1.0000
  C   C40       1.0  0.77423  0.71557  0.72105  1.0000
  C   C41       1.0  0.51532  0.04052  0.59675  1.0000
  C   C42       1.0  0.49324  0.53048  0.76730  1.0000
  C   C43       1.0  0.95411  0.04365  0.91965  1.0000
  C   C44       1.0  0.96653  0.52741  0.72476  1.0000
  C   C45       1.0  0.19035  0.40326  0.67517  1.0000
  C   C46       1.0  0.19125  0.34075  0.67486  1.0000
  C   C47       1.0  0.22988  0.31062  0.72965  1.0000
  C   C48       1.0  0.27011  0.34574  0.78218  1.0000
  C   C49       1.0  0.27385  0.40700  0.76287  1.0000
  C   C50       1.0  0.23300  0.43528  0.71441  1.0000
  C   C51       1.0  0.22869  0.24520  0.73802  1.0000
  C   C52       1.0  0.18273  0.21513  0.78461  1.0000
  C   C53       1.0  0.18410  0.15317  0.79799  1.0000
  C   C54       1.0  0.23170  0.12207  0.76603  1.0000
  C   C55       1.0  0.27806  0.14999  0.71866  1.0000
  C   C56       1.0  0.27499  0.21095  0.70250  1.0000
  N   N1        1.0  0.46514  0.01148  0.17035  1.0000
  N   N2        1.0  0.99667  0.02303  0.35852  1.0000
  N   N3        1.0  0.46121  0.52716  0.36480  1.0000
  N   N4        1.0  0.01456  0.52875  0.11705  1.0000
  N   N5        1.0  0.46991  0.02272  0.65297  1.0000
  N   N6        1.0  0.99988  0.02132  0.85384  1.0000
  N   N7        1.0  0.45213  0.53775  0.88486  1.0000
  N   N8        1.0  0.00896  0.53100  0.61785  1.0000
  O   O1        1.0  0.80844  0.82201  0.36609  1.0000
  O   O2        1.0  0.64016  0.74421  0.27580  1.0000
  O   O3        1.0  0.31023  0.31399  0.35739  1.0000
  O   O4        1.0  0.13758  0.24718  0.32569  1.0000
  O   O5        1.0  0.80555  0.82294  0.86981  1.0000
  O   O6        1.0  0.63674  0.75199  0.77665  1.0000
  O   O7        1.0  0.30515  0.31972  0.85741  1.0000
  O   O8        1.0  0.13647  0.24676  0.81114  1.0000
  C   C57       1.0  0.83850  0.55568  0.32071  1.0000
  C   C58       1.0  0.82975  0.60764  0.25445  1.0000
  C  Sn1       1.0  0.87043  0.63394  0.15901  1.0000
  C  Sn2       1.0  0.92076  0.60763  0.12953  1.0000
  C   C59       1.0  0.92910  0.55562  0.19627  1.0000
  C   C60       1.0  0.88812  0.52968  0.29164  1.0000
  H   H33       1.0  0.80679  0.53559  0.39442  1.0000
  O  Te1       1.0  0.86103  0.68586  0.09380  1.0000
  O  Te2       1.0  0.96211  0.63297  0.03453  1.0000
  H   H34       1.0  0.89490  0.48943  0.34283  1.0000
  Mg  Mg1       1.0  0.87311  0.76328  0.97234  1.0000
  C   C61       1.0  0.57983  0.63505  0.40472  1.0000
  C   C62       1.0  0.62934  0.62072  0.30956  1.0000
  C  Sn3       1.0  0.63801  0.57149  0.17568  1.0000
  C  Sn4       1.0  0.59628  0.53605  0.13661  1.0000
  C   C63       1.0  0.54689  0.55079  0.23248  1.0000
  C   C64       1.0  0.53864  0.60013  0.36622  1.0000
  H   H35       1.0  0.57344  0.67324  0.50813  1.0000
  O  Te3       1.0  0.68772  0.55779  0.08195  1.0000
  O  Te4       1.0  0.60387  0.48662  0.00343  1.0000
  H   H36       1.0  0.50031  0.61123  0.43980  1.0000
  Mg  Mg2       1.0  0.62187  0.54555  0.91260  1.0000
  C   C65       1.0  0.88496  0.92305  0.23467  1.0000
  C   C66       1.0  0.83282  0.93506  0.30382  1.0000
  C  Sn5       1.0  0.81670  0.98875  0.41646  1.0000
  C  Sn6       1.0  0.85786  0.03112  0.46041  1.0000
  C   C67       1.0  0.90562  0.01870  0.39044  1.0000
  C   C68       1.0  0.92133  0.96482  0.27790  1.0000
  H   H37       1.0  0.89711  0.88138  0.14752  1.0000
  O  Te5       1.0  0.76447  0.00003  0.48444  1.0000
  O  Te6       1.0  0.84280  0.08515  0.57263  1.0000
  H   H38       1.0  0.96169  0.95555  0.22429  1.0000
  Mg  Mg3       1.0  0.76720  0.08003  0.63190  1.0000
  C   C69       1.0  0.64362  0.99821  0.05886  1.0000
  C   C70       1.0  0.64831  0.95041  0.14661  1.0000
  C  Sn7       1.0  0.60463  0.92188  0.21633  1.0000
  C  Sn8       1.0  0.55539  0.94166  0.19759  1.0000
  C   C71       1.0  0.55111  0.98949  0.10946  1.0000
  C   C72       1.0  0.59938  0.01773  0.04026  1.0000
  H   H39       1.0  0.68194  0.02004  0.00523  1.0000
  O  Te7       1.0  0.61001  0.87421  0.30367  1.0000
  O  Te8       1.0  0.51110  0.91394  0.26594  1.0000
  H   H40       1.0  0.53896  0.11426  0.97223  1.0000
  Mg  Mg4       1.0  0.53824  0.85085  0.37412  1.0000
  C   C73       1.0  0.36086  0.02778  0.28304  1.0000
  C   C74       1.0  0.40838  0.03601  0.18215  1.0000
  C  Sn9       1.0  0.41497  0.08481  0.09402  1.0000
  C  Sn10      1.0  0.37314  0.12607  0.10743  1.0000
  C   C75       1.0  0.32576  0.11746  0.20879  1.0000
  C   C76       1.0  0.31958  0.06846  0.29639  1.0000
  H   H41       1.0  0.35177  0.98989  0.35090  1.0000
  O  Te9       1.0  0.40593  0.15191  0.99373  1.0000
  O  Te10      1.0  0.37867  0.17524  0.02075  1.0000
  H   H42       1.0  0.28279  0.06212  0.37459  1.0000
  Mg  Mg5       1.0  0.39445  0.22587  0.90000  1.0000
  C   C77       1.0  0.12366  0.04871  0.22564  1.0000
  C   C78       1.0  0.13329  0.10611  0.30778  1.0000
  C  Sn11      1.0  0.09561  0.13825  0.43627  1.0000
  C  Sn12      1.0  0.04745  0.11232  0.48314  1.0000
  C   C79       1.0  0.03821  0.05485  0.40028  1.0000
  C   C80       1.0  0.07617  0.02309  0.27184  1.0000
  H   H43       1.0  0.15304  0.02411  0.12633  1.0000
  O  Te11      1.0  0.10586  0.19557  0.51698  1.0000
  O  Te12      1.0  0.00912  0.14345  0.61118  1.0000
  H   H44       1.0  0.06441  0.97862  0.20835  1.0000
  Mg  Mg6       1.0  0.04138  0.22022  0.68375  1.0000
  C   C81       1.0  0.35488  0.52012  0.43085  1.0000
  C   C82       1.0  0.40597  0.49961  0.37226  1.0000
  C  Sn13      1.0  0.41758  0.44437  0.26244  1.0000
  C  Sn14      1.0  0.37722  0.40912  0.21048  1.0000
  C   C83       1.0  0.32624  0.43007  0.26970  1.0000
  C   C84       1.0  0.31505  0.48540  0.37961  1.0000
  H   H45       1.0  0.34622  0.56295  0.51581  1.0000
  O  Te13      1.0  0.46884  0.42454  0.20516  1.0000
  O  Te14      1.0  0.38775  0.35376  0.10075  1.0000
  H   H46       1.0  0.27549  0.50129  0.42486  1.0000
  Mg  Mg7       1.0  0.46371  0.34602  0.05723  1.0000
  C   C85       1.0  0.14520  0.49755  0.06824  1.0000
  C   C86       1.0  0.15051  0.44678  0.14375  1.0000
  C  Sn15      1.0  0.10719  0.41637  0.20710  1.0000
  C  Sn16      1.0  0.05767  0.43727  0.19440  1.0000
  C   C87       1.0  0.05276  0.48808  0.11852  1.0000
  C   C88       1.0  0.09637  0.51818  0.05560  1.0000
  H   H47       1.0  0.17894  0.52082  0.01947  1.0000
  O  Te15      1.0  0.11319  0.36573  0.28222  1.0000
  O  Te16      1.0  0.01372  0.40771  0.25661  1.0000
  H   H48       1.0  0.03547  0.61702  0.99705  1.0000
  Mg  Mg8       1.0  0.04169  0.34075  0.34819  1.0000
  C   C89       1.0  0.83258  0.55687  0.81465  1.0000
  C   C90       1.0  0.82419  0.60999  0.75340  1.0000
  C  Sn17      1.0  0.86527  0.63770  0.66442  1.0000
  C  Sn18      1.0  0.91564  0.61163  0.63640  1.0000
  C   C91       1.0  0.92363  0.55844  0.69809  1.0000
  C   C92       1.0  0.88224  0.53110  0.78701  1.0000
  H   H49       1.0  0.80056  0.53569  0.88337  1.0000
  O  Te17      1.0  0.85622  0.69078  0.60415  1.0000
  O  Te18      1.0  0.95739  0.63837  0.54782  1.0000
  H   H50       1.0  0.88874  0.48995  0.83432  1.0000
  Mg  Mg9       1.0  0.92556  0.71035  0.49067  1.0000
  C   C93       1.0  0.62540  0.55583  0.65894  1.0000
  C   C94       1.0  0.63355  0.61122  0.75601  1.0000
  C  Sn19      1.0  0.59363  0.64140  0.87985  1.0000
  C  Sn20      1.0  0.54468  0.61553  0.90675  1.0000
  C   C95       1.0  0.53692  0.56008  0.80906  1.0000
  C   C96       1.0  0.57714  0.53028  0.68544  1.0000
  H   H51       1.0  0.65652  0.53275  0.56336  1.0000
  O  Te19      1.0  0.60243  0.69671  0.97566  1.0000
  O  Te20      1.0  0.56089  0.58517  0.02972  1.0000
  H   H52       1.0  0.57082  0.48737  0.61038  1.0000
  Mg  Mg10      1.0  0.59182  0.65962  0.12811  1.0000
  C   C97       1.0  0.84069  0.03315  0.96736  1.0000
  C   C98       1.0  0.89260  0.01500  0.91932  1.0000
  C  Sn21      1.0  0.90745  0.96018  0.81054  1.0000
  C  Sn22      1.0  0.86956  0.92295  0.74888  1.0000
  C   C99       1.0  0.81773  0.94154  0.79759  1.0000
  C   C100      1.0  0.80329  0.99647  0.90655  1.0000
  H   H53       1.0  0.89060  0.01611  0.05159  1.0000
  O  Te21      1.0  0.95948  0.94272  0.76386  1.0000
  O  Te22      1.0  0.88334  0.86796  0.63995  1.0000
  H   H54       1.0  0.76310  0.01052  0.94363  1.0000
  Mg  Mg11      1.0  0.95914  0.86378  0.61271  1.0000
  C   C101      1.0  0.56206  0.93835  0.68775  1.0000
  C   C102      1.0  0.55857  0.99382  0.63318  1.0000
  C  Sn23      1.0  0.60308  0.02341  0.57627  1.0000
  C  Sn24      1.0  0.65193  0.99684  0.57405  1.0000
  C   C103      1.0  0.65500  0.94131  0.62878  1.0000
  C   C104      1.0  0.61022  0.91210  0.68554  1.0000
  H   H55       1.0  0.52741  0.91573  0.73157  1.0000
  O  Te23      1.0  0.60322  0.07882  0.52226  1.0000
  O  Te24      1.0  0.69703  0.02542  0.51773  1.0000
  H   H56       1.0  0.61293  0.86913  0.72767  1.0000
  Mg  Mg12      1.0  0.67575  0.10029  0.45677  1.0000
  C   C105      1.0  0.36143  0.03600  0.76370  1.0000
  C   C106      1.0  0.41298  0.04630  0.66439  1.0000
  C  Sn25      1.0  0.41836  0.09602  0.57980  1.0000
  C  Sn26      1.0  0.37559  0.13611  0.59519  1.0000
  C   C107      1.0  0.32850  0.12544  0.69494  1.0000
  C   C108      1.0  0.32354  0.07553  0.77900  1.0000
  H   H57       1.0  0.35759  0.99741  0.82882  1.0000
  O  Te25      1.0  0.46582  0.10562  0.48105  1.0000
  O  Te26      1.0  0.37991  0.18616  0.51206  1.0000
  H   H58       1.0  0.28697  0.06760  0.85597  1.0000
  Mg  Mg13      1.0  0.45255  0.18010  0.39223  1.0000
  C   C109      1.0  0.09664  0.03356  0.71613  1.0000
  C   C110      1.0  0.05234  0.04475  0.84307  1.0000
  C  Sn27      1.0  0.05175  0.09666  0.96786  1.0000
  C  Sn28      1.0  0.09199  0.13806  0.96513  1.0000
  C   C111      1.0  0.13613  0.12649  0.83752  1.0000
  C   C112      1.0  0.14065  0.07439  0.71331  1.0000
  H   H59       1.0  0.10012  0.99328  0.61996  1.0000
  O  Te27      1.0  0.06402  0.04757  0.09381  1.0000
  O  Te28      1.0  0.14486  0.13076  0.08826  1.0000
  H   H60       1.0  0.17493  0.06577  0.61497  1.0000
  Mg  Mg14      1.0  0.07669  0.12512  0.23389  1.0000
  C   C113      1.0  0.32190  0.51102  0.92428  1.0000
  C   C114      1.0  0.31778  0.45650  0.81658  1.0000
  C  Sn29      1.0  0.36191  0.42235  0.73041  1.0000
  C  Sn30      1.0  0.41101  0.44329  0.75278  1.0000
  C   C115      1.0  0.41472  0.49788  0.86091  1.0000
  C   C116      1.0  0.37031  0.53170  0.94647  1.0000
  H   H61       1.0  0.28754  0.53718  0.99056  1.0000
  O  Te29      1.0  0.35711  0.36799  0.62324  1.0000
  O  Te30      1.0  0.45574  0.41005  0.66826  1.0000
  H   H62       1.0  0.43029  0.51434  0.02994  1.0000
  Mg  Mg15      1.0  0.42932  0.33880  0.53580  1.0000
  C   C117      1.0  0.08105  0.41413  0.71752  1.0000
  C   C118      1.0  0.13209  0.42591  0.65394  1.0000
  C  Sn31      1.0  0.14368  0.47636  0.57521  1.0000
  C  Sn32      1.0  0.10334  0.51566  0.56007  1.0000
  C   C119      1.0  0.05241  0.50351  0.62419  1.0000
  C   C120      1.0  0.04125  0.45289  0.70270  1.0000
  H   H63       1.0  0.07241  0.37499  0.77834  1.0000
  O  Te31      1.0  0.19487  0.48744  0.51234  1.0000
  O  Te32      1.0  0.11384  0.56641  0.48202  1.0000
  H   H64       1.0  0.00173  0.44381  0.75201  1.0000
  Mg  Mg16      1.0  0.18973  0.56238  0.41633  1.0000
