data_image0
_chemical_formula_structural       H72C108N8O8SnCSn2CSnTe4Mg2SnCSn2CSnTe4Mg2SnCSn2CSnTe4Mg2SnCSn2CSnTe4Mg2SnCSn2CSnTe4Mg2SnCSn2CSnTe4Mg2SnCSn2CSnTe4Mg2SnCSn2CSnTe4Mg2
_chemical_formula_sum              "H72 C124 N8 O8 Sn32 Te32 Mg16"
_cell_length_a       26.682
_cell_length_b       22.6996
_cell_length_c       8.33085
_cell_angle_alpha    85.2791
_cell_angle_beta     116.344
_cell_angle_gamma    88.9608

_symmetry_space_group_name_H-M    'P1'
_space_group_IT_number       1

loop_
  _space_group_symop_operation_xyz
  'x, y, z'

loop_
  _atom_site_type_symbol
  _atom_site_label
  _atom_site_symmetry_multiplicity
  _atom_site_fract_x
  _atom_site_fract_y
  _atom_site_fract_z
  _atom_site_occupancy
  H   H1        1.0  0.34706  0.01326  0.30943  1.0000
  H   H2        1.0  0.43197  0.17089  0.30568  1.0000
  H   H3        1.0  0.41292  0.76132  0.25048  1.0000
  H   H4        1.0  0.49913  0.92015  0.29273  1.0000
  H   H5        1.0  0.29912  0.67948  0.96662  1.0000
  H   H6        1.0  0.49663  0.72135  0.38962  1.0000
  H   H7        1.0  0.57846  0.66670  0.39588  1.0000
  H   H8        1.0  0.62288  0.82460  0.18125  1.0000
  H   H9        1.0  0.53892  0.87910  0.16462  1.0000
  H   H10       1.0  0.34931  0.21205  0.17767  1.0000
  H   H11       1.0  0.26609  0.26794  0.15685  1.0000
  H   H12       1.0  0.22254  0.11493  0.39518  1.0000
  H   H13       1.0  0.30747  0.05902  0.42493  1.0000
  H   H14       1.0  0.18306  0.27471  0.19572  1.0000
  H   H15       1.0  0.64362  0.25980  0.19054  1.0000
  H   H16       1.0  0.51903  0.03284  0.16427  1.0000
  H   H17       1.0  0.29773  0.90414  0.25939  1.0000
  H   H18       1.0  0.20525  0.66075  0.35575  1.0000
  H   H19       1.0  0.84115  0.51305  0.28009  1.0000
  H   H20       1.0  0.91584  0.67112  0.20410  1.0000
  H   H21       1.0  0.92918  0.25861  0.33410  1.0000
  H   H22       1.0  0.99023  0.42351  0.23897  1.0000
  H   H23       1.0  0.80004  0.36003  0.43869  1.0000
  H   H24       1.0  0.72363  0.29898  0.42977  1.0000
  H   H25       1.0  0.78370  0.16103  0.22452  1.0000
  H   H26       1.0  0.85631  0.22422  0.21587  1.0000
  H   H27       1.0  0.96869  0.22559  0.18604  1.0000
  H   H28       1.0  0.05061  0.16881  0.19767  1.0000
  H   H29       1.0  0.15005  0.31867  0.36991  1.0000
  H   H30       1.0  0.06971  0.37419  0.36924  1.0000
  H   H31       1.0  0.65868  0.66145  0.34347  1.0000
  H   H32       1.0  0.76327  0.39360  0.10589  1.0000
  H   H33       1.0  0.78996  0.45925  0.04299  1.0000
  H   H34       1.0  0.75127  0.46334  0.17260  1.0000
  H   H35       1.0  0.09039  0.46753  0.04492  1.0000
  H   H36       1.0  0.03125  0.43108  0.04463  1.0000
  H   H37       1.0  0.04433  0.50382  0.11644  1.0000
  H   H38       1.0  0.34198  0.01129  0.81832  1.0000
  H   H39       1.0  0.42266  0.17161  0.80729  1.0000
  H   H40       1.0  0.41127  0.76194  0.75005  1.0000
  H   H41       1.0  0.49509  0.92277  0.80116  1.0000
  H   H42       1.0  0.25063  0.85952  0.53423  1.0000
  H   H43       1.0  0.17522  0.80298  0.55958  1.0000
  H   H44       1.0  0.37481  0.73885  0.95499  1.0000
  H   H45       1.0  0.57239  0.05727  0.94243  1.0000
  H   H46       1.0  0.65145  0.10984  0.92767  1.0000
  H   H47       1.0  0.53622  0.25233  0.58320  1.0000
  H   H48       1.0  0.45685  0.20002  0.59654  1.0000
  H   H49       1.0  0.17464  0.27312  0.69956  1.0000
  H   H50       1.0  0.63308  0.26068  0.66978  1.0000
  H   H51       1.0  0.50964  0.03633  0.65489  1.0000
  H   H52       1.0  0.29332  0.90101  0.75960  1.0000
  H   H53       1.0  0.20273  0.65920  0.85487  1.0000
  H   H54       1.0  0.83778  0.51621  0.78804  1.0000
  H   H55       1.0  0.91325  0.67267  0.70345  1.0000
  H   H56       1.0  0.92310  0.26002  0.84445  1.0000
  H   H57       1.0  0.98472  0.42291  0.74001  1.0000
  H   H58       1.0  0.78646  0.36674  0.91061  1.0000
  H   H59       1.0  0.70933  0.30653  0.89660  1.0000
  H   H60       1.0  0.78025  0.16119  0.75018  1.0000
  H   H61       1.0  0.85386  0.22289  0.74680  1.0000
  H   H62       1.0  0.95996  0.22705  0.68478  1.0000
  H   H63       1.0  0.04109  0.16871  0.69549  1.0000
  H   H64       1.0  0.14380  0.31563  0.88008  1.0000
  H   H65       1.0  0.06453  0.37223  0.88220  1.0000
  H   H66       1.0  0.65829  0.66741  0.84726  1.0000
  H   H67       1.0  0.75997  0.39902  0.58082  1.0000
  H   H68       1.0  0.78883  0.46587  0.53585  1.0000
  H   H69       1.0  0.74500  0.46709  0.64920  1.0000
  H   H70       1.0  0.09459  0.46282  0.55154  1.0000
  H   H71       1.0  0.03363  0.43081  0.55185  1.0000
  H   H72       1.0  0.05167  0.50256  0.62841  1.0000
  C   C1        1.0  0.38196  0.09646  0.30002  1.0000
  C   C2        1.0  0.38099  0.03479  0.29655  1.0000
  C   C3        1.0  0.42007  0.99942  0.26988  1.0000
  C   C4        1.0  0.46301  0.03055  0.24796  1.0000
  C   C5        1.0  0.46891  0.09146  0.27217  1.0000
  C   C6        1.0  0.42742  0.12388  0.29232  1.0000
  C   C7        1.0  0.41581  0.93406  0.26301  1.0000
  C   C8        1.0  0.36853  0.90287  0.25181  1.0000
  C   C9        1.0  0.36812  0.84047  0.24959  1.0000
  C   C10       1.0  0.41478  0.80885  0.25767  1.0000
  C   C11       1.0  0.46213  0.83725  0.26965  1.0000
  C   C12       1.0  0.46157  0.89871  0.27554  1.0000
  C   C13       1.0  0.33490  0.13098  0.30219  1.0000
  C   C14       1.0  0.51121  0.80443  0.27573  1.0000
  C   C15       1.0  0.52310  0.74394  0.33892  1.0000
  C   C16       1.0  0.56970  0.71338  0.34503  1.0000
  C   C17       1.0  0.60656  0.74215  0.29015  1.0000
  C   C18       1.0  0.59500  0.80270  0.22732  1.0000
  C   C19       1.0  0.54819  0.83290  0.21954  1.0000
  C   C20       1.0  0.32291  0.19085  0.23117  1.0000
  C   C21       1.0  0.27539  0.22211  0.21634  1.0000
  C   C22       1.0  0.23795  0.19475  0.27121  1.0000
  C   C23       1.0  0.25060  0.13539  0.34724  1.0000
  C   C24       1.0  0.29805  0.10441  0.36251  1.0000
  C   C25       1.0  0.18803  0.22807  0.25092  1.0000
  C   C26       1.0  0.65430  0.21384  0.25388  1.0000
  C   C27       1.0  0.19109  0.70562  0.28582  1.0000
  C   C28       1.0  0.87263  0.59634  0.24606  1.0000
  C   C29       1.0  0.87550  0.53435  0.27006  1.0000
  C   C30       1.0  0.92164  0.49775  0.29018  1.0000
  C   C31       1.0  0.96982  0.52821  0.30625  1.0000
  C   C32       1.0  0.96696  0.59047  0.26885  1.0000
  C   C33       1.0  0.91766  0.62340  0.23419  1.0000
  C   C34       1.0  0.91898  0.43171  0.29113  1.0000
  C   C35       1.0  0.87616  0.39838  0.30639  1.0000
  C   C36       1.0  0.87817  0.33553  0.31527  1.0000
  C   C37       1.0  0.92433  0.30653  0.31079  1.0000
  C   C38       1.0  0.96504  0.33713  0.28254  1.0000
  C   C39       1.0  0.96043  0.39901  0.26843  1.0000
  C   C40       1.0  0.83398  0.29852  0.32447  1.0000
  C   C41       1.0  0.01250  0.30470  0.27583  1.0000
  C   C42       1.0  0.79528  0.31773  0.38429  1.0000
  C   C43       1.0  0.75196  0.28341  0.37813  1.0000
  C   C44       1.0  0.74677  0.22653  0.31891  1.0000
  C   C45       1.0  0.78727  0.20495  0.27036  1.0000
  C   C46       1.0  0.82873  0.24081  0.26857  1.0000
  C   C47       1.0  0.00846  0.24621  0.22787  1.0000
  C   C48       1.0  0.05406  0.21413  0.23297  1.0000
  C   C49       1.0  0.10577  0.23986  0.28085  1.0000
  C   C50       1.0  0.10997  0.29861  0.32652  1.0000
  C   C51       1.0  0.06443  0.32996  0.32518  1.0000
  C   C52       1.0  0.65446  0.70877  0.29582  1.0000
  C   C53       1.0  0.78112  0.43613  0.14803  1.0000
  C   C54       1.0  0.04683  0.47406  0.02269  1.0000
  C   C55       1.0  0.37441  0.09584  0.80447  1.0000
  C   C56       1.0  0.37500  0.03404  0.80310  1.0000
  C   C57       1.0  0.41442  0.99984  0.77478  1.0000
  C   C58       1.0  0.45627  0.03219  0.74995  1.0000
  C   C59       1.0  0.46094  0.09324  0.77326  1.0000
  C   C60       1.0  0.41909  0.12446  0.79468  1.0000
  C   C61       1.0  0.41129  0.93442  0.76780  1.0000
  C   C62       1.0  0.36450  0.90205  0.75508  1.0000
  C   C63       1.0  0.36532  0.83970  0.75162  1.0000
  C   C64       1.0  0.41241  0.80940  0.75873  1.0000
  C   C65       1.0  0.45932  0.83900  0.77192  1.0000
  C   C66       1.0  0.45778  0.90030  0.78081  1.0000
  C   C67       1.0  0.50843  0.12439  0.76735  1.0000
  C   C68       1.0  0.31872  0.80523  0.75068  1.0000
  C   C69       1.0  0.26164  0.82211  0.63696  1.0000
  C   C70       1.0  0.21908  0.78994  0.64733  1.0000
  C   C71       1.0  0.23209  0.73851  0.76802  1.0000
  C   C72       1.0  0.28875  0.71958  0.87398  1.0000
  C   C73       1.0  0.33118  0.75271  0.86720  1.0000
  C   C74       1.0  0.56415  0.09961  0.86106  1.0000
  C   C75       1.0  0.60859  0.12872  0.85392  1.0000
  C   C76       1.0  0.59902  0.18398  0.75211  1.0000
  C   C77       1.0  0.54389  0.20950  0.66192  1.0000
  C   C78       1.0  0.49942  0.18031  0.66943  1.0000
  C   C79       1.0  0.17942  0.22627  0.75279  1.0000
  C   C80       1.0  0.64461  0.21590  0.74174  1.0000
  C   C81       1.0  0.18885  0.70417  0.78543  1.0000
  C   C82       1.0  0.86968  0.59864  0.74783  1.0000
  C   C83       1.0  0.87171  0.53670  0.77274  1.0000
  C   C84       1.0  0.91669  0.49931  0.78756  1.0000
  C   C85       1.0  0.96474  0.52909  0.79849  1.0000
  C   C86       1.0  0.96291  0.59133  0.76245  1.0000
  C   C87       1.0  0.91444  0.62496  0.73208  1.0000
  C   C88       1.0  0.91352  0.43322  0.79182  1.0000
  C   C89       1.0  0.87012  0.40065  0.80624  1.0000
  C   C90       1.0  0.87165  0.33768  0.82017  1.0000
  C   C91       1.0  0.91806  0.30789  0.81936  1.0000
  C   C92       1.0  0.95878  0.33761  0.78903  1.0000
  C   C93       1.0  0.95478  0.39947  0.77146  1.0000
  C   C94       1.0  0.82665  0.30132  0.82739  1.0000
  C   C95       1.0  0.00576  0.30439  0.78235  1.0000
  C   C96       1.0  0.78427  0.32272  0.86856  1.0000
  C   C97       1.0  0.74034  0.28875  0.85899  1.0000
  C   C98       1.0  0.73775  0.22998  0.81495  1.0000
  C   C99       1.0  0.78153  0.20652  0.78446  1.0000
  C   C100      1.0  0.82370  0.24183  0.78572  1.0000
  C   C101      1.0  0.00038  0.24647  0.73003  1.0000
  C   C102      1.0  0.04545  0.21365  0.73402  1.0000
  C   C103      1.0  0.09774  0.23828  0.78466  1.0000
  C   C104      1.0  0.10321  0.29654  0.83443  1.0000
  C   C105      1.0  0.05827  0.32852  0.83459  1.0000
  C   C106      1.0  0.65390  0.71475  0.79955  1.0000
  C   C107      1.0  0.77693  0.44107  0.63144  1.0000
  C   C108      1.0  0.05168  0.47238  0.53204  1.0000
  N   N1        1.0  0.70460  0.19027  0.31588  1.0000
  N   N2        1.0  0.15078  0.20457  0.29119  1.0000
  N   N3        1.0  0.13975  0.72605  0.22331  1.0000
  N   N4        1.0  0.69050  0.73277  0.25046  1.0000
  N   N5        1.0  0.69563  0.19367  0.81193  1.0000
  N   N6        1.0  0.14223  0.20260  0.79294  1.0000
  N   N7        1.0  0.13766  0.72512  0.72242  1.0000
  N   N8        1.0  0.69018  0.73885  0.75547  1.0000
  O   O1        1.0  0.49843  0.00240  0.19515  1.0000
  O   O2        1.0  0.32293  0.93321  0.24814  1.0000
  O   O3        1.0  0.02141  0.49969  0.34918  1.0000
  O   O4        1.0  0.83135  0.42752  0.31683  1.0000
  O   O5        1.0  0.49217  0.00512  0.69681  1.0000
  O   O6        1.0  0.31835  0.93096  0.75191  1.0000
  O   O7        1.0  0.01565  0.49972  0.83842  1.0000
  O   O8        1.0  0.82423  0.43081  0.80714  1.0000
  C  Sn1       1.0  0.82681  0.69542  0.33625  1.0000
  C   C109      1.0  0.82866  0.63721  0.29512  1.0000
  C  Sn2       1.0  0.77918  0.60869  0.20668  1.0000
  C  Sn3       1.0  0.72675  0.63900  0.15825  1.0000
  C   C110      1.0  0.72491  0.69717  0.19935  1.0000
  C  Sn4       1.0  0.77438  0.72573  0.28782  1.0000
  O  Te1       1.0  0.87681  0.72307  0.42471  1.0000
  O  Te2       1.0  0.78209  0.55048  0.16704  1.0000
  O  Te3       1.0  0.67673  0.61129  0.06972  1.0000
  O  Te4       1.0  0.77148  0.78391  0.32743  1.0000
  Mg  Mg1       1.0  0.70242  0.53172  0.04491  1.0000
  Mg  Mg2       1.0  0.85112  0.80272  0.44946  1.0000
  C  Sn5       1.0  0.02959  0.71116  0.14388  1.0000
  C   C111      1.0  0.08709  0.70480  0.25800  1.0000
  C  Sn6       1.0  0.11055  0.65300  0.37334  1.0000
  C  Sn7       1.0  0.07583  0.60657  0.37459  1.0000
  C   C112      1.0  0.01837  0.61293  0.26051  1.0000
  C  Sn8       1.0  0.99487  0.66472  0.14513  1.0000
  O  Te5       1.0  0.00704  0.76333  0.02968  1.0000
  O  Te6       1.0  0.16814  0.64768  0.48624  1.0000
  O  Te7       1.0  0.09843  0.55437  0.48894  1.0000
  O  Te8       1.0  0.93732  0.67005  0.03227  1.0000
  Mg  Mg3       1.0  0.17919  0.56807  0.61763  1.0000
  Mg  Mg4       1.0  0.06530  0.71646  0.90076  1.0000
  C  Sn9       1.0  0.58639  0.10842  0.41523  1.0000
  C   C113      1.0  0.52936  0.12598  0.32503  1.0000
  C  Sn10      1.0  0.50967  0.17095  0.18278  1.0000
  C  Sn11      1.0  0.54777  0.19894  0.12950  1.0000
  C   C114      1.0  0.60476  0.18137  0.21965  1.0000
  C  Sn12      1.0  0.62449  0.13641  0.36195  1.0000
  O  Te9       1.0  0.60515  0.06336  0.55706  1.0000
  O  Te10      1.0  0.45246  0.18775  0.09469  1.0000
  O  Te11      1.0  0.66803  0.21086  0.98755  1.0000
  O  Te12      1.0  0.68165  0.11960  0.44999  1.0000
  Mg  Mg5       1.0  0.58627  0.21815  0.90934  1.0000
  Mg  Mg6       1.0  0.68695  0.05602  0.63529  1.0000
  C  Sn13      1.0  0.07685  0.62593  0.92494  1.0000
  C   C115      1.0  0.01952  0.63254  0.80877  1.0000
  C  Sn14      1.0  0.00006  0.66582  0.64157  1.0000
  C  Sn15      1.0  0.03870  0.69305  0.58934  1.0000
  C   C116      1.0  0.09600  0.68643  0.70546  1.0000
  C  Sn16      1.0  0.11550  0.65316  0.87271  1.0000
  O  Te13      1.0  0.95631  0.62562  0.09144  1.0000
  O  Te14      1.0  0.94254  0.67181  0.52775  1.0000
  O  Te15      1.0  0.02013  0.72655  0.42268  1.0000
  O  Te16      1.0  0.17297  0.64716  0.98647  1.0000
  Mg  Mg7       1.0  0.93780  0.72178  0.31458  1.0000
  Mg  Mg8       1.0  0.03871  0.63035  0.19962  1.0000
  C  Sn17      1.0  0.53935  0.74061  0.89312  1.0000
  C   C117      1.0  0.52078  0.79999  0.83455  1.0000
  C  Sn18      1.0  0.54171  0.83378  0.73258  1.0000
  C  Sn19      1.0  0.58202  0.80768  0.68812  1.0000
  C   C118      1.0  0.60056  0.74834  0.74665  1.0000
  C  Sn20      1.0  0.57966  0.71451  0.84866  1.0000
  O  Te17      1.0  0.51785  0.70766  0.99490  1.0000
  O  Te18      1.0  0.52252  0.89306  0.67560  1.0000
  O  Te19      1.0  0.60352  0.84068  0.58626  1.0000
  O  Te20      1.0  0.59882  0.65527  0.90559  1.0000
  Mg  Mg9       1.0  0.56434  0.91969  0.53990  1.0000
  Mg  Mg10      1.0  0.41795  0.66176  0.04121  1.0000
  C  Sn21      1.0  0.82641  0.69838  0.84340  1.0000
  C   C119      1.0  0.82694  0.64025  0.80014  1.0000
  C  Sn22      1.0  0.77676  0.61301  0.71065  1.0000
  C  Sn23      1.0  0.72495  0.64453  0.66329  1.0000
  C   C120      1.0  0.72444  0.70262  0.70651  1.0000
  C  Sn24      1.0  0.77461  0.72990  0.79604  1.0000
  O  Te21      1.0  0.87709  0.72474  0.93289  1.0000
  O  Te22      1.0  0.77835  0.55485  0.66889  1.0000
  O  Te23      1.0  0.67426  0.61811  0.57373  1.0000
  O  Te24      1.0  0.77303  0.78802  0.83776  1.0000
  Mg  Mg11      1.0  0.69816  0.53809  0.54604  1.0000
  Mg  Mg12      1.0  0.85319  0.80484  0.96052  1.0000
  C  Sn25      1.0  0.25920  0.12870  0.90261  1.0000
  C   C121      1.0  0.23963  0.18669  0.82614  1.0000
  C  Sn26      1.0  0.26119  0.21644  0.71917  1.0000
  C  Sn27      1.0  0.30317  0.18761  0.68787  1.0000
  C   C122      1.0  0.32272  0.12965  0.76428  1.0000
  C  Sn28      1.0  0.30118  0.09988  0.87130  1.0000
  O  Te25      1.0  0.09797  0.13299  0.00909  1.0000
  O  Te26      1.0  0.24098  0.27440  0.64423  1.0000
  O  Te27      1.0  0.32533  0.21655  0.58129  1.0000
  O  Te28      1.0  0.32137  0.04194  0.94619  1.0000
  Mg  Mg13      1.0  0.28427  0.29522  0.50875  1.0000
  Mg  Mg14      1.0  0.13903  0.05425  0.08161  1.0000
  C  Sn29      1.0  0.30216  0.73557  0.41904  1.0000
  C   C123      1.0  0.24430  0.74496  0.31412  1.0000
  C  Sn30      1.0  0.22274  0.78362  0.15624  1.0000
  C  Sn31      1.0  0.25979  0.81349  0.10201  1.0000
  C   C124      1.0  0.31762  0.80409  0.20687  1.0000
  C  Sn32      1.0  0.33922  0.76544  0.36480  1.0000
  O  Te29      1.0  0.32279  0.69672  0.57636  1.0000
  O  Te30      1.0  0.16473  0.79230  0.05360  1.0000
  O  Te31      1.0  0.37818  0.81919  0.94454  1.0000
  O  Te32      1.0  0.39719  0.75674  0.46739  1.0000
  Mg  Mg15      1.0  0.29596  0.81639  0.85009  1.0000
  Mg  Mg16      1.0  0.40507  0.69948  0.67086  1.0000
