data_image0
_chemical_formula_structural       H80C112N8O8SnCSn2CSnTe4Mg2SnCSn2CSnTe4Mg2SnCSn2CSnTe4Mg2SnCSn2CSnTe4Mg2SnCSn2CSnTe4Mg2SnCSn2CSnTe4Mg2SnCSn2CSnTe4Mg2SnCSn2CSnTe4Mg2
_chemical_formula_sum              "H80 C128 N8 O8 Sn32 Te32 Mg16"
_cell_length_a       26.5283
_cell_length_b       22.7053
_cell_length_c       8.53695
_cell_angle_alpha    90.9623
_cell_angle_beta     65.143
_cell_angle_gamma    88.6822

_symmetry_space_group_name_H-M    'P1'
_space_group_IT_number       1

loop_
  _space_group_symop_operation_xyz
  'x, y, z'

loop_
  _atom_site_type_symbol
  _atom_site_label
  _atom_site_symmetry_multiplicity
  _atom_site_fract_x
  _atom_site_fract_y
  _atom_site_fract_z
  _atom_site_occupancy
  H   H1        1.0  0.39840  0.06499  0.10746  1.0000
  H   H2        1.0  0.48988  0.22165  0.04144  1.0000
  H   H3        1.0  0.35880  0.11043  0.46567  1.0000
  H   H4        1.0  0.23858  0.32525  0.18353  1.0000
  H   H5        1.0  0.71213  0.30965  0.08680  1.0000
  H   H6        1.0  0.54885  0.97461  0.12302  1.0000
  H   H7        1.0  0.49233  0.81121  0.01583  1.0000
  H   H8        1.0  0.42515  0.77103  0.07822  1.0000
  H   H9        1.0  0.35512  0.70947  0.05017  1.0000
  H   H10       1.0  0.29469  0.85501  0.36052  1.0000
  H   H11       1.0  0.37034  0.91542  0.36879  1.0000
  H   H12       1.0  0.70081  0.71610  0.16506  1.0000
  H   H13       1.0  0.27500  0.69639  0.97717  1.0000
  H   H14       1.0  0.32728  0.93923  0.17614  1.0000
  H   H15       1.0  0.31805  0.01292  0.11874  1.0000
  H   H16       1.0  0.35044  0.00018  0.26298  1.0000
  H   H17       1.0  0.60996  0.05007  0.21060  1.0000
  H   H18       1.0  0.58945  0.97982  0.30572  1.0000
  H   H19       1.0  0.65262  0.01020  0.29313  1.0000
  H   H20       1.0  0.05493  0.47339  0.07213  1.0000
  H   H21       1.0  0.99136  0.31324  0.46861  1.0000
  H   H22       1.0  0.12944  0.42542  0.47134  1.0000
  H   H23       1.0  0.79243  0.36032  0.33040  1.0000
  H   H24       1.0  0.86869  0.42008  0.33470  1.0000
  H   H25       1.0  0.90489  0.56748  0.05427  1.0000
  H   H26       1.0  0.99757  0.72178  0.01357  1.0000
  H   H27       1.0  0.83850  0.63299  0.26775  1.0000
  H   H28       1.0  0.75459  0.69201  0.30306  1.0000
  H   H29       1.0  0.85440  0.80723  0.41824  1.0000
  H   H30       1.0  0.93868  0.74830  0.38714  1.0000
  H   H31       1.0  0.04325  0.72903  0.18126  1.0000
  H   H32       1.0  0.12216  0.78774  0.17310  1.0000
  H   H33       1.0  0.11366  0.55040  0.16742  1.0000
  H   H34       1.0  0.08913  0.48042  0.25920  1.0000
  H   H35       1.0  0.15469  0.50499  0.24306  1.0000
  H   H36       1.0  0.83191  0.44371  0.14972  1.0000
  H   H37       1.0  0.82240  0.51496  0.07681  1.0000
  H   H38       1.0  0.85658  0.50793  0.21851  1.0000
  H   H39       1.0  0.39678  0.06379  0.60593  1.0000
  H   H40       1.0  0.48596  0.22153  0.54816  1.0000
  H   H41       1.0  0.27238  0.16454  0.49501  1.0000
  H   H42       1.0  0.31336  0.30993  0.74246  1.0000
  H   H43       1.0  0.39801  0.25565  0.72143  1.0000
  H   H44       1.0  0.23235  0.31920  0.68827  1.0000
  H   H45       1.0  0.71008  0.31413  0.57823  1.0000
  H   H46       1.0  0.54794  0.97420  0.62710  1.0000
  H   H47       1.0  0.49323  0.81086  0.51209  1.0000
  H   H48       1.0  0.42461  0.77052  0.58368  1.0000
  H   H49       1.0  0.35483  0.70887  0.55263  1.0000
  H   H50       1.0  0.29144  0.85666  0.87235  1.0000
  H   H51       1.0  0.36773  0.91690  0.87514  1.0000
  H   H52       1.0  0.69755  0.71630  0.68366  1.0000
  H   H53       1.0  0.27587  0.69587  0.47676  1.0000
  H   H54       1.0  0.32790  0.93678  0.68242  1.0000
  H   H55       1.0  0.31631  0.00874  0.61850  1.0000
  H   H56       1.0  0.34920  0.00070  0.76299  1.0000
  H   H57       1.0  0.61013  0.04766  0.70582  1.0000
  H   H58       1.0  0.59236  0.97764  0.80542  1.0000
  H   H59       1.0  0.65513  0.01120  0.78575  1.0000
  H   H60       1.0  0.05086  0.47335  0.58576  1.0000
  H   H61       1.0  0.99432  0.31117  0.97156  1.0000
  H   H62       1.0  0.20587  0.36858  0.49747  1.0000
  H   H63       1.0  0.10367  0.21708  0.64545  1.0000
  H   H64       1.0  0.02543  0.27559  0.63402  1.0000
  H   H65       1.0  0.91938  0.27767  0.56623  1.0000
  H   H66       1.0  0.84769  0.21645  0.54526  1.0000
  H   H67       1.0  0.90105  0.56950  0.58103  1.0000
  H   H68       1.0  0.99604  0.72276  0.52529  1.0000
  H   H69       1.0  0.83556  0.63380  0.78220  1.0000
  H   H70       1.0  0.75187  0.69128  0.80925  1.0000
  H   H71       1.0  0.85613  0.80795  0.91043  1.0000
  H   H72       1.0  0.94033  0.74788  0.87208  1.0000
  H   H73       1.0  0.23509  0.67396  0.76330  1.0000
  H   H74       1.0  0.15639  0.62008  0.75692  1.0000
  H   H75       1.0  0.11889  0.54977  0.65809  1.0000
  H   H76       1.0  0.09467  0.47987  0.75036  1.0000
  H   H77       1.0  0.15908  0.50559  0.74002  1.0000
  H   H78       1.0  0.82846  0.44439  0.64472  1.0000
  H   H79       1.0  0.81946  0.51828  0.58769  1.0000
  H   H80       1.0  0.85221  0.50504  0.73069  1.0000
  C   C1        1.0  0.43758  0.08519  0.07653  1.0000
  C   C2        1.0  0.43827  0.14680  0.07160  1.0000
  C   C3        1.0  0.48780  0.17393  0.04548  1.0000
  C   C4        1.0  0.53619  0.14077  0.01688  1.0000
  C   C5        1.0  0.53279  0.07890  0.51430  1.0000
  C   C6        1.0  0.48463  0.04882  0.04467  1.0000
  C   C7        1.0  0.24180  0.27902  0.13856  1.0000
  C   C8        1.0  0.72035  0.27100  0.50943  1.0000
  C   C9        1.0  0.52063  0.95047  0.08623  1.0000
  C   C10       1.0  0.52535  0.88893  0.07457  1.0000
  C   C11       1.0  0.48713  0.85872  0.03327  1.0000
  C   C12       1.0  0.44339  0.88741  0.00990  1.0000
  C   C13       1.0  0.44063  0.95020  0.02085  1.0000
  C   C14       1.0  0.48120  0.98302  0.05036  1.0000
  C   C15       1.0  0.40228  0.85029  0.98136  1.0000
  C   C16       1.0  0.39818  0.79026  0.02466  1.0000
  C   C17       1.0  0.35742  0.75530  0.01261  1.0000
  C   C18       1.0  0.31853  0.77838  0.45992  1.0000
  C   C19       1.0  0.32387  0.83712  0.40799  1.0000
  C   C20       1.0  0.36575  0.87097  0.41472  1.0000
  C   C21       1.0  0.70730  0.76327  0.13812  1.0000
  C   C22       1.0  0.27238  0.74380  0.46416  1.0000
  C   C23       1.0  0.34546  0.98292  0.14932  1.0000
  C   C24       1.0  0.60990  0.02078  0.31153  1.0000
  C   C25       1.0  0.02560  0.44975  0.03954  1.0000
  C   C26       1.0  0.02926  0.38818  0.02959  1.0000
  C   C27       1.0  0.99002  0.35868  0.99141  1.0000
  C   C28       1.0  0.94280  0.39105  0.47500  1.0000
  C   C29       1.0  0.94140  0.45370  0.48693  1.0000
  C   C30       1.0  0.98609  0.48319  0.00606  1.0000
  C   C31       1.0  0.89980  0.35510  0.45399  1.0000
  C   C32       1.0  0.81305  0.28496  0.44479  1.0000
  C   C33       1.0  0.81964  0.34304  0.38628  1.0000
  C   C34       1.0  0.86282  0.37649  0.38730  1.0000
  C   C35       1.0  0.94381  0.58657  0.03415  1.0000
  C   C36       1.0  0.94544  0.64815  0.03573  1.0000
  C   C37       1.0  0.99552  0.67403  0.00897  1.0000
  C   C38       1.0  0.04175  0.64044  0.48967  1.0000
  C   C39       1.0  0.03874  0.57843  0.47750  1.0000
  C   C40       1.0  0.99041  0.54898  0.00083  1.0000
  C   C41       1.0  0.89544  0.68458  0.06235  1.0000
  C   C42       1.0  0.84222  0.66988  0.18420  1.0000
  C   C43       1.0  0.79499  0.70309  0.20415  1.0000
  C   C44       1.0  0.79936  0.75261  0.10223  1.0000
  C   C45       1.0  0.85097  0.76904  0.49692  1.0000
  C   C46       1.0  0.89781  0.73606  0.48072  1.0000
  C   C47       1.0  0.08515  0.71803  0.08569  1.0000
  C   C48       1.0  0.12905  0.75081  0.08294  1.0000
  C   C49       1.0  0.11234  0.51917  0.26555  1.0000
  C   C50       1.0  0.85028  0.48694  0.11122  1.0000
  C   C51       1.0  0.43563  0.08425  0.57824  1.0000
  C   C52       1.0  0.43566  0.14585  0.57401  1.0000
  C   C53       1.0  0.48458  0.17374  0.55152  1.0000
  C   C54       1.0  0.53337  0.14127  0.52391  1.0000
  C   C55       1.0  0.53503  0.07853  0.00837  1.0000
  C   C56       1.0  0.48284  0.04848  0.54910  1.0000
  C   C57       1.0  0.38495  0.17892  0.59116  1.0000
  C   C58       1.0  0.34814  0.15363  0.53026  1.0000
  C   C59       1.0  0.30021  0.18368  0.54449  1.0000
  C   C60       1.0  0.28724  0.24089  0.61961  1.0000
  C   C61       1.0  0.32371  0.26629  0.68048  1.0000
  C   C62       1.0  0.37166  0.23593  0.66707  1.0000
  C   C63       1.0  0.23825  0.27442  0.63065  1.0000
  C   C64       1.0  0.72289  0.26731  0.01371  1.0000
  C   C65       1.0  0.51995  0.95015  0.58916  1.0000
  C   C66       1.0  0.52530  0.88866  0.57501  1.0000
  C   C67       1.0  0.48743  0.85822  0.53290  1.0000
  C   C68       1.0  0.44340  0.88664  0.51119  1.0000
  C   C69       1.0  0.44006  0.94934  0.52362  1.0000
  C   C70       1.0  0.48019  0.98257  0.55421  1.0000
  C   C71       1.0  0.40275  0.84927  0.48176  1.0000
  C   C72       1.0  0.39823  0.78948  0.52751  1.0000
  C   C73       1.0  0.35781  0.75452  0.51331  1.0000
  C   C74       1.0  0.31711  0.77932  0.96393  1.0000
  C   C75       1.0  0.32167  0.83844  0.91522  1.0000
  C   C76       1.0  0.36400  0.87225  0.91933  1.0000
  C   C77       1.0  0.70515  0.76268  0.64749  1.0000
  C   C78       1.0  0.27111  0.74445  0.96814  1.0000
  C   C79       1.0  0.34469  0.98097  0.65126  1.0000
  C   C80       1.0  0.61183  0.01969  0.80710  1.0000
  C   C81       1.0  0.02211  0.45047  0.54862  1.0000
  C   C82       1.0  0.02615  0.38901  0.53197  1.0000
  C   C83       1.0  0.98695  0.36063  0.49124  1.0000
  C   C84       1.0  0.94577  0.38835  0.97393  1.0000
  C   C85       1.0  0.94439  0.45104  0.98128  1.0000
  C   C86       1.0  0.98283  0.48474  0.51655  1.0000
  C   C87       1.0  0.07125  0.35524  0.55173  1.0000
  C   C88       1.0  0.12276  0.38048  0.51596  1.0000
  C   C89       1.0  0.16603  0.34840  0.52948  1.0000
  C   C90       1.0  0.16000  0.28877  0.57541  1.0000
  C   C91       1.0  0.10874  0.26305  0.60971  1.0000
  C   C92       1.0  0.06518  0.29600  0.60131  1.0000
  C   C93       1.0  0.89329  0.29617  0.50839  1.0000
  C   C94       1.0  0.85212  0.26129  0.49970  1.0000
  C   C95       1.0  0.94062  0.58811  0.55551  1.0000
  C   C96       1.0  0.94300  0.64957  0.55428  1.0000
  C   C97       1.0  0.99358  0.67504  0.52365  1.0000
  C   C98       1.0  0.04358  0.63961  0.97708  1.0000
  C   C99       1.0  0.04132  0.57758  0.96513  1.0000
  C   C100      1.0  0.98735  0.55040  0.51643  1.0000
  C   C101      1.0  0.89317  0.68569  0.57868  1.0000
  C   C102      1.0  0.09337  0.66991  0.97003  1.0000
  C   C103      1.0  0.83966  0.67046  0.69758  1.0000
  C   C104      1.0  0.79258  0.70290  0.71311  1.0000
  C   C105      1.0  0.79740  0.75210  0.60967  1.0000
  C   C106      1.0  0.85280  0.76939  0.98766  1.0000
  C   C107      1.0  0.89970  0.73563  0.96718  1.0000
  C   C108      1.0  0.18392  0.73457  0.96867  1.0000
  C   C109      1.0  0.19288  0.68583  0.85522  1.0000
  C   C110      1.0  0.14833  0.65498  0.85334  1.0000
  C   C111      1.0  0.11698  0.51912  0.75834  1.0000
  C   C112      1.0  0.84690  0.48800  0.61726  1.0000
  N   N1        1.0  0.20471  0.25615  0.09731  1.0000
  N   N2        1.0  0.77076  0.24966  0.44255  1.0000
  N   N3        1.0  0.75441  0.78694  0.10508  1.0000
  N   N4        1.0  0.22844  0.76877  0.46259  1.0000
  N   N5        1.0  0.20349  0.25299  0.57665  1.0000
  N   N6        1.0  0.77337  0.24625  0.94680  1.0000
  N   N7        1.0  0.75283  0.78587  0.60818  1.0000
  N   N8        1.0  0.22678  0.76916  0.96868  1.0000
  O   O1        1.0  0.39810  0.98067  0.99859  1.0000
  O   O2        1.0  0.58287  0.04965  0.47997  1.0000
  O   O3        1.0  0.08838  0.54689  0.43559  1.0000
  O   O4        1.0  0.89924  0.48569  0.46579  1.0000
  O   O5        1.0  0.39735  0.97914  0.50073  1.0000
  O   O6        1.0  0.58507  0.04928  0.97460  1.0000
  O   O7        1.0  0.09115  0.54691  0.92801  1.0000
  O   O8        1.0  0.90202  0.48177  0.95841  1.0000
  C  Sn1       1.0  0.34972  0.27355  0.12659  1.0000
  C   C113      1.0  0.30684  0.25492  0.08517  1.0000
  C  Sn2       1.0  0.30092  0.19502  0.05945  1.0000
  C  Sn3       1.0  0.33862  0.15286  0.07557  1.0000
  C   C114      1.0  0.38146  0.17150  0.11699  1.0000
  C  Sn4       1.0  0.38742  0.23139  0.14271  1.0000
  O  Te1       1.0  0.35485  0.33366  0.15174  1.0000
  O  Te2       1.0  0.25774  0.17746  0.01810  1.0000
  O  Te3       1.0  0.33345  0.09272  0.05037  1.0000
  O  Te4       1.0  0.43056  0.24895  0.18407  1.0000
  Mg  Mg1       1.0  0.13245  0.10054  0.99621  1.0000
  Mg  Mg2       1.0  0.42041  0.33582  0.20607  1.0000
  C  Sn5       1.0  0.00703  0.38261  0.97194  1.0000
  C   C115      1.0  0.08950  0.35361  0.00291  1.0000
  C  Sn6       1.0  0.06902  0.30319  0.09774  1.0000
  C  Sn7       1.0  0.10220  0.27115  0.16306  1.0000
  C   C116      1.0  0.15516  0.29020  0.13211  1.0000
  C  Sn8       1.0  0.17567  0.34062  0.03726  1.0000
  O  Te5       1.0  0.02666  0.43315  0.87683  1.0000
  O  Te6       1.0  0.01592  0.28500  0.12698  1.0000
  O  Te7       1.0  0.08253  0.22057  0.25823  1.0000
  O  Te8       1.0  0.22874  0.35882  0.00804  1.0000
  Mg  Mg3       1.0  0.00756  0.21342  0.26393  1.0000
  Mg  Mg4       1.0  0.10166  0.44035  0.87119  1.0000
  C  Sn9       1.0  0.65337  0.87097  0.11589  1.0000
  C   C117      1.0  0.65497  0.81344  0.16970  1.0000
  C  Sn10      1.0  0.61483  0.77376  0.17519  1.0000
  C  Sn11      1.0  0.57222  0.79194  0.12577  1.0000
  C   C118      1.0  0.57064  0.84943  0.07197  1.0000
  C  Sn12      1.0  0.61075  0.88915  0.06646  1.0000
  O  Te9       1.0  0.69392  0.90990  0.11140  1.0000
  O  Te10      1.0  0.61729  0.71648  0.22950  1.0000
  O  Te11      1.0  0.53165  0.75295  0.13030  1.0000
  O  Te12      1.0  0.60832  0.94639  0.01217  1.0000
  Mg  Mg5       1.0  0.55264  0.67960  0.21349  1.0000
  Mg  Mg6       1.0  0.67295  0.98330  0.02804  1.0000
  C  Sn13      1.0  0.57985  0.24340  0.59479  1.0000
  C   C119      1.0  0.58133  0.19305  0.49634  1.0000
  C  Sn14      1.0  0.63133  0.16145  0.40469  1.0000
  C  Sn15      1.0  0.68090  0.18056  0.41168  1.0000
  C   C120      1.0  0.67940  0.23088  0.51011  1.0000
  C  Sn16      1.0  0.62941  0.26251  0.60178  1.0000
  O  Te13      1.0  0.52940  0.27430  0.68538  1.0000
  O  Te14      1.0  0.63178  0.11126  0.30711  1.0000
  O  Te15      1.0  0.73137  0.14961  0.32097  1.0000
  O  Te16      1.0  0.62896  0.31266  0.69933  1.0000
  Mg  Mg7       1.0  0.71074  0.08397  0.20631  1.0000
  Mg  Mg8       1.0  0.55001  0.33997  0.80025  1.0000
  C  Sn17      1.0  0.84022  0.34277  0.83765  1.0000
  C   C121      1.0  0.82532  0.28663  0.90295  1.0000
  C  Sn18      1.0  0.98169  0.25282  0.01430  1.0000
  C  Sn19      1.0  0.01822  0.28576  0.06147  1.0000
  C   C122      1.0  0.89762  0.35181  0.99622  1.0000
  C  Sn20      1.0  0.87674  0.37571  0.88482  1.0000
  O  Te17      1.0  0.81882  0.36575  0.72653  1.0000
  O  Te18      1.0  0.96622  0.19660  0.07788  1.0000
  O  Te19      1.0  0.03961  0.26272  0.17269  1.0000
  O  Te20      1.0  0.89219  0.43189  0.82129  1.0000
  Mg  Mg9       1.0  0.00631  0.18431  0.22544  1.0000
  Mg  Mg10      1.0  0.85211  0.44423  0.67380  1.0000
  C  Sn21      1.0  0.58271  0.24084  0.09595  1.0000
  C   C123      1.0  0.44871  0.20174  0.99284  1.0000
  C  Sn22      1.0  0.49874  0.17063  0.89785  1.0000
  C  Sn23      1.0  0.54835  0.18890  0.90616  1.0000
  C   C124      1.0  0.68234  0.22796  0.00923  1.0000
  C  Sn24      1.0  0.63232  0.25911  0.10425  1.0000
  O  Te21      1.0  0.53222  0.27128  0.18982  1.0000
  O  Te22      1.0  0.49917  0.12174  0.79564  1.0000
  O  Te23      1.0  0.59886  0.15841  0.81216  1.0000
  O  Te24      1.0  0.63188  0.30796  0.20644  1.0000
  Mg  Mg11      1.0  0.57820  0.09462  0.69163  1.0000
  Mg  Mg12      1.0  0.55287  0.33510  0.31056  1.0000
  C  Sn25      1.0  0.15966  0.64655  0.39219  1.0000
  C   C125      1.0  0.10312  0.66006  0.48840  1.0000
  C  Sn26      1.0  0.08561  0.71538  0.57010  1.0000
  C  Sn27      1.0  0.12542  0.75810  0.55525  1.0000
  C   C126      1.0  0.18192  0.74459  0.45907  1.0000
  C  Sn28      1.0  0.19948  0.68927  0.37734  1.0000
  O  Te25      1.0  0.17623  0.59096  0.31160  1.0000
  O  Te26      1.0  0.02885  0.72785  0.66563  1.0000
  O  Te27      1.0  0.10880  0.81371  0.63596  1.0000
  O  Te28      1.0  0.25619  0.67679  0.28184  1.0000
  Mg  Mg13      1.0  0.02684  0.80979  0.75162  1.0000
  Mg  Mg14      1.0  0.25825  0.59488  0.19573  1.0000
  C  Sn29      1.0  0.60182  0.76540  0.62807  1.0000
  C   C127      1.0  0.65475  0.78521  0.59491  1.0000
  C  Sn30      1.0  0.66560  0.84521  0.57596  1.0000
  C  Sn31      1.0  0.62264  0.88628  0.59057  1.0000
  C   C128      1.0  0.56975  0.86648  0.62374  1.0000
  C  Sn32      1.0  0.55886  0.80648  0.64268  1.0000
  O  Te29      1.0  0.59191  0.70522  0.64656  1.0000
  O  Te30      1.0  0.71885  0.86395  0.54280  1.0000
  O  Te31      1.0  0.63259  0.94651  0.57205  1.0000
  O  Te32      1.0  0.50565  0.78773  0.67585  1.0000
  Mg  Mg15      1.0  0.71188  0.95046  0.52792  1.0000
  Mg  Mg16      1.0  0.51256  0.70124  0.69084  1.0000
