data_image0
_chemical_formula_structural       H40C60N8O8SnCSn2CSnTe4Mg2SnCSn2CSnTe4Mg2SnCSn2CSnTe4Mg2SnCSn2CSnTe4Mg2SnCSn2CSnTe4Mg2SnCSn2CSnTe4Mg2SnCSn2CSnTe4Mg2SnCSn2CSnTe4Mg2SnCSn2CSnTe4Mg2SnCSn2CSnTe4Mg2SnCSn2CSnTe4Mg2SnCSn2CSnTe4Mg2SnCSn2CSnTe4Mg2SnCSn2CSnTe4Mg2SnCSn2CSnTe4Mg2SnCSn2CSnTe4Mg2
_chemical_formula_sum              "H40 C92 N8 O8 Sn64 Te64 Mg32"
_cell_length_a       26.682
_cell_length_b       22.6996
_cell_length_c       8.33085
_cell_angle_alpha    85.2791
_cell_angle_beta     116.344
_cell_angle_gamma    88.9608

_symmetry_space_group_name_H-M    'P1'
_space_group_IT_number       1

loop_
  _space_group_symop_operation_xyz
  'x, y, z'

loop_
  _atom_site_type_symbol
  _atom_site_label
  _atom_site_symmetry_multiplicity
  _atom_site_fract_x
  _atom_site_fract_y
  _atom_site_fract_z
  _atom_site_occupancy
  H   H1        1.0  0.34706  0.01326  0.30943  1.0000
  H   H2        1.0  0.43197  0.17089  0.30568  1.0000
  H   H3        1.0  0.41292  0.76132  0.25048  1.0000
  H   H4        1.0  0.49913  0.92015  0.29273  1.0000
  H   H5        1.0  0.18306  0.27471  0.19572  1.0000
  H   H6        1.0  0.64362  0.25980  0.19054  1.0000
  H   H7        1.0  0.51903  0.03284  0.16427  1.0000
  H   H8        1.0  0.29773  0.90414  0.25939  1.0000
  H   H9        1.0  0.20525  0.66075  0.35575  1.0000
  H   H10       1.0  0.84115  0.51305  0.28009  1.0000
  H   H11       1.0  0.91584  0.67112  0.20410  1.0000
  H   H12       1.0  0.92918  0.25861  0.33410  1.0000
  H   H13       1.0  0.99023  0.42351  0.23897  1.0000
  H   H14       1.0  0.65868  0.66145  0.34347  1.0000
  H   H15       1.0  0.76327  0.39360  0.10589  1.0000
  H   H16       1.0  0.78996  0.45925  0.04299  1.0000
  H   H17       1.0  0.75127  0.46334  0.17260  1.0000
  H   H18       1.0  0.09039  0.46753  0.04492  1.0000
  H   H19       1.0  0.03125  0.43108  0.04463  1.0000
  H   H20       1.0  0.04433  0.50382  0.11644  1.0000
  H   H21       1.0  0.34198  0.01129  0.81832  1.0000
  H   H22       1.0  0.42266  0.17161  0.80729  1.0000
  H   H23       1.0  0.41127  0.76194  0.75005  1.0000
  H   H24       1.0  0.49509  0.92277  0.80116  1.0000
  H   H25       1.0  0.17464  0.27312  0.69956  1.0000
  H   H26       1.0  0.63308  0.26068  0.66978  1.0000
  H   H27       1.0  0.50964  0.03633  0.65489  1.0000
  H   H28       1.0  0.29332  0.90101  0.75960  1.0000
  H   H29       1.0  0.20273  0.65920  0.85487  1.0000
  H   H30       1.0  0.83778  0.51621  0.78804  1.0000
  H   H31       1.0  0.91325  0.67267  0.70345  1.0000
  H   H32       1.0  0.92310  0.26002  0.84445  1.0000
  H   H33       1.0  0.98472  0.42291  0.74001  1.0000
  H   H34       1.0  0.65829  0.66741  0.84726  1.0000
  H   H35       1.0  0.75997  0.39902  0.58082  1.0000
  H   H36       1.0  0.78883  0.46587  0.53585  1.0000
  H   H37       1.0  0.74500  0.46709  0.64920  1.0000
  H   H38       1.0  0.09459  0.46282  0.55154  1.0000
  H   H39       1.0  0.03363  0.43081  0.55185  1.0000
  H   H40       1.0  0.05167  0.50256  0.62841  1.0000
  C   C1        1.0  0.38196  0.09646  0.30002  1.0000
  C   C2        1.0  0.38099  0.03479  0.29655  1.0000
  C   C3        1.0  0.42007  0.99942  0.26988  1.0000
  C   C4        1.0  0.46301  0.03055  0.24796  1.0000
  C   C5        1.0  0.46891  0.09146  0.27217  1.0000
  C   C6        1.0  0.42742  0.12388  0.29232  1.0000
  C   C7        1.0  0.41581  0.93406  0.26301  1.0000
  C   C8        1.0  0.36853  0.90287  0.25181  1.0000
  C   C9        1.0  0.36812  0.84047  0.24959  1.0000
  C   C10       1.0  0.41478  0.80885  0.25767  1.0000
  C   C11       1.0  0.46213  0.83725  0.26965  1.0000
  C   C12       1.0  0.46157  0.89871  0.27554  1.0000
  C   C13       1.0  0.18803  0.22807  0.25092  1.0000
  C   C14       1.0  0.65430  0.21384  0.25388  1.0000
  C   C15       1.0  0.19109  0.70562  0.28582  1.0000
  C   C16       1.0  0.87263  0.59634  0.24606  1.0000
  C   C17       1.0  0.87550  0.53435  0.27006  1.0000
  C   C18       1.0  0.92164  0.49775  0.29018  1.0000
  C   C19       1.0  0.96982  0.52821  0.30625  1.0000
  C   C20       1.0  0.96696  0.59047  0.26885  1.0000
  C   C21       1.0  0.91766  0.62340  0.23419  1.0000
  C   C22       1.0  0.91898  0.43171  0.29113  1.0000
  C   C23       1.0  0.87616  0.39838  0.30639  1.0000
  C   C24       1.0  0.87817  0.33553  0.31527  1.0000
  C   C25       1.0  0.92433  0.30653  0.31079  1.0000
  C   C26       1.0  0.96504  0.33713  0.28254  1.0000
  C   C27       1.0  0.96043  0.39901  0.26843  1.0000
  C   C28       1.0  0.65446  0.70877  0.29582  1.0000
  C   C29       1.0  0.78112  0.43613  0.14803  1.0000
  C   C30       1.0  0.04683  0.47406  0.02269  1.0000
  C   C31       1.0  0.37441  0.09584  0.80447  1.0000
  C   C32       1.0  0.37500  0.03404  0.80310  1.0000
  C   C33       1.0  0.41442  0.99984  0.77478  1.0000
  C   C34       1.0  0.45627  0.03219  0.74995  1.0000
  C   C35       1.0  0.46094  0.09324  0.77326  1.0000
  C   C36       1.0  0.41909  0.12446  0.79468  1.0000
  C   C37       1.0  0.41129  0.93442  0.76780  1.0000
  C   C38       1.0  0.36450  0.90205  0.75508  1.0000
  C   C39       1.0  0.36532  0.83970  0.75162  1.0000
  C   C40       1.0  0.41241  0.80940  0.75873  1.0000
  C   C41       1.0  0.45932  0.83900  0.77192  1.0000
  C   C42       1.0  0.45778  0.90030  0.78081  1.0000
  C   C43       1.0  0.17942  0.22627  0.75279  1.0000
  C   C44       1.0  0.64461  0.21590  0.74174  1.0000
  C   C45       1.0  0.18885  0.70417  0.78543  1.0000
  C   C46       1.0  0.86968  0.59864  0.74783  1.0000
  C   C47       1.0  0.87171  0.53670  0.77274  1.0000
  C   C48       1.0  0.91669  0.49931  0.78756  1.0000
  C   C49       1.0  0.96474  0.52909  0.79849  1.0000
  C   C50       1.0  0.96291  0.59133  0.76245  1.0000
  C   C51       1.0  0.91444  0.62496  0.73208  1.0000
  C   C52       1.0  0.91352  0.43322  0.79182  1.0000
  C   C53       1.0  0.87012  0.40065  0.80624  1.0000
  C   C54       1.0  0.87165  0.33768  0.82017  1.0000
  C   C55       1.0  0.91806  0.30789  0.81936  1.0000
  C   C56       1.0  0.95878  0.33761  0.78903  1.0000
  C   C57       1.0  0.95478  0.39947  0.77146  1.0000
  C   C58       1.0  0.65390  0.71475  0.79955  1.0000
  C   C59       1.0  0.77693  0.44107  0.63144  1.0000
  C   C60       1.0  0.05168  0.47238  0.53204  1.0000
  N   N1        1.0  0.70460  0.19027  0.31588  1.0000
  N   N2        1.0  0.15078  0.20457  0.29119  1.0000
  N   N3        1.0  0.13975  0.72605  0.22331  1.0000
  N   N4        1.0  0.69050  0.73277  0.25046  1.0000
  N   N5        1.0  0.69563  0.19367  0.81193  1.0000
  N   N6        1.0  0.14223  0.20260  0.79294  1.0000
  N   N7        1.0  0.13766  0.72512  0.72242  1.0000
  N   N8        1.0  0.69018  0.73885  0.75547  1.0000
  O   O1        1.0  0.49843  0.00240  0.19515  1.0000
  O   O2        1.0  0.32293  0.93321  0.24814  1.0000
  O   O3        1.0  0.02141  0.49969  0.34918  1.0000
  O   O4        1.0  0.83135  0.42752  0.31683  1.0000
  O   O5        1.0  0.49217  0.00512  0.69681  1.0000
  O   O6        1.0  0.31835  0.93096  0.75191  1.0000
  O   O7        1.0  0.01565  0.49972  0.83842  1.0000
  O   O8        1.0  0.82423  0.43081  0.80714  1.0000
  C  Sn1       1.0  0.25251  0.83022  0.17046  1.0000
  C   C61       1.0  0.31038  0.81738  0.26205  1.0000
  C  Sn2       1.0  0.33197  0.76131  0.35270  1.0000
  C  Sn3       1.0  0.29495  0.71713  0.35171  1.0000
  C   C62       1.0  0.23711  0.72998  0.26014  1.0000
  C  Sn4       1.0  0.21548  0.78604  0.16947  1.0000
  O  Te1       1.0  0.23185  0.88657  0.08074  1.0000
  O  Te2       1.0  0.38999  0.74952  0.44337  1.0000
  O  Te3       1.0  0.31565  0.66074  0.44154  1.0000
  O  Te4       1.0  0.15751  0.79783  0.07882  1.0000
  Mg  Mg1       1.0  0.39787  0.66607  0.54572  1.0000
  Mg  Mg2       1.0  0.28864  0.84808  0.97635  1.0000
  C  Sn5       1.0  0.59517  0.81748  0.27052  1.0000
  C   C63       1.0  0.61273  0.75789  0.32921  1.0000
  C  Sn6       1.0  0.57612  0.71796  0.34870  1.0000
  C  Sn7       1.0  0.52078  0.73799  0.30859  1.0000
  C   C64       1.0  0.50323  0.79754  0.24991  1.0000
  C  Sn8       1.0  0.53982  0.83751  0.23041  1.0000
  O  Te5       1.0  0.63248  0.85662  0.25199  1.0000
  O  Te6       1.0  0.59465  0.65861  0.40765  1.0000
  O  Te7       1.0  0.48346  0.69879  0.32718  1.0000
  O  Te8       1.0  0.52132  0.89683  0.17147  1.0000
  Mg  Mg3       1.0  0.52826  0.62227  0.41171  1.0000
  Mg  Mg4       1.0  0.58765  0.93319  0.16728  1.0000
  C  Sn9       1.0  0.27697  0.21335  0.16414  1.0000
  C   C65       1.0  0.23799  0.19458  0.22399  1.0000
  C  Sn10      1.0  0.24982  0.14348  0.34329  1.0000
  C  Sn11      1.0  0.30170  0.11047  0.40413  1.0000
  C   C66       1.0  0.34064  0.12925  0.34431  1.0000
  C  Sn12      1.0  0.32885  0.18034  0.22498  1.0000
  O  Te9       1.0  0.26426  0.26457  0.04488  1.0000
  O  Te10      1.0  0.21018  0.12558  0.40119  1.0000
  O  Te11      1.0  0.31438  0.05922  0.52347  1.0000
  O  Te12      1.0  0.36845  0.19825  0.16711  1.0000
  Mg  Mg5       1.0  0.24688  0.05281  0.56390  1.0000
  Mg  Mg6       1.0  0.33181  0.27103  0.00448  1.0000
  C  Sn13      1.0  0.51366  0.17917  0.11822  1.0000
  C   C67       1.0  0.51533  0.12508  0.21415  1.0000
  C  Sn14      1.0  0.56583  0.10043  0.35321  1.0000
  C  Sn15      1.0  0.61571  0.13050  0.39740  1.0000
  C   C68       1.0  0.61402  0.18456  0.30153  1.0000
  C  Sn16      1.0  0.56353  0.20923  0.16242  1.0000
  O  Te13      1.0  0.60177  0.16981  0.97972  1.0000
  O  Te14      1.0  0.56645  0.04630  0.44715  1.0000
  O  Te15      1.0  0.66668  0.10663  0.53602  1.0000
  O  Te16      1.0  0.56289  0.26333  0.06853  1.0000
  Mg  Mg7       1.0  0.64613  0.03184  0.62481  1.0000
  Mg  Mg8       1.0  0.62231  0.24468  0.89092  1.0000
  C  Sn17      1.0  0.79469  0.30632  0.43880  1.0000
  C   C69       1.0  0.83599  0.29317  0.38498  1.0000
  C  Sn18      1.0  0.83033  0.24689  0.27868  1.0000
  C  Sn19      1.0  0.78237  0.21305  0.22494  1.0000
  C   C70       1.0  0.74110  0.22621  0.27872  1.0000
  C  Sn20      1.0  0.74673  0.27249  0.38506  1.0000
  O  Te17      1.0  0.80122  0.35280  0.54505  1.0000
  O  Te18      1.0  0.87219  0.23457  0.22660  1.0000
  O  Te19      1.0  0.77587  0.16655  0.11861  1.0000
  O  Te20      1.0  0.70491  0.28481  0.43710  1.0000
  Mg  Mg9       1.0  0.84424  0.16688  0.08182  1.0000
  Mg  Mg10      1.0  0.73280  0.35250  0.58180  1.0000
  C  Sn21      1.0  0.07133  0.33298  0.27707  1.0000
  C   C71       1.0  0.01806  0.31355  0.23734  1.0000
  C  Sn22      1.0  0.00861  0.25326  0.23178  1.0000
  C  Sn23      1.0  0.05333  0.21151  0.26675  1.0000
  C   C72       1.0  0.10655  0.23095  0.30647  1.0000
  C  Sn24      1.0  0.11605  0.29123  0.31204  1.0000
  O  Te21      1.0  0.07982  0.39346  0.28191  1.0000
  O  Te22      1.0  0.95499  0.23490  0.19170  1.0000
  O  Te23      1.0  0.04479  0.15099  0.26186  1.0000
  O  Te24      1.0  0.16962  0.30959  0.35211  1.0000
  Mg  Mg11      1.0  0.96433  0.14777  0.20114  1.0000
  Mg  Mg12      1.0  0.16034  0.39671  0.34280  1.0000
  C  Sn25      1.0  0.82681  0.69542  0.33625  1.0000
  C   C73       1.0  0.82866  0.63721  0.29512  1.0000
  C  Sn26      1.0  0.77918  0.60869  0.20668  1.0000
  C  Sn27      1.0  0.72675  0.63900  0.15825  1.0000
  C   C74       1.0  0.72491  0.69717  0.19935  1.0000
  C  Sn28      1.0  0.77438  0.72573  0.28782  1.0000
  O  Te25      1.0  0.87681  0.72307  0.42471  1.0000
  O  Te26      1.0  0.78209  0.55048  0.16704  1.0000
  O  Te27      1.0  0.67673  0.61129  0.06972  1.0000
  O  Te28      1.0  0.77148  0.78391  0.32743  1.0000
  Mg  Mg13      1.0  0.70242  0.53172  0.04491  1.0000
  Mg  Mg14      1.0  0.85112  0.80272  0.44946  1.0000
  C  Sn29      1.0  0.10845  0.62342  0.36386  1.0000
  C   C75       1.0  0.10343  0.67118  0.23952  1.0000
  C  Sn30      1.0  0.05118  0.70026  0.12976  1.0000
  C  Sn31      1.0  0.00294  0.68125  0.14467  1.0000
  C   C76       1.0  0.00797  0.63352  0.26897  1.0000
  C  Sn32      1.0  0.06021  0.60440  0.37877  1.0000
  O  Te29      1.0  0.16110  0.59500  0.47222  1.0000
  O  Te30      1.0  0.04721  0.74789  0.00641  1.0000
  O  Te31      1.0  0.95027  0.70971  0.03617  1.0000
  O  Te32      1.0  0.06419  0.55681  0.50208  1.0000
  Mg  Mg15      1.0  0.10536  0.73920  0.88862  1.0000
  Mg  Mg16      1.0  0.14509  0.53232  0.62000  1.0000
  C  Sn33      1.0  0.25029  0.82824  0.66929  1.0000
  C   C77       1.0  0.30815  0.81534  0.76131  1.0000
  C  Sn34      1.0  0.32965  0.75934  0.85272  1.0000
  C  Sn35      1.0  0.29254  0.71530  0.85207  1.0000
  C   C78       1.0  0.23472  0.72821  0.76007  1.0000
  C  Sn36      1.0  0.21319  0.78420  0.66864  1.0000
  O  Te33      1.0  0.22973  0.88452  0.57881  1.0000
  O  Te34      1.0  0.38765  0.74750  0.94381  1.0000
  O  Te35      1.0  0.31315  0.65899  0.94266  1.0000
  O  Te36      1.0  0.15522  0.79606  0.57757  1.0000
  Mg  Mg17      1.0  0.25633  0.69736  0.04719  1.0000
  Mg  Mg18      1.0  0.14743  0.87933  0.47408  1.0000
  C  Sn37      1.0  0.54818  0.71578  0.79648  1.0000
  C   C79       1.0  0.58870  0.73872  0.74969  1.0000
  C  Sn38      1.0  0.59308  0.79985  0.73013  1.0000
  C  Sn39      1.0  0.55621  0.83887  0.75803  1.0000
  C   C80       1.0  0.51572  0.81594  0.80482  1.0000
  C  Sn40      1.0  0.51131  0.75481  0.82438  1.0000
  O  Te37      1.0  0.54456  0.65452  0.81531  1.0000
  O  Te38      1.0  0.63391  0.82173  0.68321  1.0000
  O  Te39      1.0  0.55986  0.90018  0.73915  1.0000
  O  Te40      1.0  0.47051  0.73292  0.87130  1.0000
  Mg  Mg19      1.0  0.62235  0.90860  0.67360  1.0000
  Mg  Mg20      1.0  0.48205  0.64607  0.88103  1.0000
  C  Sn41      1.0  0.31444  0.20453  0.77550  1.0000
  C   C81       1.0  0.33147  0.14503  0.83784  1.0000
  C  Sn42      1.0  0.29431  0.10603  0.85806  1.0000
  C  Sn43      1.0  0.23894  0.12692  0.81497  1.0000
  C   C82       1.0  0.22193  0.18638  0.75265  1.0000
  C  Sn44      1.0  0.25908  0.22542  0.73241  1.0000
  O  Te41      1.0  0.35230  0.24273  0.75630  1.0000
  O  Te42      1.0  0.31230  0.04675  0.92068  1.0000
  O  Te43      1.0  0.20108  0.08866  0.83423  1.0000
  O  Te44      1.0  0.24110  0.28466  0.66981  1.0000
  Mg  Mg21      1.0  0.24529  0.01186  0.92423  1.0000
  Mg  Mg22      1.0  0.30807  0.31958  0.66611  1.0000
  C  Sn45      1.0  0.50412  0.18158  0.61619  1.0000
  C   C83       1.0  0.50641  0.12753  0.71327  1.0000
  C  Sn46      1.0  0.55739  0.10287  0.84972  1.0000
  C  Sn47      1.0  0.60712  0.13286  0.89007  1.0000
  C   C84       1.0  0.60481  0.18687  0.79304  1.0000
  C  Sn48      1.0  0.55385  0.21157  0.65654  1.0000
  O  Te45      1.0  0.45269  0.20542  0.48035  1.0000
  O  Te46      1.0  0.55863  0.04877  0.94489  1.0000
  O  Te47      1.0  0.51950  0.14214  0.02603  1.0000
  O  Te48      1.0  0.55259  0.26563  0.56143  1.0000
  Mg  Mg23      1.0  0.49971  0.06742  0.11786  1.0000
  Mg  Mg24      1.0  0.47246  0.28021  0.38850  1.0000
  C  Sn49      1.0  0.73888  0.30550  0.81201  1.0000
  C   C85       1.0  0.72964  0.24708  0.77003  1.0000
  C  Sn50      1.0  0.77246  0.21085  0.76962  1.0000
  C  Sn51      1.0  0.82563  0.23346  0.81217  1.0000
  C   C86       1.0  0.83484  0.29184  0.85416  1.0000
  C  Sn52      1.0  0.79204  0.32811  0.85457  1.0000
  O  Te49      1.0  0.69547  0.34092  0.81161  1.0000
  O  Te50      1.0  0.76222  0.15261  0.72715  1.0000
  O  Te51      1.0  0.86904  0.19798  0.81254  1.0000
  O  Te52      1.0  0.80226  0.38632  0.89704  1.0000
  Mg  Mg25      1.0  0.83466  0.12163  0.74584  1.0000
  Mg  Mg26      1.0  0.72987  0.41732  0.87847  1.0000
  C  Sn53      1.0  0.01200  0.22996  0.77882  1.0000
  C   C87       1.0  0.00971  0.28839  0.81774  1.0000
  C  Sn54      1.0  0.05198  0.32575  0.82951  1.0000
  C  Sn55      1.0  0.09748  0.30428  0.80168  1.0000
  C   C88       1.0  0.09975  0.24590  0.76276  1.0000
  C  Sn56      1.0  0.05749  0.20850  0.75100  1.0000
  O  Te53      1.0  0.96927  0.19340  0.76770  1.0000
  O  Te54      1.0  0.04879  0.38398  0.86864  1.0000
  O  Te55      1.0  0.14022  0.34090  0.81284  1.0000
  O  Te56      1.0  0.06067  0.15030  0.71186  1.0000
  Mg  Mg27      1.0  0.11715  0.41675  0.86944  1.0000
  Mg  Mg28      1.0  0.99232  0.11751  0.71094  1.0000
  C  Sn57      1.0  0.82641  0.69838  0.84340  1.0000
  C   C89       1.0  0.82694  0.64025  0.80014  1.0000
  C  Sn58      1.0  0.77676  0.61301  0.71065  1.0000
  C  Sn59      1.0  0.72495  0.64453  0.66329  1.0000
  C   C90       1.0  0.72444  0.70262  0.70651  1.0000
  C  Sn60      1.0  0.77461  0.72990  0.79604  1.0000
  O  Te57      1.0  0.87709  0.72474  0.93289  1.0000
  O  Te58      1.0  0.77835  0.55485  0.66889  1.0000
  O  Te59      1.0  0.67426  0.61811  0.57373  1.0000
  O  Te60      1.0  0.77303  0.78802  0.83776  1.0000
  Mg  Mg29      1.0  0.69816  0.53809  0.54604  1.0000
  Mg  Mg30      1.0  0.85319  0.80484  0.96052  1.0000
  C  Sn61      1.0  0.07685  0.62593  0.92494  1.0000
  C   C91       1.0  0.01952  0.63254  0.80877  1.0000
  C  Sn62      1.0  0.00006  0.66582  0.64157  1.0000
  C  Sn63      1.0  0.03870  0.69305  0.58934  1.0000
  C   C92       1.0  0.09600  0.68643  0.70546  1.0000
  C  Sn64      1.0  0.11550  0.65316  0.87271  1.0000
  O  Te61      1.0  0.95631  0.62562  0.09144  1.0000
  O  Te62      1.0  0.94254  0.67181  0.52775  1.0000
  O  Te63      1.0  0.02013  0.72655  0.42268  1.0000
  O  Te64      1.0  0.17297  0.64716  0.98647  1.0000
  Mg  Mg31      1.0  0.93780  0.72178  0.31458  1.0000
  Mg  Mg32      1.0  0.03871  0.63035  0.19962  1.0000
