data_image0
_chemical_formula_structural       H40C60N8O8C2Sn2C2HTe2HMgC2Sn2C2HTe2HMgC2Sn2C2HTe2HMgC2Sn2C2HTe2HMgC2Sn2C2HTe2HMgC2Sn2C2HTe2HMgC2Sn2C2HTe2HMgC2Sn2C2HTe2HMgC2Sn2C2HTe2HMgC2Sn2C2HTe2HMgC2Sn2C2HTe2HMgC2Sn2C2HTe2HMgC2Sn2C2HTe2HMgC2Sn2C2HTe2HMgC2Sn2C2HTe2HMgC2Sn2C2HTe2HMg
_chemical_formula_sum              "H72 C124 N8 O8 Sn32 Te32 Mg16"
_cell_length_a       26.682
_cell_length_b       22.6996
_cell_length_c       8.33085
_cell_angle_alpha    85.2791
_cell_angle_beta     116.344
_cell_angle_gamma    88.9608

_symmetry_space_group_name_H-M    'P1'
_space_group_IT_number       1

loop_
  _space_group_symop_operation_xyz
  'x, y, z'

loop_
  _atom_site_type_symbol
  _atom_site_label
  _atom_site_symmetry_multiplicity
  _atom_site_fract_x
  _atom_site_fract_y
  _atom_site_fract_z
  _atom_site_occupancy
  H   H1        1.0  0.34706  0.01326  0.30943  1.0000
  H   H2        1.0  0.43197  0.17089  0.30568  1.0000
  H   H3        1.0  0.41292  0.76132  0.25048  1.0000
  H   H4        1.0  0.49913  0.92015  0.29273  1.0000
  H   H5        1.0  0.18306  0.27471  0.19572  1.0000
  H   H6        1.0  0.64362  0.25980  0.19054  1.0000
  H   H7        1.0  0.51903  0.03284  0.16427  1.0000
  H   H8        1.0  0.29773  0.90414  0.25939  1.0000
  H   H9        1.0  0.20525  0.66075  0.35575  1.0000
  H   H10       1.0  0.84115  0.51305  0.28009  1.0000
  H   H11       1.0  0.91584  0.67112  0.20410  1.0000
  H   H12       1.0  0.92918  0.25861  0.33410  1.0000
  H   H13       1.0  0.99023  0.42351  0.23897  1.0000
  H   H14       1.0  0.65868  0.66145  0.34347  1.0000
  H   H15       1.0  0.76327  0.39360  0.10589  1.0000
  H   H16       1.0  0.78996  0.45925  0.04299  1.0000
  H   H17       1.0  0.75127  0.46334  0.17260  1.0000
  H   H18       1.0  0.09039  0.46753  0.04492  1.0000
  H   H19       1.0  0.03125  0.43108  0.04463  1.0000
  H   H20       1.0  0.04433  0.50382  0.11644  1.0000
  H   H21       1.0  0.34198  0.01129  0.81832  1.0000
  H   H22       1.0  0.42266  0.17161  0.80729  1.0000
  H   H23       1.0  0.41127  0.76194  0.75005  1.0000
  H   H24       1.0  0.49509  0.92277  0.80116  1.0000
  H   H25       1.0  0.17464  0.27312  0.69956  1.0000
  H   H26       1.0  0.63308  0.26068  0.66978  1.0000
  H   H27       1.0  0.50964  0.03633  0.65489  1.0000
  H   H28       1.0  0.29332  0.90101  0.75960  1.0000
  H   H29       1.0  0.20273  0.65920  0.85487  1.0000
  H   H30       1.0  0.83778  0.51621  0.78804  1.0000
  H   H31       1.0  0.91325  0.67267  0.70345  1.0000
  H   H32       1.0  0.92310  0.26002  0.84445  1.0000
  H   H33       1.0  0.98472  0.42291  0.74001  1.0000
  H   H34       1.0  0.65829  0.66741  0.84726  1.0000
  H   H35       1.0  0.75997  0.39902  0.58082  1.0000
  H   H36       1.0  0.78883  0.46587  0.53585  1.0000
  H   H37       1.0  0.74500  0.46709  0.64920  1.0000
  H   H38       1.0  0.09459  0.46282  0.55154  1.0000
  H   H39       1.0  0.03363  0.43081  0.55185  1.0000
  H   H40       1.0  0.05167  0.50256  0.62841  1.0000
  C   C1        1.0  0.38196  0.09646  0.30002  1.0000
  C   C2        1.0  0.38099  0.03479  0.29655  1.0000
  C   C3        1.0  0.42007  0.99942  0.26988  1.0000
  C   C4        1.0  0.46301  0.03055  0.24796  1.0000
  C   C5        1.0  0.46891  0.09146  0.27217  1.0000
  C   C6        1.0  0.42742  0.12388  0.29232  1.0000
  C   C7        1.0  0.41581  0.93406  0.26301  1.0000
  C   C8        1.0  0.36853  0.90287  0.25181  1.0000
  C   C9        1.0  0.36812  0.84047  0.24959  1.0000
  C   C10       1.0  0.41478  0.80885  0.25767  1.0000
  C   C11       1.0  0.46213  0.83725  0.26965  1.0000
  C   C12       1.0  0.46157  0.89871  0.27554  1.0000
  C   C13       1.0  0.18803  0.22807  0.25092  1.0000
  C   C14       1.0  0.65430  0.21384  0.25388  1.0000
  C   C15       1.0  0.19109  0.70562  0.28582  1.0000
  C   C16       1.0  0.87263  0.59634  0.24606  1.0000
  C   C17       1.0  0.87550  0.53435  0.27006  1.0000
  C   C18       1.0  0.92164  0.49775  0.29018  1.0000
  C   C19       1.0  0.96982  0.52821  0.30625  1.0000
  C   C20       1.0  0.96696  0.59047  0.26885  1.0000
  C   C21       1.0  0.91766  0.62340  0.23419  1.0000
  C   C22       1.0  0.91898  0.43171  0.29113  1.0000
  C   C23       1.0  0.87616  0.39838  0.30639  1.0000
  C   C24       1.0  0.87817  0.33553  0.31527  1.0000
  C   C25       1.0  0.92433  0.30653  0.31079  1.0000
  C   C26       1.0  0.96504  0.33713  0.28254  1.0000
  C   C27       1.0  0.96043  0.39901  0.26843  1.0000
  C   C28       1.0  0.65446  0.70877  0.29582  1.0000
  C   C29       1.0  0.78112  0.43613  0.14803  1.0000
  C   C30       1.0  0.04683  0.47406  0.02269  1.0000
  C   C31       1.0  0.37441  0.09584  0.80447  1.0000
  C   C32       1.0  0.37500  0.03404  0.80310  1.0000
  C   C33       1.0  0.41442  0.99984  0.77478  1.0000
  C   C34       1.0  0.45627  0.03219  0.74995  1.0000
  C   C35       1.0  0.46094  0.09324  0.77326  1.0000
  C   C36       1.0  0.41909  0.12446  0.79468  1.0000
  C   C37       1.0  0.41129  0.93442  0.76780  1.0000
  C   C38       1.0  0.36450  0.90205  0.75508  1.0000
  C   C39       1.0  0.36532  0.83970  0.75162  1.0000
  C   C40       1.0  0.41241  0.80940  0.75873  1.0000
  C   C41       1.0  0.45932  0.83900  0.77192  1.0000
  C   C42       1.0  0.45778  0.90030  0.78081  1.0000
  C   C43       1.0  0.17942  0.22627  0.75279  1.0000
  C   C44       1.0  0.64461  0.21590  0.74174  1.0000
  C   C45       1.0  0.18885  0.70417  0.78543  1.0000
  C   C46       1.0  0.86968  0.59864  0.74783  1.0000
  C   C47       1.0  0.87171  0.53670  0.77274  1.0000
  C   C48       1.0  0.91669  0.49931  0.78756  1.0000
  C   C49       1.0  0.96474  0.52909  0.79849  1.0000
  C   C50       1.0  0.96291  0.59133  0.76245  1.0000
  C   C51       1.0  0.91444  0.62496  0.73208  1.0000
  C   C52       1.0  0.91352  0.43322  0.79182  1.0000
  C   C53       1.0  0.87012  0.40065  0.80624  1.0000
  C   C54       1.0  0.87165  0.33768  0.82017  1.0000
  C   C55       1.0  0.91806  0.30789  0.81936  1.0000
  C   C56       1.0  0.95878  0.33761  0.78903  1.0000
  C   C57       1.0  0.95478  0.39947  0.77146  1.0000
  C   C58       1.0  0.65390  0.71475  0.79955  1.0000
  C   C59       1.0  0.77693  0.44107  0.63144  1.0000
  C   C60       1.0  0.05168  0.47238  0.53204  1.0000
  N   N1        1.0  0.70460  0.19027  0.31588  1.0000
  N   N2        1.0  0.15078  0.20457  0.29119  1.0000
  N   N3        1.0  0.13975  0.72605  0.22331  1.0000
  N   N4        1.0  0.69050  0.73277  0.25046  1.0000
  N   N5        1.0  0.69563  0.19367  0.81193  1.0000
  N   N6        1.0  0.14223  0.20260  0.79294  1.0000
  N   N7        1.0  0.13766  0.72512  0.72242  1.0000
  N   N8        1.0  0.69018  0.73885  0.75547  1.0000
  O   O1        1.0  0.49843  0.00240  0.19515  1.0000
  O   O2        1.0  0.32293  0.93321  0.24814  1.0000
  O   O3        1.0  0.02141  0.49969  0.34918  1.0000
  O   O4        1.0  0.83135  0.42752  0.31683  1.0000
  O   O5        1.0  0.49217  0.00512  0.69681  1.0000
  O   O6        1.0  0.31835  0.93096  0.75191  1.0000
  O   O7        1.0  0.01565  0.49972  0.83842  1.0000
  O   O8        1.0  0.82423  0.43081  0.80714  1.0000
  C   C61       1.0  0.30619  0.72262  0.38730  1.0000
  C   C62       1.0  0.24815  0.73439  0.29736  1.0000
  C  Sn1       1.0  0.22513  0.78330  0.16889  1.0000
  C  Sn2       1.0  0.26097  0.82105  0.12998  1.0000
  C   C63       1.0  0.31898  0.80888  0.22060  1.0000
  C   C64       1.0  0.34157  0.75982  0.34896  1.0000
  H   H41       1.0  0.32368  0.68465  0.48654  1.0000
  O  Te1       1.0  0.16705  0.79443  0.08033  1.0000
  O  Te2       1.0  0.23907  0.87023  0.00214  1.0000
  H   H42       1.0  0.38651  0.75070  0.41848  1.0000
  Mg  Mg1       1.0  0.29627  0.83375  0.91718  1.0000
  C   C65       1.0  0.58537  0.81639  0.21060  1.0000
  C   C66       1.0  0.60693  0.75874  0.28563  1.0000
  C  Sn3       1.0  0.57782  0.72160  0.35231  1.0000
  C  Sn4       1.0  0.52618  0.74268  0.34346  1.0000
  C   C67       1.0  0.50495  0.80041  0.26803  1.0000
  C   C68       1.0  0.53443  0.83721  0.20176  1.0000
  H   H43       1.0  0.60816  0.84485  0.15924  1.0000
  O  Te3       1.0  0.59996  0.66413  0.42690  1.0000
  O  Te4       1.0  0.49621  0.70649  0.40904  1.0000
  H   H44       1.0  0.51771  0.88183  0.14357  1.0000
  Mg  Mg2       1.0  0.54361  0.63161  0.49838  1.0000
  C   C69       1.0  0.28881  0.22226  0.21225  1.0000
  C   C70       1.0  0.24619  0.20274  0.25392  1.0000
  C  Sn5       1.0  0.24953  0.14499  0.33185  1.0000
  C  Sn6       1.0  0.29646  0.10618  0.36864  1.0000
  C   C71       1.0  0.33889  0.12614  0.32656  1.0000
  C   C72       1.0  0.33512  0.18401  0.24855  1.0000
  H   H45       1.0  0.28591  0.26704  0.15198  1.0000
  O  Te5       1.0  0.20658  0.12620  0.37257  1.0000
  O  Te6       1.0  0.30087  0.04825  0.44653  1.0000
  H   H46       1.0  0.36814  0.19912  0.21641  1.0000
  Mg  Mg3       1.0  0.23161  0.04323  0.47752  1.0000
  C   C73       1.0  0.61257  0.11400  0.38249  1.0000
  C   C74       1.0  0.61168  0.16623  0.27977  1.0000
  C  Sn7       1.0  0.56114  0.19899  0.17312  1.0000
  C  Sn8       1.0  0.51063  0.17897  0.16957  1.0000
  C   C75       1.0  0.51196  0.12668  0.27292  1.0000
  C   C76       1.0  0.56276  0.09424  0.37911  1.0000
  H   H47       1.0  0.65187  0.08891  0.46473  1.0000
  O  Te7       1.0  0.56101  0.25107  0.07127  1.0000
  O  Te8       1.0  0.45954  0.21086  0.06422  1.0000
  H   H48       1.0  0.56344  0.05381  0.45872  1.0000
  Mg  Mg4       1.0  0.61996  0.24594  0.94890  1.0000
  C   C77       1.0  0.78183  0.31673  0.38795  1.0000
  C   C78       1.0  0.82684  0.30221  0.35264  1.0000
  C  Sn9       1.0  0.83043  0.24787  0.28973  1.0000
  C  Sn10      1.0  0.78809  0.20741  0.26174  1.0000
  C   C79       1.0  0.74321  0.22236  0.29735  1.0000
  C   C80       1.0  0.74004  0.27685  0.36032  1.0000
  H   H49       1.0  0.77936  0.35890  0.43658  1.0000
  O  Te9       1.0  0.87570  0.23407  0.25519  1.0000
  O  Te10      1.0  0.79063  0.15280  0.19890  1.0000
  H   H50       1.0  0.70516  0.28809  0.38753  1.0000
  Mg  Mg5       1.0  0.86058  0.15420  0.17125  1.0000
  C   C81       1.0  0.10374  0.31305  0.33015  1.0000
  C   C82       1.0  0.10853  0.25428  0.29773  1.0000
  C  Sn11      1.0  0.06209  0.21971  0.24328  1.0000
  C  Sn12      1.0  0.00994  0.24456  0.22096  1.0000
  C   C83       1.0  0.00558  0.30341  0.25361  1.0000
  C   C84       1.0  0.05232  0.33761  0.30810  1.0000
  H   H51       1.0  0.13989  0.33953  0.37221  1.0000
  O  Te11      1.0  0.06761  0.16106  0.21152  1.0000
  O  Te12      1.0  0.96286  0.21100  0.16660  1.0000
  H   H52       1.0  0.04859  0.38313  0.33308  1.0000
  Mg  Mg6       1.0  0.99140  0.13315  0.13973  1.0000
  C   C85       1.0  0.82255  0.70539  0.28207  1.0000
  C   C86       1.0  0.82730  0.64554  0.25974  1.0000
  C  Sn13      1.0  0.78130  0.61071  0.21702  1.0000
  C  Sn14      1.0  0.72964  0.63640  0.19631  1.0000
  C   C87       1.0  0.72531  0.69633  0.21881  1.0000
  C   C88       1.0  0.77160  0.73077  0.26160  1.0000
  H   H53       1.0  0.85836  0.73206  0.31509  1.0000
  O  Te13      1.0  0.78678  0.55097  0.19524  1.0000
  O  Te14      1.0  0.68300  0.60261  0.15357  1.0000
  H   H54       1.0  0.76790  0.77712  0.27877  1.0000
  Mg  Mg7       1.0  0.71129  0.52316  0.13745  1.0000
  C   C89       1.0  0.00571  0.68409  0.10989  1.0000
  C   C90       1.0  0.01016  0.63360  0.22446  1.0000
  C  Sn15      1.0  0.06216  0.61321  0.36458  1.0000
  C  Sn16      1.0  0.11051  0.64405  0.39019  1.0000
  C   C91       1.0  0.10561  0.69454  0.27492  1.0000
  C   C92       1.0  0.05338  0.71454  0.13509  1.0000
  H   H55       1.0  0.96530  0.69959  0.00176  1.0000
  O  Te15      1.0  0.06586  0.56268  0.47776  1.0000
  O  Te16      1.0  0.16299  0.62465  0.52921  1.0000
  H   H56       1.0  0.04994  0.75366  0.04649  1.0000
  Mg  Mg8       1.0  0.14665  0.55356  0.64808  1.0000
  C   C93       1.0  0.24633  0.81963  0.61828  1.0000
  C   C94       1.0  0.30434  0.81117  0.72148  1.0000
  C  Sn17      1.0  0.32726  0.76268  0.85167  1.0000
  C  Sn18      1.0  0.29132  0.72198  0.87870  1.0000
  C   C95       1.0  0.23334  0.73081  0.77467  1.0000
  C   C96       1.0  0.21086  0.77949  0.64480  1.0000
  H   H57       1.0  0.22892  0.85727  0.51773  1.0000
  O  Te17      1.0  0.38531  0.75491  0.95365  1.0000
  O  Te18      1.0  0.17404  0.70630  0.00786  1.0000
  H   H58       1.0  0.16594  0.78601  0.56484  1.0000
  Mg  Mg9       1.0  0.25592  0.71473  0.11332  1.0000
  C   C97       1.0  0.58379  0.82181  0.71690  1.0000
  C   C98       1.0  0.60568  0.76402  0.78879  1.0000
  C  Sn19      1.0  0.57644  0.72554  0.85116  1.0000
  C  Sn20      1.0  0.52430  0.74540  0.84116  1.0000
  C   C99       1.0  0.50274  0.80328  0.76889  1.0000
  C   C100      1.0  0.53236  0.84142  0.70692  1.0000
  H   H59       1.0  0.60669  0.85132  0.66886  1.0000
  O  Te19      1.0  0.59893  0.66796  0.92265  1.0000
  O  Te20      1.0  0.49419  0.70785  0.90246  1.0000
  H   H60       1.0  0.51538  0.88615  0.65116  1.0000
  Mg  Mg10      1.0  0.54219  0.63336  0.98874  1.0000
  C   C101      1.0  0.27677  0.10294  0.87155  1.0000
  C   C102      1.0  0.31622  0.12057  0.81249  1.0000
  C  Sn21      1.0  0.31289  0.17832  0.73460  1.0000
  C  Sn22      1.0  0.26922  0.21908  0.71571  1.0000
  C   C103      1.0  0.22998  0.20103  0.77534  1.0000
  C   C104      1.0  0.23369  0.14313  0.85303  1.0000
  H   H61       1.0  0.27965  0.05816  0.93176  1.0000
  O  Te21      1.0  0.35265  0.19519  0.67626  1.0000
  O  Te22      1.0  0.26492  0.27708  0.63840  1.0000
  H   H62       1.0  0.20316  0.12950  0.89886  1.0000
  Mg  Mg11      1.0  0.32910  0.27906  0.57950  1.0000
  C   C105      1.0  0.50444  0.19425  0.65576  1.0000
  C   C106      1.0  0.50490  0.13763  0.73637  1.0000
  C  Sn23      1.0  0.55548  0.10431  0.83727  1.0000
  C  Sn24      1.0  0.60649  0.12823  0.85765  1.0000
  C   C107      1.0  0.60560  0.18493  0.77657  1.0000
  C   C108      1.0  0.55474  0.21789  0.67585  1.0000
  H   H63       1.0  0.46510  0.21976  0.57790  1.0000
  O  Te23      1.0  0.55518  0.04781  0.91685  1.0000
  O  Te24      1.0  0.65765  0.09589  0.95783  1.0000
  H   H64       1.0  0.55440  0.26174  0.61354  1.0000
  Mg  Mg12      1.0  0.49651  0.05407  0.04038  1.0000
  C   C109      1.0  0.79330  0.20861  0.77205  1.0000
  C   C110      1.0  0.75218  0.22064  0.82755  1.0000
  C  Sn25      1.0  0.74633  0.27650  0.87845  1.0000
  C  Sn26      1.0  0.78238  0.32105  0.87351  1.0000
  C   C111      1.0  0.82337  0.30858  0.81766  1.0000
  C   C112      1.0  0.82886  0.25253  0.76707  1.0000
  H   H65       1.0  0.79754  0.16525  0.73281  1.0000
  O  Te25      1.0  0.70503  0.28777  0.93362  1.0000
  O  Te26      1.0  0.77744  0.37727  0.92359  1.0000
  H   H66       1.0  0.86069  0.24324  0.72399  1.0000
  Mg  Mg13      1.0  0.71473  0.37122  0.98901  1.0000
  C   C113      1.0  0.03070  0.21398  0.72824  1.0000
  C   C114      1.0  0.08466  0.23127  0.76841  1.0000
  C  Sn27      1.0  0.10041  0.28719  0.82494  1.0000
  C  Sn28      1.0  0.06134  0.32643  0.84147  1.0000
  C   C115      1.0  0.00748  0.30870  0.80108  1.0000
  C   C116      1.0  0.99215  0.25265  0.74457  1.0000
  H   H67       1.0  0.01885  0.17060  0.68461  1.0000
  O  Te27      1.0  0.15448  0.30377  0.86447  1.0000
  O  Te28      1.0  0.07599  0.38257  0.89775  1.0000
  H   H68       1.0  0.95038  0.23926  0.71359  1.0000
  Mg  Mg14      1.0  0.15463  0.38487  0.93600  1.0000
  C   C117      1.0  0.75597  0.61136  0.70221  1.0000
  C   C118      1.0  0.80821  0.62901  0.72275  1.0000
  C  Sn29      1.0  0.82450  0.68580  0.76885  1.0000
  C  Sn30      1.0  0.78771  0.72556  0.79483  1.0000
  C   C119      1.0  0.73555  0.70746  0.77409  1.0000
  C   C120      1.0  0.71967  0.65053  0.72788  1.0000
  H   H69       1.0  0.74369  0.56730  0.66655  1.0000
  O  Te29      1.0  0.87683  0.70273  0.78877  1.0000
  O  Te30      1.0  0.80293  0.78257  0.84104  1.0000
  H   H70       1.0  0.67923  0.63686  0.71210  1.0000
  Mg  Mg15      1.0  0.87862  0.78505  0.85277  1.0000
  C   C121      1.0  0.02618  0.70159  0.59834  1.0000
  C   C122      1.0  0.08309  0.69840  0.71941  1.0000
  C  Sn31      1.0  0.10497  0.65445  0.86454  1.0000
  C  Sn32      1.0  0.06912  0.61296  0.88852  1.0000
  C   C123      1.0  0.01225  0.61650  0.76658  1.0000
  C   C124      1.0  0.99079  0.66068  0.62185  1.0000
  H   H71       1.0  0.00958  0.73574  0.48630  1.0000
  O  Te31      1.0  0.16192  0.65191  0.98427  1.0000
  O  Te32      1.0  0.95082  0.60174  0.03237  1.0000
  H   H72       1.0  0.94673  0.66311  0.52807  1.0000
  Mg  Mg16      1.0  0.03141  0.61651  0.15949  1.0000
