data_image0
_chemical_formula_structural       H32C56N8O8SnCSn2CSnTe4Mg2SnCSn2CSnTe4Mg2SnCSn2CSnTe4Mg2SnCSn2CSnTe4Mg2SnCSn2CSnTe4Mg2SnCSn2CSnTe4Mg2SnCSn2CSnTe4Mg2SnCSn2CSnTe4Mg2SnCSn2CSnTe4Mg2SnCSn2CSnTe4Mg2SnCSn2CSnTe4Mg2SnCSn2CSnTe4Mg2SnCSn2CSnTe4Mg2SnCSn2CSnTe4Mg2SnCSn2CSnTe4Mg2SnCSn2CSnTe4Mg2
_chemical_formula_sum              "H32 C88 N8 O8 Sn64 Te64 Mg32"
_cell_length_a       26.5035
_cell_length_b       22.4851
_cell_length_c       8.05676
_cell_angle_alpha    99.5117
_cell_angle_beta     79.2846
_cell_angle_gamma    89.7092

_symmetry_space_group_name_H-M    'P1'
_space_group_IT_number       1

loop_
  _space_group_symop_operation_xyz
  'x, y, z'

loop_
  _atom_site_type_symbol
  _atom_site_label
  _atom_site_symmetry_multiplicity
  _atom_site_fract_x
  _atom_site_fract_y
  _atom_site_fract_z
  _atom_site_occupancy
  H   H1        1.0  0.51649  0.06537  0.03240  1.0000
  H   H2        1.0  0.94229  0.09106  0.49458  1.0000
  H   H3        1.0  0.66428  0.81544  0.13482  1.0000
  H   H4        1.0  0.73525  0.98500  0.22657  1.0000
  H   H5        1.0  0.73433  0.57237  0.25538  1.0000
  H   H6        1.0  0.81415  0.73545  0.20585  1.0000
  H   H7        1.0  0.82802  0.85474  0.41568  1.0000
  H   H8        1.0  0.61290  0.71528  0.29028  1.0000
  H   H9        1.0  0.50188  0.49111  0.11990  1.0000
  H   H10       1.0  0.97026  0.49942  0.32970  1.0000
  H   H11       1.0  0.16341  0.31211  0.14250  1.0000
  H   H12       1.0  0.24089  0.47866  0.21067  1.0000
  H   H13       1.0  0.22762  0.07075  0.29027  1.0000
  H   H14       1.0  0.31112  0.22673  0.18058  1.0000
  H   H15       1.0  0.33158  0.34614  0.39992  1.0000
  H   H16       1.0  0.10956  0.22092  0.35945  1.0000
  H   H17       1.0  0.52230  0.08202  0.54146  1.0000
  H   H18       1.0  0.94644  0.08984  0.99191  1.0000
  H   H19       1.0  0.66395  0.82259  0.62721  1.0000
  H   H20       1.0  0.73820  0.98972  0.73132  1.0000
  H   H21       1.0  0.72743  0.57818  0.76714  1.0000
  H   H22       1.0  0.81026  0.73800  0.69932  1.0000
  H   H23       1.0  0.82329  0.85497  0.93084  1.0000
  H   H24       1.0  0.60851  0.72452  0.79496  1.0000
  H   H25       1.0  0.49446  0.50070  0.64351  1.0000
  H   H26       1.0  0.96411  0.50008  0.82715  1.0000
  H   H27       1.0  0.16065  0.31462  0.63058  1.0000
  H   H28       1.0  0.23443  0.48335  0.71001  1.0000
  H   H29       1.0  0.23177  0.07461  0.77784  1.0000
  H   H30       1.0  0.31007  0.23373  0.66430  1.0000
  H   H31       1.0  0.32343  0.35254  0.91297  1.0000
  H   H32       1.0  0.10957  0.21935  0.84683  1.0000
  C   C1        1.0  0.69272  0.90406  0.18492  1.0000
  C   C2        1.0  0.69451  0.84149  0.18158  1.0000
  C   C3        1.0  0.73330  0.81136  0.23641  1.0000
  C   C4        1.0  0.77297  0.84722  0.29120  1.0000
  C   C5        1.0  0.77557  0.90886  0.27540  1.0000
  C   C6        1.0  0.73450  0.93677  0.22775  1.0000
  C   C7        1.0  0.73241  0.74557  0.24021  1.0000
  C   C8        1.0  0.68623  0.71374  0.26284  1.0000
  C   C9        1.0  0.68731  0.65105  0.26619  1.0000
  C   C10       1.0  0.73441  0.62050  0.25167  1.0000
  C   C11       1.0  0.78081  0.65037  0.23185  1.0000
  C   C12       1.0  0.77853  0.71193  0.22215  1.0000
  C   C13       1.0  0.51021  0.02694  0.10160  1.0000
  C   C14       1.0  0.50139  0.52053  0.24363  1.0000
  C   C15       1.0  0.95071  0.04501  0.42186  1.0000
  C   C16       1.0  0.97229  0.52576  0.22529  1.0000
  C   C17       1.0  0.19477  0.39987  0.18180  1.0000
  C   C18       1.0  0.19470  0.33755  0.18431  1.0000
  C   C19       1.0  0.23295  0.30665  0.23900  1.0000
  C   C20       1.0  0.27454  0.34056  0.28565  1.0000
  C   C21       1.0  0.27907  0.40153  0.26377  1.0000
  C   C22       1.0  0.23830  0.43084  0.21773  1.0000
  C   C23       1.0  0.22990  0.24152  0.25041  1.0000
  C   C24       1.0  0.18287  0.21348  0.29762  1.0000
  C   C25       1.0  0.18227  0.15146  0.31050  1.0000
  C   C26       1.0  0.22891  0.11826  0.27896  1.0000
  C   C27       1.0  0.27619  0.14428  0.23284  1.0000
  C   C28       1.0  0.27514  0.20536  0.21646  1.0000
  C   C29       1.0  0.69412  0.91034  0.68216  1.0000
  C   C30       1.0  0.69420  0.84761  0.67739  1.0000
  C   C31       1.0  0.73144  0.81601  0.73516  1.0000
  C   C32       1.0  0.77142  0.85017  0.79421  1.0000
  C   C33       1.0  0.77581  0.91190  0.78118  1.0000
  C   C34       1.0  0.73611  0.94142  0.73051  1.0000
  C   C35       1.0  0.72878  0.75034  0.74014  1.0000
  C   C36       1.0  0.68187  0.72005  0.76657  1.0000
  C   C37       1.0  0.68158  0.65770  0.77624  1.0000
  C   C38       1.0  0.72837  0.62607  0.76024  1.0000
  C   C39       1.0  0.77551  0.65433  0.73497  1.0000
  C   C40       1.0  0.77423  0.71557  0.72105  1.0000
  C   C41       1.0  0.51532  0.04052  0.59675  1.0000
  C   C42       1.0  0.49324  0.53048  0.76730  1.0000
  C   C43       1.0  0.95411  0.04365  0.91965  1.0000
  C   C44       1.0  0.96653  0.52741  0.72476  1.0000
  C   C45       1.0  0.19035  0.40326  0.67517  1.0000
  C   C46       1.0  0.19125  0.34075  0.67486  1.0000
  C   C47       1.0  0.22988  0.31062  0.72965  1.0000
  C   C48       1.0  0.27011  0.34574  0.78218  1.0000
  C   C49       1.0  0.27385  0.40700  0.76287  1.0000
  C   C50       1.0  0.23300  0.43528  0.71441  1.0000
  C   C51       1.0  0.22869  0.24520  0.73802  1.0000
  C   C52       1.0  0.18273  0.21513  0.78461  1.0000
  C   C53       1.0  0.18410  0.15317  0.79799  1.0000
  C   C54       1.0  0.23170  0.12207  0.76603  1.0000
  C   C55       1.0  0.27806  0.14999  0.71866  1.0000
  C   C56       1.0  0.27499  0.21095  0.70250  1.0000
  N   N1        1.0  0.46514  0.01148  0.17035  1.0000
  N   N2        1.0  0.99667  0.02303  0.35852  1.0000
  N   N3        1.0  0.46121  0.52716  0.36480  1.0000
  N   N4        1.0  0.01456  0.52875  0.11705  1.0000
  N   N5        1.0  0.46991  0.02272  0.65297  1.0000
  N   N6        1.0  0.99988  0.02132  0.85384  1.0000
  N   N7        1.0  0.45213  0.53775  0.88486  1.0000
  N   N8        1.0  0.00896  0.53100  0.61785  1.0000
  O   O1        1.0  0.80844  0.82201  0.36609  1.0000
  O   O2        1.0  0.64016  0.74421  0.27580  1.0000
  O   O3        1.0  0.31023  0.31399  0.35739  1.0000
  O   O4        1.0  0.13758  0.24718  0.32569  1.0000
  O   O5        1.0  0.80555  0.82294  0.86981  1.0000
  O   O6        1.0  0.63674  0.75199  0.77665  1.0000
  O   O7        1.0  0.30515  0.31972  0.85741  1.0000
  O   O8        1.0  0.13647  0.24676  0.81114  1.0000
  C  Sn1       1.0  0.86452  0.53159  0.27437  1.0000
  C   C57       1.0  0.91395  0.54440  0.19620  1.0000
  C  Sn2       1.0  0.92340  0.59975  0.14128  1.0000
  C  Sn3       1.0  0.88259  0.64322  0.16510  1.0000
  C   C58       1.0  0.83320  0.63040  0.24326  1.0000
  C  Sn4       1.0  0.82372  0.57505  0.29819  1.0000
  O  Te1       1.0  0.85596  0.47596  0.32828  1.0000
  O  Te2       1.0  0.97313  0.61153  0.06341  1.0000
  O  Te3       1.0  0.89119  0.69888  0.11111  1.0000
  O  Te4       1.0  0.77402  0.56327  0.37605  1.0000
  Mg  Mg1       1.0  0.96555  0.69384  0.01184  1.0000
  Mg  Mg2       1.0  0.78156  0.48099  0.42774  1.0000
  C  Sn5       1.0  0.55303  0.62421  0.36405  1.0000
  C   C59       1.0  0.54575  0.57228  0.25047  1.0000
  C  Sn6       1.0  0.58793  0.53717  0.15272  1.0000
  C  Sn7       1.0  0.63845  0.55431  0.16890  1.0000
  C   C60       1.0  0.64571  0.60621  0.28243  1.0000
  C  Sn8       1.0  0.60355  0.64135  0.38022  1.0000
  O  Te5       1.0  0.51030  0.65863  0.46050  1.0000
  O  Te6       1.0  0.57968  0.48545  0.04000  1.0000
  O  Te7       1.0  0.68119  0.51985  0.07232  1.0000
  O  Te8       1.0  0.61177  0.69303  0.49291  1.0000
  Mg  Mg3       1.0  0.59343  0.51285  0.93639  1.0000
  Mg  Mg4       1.0  0.54128  0.72520  0.59664  1.0000
  C  Sn9       1.0  0.88226  0.91657  0.28574  1.0000
  C   C61       1.0  0.83014  0.93255  0.34290  1.0000
  C  Sn10      1.0  0.81459  0.99210  0.41561  1.0000
  C  Sn11      1.0  0.85621  0.03662  0.43143  1.0000
  C   C62       1.0  0.90399  0.02065  0.37427  1.0000
  C  Sn12      1.0  0.91958  0.96110  0.30156  1.0000
  O  Te9       1.0  0.89693  0.85677  0.21346  1.0000
  O  Te10      1.0  0.76226  0.00698  0.47188  1.0000
  O  Te11      1.0  0.84150  0.09647  0.50379  1.0000
  O  Te12      1.0  0.97187  0.94622  0.24529  1.0000
  Mg  Mg5       1.0  0.76566  0.09453  0.56142  1.0000
  Mg  Mg6       1.0  0.97282  0.85869  0.15566  1.0000
  C  Sn13      1.0  0.64154  0.00658  0.11486  1.0000
  C   C63       1.0  0.64543  0.95488  0.18769  1.0000
  C  Sn14      1.0  0.60352  0.91785  0.21388  1.0000
  C  Sn15      1.0  0.55677  0.93279  0.16618  1.0000
  C   C64       1.0  0.55290  0.98445  0.09337  1.0000
  C  Sn16      1.0  0.59909  0.02151  0.06716  1.0000
  O  Te13      1.0  0.68823  0.04294  0.08985  1.0000
  O  Te14      1.0  0.60833  0.86641  0.28697  1.0000
  O  Te15      1.0  0.51437  0.89637  0.19126  1.0000
  O  Te16      1.0  0.53753  0.13247  0.99409  1.0000
  Mg  Mg7       1.0  0.53981  0.83108  0.29522  1.0000
  Mg  Mg8       1.0  0.60602  0.16781  0.98570  1.0000
  C  Sn17      1.0  0.35997  0.01871  0.22925  1.0000
  C   C65       1.0  0.40827  0.03154  0.14187  1.0000
  C  Sn18      1.0  0.41709  0.08822  0.09498  1.0000
  C  Sn19      1.0  0.37682  0.13304  0.13638  1.0000
  C   C66       1.0  0.32856  0.12020  0.22372  1.0000
  C  Sn20      1.0  0.31970  0.06352  0.27064  1.0000
  O  Te17      1.0  0.34771  0.96173  0.27488  1.0000
  O  Te18      1.0  0.46570  0.09999  0.00764  1.0000
  O  Te19      1.0  0.38481  0.19004  0.09066  1.0000
  O  Te20      1.0  0.27113  0.05175  0.35795  1.0000
  Mg  Mg9       1.0  0.40087  0.24397  0.97307  1.0000
  Mg  Mg10      1.0  0.27484  0.96735  0.39267  1.0000
  C  Sn21      1.0  0.04794  0.13062  0.45066  1.0000
  C   C67       1.0  0.03749  0.07618  0.35377  1.0000
  C  Sn22      1.0  0.07761  0.03763  0.25668  1.0000
  C  Sn23      1.0  0.12927  0.05383  0.25651  1.0000
  C   C68       1.0  0.13970  0.10824  0.35338  1.0000
  C  Sn24      1.0  0.09960  0.14682  0.45049  1.0000
  O  Te21      1.0  0.00722  0.16846  0.54678  1.0000
  O  Te22      1.0  0.06190  0.98344  0.16079  1.0000
  O  Te23      1.0  0.17000  0.01593  0.16028  1.0000
  O  Te24      1.0  0.11098  0.20097  0.54636  1.0000
  Mg  Mg11      1.0  0.13061  0.94696  0.05061  1.0000
  Mg  Mg12      1.0  0.04231  0.23747  0.65665  1.0000
  C  Sn25      1.0  0.35825  0.50812  0.46762  1.0000
  C   C69       1.0  0.40895  0.48942  0.39327  1.0000
  C  Sn26      1.0  0.41940  0.44337  0.25088  1.0000
  C  Sn27      1.0  0.37832  0.41545  0.18127  1.0000
  C   C70       1.0  0.32766  0.43416  0.25559  1.0000
  C  Sn28      1.0  0.31717  0.48020  0.39801  1.0000
  O  Te25      1.0  0.34870  0.55425  0.60991  1.0000
  O  Te26      1.0  0.47040  0.42543  0.17881  1.0000
  O  Te27      1.0  0.38791  0.36929  0.03888  1.0000
  O  Te28      1.0  0.26620  0.49815  0.47005  1.0000
  Mg  Mg13      1.0  0.40706  0.42022  0.98597  1.0000
  Mg  Mg14      1.0  0.27273  0.56292  0.66282  1.0000
  C  Sn29      1.0  0.14322  0.50446  0.12516  1.0000
  C   C71       1.0  0.14771  0.45017  0.18517  1.0000
  C  Sn30      1.0  0.10610  0.41237  0.20384  1.0000
  C  Sn31      1.0  0.05902  0.42917  0.16155  1.0000
  C   C72       1.0  0.05454  0.48342  0.10155  1.0000
  C  Sn32      1.0  0.09614  0.52125  0.08287  1.0000
  O  Te29      1.0  0.18532  0.54154  0.10749  1.0000
  O  Te30      1.0  0.11151  0.35833  0.26413  1.0000
  O  Te31      1.0  0.01690  0.39203  0.17928  1.0000
  O  Te32      1.0  0.09074  0.57526  0.02259  1.0000
  Mg  Mg15      1.0  0.04318  0.32297  0.26628  1.0000
  Mg  Mg16      1.0  0.15905  0.61064  0.02031  1.0000
  C  Sn33      1.0  0.85891  0.53308  0.76684  1.0000
  C   C73       1.0  0.90865  0.54711  0.69509  1.0000
  C  Sn34      1.0  0.91831  0.60362  0.64791  1.0000
  C  Sn35      1.0  0.87739  0.64703  0.67306  1.0000
  C   C74       1.0  0.82769  0.63299  0.74479  1.0000
  C  Sn36      1.0  0.81800  0.57648  0.79198  1.0000
  O  Te33      1.0  0.85015  0.47630  0.81306  1.0000
  O  Te34      1.0  0.96836  0.61661  0.57637  1.0000
  O  Te35      1.0  0.88620  0.70384  0.62675  1.0000
  O  Te36      1.0  0.76799  0.56350  0.86351  1.0000
  Mg  Mg17      1.0  0.96096  0.70021  0.53418  1.0000
  Mg  Mg18      1.0  0.77534  0.47992  0.90583  1.0000
  C  Sn37      1.0  0.54642  0.63460  0.87913  1.0000
  C   C75       1.0  0.53845  0.58114  0.77281  1.0000
  C  Sn38      1.0  0.58016  0.54386  0.68136  1.0000
  C  Sn39      1.0  0.63090  0.56034  0.69657  1.0000
  C   C76       1.0  0.63884  0.61377  0.80286  1.0000
  C  Sn40      1.0  0.59715  0.65108  0.89434  1.0000
  O  Te37      1.0  0.50415  0.67119  0.96937  1.0000
  O  Te38      1.0  0.57124  0.49064  0.57582  1.0000
  O  Te39      1.0  0.67318  0.52370  0.60621  1.0000
  O  Te40      1.0  0.60606  0.70426  0.99985  1.0000
  Mg  Mg19      1.0  0.64133  0.45572  0.47893  1.0000
  Mg  Mg20      1.0  0.59278  0.67965  0.09686  1.0000
  C  Sn41      1.0  0.81862  0.02004  0.90407  1.0000
  C   C77       1.0  0.81715  0.96345  0.80305  1.0000
  C  Sn42      1.0  0.86096  0.92518  0.75493  1.0000
  C  Sn43      1.0  0.90721  0.94385  0.80899  1.0000
  C   C78       1.0  0.90867  0.00040  0.90997  1.0000
  C  Sn44      1.0  0.86487  0.03871  0.95813  1.0000
  O  Te41      1.0  0.77866  0.05756  0.95067  1.0000
  O  Te42      1.0  0.85855  0.86883  0.65384  1.0000
  O  Te43      1.0  0.95149  0.90628  0.76230  1.0000
  O  Te44      1.0  0.92834  0.03547  0.05918  1.0000
  Mg  Mg21      1.0  0.92901  0.83377  0.62354  1.0000
  Mg  Mg22      1.0  0.85791  0.07055  0.08962  1.0000
  C  Sn45      1.0  0.56257  0.95256  0.73416  1.0000
  C   C79       1.0  0.56043  0.00484  0.66260  1.0000
  C  Sn46      1.0  0.60450  0.02445  0.56538  1.0000
  C  Sn47      1.0  0.65169  0.99108  0.53903  1.0000
  C   C80       1.0  0.65382  0.93883  0.61054  1.0000
  C  Sn48      1.0  0.60976  0.91919  0.70782  1.0000
  O  Te45      1.0  0.51803  0.93380  0.83090  1.0000
  O  Te46      1.0  0.60571  0.07686  0.49518  1.0000
  O  Te47      1.0  0.69625  0.00989  0.44221  1.0000
  O  Te48      1.0  0.61284  0.86681  0.77796  1.0000
  Mg  Mg23      1.0  0.67689  0.08413  0.37299  1.0000
  Mg  Mg24      1.0  0.54169  0.85949  0.90009  1.0000
  C  Sn49      1.0  0.38271  0.12418  0.54717  1.0000
  C   C81       1.0  0.33504  0.11025  0.63654  1.0000
  C  Sn50      1.0  0.33211  0.07056  0.75405  1.0000
  C  Sn51      1.0  0.37347  0.04427  0.78293  1.0000
  C   C82       1.0  0.42541  0.05821  0.69361  1.0000
  C  Sn52      1.0  0.42838  0.09789  0.57605  1.0000
  O  Te49      1.0  0.38472  0.16397  0.43031  1.0000
  O  Te50      1.0  0.28401  0.05731  0.84182  1.0000
  O  Te51      1.0  0.37142  0.00445  0.89990  1.0000
  O  Te52      1.0  0.47644  0.11115  0.48833  1.0000
  Mg  Mg25      1.0  0.29687  0.00050  0.98816  1.0000
  Mg  Mg26      1.0  0.45932  0.16797  0.34204  1.0000
  C  Sn53      1.0  0.10024  0.02598  0.76141  1.0000
  C   C83       1.0  0.05438  0.04141  0.87894  1.0000
  C  Sn54      1.0  0.04940  0.10007  0.97043  1.0000
  C  Sn55      1.0  0.08671  0.14424  0.94382  1.0000
  C   C84       1.0  0.13252  0.12881  0.82633  1.0000
  C  Sn56      1.0  0.14185  0.07016  0.73480  1.0000
  O  Te53      1.0  0.10871  0.96707  0.67136  1.0000
  O  Te54      1.0  0.06006  0.05486  0.08729  1.0000
  O  Te55      1.0  0.13498  0.14364  0.03400  1.0000
  O  Te56      1.0  0.18793  0.05581  0.61799  1.0000
  Mg  Mg27      1.0  0.06625  0.14124  0.17911  1.0000
  Mg  Mg28      1.0  0.17747  0.96946  0.52604  1.0000
  C  Sn57      1.0  0.34851  0.51797  0.97242  1.0000
  C   C85       1.0  0.39987  0.49969  0.90771  1.0000
  C  Sn58      1.0  0.41259  0.45216  0.77007  1.0000
  C  Sn59      1.0  0.37316  0.42230  0.69546  1.0000
  C   C86       1.0  0.32184  0.44059  0.76014  1.0000
  C  Sn60      1.0  0.30908  0.48811  0.89781  1.0000
  O  Te57      1.0  0.39346  0.50605  0.11010  1.0000
  O  Te58      1.0  0.46420  0.43467  0.70764  1.0000
  O  Te59      1.0  0.38502  0.37463  0.55768  1.0000
  O  Te60      1.0  0.25750  0.50561  0.96021  1.0000
  Mg  Mg29      1.0  0.46094  0.36736  0.51795  1.0000
  Mg  Mg30      1.0  0.31750  0.51338  0.14983  1.0000
  C  Sn61      1.0  0.05788  0.44378  0.75009  1.0000
  C   C87       1.0  0.05290  0.49495  0.67597  1.0000
  C  Sn62      1.0  0.09490  0.51459  0.56895  1.0000
  C  Sn63      1.0  0.14287  0.48239  0.53520  1.0000
  C   C88       1.0  0.14783  0.43124  0.60928  1.0000
  C  Sn64      1.0  0.10585  0.41157  0.71635  1.0000
  O  Te61      1.0  0.01539  0.42496  0.85668  1.0000
  O  Te62      1.0  0.08898  0.56589  0.49636  1.0000
  O  Te63      1.0  0.18538  0.50126  0.42852  1.0000
  O  Te64      1.0  0.11175  0.36030  0.78888  1.0000
  Mg  Mg31      1.0  0.15815  0.57372  0.35974  1.0000
  Mg  Mg32      1.0  0.04260  0.35242  0.92545  1.0000
