data_image0
_chemical_formula_structural       H72C108N8O8C2Sn2C2HTe2HMgC2Sn2C2HTe2HMgC2Sn2C2HTe2HMgC2Sn2C2HTe2HMgC2Sn2C2HTe2HMgC2Sn2C2HTe2HMgC2Sn2C2HTe2HMgC2Sn2C2HTe2HMg
_chemical_formula_sum              "H88 C140 N8 O8 Sn16 Te16 Mg8"
_cell_length_a       26.682
_cell_length_b       22.6996
_cell_length_c       8.33085
_cell_angle_alpha    85.2791
_cell_angle_beta     116.344
_cell_angle_gamma    88.9608

_symmetry_space_group_name_H-M    'P1'
_space_group_IT_number       1

loop_
  _space_group_symop_operation_xyz
  'x, y, z'

loop_
  _atom_site_type_symbol
  _atom_site_label
  _atom_site_symmetry_multiplicity
  _atom_site_fract_x
  _atom_site_fract_y
  _atom_site_fract_z
  _atom_site_occupancy
  H   H1        1.0  0.34706  0.01326  0.30943  1.0000
  H   H2        1.0  0.43197  0.17089  0.30568  1.0000
  H   H3        1.0  0.41292  0.76132  0.25048  1.0000
  H   H4        1.0  0.49913  0.92015  0.29273  1.0000
  H   H5        1.0  0.25252  0.86190  0.03617  1.0000
  H   H6        1.0  0.17740  0.80517  0.06116  1.0000
  H   H7        1.0  0.29912  0.67948  0.96662  1.0000
  H   H8        1.0  0.37684  0.74046  0.45331  1.0000
  H   H9        1.0  0.49663  0.72135  0.38962  1.0000
  H   H10       1.0  0.57846  0.66670  0.39588  1.0000
  H   H11       1.0  0.62288  0.82460  0.18125  1.0000
  H   H12       1.0  0.53892  0.87910  0.16462  1.0000
  H   H13       1.0  0.18306  0.27471  0.19572  1.0000
  H   H14       1.0  0.64362  0.25980  0.19054  1.0000
  H   H15       1.0  0.51903  0.03284  0.16427  1.0000
  H   H16       1.0  0.29773  0.90414  0.25939  1.0000
  H   H17       1.0  0.20525  0.66075  0.35575  1.0000
  H   H18       1.0  0.84115  0.51305  0.28009  1.0000
  H   H19       1.0  0.91584  0.67112  0.20410  1.0000
  H   H20       1.0  0.92918  0.25861  0.33410  1.0000
  H   H21       1.0  0.99023  0.42351  0.23897  1.0000
  H   H22       1.0  0.86791  0.71170  0.31264  1.0000
  H   H23       1.0  0.78809  0.76918  0.31120  1.0000
  H   H24       1.0  0.68836  0.61846  0.16703  1.0000
  H   H25       1.0  0.76626  0.56208  0.15720  1.0000
  H   H26       1.0  0.65868  0.66145  0.34347  1.0000
  H   H27       1.0  0.76327  0.39360  0.10589  1.0000
  H   H28       1.0  0.78996  0.45925  0.04299  1.0000
  H   H29       1.0  0.75127  0.46334  0.17260  1.0000
  H   H30       1.0  0.09039  0.46753  0.04492  1.0000
  H   H31       1.0  0.03125  0.43108  0.04463  1.0000
  H   H32       1.0  0.04433  0.50382  0.11644  1.0000
  H   H33       1.0  0.34198  0.01129  0.81832  1.0000
  H   H34       1.0  0.42266  0.17161  0.80729  1.0000
  H   H35       1.0  0.41127  0.76194  0.75005  1.0000
  H   H36       1.0  0.49509  0.92277  0.80116  1.0000
  H   H37       1.0  0.25063  0.85952  0.53423  1.0000
  H   H38       1.0  0.17522  0.80298  0.55958  1.0000
  H   H39       1.0  0.30141  0.68130  0.46633  1.0000
  H   H40       1.0  0.37481  0.73885  0.95499  1.0000
  H   H41       1.0  0.49466  0.72282  0.88474  1.0000
  H   H42       1.0  0.57759  0.67038  0.89158  1.0000
  H   H43       1.0  0.62174  0.83120  0.69068  1.0000
  H   H44       1.0  0.53654  0.88382  0.67349  1.0000
  H   H45       1.0  0.34082  0.21074  0.68074  1.0000
  H   H46       1.0  0.25752  0.26629  0.65839  1.0000
  H   H47       1.0  0.21257  0.11219  0.88835  1.0000
  H   H48       1.0  0.29780  0.05666  0.92047  1.0000
  H   H49       1.0  0.17464  0.27312  0.69956  1.0000
  H   H50       1.0  0.63308  0.26068  0.66978  1.0000
  H   H51       1.0  0.50964  0.03633  0.65489  1.0000
  H   H52       1.0  0.29332  0.90101  0.75960  1.0000
  H   H53       1.0  0.20273  0.65920  0.85487  1.0000
  H   H54       1.0  0.83778  0.51621  0.78804  1.0000
  H   H55       1.0  0.91325  0.67267  0.70345  1.0000
  H   H56       1.0  0.92310  0.26002  0.84445  1.0000
  H   H57       1.0  0.98472  0.42291  0.74001  1.0000
  H   H58       1.0  0.78646  0.36674  0.91061  1.0000
  H   H59       1.0  0.70933  0.30653  0.89660  1.0000
  H   H60       1.0  0.78025  0.16119  0.75018  1.0000
  H   H61       1.0  0.85386  0.22289  0.74680  1.0000
  H   H62       1.0  0.95996  0.22705  0.68478  1.0000
  H   H63       1.0  0.04109  0.16871  0.69549  1.0000
  H   H64       1.0  0.14380  0.31563  0.88008  1.0000
  H   H65       1.0  0.06453  0.37223  0.88220  1.0000
  H   H66       1.0  0.65829  0.66741  0.84726  1.0000
  H   H67       1.0  0.75997  0.39902  0.58082  1.0000
  H   H68       1.0  0.78883  0.46587  0.53585  1.0000
  H   H69       1.0  0.74500  0.46709  0.64920  1.0000
  H   H70       1.0  0.09459  0.46282  0.55154  1.0000
  H   H71       1.0  0.03363  0.43081  0.55185  1.0000
  H   H72       1.0  0.05167  0.50256  0.62841  1.0000
  C   C1        1.0  0.38196  0.09646  0.30002  1.0000
  C   C2        1.0  0.38099  0.03479  0.29655  1.0000
  C   C3        1.0  0.42007  0.99942  0.26988  1.0000
  C   C4        1.0  0.46301  0.03055  0.24796  1.0000
  C   C5        1.0  0.46891  0.09146  0.27217  1.0000
  C   C6        1.0  0.42742  0.12388  0.29232  1.0000
  C   C7        1.0  0.41581  0.93406  0.26301  1.0000
  C   C8        1.0  0.36853  0.90287  0.25181  1.0000
  C   C9        1.0  0.36812  0.84047  0.24959  1.0000
  C   C10       1.0  0.41478  0.80885  0.25767  1.0000
  C   C11       1.0  0.46213  0.83725  0.26965  1.0000
  C   C12       1.0  0.46157  0.89871  0.27554  1.0000
  C   C13       1.0  0.32099  0.80702  0.24978  1.0000
  C   C14       1.0  0.51121  0.80443  0.27573  1.0000
  C   C15       1.0  0.26383  0.82420  0.13793  1.0000
  C   C16       1.0  0.22126  0.79194  0.14842  1.0000
  C   C17       1.0  0.23418  0.74027  0.26814  1.0000
  C   C18       1.0  0.29088  0.72137  0.37351  1.0000
  C   C19       1.0  0.33324  0.75445  0.36603  1.0000
  C   C20       1.0  0.52310  0.74394  0.33892  1.0000
  C   C21       1.0  0.56970  0.71338  0.34503  1.0000
  C   C22       1.0  0.60656  0.74215  0.29015  1.0000
  C   C23       1.0  0.59500  0.80270  0.22732  1.0000
  C   C24       1.0  0.54819  0.83290  0.21954  1.0000
  C   C25       1.0  0.18803  0.22807  0.25092  1.0000
  C   C26       1.0  0.65430  0.21384  0.25388  1.0000
  C   C27       1.0  0.19109  0.70562  0.28582  1.0000
  C   C28       1.0  0.87263  0.59634  0.24606  1.0000
  C   C29       1.0  0.87550  0.53435  0.27006  1.0000
  C   C30       1.0  0.92164  0.49775  0.29018  1.0000
  C   C31       1.0  0.96982  0.52821  0.30625  1.0000
  C   C32       1.0  0.96696  0.59047  0.26885  1.0000
  C   C33       1.0  0.91766  0.62340  0.23419  1.0000
  C   C34       1.0  0.91898  0.43171  0.29113  1.0000
  C   C35       1.0  0.87616  0.39838  0.30639  1.0000
  C   C36       1.0  0.87817  0.33553  0.31527  1.0000
  C   C37       1.0  0.92433  0.30653  0.31079  1.0000
  C   C38       1.0  0.96504  0.33713  0.28254  1.0000
  C   C39       1.0  0.96043  0.39901  0.26843  1.0000
  C   C40       1.0  0.82440  0.63130  0.24014  1.0000
  C   C41       1.0  0.82873  0.69066  0.28033  1.0000
  C   C42       1.0  0.78429  0.72330  0.28115  1.0000
  C   C43       1.0  0.73351  0.69739  0.24790  1.0000
  C   C44       1.0  0.72823  0.63848  0.20314  1.0000
  C   C45       1.0  0.77248  0.60666  0.19824  1.0000
  C   C46       1.0  0.65446  0.70877  0.29582  1.0000
  C   C47       1.0  0.78112  0.43613  0.14803  1.0000
  C   C48       1.0  0.04683  0.47406  0.02269  1.0000
  C   C49       1.0  0.37441  0.09584  0.80447  1.0000
  C   C50       1.0  0.37500  0.03404  0.80310  1.0000
  C   C51       1.0  0.41442  0.99984  0.77478  1.0000
  C   C52       1.0  0.45627  0.03219  0.74995  1.0000
  C   C53       1.0  0.46094  0.09324  0.77326  1.0000
  C   C54       1.0  0.41909  0.12446  0.79468  1.0000
  C   C55       1.0  0.41129  0.93442  0.76780  1.0000
  C   C56       1.0  0.36450  0.90205  0.75508  1.0000
  C   C57       1.0  0.36532  0.83970  0.75162  1.0000
  C   C58       1.0  0.41241  0.80940  0.75873  1.0000
  C   C59       1.0  0.45932  0.83900  0.77192  1.0000
  C   C60       1.0  0.45778  0.90030  0.78081  1.0000
  C   C61       1.0  0.32655  0.12944  0.80459  1.0000
  C   C62       1.0  0.31872  0.80523  0.75068  1.0000
  C   C63       1.0  0.50886  0.80738  0.77698  1.0000
  C   C64       1.0  0.26164  0.82211  0.63696  1.0000
  C   C65       1.0  0.21908  0.78994  0.64733  1.0000
  C   C66       1.0  0.23209  0.73851  0.76802  1.0000
  C   C67       1.0  0.28875  0.71958  0.87398  1.0000
  C   C68       1.0  0.33118  0.75271  0.86720  1.0000
  C   C69       1.0  0.52114  0.74664  0.83656  1.0000
  C   C70       1.0  0.56839  0.71727  0.84342  1.0000
  C   C71       1.0  0.60551  0.74743  0.79277  1.0000
  C   C72       1.0  0.59353  0.80821  0.73311  1.0000
  C   C73       1.0  0.54607  0.83728  0.72475  1.0000
  C   C74       1.0  0.31432  0.18933  0.73346  1.0000
  C   C75       1.0  0.26671  0.22045  0.71786  1.0000
  C   C76       1.0  0.22905  0.19286  0.77125  1.0000
  C   C77       1.0  0.24123  0.13317  0.84406  1.0000
  C   C78       1.0  0.28898  0.10237  0.86083  1.0000
  C   C79       1.0  0.17942  0.22627  0.75279  1.0000
  C   C80       1.0  0.64461  0.21590  0.74174  1.0000
  C   C81       1.0  0.18885  0.70417  0.78543  1.0000
  C   C82       1.0  0.86968  0.59864  0.74783  1.0000
  C   C83       1.0  0.87171  0.53670  0.77274  1.0000
  C   C84       1.0  0.91669  0.49931  0.78756  1.0000
  C   C85       1.0  0.96474  0.52909  0.79849  1.0000
  C   C86       1.0  0.96291  0.59133  0.76245  1.0000
  C   C87       1.0  0.91444  0.62496  0.73208  1.0000
  C   C88       1.0  0.91352  0.43322  0.79182  1.0000
  C   C89       1.0  0.87012  0.40065  0.80624  1.0000
  C   C90       1.0  0.87165  0.33768  0.82017  1.0000
  C   C91       1.0  0.91806  0.30789  0.81936  1.0000
  C   C92       1.0  0.95878  0.33761  0.78903  1.0000
  C   C93       1.0  0.95478  0.39947  0.77146  1.0000
  C   C94       1.0  0.82665  0.30132  0.82739  1.0000
  C   C95       1.0  0.00576  0.30439  0.78235  1.0000
  C   C96       1.0  0.78427  0.32272  0.86856  1.0000
  C   C97       1.0  0.74034  0.28875  0.85899  1.0000
  C   C98       1.0  0.73775  0.22998  0.81495  1.0000
  C   C99       1.0  0.78153  0.20652  0.78446  1.0000
  C   C100      1.0  0.82370  0.24183  0.78572  1.0000
  C   C101      1.0  0.00038  0.24647  0.73003  1.0000
  C   C102      1.0  0.04545  0.21365  0.73402  1.0000
  C   C103      1.0  0.09774  0.23828  0.78466  1.0000
  C   C104      1.0  0.10321  0.29654  0.83443  1.0000
  C   C105      1.0  0.05827  0.32852  0.83459  1.0000
  C   C106      1.0  0.65390  0.71475  0.79955  1.0000
  C   C107      1.0  0.77693  0.44107  0.63144  1.0000
  C   C108      1.0  0.05168  0.47238  0.53204  1.0000
  N   N1        1.0  0.70460  0.19027  0.31588  1.0000
  N   N2        1.0  0.15078  0.20457  0.29119  1.0000
  N   N3        1.0  0.13975  0.72605  0.22331  1.0000
  N   N4        1.0  0.69050  0.73277  0.25046  1.0000
  N   N5        1.0  0.69563  0.19367  0.81193  1.0000
  N   N6        1.0  0.14223  0.20260  0.79294  1.0000
  N   N7        1.0  0.13766  0.72512  0.72242  1.0000
  N   N8        1.0  0.69018  0.73885  0.75547  1.0000
  O   O1        1.0  0.49843  0.00240  0.19515  1.0000
  O   O2        1.0  0.32293  0.93321  0.24814  1.0000
  O   O3        1.0  0.02141  0.49969  0.34918  1.0000
  O   O4        1.0  0.83135  0.42752  0.31683  1.0000
  O   O5        1.0  0.49217  0.00512  0.69681  1.0000
  O   O6        1.0  0.31835  0.93096  0.75191  1.0000
  O   O7        1.0  0.01565  0.49972  0.83842  1.0000
  O   O8        1.0  0.82423  0.43081  0.80714  1.0000
  C   C109      1.0  0.25880  0.12084  0.35787  1.0000
  C   C110      1.0  0.24134  0.18039  0.29803  1.0000
  C  Sn1       1.0  0.27103  0.21612  0.23009  1.0000
  C  Sn2       1.0  0.31908  0.19166  0.22205  1.0000
  C   C111      1.0  0.33619  0.13202  0.28213  1.0000
  C   C112      1.0  0.30618  0.09667  0.34992  1.0000
  H   H73       1.0  0.23556  0.09347  0.41023  1.0000
  O  Te1       1.0  0.25302  0.27553  0.17093  1.0000
  O  Te2       1.0  0.34953  0.22637  0.15471  1.0000
  H   H74       1.0  0.31969  0.05055  0.39614  1.0000
  Mg  Mg1       1.0  0.30841  0.30493  0.09032  1.0000
  C   C113      1.0  0.79828  0.20763  0.25475  1.0000
  C   C114      1.0  0.76071  0.21704  0.32649  1.0000
  C  Sn3       1.0  0.75812  0.27070  0.39428  1.0000
  C  Sn4       1.0  0.79385  0.31569  0.38994  1.0000
  C   C115      1.0  0.83127  0.30585  0.31777  1.0000
  C   C116      1.0  0.83353  0.25199  0.25036  1.0000
  H   H75       1.0  0.80001  0.16597  0.20250  1.0000
  O  Te3       1.0  0.72035  0.27936  0.46553  1.0000
  O  Te4       1.0  0.79212  0.36974  0.45672  1.0000
  H   H76       1.0  0.86260  0.24473  0.19472  1.0000
  Mg  Mg2       1.0  0.73359  0.36051  0.54032  1.0000
  C   C117      1.0  0.82232  0.70846  0.78950  1.0000
  C   C118      1.0  0.82573  0.64862  0.76501  1.0000
  C  Sn5       1.0  0.77893  0.61496  0.72106  1.0000
  C  Sn6       1.0  0.72782  0.64184  0.70130  1.0000
  C   C119      1.0  0.72483  0.70176  0.72596  1.0000
  C   C120      1.0  0.77193  0.73502  0.76997  1.0000
  H   H77       1.0  0.85875  0.73421  0.82346  1.0000
  O  Te5       1.0  0.78307  0.55522  0.69713  1.0000
  O  Te6       1.0  0.68040  0.60924  0.65737  1.0000
  H   H78       1.0  0.76926  0.78136  0.78881  1.0000
  Mg  Mg3       1.0  0.70691  0.52928  0.63838  1.0000
  C   C121      1.0  0.02874  0.70050  0.09930  1.0000
  C   C122      1.0  0.08543  0.69900  0.22183  1.0000
  C  Sn7       1.0  0.10777  0.65618  0.36998  1.0000
  C  Sn8       1.0  0.07261  0.61412  0.39555  1.0000
  C   C123      1.0  0.01596  0.61597  0.27213  1.0000
  C   C124      1.0  0.99404  0.65902  0.12438  1.0000
  H   H79       1.0  0.15084  0.70061  0.98492  1.0000
  O  Te7       1.0  0.16449  0.65533  0.49114  1.0000
  O  Te8       1.0  0.09385  0.57084  0.54242  1.0000
  H   H80       1.0  0.95015  0.66014  0.02947  1.0000
  Mg  Mg4       1.0  0.17387  0.58778  0.67050  1.0000
  C   C125      1.0  0.08217  0.61165  0.89988  1.0000
  C   C126      1.0  0.02423  0.62121  0.79713  1.0000
  C  Sn9       1.0  0.00222  0.66594  0.65424  1.0000
  C  Sn10      1.0  0.03901  0.70168  0.61376  1.0000
  C   C127      1.0  0.09691  0.69174  0.71729  1.0000
  C   C128      1.0  0.11849  0.64687  0.86001  1.0000
  H   H81       1.0  0.95981  0.61008  0.01025  1.0000
  O  Te9       1.0  0.94422  0.67491  0.55298  1.0000
  O  Te10      1.0  0.01813  0.74668  0.47165  1.0000
  H   H82       1.0  0.16336  0.63945  0.93947  1.0000
  Mg  Mg5       1.0  0.93595  0.74176  0.37280  1.0000
  C   C129      1.0  0.61257  0.11400  0.38249  1.0000
  C   C130      1.0  0.61168  0.16623  0.27977  1.0000
  C  Sn11      1.0  0.56114  0.19899  0.17312  1.0000
  C  Sn12      1.0  0.51063  0.17897  0.16957  1.0000
  C   C131      1.0  0.51196  0.12668  0.27292  1.0000
  C   C132      1.0  0.56276  0.09424  0.37911  1.0000
  H   H83       1.0  0.65187  0.08891  0.46473  1.0000
  O  Te11      1.0  0.56101  0.25107  0.07127  1.0000
  O  Te12      1.0  0.45954  0.21086  0.06422  1.0000
  H   H84       1.0  0.56344  0.05381  0.45872  1.0000
  Mg  Mg6       1.0  0.61996  0.24594  0.94890  1.0000
  C   C133      1.0  0.07976  0.32907  0.33768  1.0000
  C   C134      1.0  0.02463  0.31290  0.28086  1.0000
  C  Sn13      1.0  0.00994  0.25648  0.22694  1.0000
  C  Sn14      1.0  0.05131  0.21559  0.23015  1.0000
  C   C135      1.0  0.10635  0.23218  0.28734  1.0000
  C   C136      1.0  0.12059  0.28875  0.34096  1.0000
  H   H85       1.0  0.09079  0.37282  0.37927  1.0000
  O  Te13      1.0  0.95466  0.24106  0.17048  1.0000
  O  Te14      1.0  0.03777  0.15891  0.17703  1.0000
  H   H86       1.0  0.16329  0.30124  0.38506  1.0000
  Mg  Mg7       1.0  0.95675  0.15864  0.11088  1.0000
  C   C137      1.0  0.57929  0.09910  0.87103  1.0000
  C   C138      1.0  0.52288  0.11845  0.80070  1.0000
  C  Sn15      1.0  0.50341  0.17250  0.69408  1.0000
  C  Sn16      1.0  0.54122  0.20772  0.65737  1.0000
  C   C139      1.0  0.59757  0.18795  0.72825  1.0000
  C   C140      1.0  0.61661  0.13380  0.83482  1.0000
  H   H87       1.0  0.59402  0.05719  0.95341  1.0000
  O  Te15      1.0  0.44692  0.19118  0.62495  1.0000
  O  Te16      1.0  0.52287  0.26191  0.55115  1.0000
  H   H88       1.0  0.66028  0.11881  0.88916  1.0000
  Mg  Mg8       1.0  0.44199  0.26834  0.48754  1.0000
