data_image0
_chemical_formula_structural       H64C104N8O8C2Sn2C2HTe2HMgC2Sn2C2HTe2HMgC2Sn2C2HTe2HMgC2Sn2C2HTe2HMgC2Sn2C2HTe2HMgC2Sn2C2HTe2HMgC2Sn2C2HTe2HMgC2Sn2C2HTe2HMg
_chemical_formula_sum              "H80 C136 N8 O8 Sn16 Te16 Mg8"
_cell_length_a       26.5035
_cell_length_b       22.4851
_cell_length_c       8.05676
_cell_angle_alpha    99.5117
_cell_angle_beta     79.2846
_cell_angle_gamma    89.7092

_symmetry_space_group_name_H-M    'P1'
_space_group_IT_number       1

loop_
  _space_group_symop_operation_xyz
  'x, y, z'

loop_
  _atom_site_type_symbol
  _atom_site_label
  _atom_site_symmetry_multiplicity
  _atom_site_fract_x
  _atom_site_fract_y
  _atom_site_fract_z
  _atom_site_occupancy
  H   H1        1.0  0.85456  0.07655  0.04928  1.0000
  H   H2        1.0  0.51649  0.06537  0.03240  1.0000
  H   H3        1.0  0.94229  0.09106  0.49458  1.0000
  H   H4        1.0  0.66428  0.81544  0.13482  1.0000
  H   H5        1.0  0.73525  0.98500  0.22657  1.0000
  H   H6        1.0  0.73433  0.57237  0.25538  1.0000
  H   H7        1.0  0.81415  0.73545  0.20585  1.0000
  H   H8        1.0  0.82802  0.85474  0.41568  1.0000
  H   H9        1.0  0.61290  0.71528  0.29028  1.0000
  H   H10       1.0  0.59428  0.67391  0.49183  1.0000
  H   H11       1.0  0.51409  0.61848  0.47683  1.0000
  H   H12       1.0  0.59404  0.49376  0.04394  1.0000
  H   H13       1.0  0.67375  0.54959  0.05583  1.0000
  H   H14       1.0  0.50188  0.49111  0.11990  1.0000
  H   H15       1.0  0.97026  0.49942  0.32970  1.0000
  H   H16       1.0  0.16341  0.31211  0.14250  1.0000
  H   H17       1.0  0.24089  0.47866  0.21067  1.0000
  H   H18       1.0  0.22762  0.07075  0.29027  1.0000
  H   H19       1.0  0.31112  0.22673  0.18058  1.0000
  H   H20       1.0  0.33158  0.34614  0.39992  1.0000
  H   H21       1.0  0.10956  0.22092  0.35945  1.0000
  H   H22       1.0  0.29417  0.04226  0.35832  1.0000
  H   H23       1.0  0.37714  0.98577  0.32127  1.0000
  H   H24       1.0  0.45448  0.12516  0.50826  1.0000
  H   H25       1.0  0.36982  0.16686  0.04920  1.0000
  H   H26       1.0  0.09659  0.18038  0.05245  1.0000
  H   H27       1.0  0.01592  0.12622  0.07743  1.0000
  H   H28       1.0  0.18843  0.50289  0.03947  1.0000
  H   H29       1.0  0.10883  0.55691  0.01555  1.0000
  H   H30       1.0  0.01824  0.42128  0.23424  1.0000
  H   H31       1.0  0.09676  0.36823  0.26085  1.0000
  H   H32       1.0  0.69156  0.01348  0.54034  1.0000
  H   H33       1.0  0.61452  0.06854  0.50392  1.0000
  H   H34       1.0  0.52230  0.08202  0.54146  1.0000
  H   H35       1.0  0.94644  0.08984  0.99191  1.0000
  H   H36       1.0  0.66395  0.82259  0.62721  1.0000
  H   H37       1.0  0.73820  0.98972  0.73132  1.0000
  H   H38       1.0  0.72743  0.57818  0.76714  1.0000
  H   H39       1.0  0.81026  0.73800  0.69932  1.0000
  H   H40       1.0  0.82329  0.85497  0.93084  1.0000
  H   H41       1.0  0.60851  0.72452  0.79496  1.0000
  H   H42       1.0  0.58839  0.68579  0.00049  1.0000
  H   H43       1.0  0.50686  0.63188  0.99211  1.0000
  H   H44       1.0  0.58547  0.49879  0.57904  1.0000
  H   H45       1.0  0.66648  0.55294  0.58355  1.0000
  H   H46       1.0  0.87620  0.87768  0.66630  1.0000
  H   H47       1.0  0.95292  0.93461  0.72545  1.0000
  H   H48       1.0  0.77786  0.02090  0.98761  1.0000
  H   H49       1.0  0.51803  0.93702  0.71907  1.0000
  H   H50       1.0  0.59563  0.88094  0.75526  1.0000
  H   H51       1.0  0.49446  0.50070  0.64351  1.0000
  H   H52       1.0  0.96411  0.50008  0.82715  1.0000
  H   H53       1.0  0.16065  0.31462  0.63058  1.0000
  H   H54       1.0  0.23443  0.48335  0.71001  1.0000
  H   H55       1.0  0.23177  0.07461  0.77784  1.0000
  H   H56       1.0  0.31007  0.23373  0.66430  1.0000
  H   H57       1.0  0.32343  0.35254  0.91297  1.0000
  H   H58       1.0  0.10957  0.21935  0.84683  1.0000
  H   H59       1.0  0.29892  0.04801  0.83864  1.0000
  H   H60       1.0  0.38301  0.99408  0.79937  1.0000
  H   H61       1.0  0.45165  0.11219  0.01936  1.0000
  H   H62       1.0  0.37127  0.17723  0.53988  1.0000
  H   H63       1.0  0.08486  0.98928  0.65807  1.0000
  H   H64       1.0  0.16545  0.04586  0.62435  1.0000
  C   C1        1.0  0.69272  0.90406  0.18492  1.0000
  C   C2        1.0  0.69451  0.84149  0.18158  1.0000
  C   C3        1.0  0.73330  0.81136  0.23641  1.0000
  C   C4        1.0  0.77297  0.84722  0.29120  1.0000
  C   C5        1.0  0.77557  0.90886  0.27540  1.0000
  C   C6        1.0  0.73450  0.93677  0.22775  1.0000
  C   C7        1.0  0.73241  0.74557  0.24021  1.0000
  C   C8        1.0  0.68623  0.71374  0.26284  1.0000
  C   C9        1.0  0.68731  0.65105  0.26619  1.0000
  C   C10       1.0  0.73441  0.62050  0.25167  1.0000
  C   C11       1.0  0.78081  0.65037  0.23185  1.0000
  C   C12       1.0  0.77853  0.71193  0.22215  1.0000
  C   C13       1.0  0.63983  0.61675  0.27118  1.0000
  C   C14       1.0  0.59405  0.63554  0.38981  1.0000
  C   C15       1.0  0.54913  0.60408  0.38424  1.0000
  C   C16       1.0  0.54837  0.55269  0.25927  1.0000
  C   C17       1.0  0.59419  0.53299  0.14312  1.0000
  C   C18       1.0  0.63910  0.56412  0.15008  1.0000
  C   C19       1.0  0.51021  0.02694  0.10160  1.0000
  C   C20       1.0  0.50139  0.52053  0.24363  1.0000
  C   C21       1.0  0.95071  0.04501  0.42186  1.0000
  C   C22       1.0  0.97229  0.52576  0.22529  1.0000
  C   C23       1.0  0.19477  0.39987  0.18180  1.0000
  C   C24       1.0  0.19470  0.33755  0.18431  1.0000
  C   C25       1.0  0.23295  0.30665  0.23900  1.0000
  C   C26       1.0  0.27454  0.34056  0.28565  1.0000
  C   C27       1.0  0.27907  0.40153  0.26377  1.0000
  C   C28       1.0  0.23830  0.43084  0.21773  1.0000
  C   C29       1.0  0.22990  0.24152  0.25041  1.0000
  C   C30       1.0  0.18287  0.21348  0.29762  1.0000
  C   C31       1.0  0.18227  0.15146  0.31050  1.0000
  C   C32       1.0  0.22891  0.11826  0.27896  1.0000
  C   C33       1.0  0.27619  0.14428  0.23284  1.0000
  C   C34       1.0  0.27514  0.20536  0.21646  1.0000
  C   C35       1.0  0.14896  0.43142  0.15323  1.0000
  C   C36       1.0  0.32518  0.10953  0.20795  1.0000
  C   C37       1.0  0.32818  0.05697  0.27973  1.0000
  C   C38       1.0  0.37459  0.02519  0.26074  1.0000
  C   C39       1.0  0.42041  0.04482  0.17046  1.0000
  C   C40       1.0  0.41750  0.09682  0.09557  1.0000
  C   C41       1.0  0.37099  0.12816  0.11371  1.0000
  C   C42       1.0  0.15120  0.48533  0.08541  1.0000
  C   C43       1.0  0.10678  0.51583  0.07091  1.0000
  C   C44       1.0  0.05788  0.49464  0.12937  1.0000
  C   C45       1.0  0.05541  0.43976  0.19256  1.0000
  C   C46       1.0  0.09990  0.40915  0.20460  1.0000
  C   C47       1.0  0.69412  0.91034  0.68216  1.0000
  C   C48       1.0  0.69420  0.84761  0.67739  1.0000
  C   C49       1.0  0.73144  0.81601  0.73516  1.0000
  C   C50       1.0  0.77142  0.85017  0.79421  1.0000
  C   C51       1.0  0.77581  0.91190  0.78118  1.0000
  C   C52       1.0  0.73611  0.94142  0.73051  1.0000
  C   C53       1.0  0.72878  0.75034  0.74014  1.0000
  C   C54       1.0  0.68187  0.72005  0.76657  1.0000
  C   C55       1.0  0.68158  0.65770  0.77624  1.0000
  C   C56       1.0  0.72837  0.62607  0.76024  1.0000
  C   C57       1.0  0.77551  0.65433  0.73497  1.0000
  C   C58       1.0  0.77423  0.71557  0.72105  1.0000
  C   C59       1.0  0.64954  0.94245  0.64792  1.0000
  C   C60       1.0  0.82106  0.94498  0.82384  1.0000
  C   C61       1.0  0.63335  0.62442  0.78803  1.0000
  C   C62       1.0  0.58756  0.64583  0.90392  1.0000
  C   C63       1.0  0.54199  0.61517  0.90275  1.0000
  C   C64       1.0  0.54049  0.56201  0.78445  1.0000
  C   C65       1.0  0.58634  0.53956  0.67253  1.0000
  C   C66       1.0  0.63188  0.56974  0.67542  1.0000
  C   C67       1.0  0.87129  0.92104  0.75176  1.0000
  C   C68       1.0  0.91433  0.95235  0.78427  1.0000
  C   C69       1.0  0.90907  0.00906  0.89156  1.0000
  C   C70       1.0  0.85927  0.03308  0.96435  1.0000
  C   C71       1.0  0.81611  0.00176  0.93007  1.0000
  C   C72       1.0  0.65373  0.99637  0.58030  1.0000
  C   C73       1.0  0.61035  0.02748  0.55970  1.0000
  C   C74       1.0  0.56087  0.00631  0.60967  1.0000
  C   C75       1.0  0.55647  0.95234  0.67758  1.0000
  C   C76       1.0  0.59979  0.92113  0.69564  1.0000
  C   C77       1.0  0.51532  0.04052  0.59675  1.0000
  C   C78       1.0  0.49324  0.53048  0.76730  1.0000
  C   C79       1.0  0.95411  0.04365  0.91965  1.0000
  C   C80       1.0  0.96653  0.52741  0.72476  1.0000
  C   C81       1.0  0.19035  0.40326  0.67517  1.0000
  C   C82       1.0  0.19125  0.34075  0.67486  1.0000
  C   C83       1.0  0.22988  0.31062  0.72965  1.0000
  C   C84       1.0  0.27011  0.34574  0.78218  1.0000
  C   C85       1.0  0.27385  0.40700  0.76287  1.0000
  C   C86       1.0  0.23300  0.43528  0.71441  1.0000
  C   C87       1.0  0.22869  0.24520  0.73802  1.0000
  C   C88       1.0  0.18273  0.21513  0.78461  1.0000
  C   C89       1.0  0.18410  0.15317  0.79799  1.0000
  C   C90       1.0  0.23170  0.12207  0.76603  1.0000
  C   C91       1.0  0.27806  0.14999  0.71866  1.0000
  C   C92       1.0  0.27499  0.21095  0.70250  1.0000
  C   C93       1.0  0.13656  0.11924  0.82968  1.0000
  C   C94       1.0  0.32809  0.11729  0.69299  1.0000
  C   C95       1.0  0.33242  0.06432  0.76163  1.0000
  C   C96       1.0  0.37951  0.03395  0.74151  1.0000
  C   C97       1.0  0.42487  0.05547  0.65392  1.0000
  C   C98       1.0  0.42076  0.10810  0.58239  1.0000
  C   C99       1.0  0.37346  0.13794  0.60125  1.0000
  C   C100      1.0  0.09346  0.14040  0.95825  1.0000
  C   C101      1.0  0.04788  0.10914  0.97439  1.0000
  C   C102      1.0  0.04390  0.05492  0.86238  1.0000
  C   C103      1.0  0.08805  0.03157  0.74249  1.0000
  C   C104      1.0  0.13302  0.06325  0.72509  1.0000
  N   N1        1.0  0.46514  0.01148  0.17035  1.0000
  N   N2        1.0  0.99667  0.02303  0.35852  1.0000
  N   N3        1.0  0.46121  0.52716  0.36480  1.0000
  N   N4        1.0  0.01456  0.52875  0.11705  1.0000
  N   N5        1.0  0.46991  0.02272  0.65297  1.0000
  N   N6        1.0  0.99988  0.02132  0.85384  1.0000
  N   N7        1.0  0.45213  0.53775  0.88486  1.0000
  N   N8        1.0  0.00896  0.53100  0.61785  1.0000
  O   O1        1.0  0.80844  0.82201  0.36609  1.0000
  O   O2        1.0  0.64016  0.74421  0.27580  1.0000
  O   O3        1.0  0.31023  0.31399  0.35739  1.0000
  O   O4        1.0  0.13758  0.24718  0.32569  1.0000
  O   O5        1.0  0.80555  0.82294  0.86981  1.0000
  O   O6        1.0  0.63674  0.75199  0.77665  1.0000
  O   O7        1.0  0.30515  0.31972  0.85741  1.0000
  O   O8        1.0  0.13647  0.24676  0.81114  1.0000
  C   C105      1.0  0.11544  0.51728  0.55851  1.0000
  C   C106      1.0  0.06448  0.50078  0.60044  1.0000
  C  Sn1       1.0  0.05290  0.44982  0.67680  1.0000
  C  Sn2       1.0  0.09317  0.41483  0.71170  1.0000
  C   C107      1.0  0.14402  0.43174  0.66937  1.0000
  C   C108      1.0  0.15518  0.48281  0.59295  1.0000
  H   H65       1.0  0.12408  0.55681  0.49947  1.0000
  O  Te1       1.0  0.00178  0.43396  0.71781  1.0000
  O  Te2       1.0  0.08267  0.36369  0.78798  1.0000
  H   H66       1.0  0.19464  0.49560  0.56060  1.0000
  Mg  Mg1       1.0  0.00690  0.36040  0.82011  1.0000
  C   C109      1.0  0.83850  0.55568  0.32071  1.0000
  C   C110      1.0  0.82975  0.60764  0.25445  1.0000
  C  Sn3       1.0  0.87043  0.63394  0.15901  1.0000
  C  Sn4       1.0  0.92076  0.60763  0.12953  1.0000
  C   C111      1.0  0.92910  0.55562  0.19627  1.0000
  C   C112      1.0  0.88812  0.52968  0.29164  1.0000
  H   H67       1.0  0.80679  0.53559  0.39442  1.0000
  O  Te3       1.0  0.86103  0.68586  0.09380  1.0000
  O  Te4       1.0  0.96211  0.63297  0.03453  1.0000
  H   H68       1.0  0.89490  0.48943  0.34283  1.0000
  Mg  Mg2       1.0  0.87311  0.76328  0.97234  1.0000
  C   C113      1.0  0.90802  0.93886  0.26087  1.0000
  C   C114      1.0  0.90930  0.99692  0.35378  1.0000
  C  Sn5       1.0  0.86795  0.02836  0.43802  1.0000
  C  Sn6       1.0  0.81588  0.00104  0.42887  1.0000
  C   C115      1.0  0.81501  0.94292  0.33568  1.0000
  C   C116      1.0  0.86093  0.91187  0.25183  1.0000
  H   H69       1.0  0.94355  0.91482  0.19606  1.0000
  O  Te5       1.0  0.86993  0.08635  0.53024  1.0000
  O  Te6       1.0  0.77398  0.03144  0.51190  1.0000
  H   H70       1.0  0.85992  0.86690  0.17999  1.0000
  Mg  Mg3       1.0  0.79658  0.10958  0.62152  1.0000
  C   C117      1.0  0.58338  0.91472  0.22165  1.0000
  C   C118      1.0  0.63473  0.92524  0.15854  1.0000
  C  Sn7       1.0  0.64735  0.97443  0.07518  1.0000
  C  Sn8       1.0  0.61204  0.01375  0.05486  1.0000
  C   C119      1.0  0.55648  0.00286  0.11856  1.0000
  C   C120      1.0  0.54428  0.95349  0.20172  1.0000
  H   H71       1.0  0.57394  0.87654  0.28607  1.0000
  O  Te7       1.0  0.69886  0.98427  0.01284  1.0000
  O  Te8       1.0  0.56680  0.12281  0.97212  1.0000
  H   H72       1.0  0.50451  0.94538  0.25067  1.0000
  Mg  Mg4       1.0  0.64274  0.11734  0.90925  1.0000
  C   C121      1.0  0.88639  0.64130  0.63746  1.0000
  C   C122      1.0  0.83615  0.62676  0.70190  1.0000
  C  Sn9       1.0  0.82718  0.57792  0.78912  1.0000
  C  Sn10      1.0  0.86936  0.54309  0.81211  1.0000
  C   C123      1.0  0.91947  0.55804  0.74726  1.0000
  C   C124      1.0  0.92802  0.60699  0.66013  1.0000
  H   H73       1.0  0.89301  0.67920  0.57012  1.0000
  O  Te9       1.0  0.77674  0.56399  0.85263  1.0000
  O  Te10      1.0  0.86148  0.49405  0.89884  1.0000
  H   H74       1.0  0.96692  0.61827  0.61035  1.0000
  Mg  Mg5       1.0  0.78567  0.49291  0.96185  1.0000
  C   C125      1.0  0.38369  0.41604  0.71524  1.0000
  C   C126      1.0  0.33220  0.43167  0.78671  1.0000
  C  Sn11      1.0  0.31880  0.48730  0.89291  1.0000
  C  Sn12      1.0  0.35774  0.52796  0.92793  1.0000
  C   C127      1.0  0.40913  0.51192  0.85571  1.0000
  C   C128      1.0  0.42212  0.45612  0.74967  1.0000
  H   H75       1.0  0.39374  0.37288  0.63312  1.0000
  O  Te11      1.0  0.26717  0.50219  0.96331  1.0000
  O  Te12      1.0  0.40218  0.52432  0.03357  1.0000
  H   H76       1.0  0.46198  0.44406  0.69426  1.0000
  Mg  Mg6       1.0  0.32640  0.52407  0.09942  1.0000
  C   C129      1.0  0.35488  0.52012  0.43085  1.0000
  C   C130      1.0  0.40597  0.49961  0.37226  1.0000
  C  Sn13      1.0  0.41758  0.44437  0.26244  1.0000
  C  Sn14      1.0  0.37722  0.40912  0.21048  1.0000
  C   C131      1.0  0.32624  0.43007  0.26970  1.0000
  C   C132      1.0  0.31505  0.48540  0.37961  1.0000
  H   H77       1.0  0.34622  0.56295  0.51581  1.0000
  O  Te13      1.0  0.46884  0.42454  0.20516  1.0000
  O  Te14      1.0  0.38775  0.35376  0.10075  1.0000
  H   H78       1.0  0.27549  0.50129  0.42486  1.0000
  Mg  Mg7       1.0  0.46371  0.34602  0.05723  1.0000
  C   C133      1.0  0.12366  0.04871  0.22564  1.0000
  C   C134      1.0  0.13329  0.10611  0.30778  1.0000
  C  Sn15      1.0  0.09561  0.13825  0.43627  1.0000
  C  Sn16      1.0  0.04745  0.11232  0.48314  1.0000
  C   C135      1.0  0.03821  0.05485  0.40028  1.0000
  C   C136      1.0  0.07617  0.02309  0.27184  1.0000
  H   H79       1.0  0.15304  0.02411  0.12633  1.0000
  O  Te15      1.0  0.10586  0.19557  0.51698  1.0000
  O  Te16      1.0  0.00912  0.14345  0.61118  1.0000
  H   H80       1.0  0.06441  0.97862  0.20835  1.0000
  Mg  Mg8       1.0  0.04138  0.22022  0.68375  1.0000
