data_image0
_chemical_formula_structural       H64C104N8O8SnCSn2CSnTe4Mg2SnCSn2CSnTe4Mg2SnCSn2CSnTe4Mg2SnCSn2CSnTe4Mg2SnCSn2CSnTe4Mg2SnCSn2CSnTe4Mg2SnCSn2CSnTe4Mg2SnCSn2CSnTe4Mg2
_chemical_formula_sum              "H64 C120 N8 O8 Sn32 Te32 Mg16"
_cell_length_a       26.5035
_cell_length_b       22.4851
_cell_length_c       8.05676
_cell_angle_alpha    99.5117
_cell_angle_beta     79.2846
_cell_angle_gamma    89.7092

_symmetry_space_group_name_H-M    'P1'
_space_group_IT_number       1

loop_
  _space_group_symop_operation_xyz
  'x, y, z'

loop_
  _atom_site_type_symbol
  _atom_site_label
  _atom_site_symmetry_multiplicity
  _atom_site_fract_x
  _atom_site_fract_y
  _atom_site_fract_z
  _atom_site_occupancy
  H   H1        1.0  0.85456  0.07655  0.04928  1.0000
  H   H2        1.0  0.68685  0.00355  0.03166  1.0000
  H   H3        1.0  0.60819  0.05496  0.99390  1.0000
  H   H4        1.0  0.51649  0.06537  0.03240  1.0000
  H   H5        1.0  0.94229  0.09106  0.49458  1.0000
  H   H6        1.0  0.66428  0.81544  0.13482  1.0000
  H   H7        1.0  0.73525  0.98500  0.22657  1.0000
  H   H8        1.0  0.73433  0.57237  0.25538  1.0000
  H   H9        1.0  0.81415  0.73545  0.20585  1.0000
  H   H10       1.0  0.82802  0.85474  0.41568  1.0000
  H   H11       1.0  0.61290  0.71528  0.29028  1.0000
  H   H12       1.0  0.87675  0.87814  0.15766  1.0000
  H   H13       1.0  0.95191  0.93664  0.22141  1.0000
  H   H14       1.0  0.77528  0.01843  0.47960  1.0000
  H   H15       1.0  0.51553  0.92713  0.24265  1.0000
  H   H16       1.0  0.59475  0.87359  0.27416  1.0000
  H   H17       1.0  0.50188  0.49111  0.11990  1.0000
  H   H18       1.0  0.97026  0.49942  0.32970  1.0000
  H   H19       1.0  0.16341  0.31211  0.14250  1.0000
  H   H20       1.0  0.24089  0.47866  0.21067  1.0000
  H   H21       1.0  0.22762  0.07075  0.29027  1.0000
  H   H22       1.0  0.31112  0.22673  0.18058  1.0000
  H   H23       1.0  0.33158  0.34614  0.39992  1.0000
  H   H24       1.0  0.10956  0.22092  0.35945  1.0000
  H   H25       1.0  0.45448  0.12516  0.50826  1.0000
  H   H26       1.0  0.37760  0.36368  0.13009  1.0000
  H   H27       1.0  0.45692  0.41583  0.17070  1.0000
  H   H28       1.0  0.36783  0.56255  0.50987  1.0000
  H   H29       1.0  0.28723  0.51026  0.46615  1.0000
  H   H30       1.0  0.85042  0.07589  0.54602  1.0000
  H   H31       1.0  0.52230  0.08202  0.54146  1.0000
  H   H32       1.0  0.94644  0.08984  0.99191  1.0000
  H   H33       1.0  0.66395  0.82259  0.62721  1.0000
  H   H34       1.0  0.73820  0.98972  0.73132  1.0000
  H   H35       1.0  0.72743  0.57818  0.76714  1.0000
  H   H36       1.0  0.81026  0.73800  0.69932  1.0000
  H   H37       1.0  0.82329  0.85497  0.93084  1.0000
  H   H38       1.0  0.60851  0.72452  0.79496  1.0000
  H   H39       1.0  0.79039  0.55532  0.87502  1.0000
  H   H40       1.0  0.87227  0.50209  0.87099  1.0000
  H   H41       1.0  0.95426  0.62625  0.57729  1.0000
  H   H42       1.0  0.87255  0.68044  0.58254  1.0000
  H   H43       1.0  0.87620  0.87768  0.66630  1.0000
  H   H44       1.0  0.95292  0.93461  0.72545  1.0000
  H   H45       1.0  0.77786  0.02090  0.98761  1.0000
  H   H46       1.0  0.49446  0.50070  0.64351  1.0000
  H   H47       1.0  0.96411  0.50008  0.82715  1.0000
  H   H48       1.0  0.16065  0.31462  0.63058  1.0000
  H   H49       1.0  0.23443  0.48335  0.71001  1.0000
  H   H50       1.0  0.23177  0.07461  0.77784  1.0000
  H   H51       1.0  0.31007  0.23373  0.66430  1.0000
  H   H52       1.0  0.32343  0.35254  0.91297  1.0000
  H   H53       1.0  0.10957  0.21935  0.84683  1.0000
  H   H54       1.0  0.29892  0.04801  0.83864  1.0000
  H   H55       1.0  0.38301  0.99408  0.79937  1.0000
  H   H56       1.0  0.37127  0.17723  0.53988  1.0000
  H   H57       1.0  0.37337  0.37028  0.64857  1.0000
  H   H58       1.0  0.45090  0.42466  0.69759  1.0000
  H   H59       1.0  0.35702  0.57298  0.01044  1.0000
  H   H60       1.0  0.27831  0.51827  0.95798  1.0000
  H   H61       1.0  0.18304  0.50357  0.52260  1.0000
  H   H62       1.0  0.10266  0.55735  0.50296  1.0000
  H   H63       1.0  0.01360  0.42477  0.74183  1.0000
  H   H64       1.0  0.09297  0.37220  0.76487  1.0000
  C   C1        1.0  0.69272  0.90406  0.18492  1.0000
  C   C2        1.0  0.69451  0.84149  0.18158  1.0000
  C   C3        1.0  0.73330  0.81136  0.23641  1.0000
  C   C4        1.0  0.77297  0.84722  0.29120  1.0000
  C   C5        1.0  0.77557  0.90886  0.27540  1.0000
  C   C6        1.0  0.73450  0.93677  0.22775  1.0000
  C   C7        1.0  0.73241  0.74557  0.24021  1.0000
  C   C8        1.0  0.68623  0.71374  0.26284  1.0000
  C   C9        1.0  0.68731  0.65105  0.26619  1.0000
  C   C10       1.0  0.73441  0.62050  0.25167  1.0000
  C   C11       1.0  0.78081  0.65037  0.23185  1.0000
  C   C12       1.0  0.77853  0.71193  0.22215  1.0000
  C   C13       1.0  0.64680  0.93441  0.15405  1.0000
  C   C14       1.0  0.82009  0.94364  0.31620  1.0000
  C   C15       1.0  0.87075  0.92114  0.24481  1.0000
  C   C16       1.0  0.91304  0.95343  0.28001  1.0000
  C   C17       1.0  0.90645  0.00972  0.38963  1.0000
  C   C18       1.0  0.85621  0.03259  0.46025  1.0000
  C   C19       1.0  0.81386  0.00026  0.42318  1.0000
  C   C20       1.0  0.64947  0.98672  0.07908  1.0000
  C   C21       1.0  0.60517  0.01572  0.05791  1.0000
  C   C22       1.0  0.55633  0.99449  0.11683  1.0000
  C   C23       1.0  0.55341  0.94246  0.19372  1.0000
  C   C24       1.0  0.59771  0.91278  0.21030  1.0000
  C   C25       1.0  0.51021  0.02694  0.10160  1.0000
  C   C26       1.0  0.50139  0.52053  0.24363  1.0000
  C   C27       1.0  0.95071  0.04501  0.42186  1.0000
  C   C28       1.0  0.97229  0.52576  0.22529  1.0000
  C   C29       1.0  0.19477  0.39987  0.18180  1.0000
  C   C30       1.0  0.19470  0.33755  0.18431  1.0000
  C   C31       1.0  0.23295  0.30665  0.23900  1.0000
  C   C32       1.0  0.27454  0.34056  0.28565  1.0000
  C   C33       1.0  0.27907  0.40153  0.26377  1.0000
  C   C34       1.0  0.23830  0.43084  0.21773  1.0000
  C   C35       1.0  0.22990  0.24152  0.25041  1.0000
  C   C36       1.0  0.18287  0.21348  0.29762  1.0000
  C   C37       1.0  0.18227  0.15146  0.31050  1.0000
  C   C38       1.0  0.22891  0.11826  0.27896  1.0000
  C   C39       1.0  0.27619  0.14428  0.23284  1.0000
  C   C40       1.0  0.27514  0.20536  0.21646  1.0000
  C   C41       1.0  0.32614  0.43360  0.29294  1.0000
  C   C42       1.0  0.37497  0.40764  0.21222  1.0000
  C   C43       1.0  0.41985  0.43712  0.23424  1.0000
  C   C44       1.0  0.41765  0.49419  0.33846  1.0000
  C   C45       1.0  0.36924  0.51938  0.42473  1.0000
  C   C46       1.0  0.32442  0.49005  0.39972  1.0000
  C   C47       1.0  0.69412  0.91034  0.68216  1.0000
  C   C48       1.0  0.69420  0.84761  0.67739  1.0000
  C   C49       1.0  0.73144  0.81601  0.73516  1.0000
  C   C50       1.0  0.77142  0.85017  0.79421  1.0000
  C   C51       1.0  0.77581  0.91190  0.78118  1.0000
  C   C52       1.0  0.73611  0.94142  0.73051  1.0000
  C   C53       1.0  0.72878  0.75034  0.74014  1.0000
  C   C54       1.0  0.68187  0.72005  0.76657  1.0000
  C   C55       1.0  0.68158  0.65770  0.77624  1.0000
  C   C56       1.0  0.72837  0.62607  0.76024  1.0000
  C   C57       1.0  0.77551  0.65433  0.73497  1.0000
  C   C58       1.0  0.77423  0.71557  0.72105  1.0000
  C   C59       1.0  0.82106  0.94498  0.82384  1.0000
  C   C60       1.0  0.82465  0.62197  0.72868  1.0000
  C   C61       1.0  0.82588  0.57035  0.80565  1.0000
  C   C62       1.0  0.87205  0.54035  0.80396  1.0000
  C   C63       1.0  0.91901  0.55978  0.72096  1.0000
  C   C64       1.0  0.91812  0.61111  0.64248  1.0000
  C   C65       1.0  0.87201  0.64169  0.64760  1.0000
  C   C66       1.0  0.87129  0.92104  0.75176  1.0000
  C   C67       1.0  0.91433  0.95235  0.78427  1.0000
  C   C68       1.0  0.90907  0.00906  0.89156  1.0000
  C   C69       1.0  0.85927  0.03308  0.96435  1.0000
  C   C70       1.0  0.81611  0.00176  0.93007  1.0000
  C   C71       1.0  0.51532  0.04052  0.59675  1.0000
  C   C72       1.0  0.49324  0.53048  0.76730  1.0000
  C   C73       1.0  0.95411  0.04365  0.91965  1.0000
  C   C74       1.0  0.96653  0.52741  0.72476  1.0000
  C   C75       1.0  0.19035  0.40326  0.67517  1.0000
  C   C76       1.0  0.19125  0.34075  0.67486  1.0000
  C   C77       1.0  0.22988  0.31062  0.72965  1.0000
  C   C78       1.0  0.27011  0.34574  0.78218  1.0000
  C   C79       1.0  0.27385  0.40700  0.76287  1.0000
  C   C80       1.0  0.23300  0.43528  0.71441  1.0000
  C   C81       1.0  0.22869  0.24520  0.73802  1.0000
  C   C82       1.0  0.18273  0.21513  0.78461  1.0000
  C   C83       1.0  0.18410  0.15317  0.79799  1.0000
  C   C84       1.0  0.23170  0.12207  0.76603  1.0000
  C   C85       1.0  0.27806  0.14999  0.71866  1.0000
  C   C86       1.0  0.27499  0.21095  0.70250  1.0000
  C   C87       1.0  0.14419  0.43426  0.64789  1.0000
  C   C88       1.0  0.31973  0.44039  0.79805  1.0000
  C   C89       1.0  0.32809  0.11729  0.69299  1.0000
  C   C90       1.0  0.33242  0.06432  0.76163  1.0000
  C   C91       1.0  0.37951  0.03395  0.74151  1.0000
  C   C92       1.0  0.42487  0.05547  0.65392  1.0000
  C   C93       1.0  0.42076  0.10810  0.58239  1.0000
  C   C94       1.0  0.37346  0.13794  0.60125  1.0000
  C   C95       1.0  0.36940  0.41504  0.72676  1.0000
  C   C96       1.0  0.41325  0.44587  0.75369  1.0000
  C   C97       1.0  0.40934  0.50384  0.85400  1.0000
  C   C98       1.0  0.35999  0.52882  0.92958  1.0000
  C   C99       1.0  0.31617  0.49802  0.89972  1.0000
  C   C100      1.0  0.14594  0.48706  0.57498  1.0000
  C   C101      1.0  0.10113  0.51730  0.56288  1.0000
  C   C102      1.0  0.05252  0.49683  0.62814  1.0000
  C   C103      1.0  0.05058  0.44277  0.69540  1.0000
  C   C104      1.0  0.09539  0.41246  0.70555  1.0000
  N   N1        1.0  0.46514  0.01148  0.17035  1.0000
  N   N2        1.0  0.99667  0.02303  0.35852  1.0000
  N   N3        1.0  0.46121  0.52716  0.36480  1.0000
  N   N4        1.0  0.01456  0.52875  0.11705  1.0000
  N   N5        1.0  0.46991  0.02272  0.65297  1.0000
  N   N6        1.0  0.99988  0.02132  0.85384  1.0000
  N   N7        1.0  0.45213  0.53775  0.88486  1.0000
  N   N8        1.0  0.00896  0.53100  0.61785  1.0000
  O   O1        1.0  0.80844  0.82201  0.36609  1.0000
  O   O2        1.0  0.64016  0.74421  0.27580  1.0000
  O   O3        1.0  0.31023  0.31399  0.35739  1.0000
  O   O4        1.0  0.13758  0.24718  0.32569  1.0000
  O   O5        1.0  0.80555  0.82294  0.86981  1.0000
  O   O6        1.0  0.63674  0.75199  0.77665  1.0000
  O   O7        1.0  0.30515  0.31972  0.85741  1.0000
  O   O8        1.0  0.13647  0.24676  0.81114  1.0000
  C  Sn1       1.0  0.11749  0.06186  0.19679  1.0000
  C   C105      1.0  0.12784  0.11650  0.29295  1.0000
  C  Sn2       1.0  0.09550  0.13961  0.44820  1.0000
  C  Sn3       1.0  0.05192  0.10741  0.50868  1.0000
  C   C106      1.0  0.04159  0.05280  0.41257  1.0000
  C  Sn4       1.0  0.07390  0.02966  0.25727  1.0000
  O  Te1       1.0  0.15034  0.03961  0.04194  1.0000
  O  Te2       1.0  0.10664  0.19434  0.54205  1.0000
  O  Te3       1.0  0.01906  0.12972  0.66366  1.0000
  O  Te4       1.0  0.05849  0.97496  0.16347  1.0000
  Mg  Mg1       1.0  0.05040  0.20610  0.74538  1.0000
  Mg  Mg2       1.0  0.05793  0.02269  0.96018  1.0000
  C  Sn5       1.0  0.84166  0.57135  0.35997  1.0000
  C   C107      1.0  0.83325  0.61952  0.27760  1.0000
  C  Sn6       1.0  0.87113  0.63452  0.14733  1.0000
  C  Sn7       1.0  0.91838  0.60064  0.09828  1.0000
  C   C108      1.0  0.92677  0.55250  0.18060  1.0000
  C  Sn8       1.0  0.88892  0.53748  0.31091  1.0000
  O  Te5       1.0  0.80326  0.55716  0.48985  1.0000
  O  Te6       1.0  0.86184  0.68288  0.06691  1.0000
  O  Te7       1.0  0.90001  0.67442  0.96828  1.0000
  O  Te8       1.0  0.89818  0.48915  0.39129  1.0000
  Mg  Mg3       1.0  0.86922  0.74423  0.89705  1.0000
  Mg  Mg4       1.0  0.83404  0.48728  0.56110  1.0000
  C  Sn9       1.0  0.35997  0.01871  0.22925  1.0000
  C   C109      1.0  0.40827  0.03154  0.14187  1.0000
  C  Sn10      1.0  0.41709  0.08822  0.09498  1.0000
  C  Sn11      1.0  0.37682  0.13304  0.13638  1.0000
  C   C110      1.0  0.32856  0.12020  0.22372  1.0000
  C  Sn12      1.0  0.31970  0.06352  0.27064  1.0000
  O  Te9       1.0  0.34771  0.96173  0.27488  1.0000
  O  Te10      1.0  0.46570  0.09999  0.00764  1.0000
  O  Te11      1.0  0.38481  0.19004  0.09066  1.0000
  O  Te12      1.0  0.27113  0.05175  0.35795  1.0000
  Mg  Mg5       1.0  0.40087  0.24397  0.97307  1.0000
  Mg  Mg6       1.0  0.27484  0.96735  0.39267  1.0000
  C  Sn13      1.0  0.11880  0.50269  0.02142  1.0000
  C   C111      1.0  0.06779  0.48798  0.07373  1.0000
  C  Sn14      1.0  0.05581  0.44627  0.18450  1.0000
  C  Sn15      1.0  0.09563  0.41871  0.24433  1.0000
  C   C112      1.0  0.14659  0.43342  0.19205  1.0000
  C  Sn16      1.0  0.15862  0.47512  0.08125  1.0000
  O  Te13      1.0  0.07311  0.60406  0.91062  1.0000
  O  Te14      1.0  0.00453  0.43228  0.23497  1.0000
  O  Te15      1.0  0.08449  0.37685  0.35521  1.0000
  O  Te16      1.0  0.20985  0.48913  0.03081  1.0000
  Mg  Mg7       1.0  0.00880  0.37260  0.38755  1.0000
  Mg  Mg8       1.0  0.14886  0.60837  0.87831  1.0000
  C  Sn17      1.0  0.55303  0.62421  0.36405  1.0000
  C   C113      1.0  0.54575  0.57228  0.25047  1.0000
  C  Sn18      1.0  0.58793  0.53717  0.15272  1.0000
  C  Sn19      1.0  0.63845  0.55431  0.16890  1.0000
  C   C114      1.0  0.64571  0.60621  0.28243  1.0000
  C  Sn20      1.0  0.60355  0.64135  0.38022  1.0000
  O  Te17      1.0  0.51030  0.65863  0.46050  1.0000
  O  Te18      1.0  0.57968  0.48545  0.04000  1.0000
  O  Te19      1.0  0.68119  0.51985  0.07232  1.0000
  O  Te20      1.0  0.61177  0.69303  0.49291  1.0000
  Mg  Mg9       1.0  0.59343  0.51285  0.93639  1.0000
  Mg  Mg10      1.0  0.54128  0.72520  0.59664  1.0000
  C  Sn21      1.0  0.64578  0.01581  0.61848  1.0000
  C   C115      1.0  0.64808  0.96191  0.68222  1.0000
  C  Sn22      1.0  0.60560  0.92531  0.69752  1.0000
  C  Sn23      1.0  0.55989  0.94292  0.64797  1.0000
  C   C116      1.0  0.55761  0.99679  0.58425  1.0000
  C  Sn24      1.0  0.60007  0.03343  0.56893  1.0000
  O  Te21      1.0  0.69302  0.05170  0.60428  1.0000
  O  Te22      1.0  0.60881  0.87163  0.76165  1.0000
  O  Te23      1.0  0.51694  0.90698  0.66223  1.0000
  O  Te24      1.0  0.60118  0.08707  0.50482  1.0000
  Mg  Mg11      1.0  0.54012  0.83799  0.75672  1.0000
  Mg  Mg12      1.0  0.66986  0.12073  0.50961  1.0000
  C  Sn25      1.0  0.10024  0.02598  0.76141  1.0000
  C   C117      1.0  0.05438  0.04141  0.87894  1.0000
  C  Sn26      1.0  0.04940  0.10007  0.97043  1.0000
  C  Sn27      1.0  0.08671  0.14424  0.94382  1.0000
  C   C118      1.0  0.13252  0.12881  0.82633  1.0000
  C  Sn28      1.0  0.14185  0.07016  0.73480  1.0000
  O  Te25      1.0  0.10871  0.96707  0.67136  1.0000
  O  Te26      1.0  0.06006  0.05486  0.08729  1.0000
  O  Te27      1.0  0.13498  0.14364  0.03400  1.0000
  O  Te28      1.0  0.18793  0.05581  0.61799  1.0000
  Mg  Mg13      1.0  0.06625  0.14124  0.17911  1.0000
  Mg  Mg14      1.0  0.17747  0.96946  0.52604  1.0000
  C  Sn29      1.0  0.54642  0.63460  0.87913  1.0000
  C   C119      1.0  0.53845  0.58114  0.77281  1.0000
  C  Sn30      1.0  0.58016  0.54386  0.68136  1.0000
  C  Sn31      1.0  0.63090  0.56034  0.69657  1.0000
  C   C120      1.0  0.63884  0.61377  0.80286  1.0000
  C  Sn32      1.0  0.59715  0.65108  0.89434  1.0000
  O  Te29      1.0  0.50415  0.67119  0.96937  1.0000
  O  Te30      1.0  0.57124  0.49064  0.57582  1.0000
  O  Te31      1.0  0.67318  0.52370  0.60621  1.0000
  O  Te32      1.0  0.60606  0.70426  0.99985  1.0000
  Mg  Mg15      1.0  0.64133  0.45572  0.47893  1.0000
  Mg  Mg16      1.0  0.59278  0.67965  0.09686  1.0000
