data_image0
_chemical_formula_structural       H80C112N8O8C2Sn2C2HTe2HMgC2Sn2C2HTe2HMgC2Sn2C2HTe2HMgC2Sn2C2HTe2HMgC2Sn2C2HTe2HMgC2Sn2C2HTe2HMgC2Sn2C2HTe2HMgC2Sn2C2HTe2HMg
_chemical_formula_sum              "H96 C144 N8 O8 Sn16 Te16 Mg8"
_cell_length_a       26.5283
_cell_length_b       22.7053
_cell_length_c       8.53695
_cell_angle_alpha    90.9623
_cell_angle_beta     65.143
_cell_angle_gamma    88.6822

_symmetry_space_group_name_H-M    'P1'
_space_group_IT_number       1

loop_
  _space_group_symop_operation_xyz
  'x, y, z'

loop_
  _atom_site_type_symbol
  _atom_site_label
  _atom_site_symmetry_multiplicity
  _atom_site_fract_x
  _atom_site_fract_y
  _atom_site_fract_z
  _atom_site_occupancy
  H   H1        1.0  0.39840  0.06499  0.10746  1.0000
  H   H2        1.0  0.48988  0.22165  0.04144  1.0000
  H   H3        1.0  0.26979  0.16663  0.02493  1.0000
  H   H4        1.0  0.32280  0.31616  0.22401  1.0000
  H   H5        1.0  0.40666  0.25979  0.19982  1.0000
  H   H6        1.0  0.53571  0.23139  0.21709  1.0000
  H   H7        1.0  0.61471  0.28821  0.21313  1.0000
  H   H8        1.0  0.23858  0.32525  0.18353  1.0000
  H   H9        1.0  0.71213  0.30965  0.08680  1.0000
  H   H10       1.0  0.54885  0.97461  0.12302  1.0000
  H   H11       1.0  0.49233  0.81121  0.01583  1.0000
  H   H12       1.0  0.62776  0.92837  0.00771  1.0000
  H   H13       1.0  0.70566  0.87530  0.03977  1.0000
  H   H14       1.0  0.60465  0.72427  0.21745  1.0000
  H   H15       1.0  0.52613  0.77746  0.19201  1.0000
  H   H16       1.0  0.42515  0.77103  0.07822  1.0000
  H   H17       1.0  0.35512  0.70947  0.05017  1.0000
  H   H18       1.0  0.29469  0.85501  0.36052  1.0000
  H   H19       1.0  0.37034  0.91542  0.36879  1.0000
  H   H20       1.0  0.70081  0.71610  0.16506  1.0000
  H   H21       1.0  0.27500  0.69639  0.97717  1.0000
  H   H22       1.0  0.32728  0.93923  0.17614  1.0000
  H   H23       1.0  0.31805  0.01292  0.11874  1.0000
  H   H24       1.0  0.35044  0.00018  0.26298  1.0000
  H   H25       1.0  0.60996  0.05007  0.21060  1.0000
  H   H26       1.0  0.58945  0.97982  0.30572  1.0000
  H   H27       1.0  0.65262  0.01020  0.29313  1.0000
  H   H28       1.0  0.05493  0.47339  0.07213  1.0000
  H   H29       1.0  0.99136  0.31324  0.46861  1.0000
  H   H30       1.0  0.20743  0.37118  0.00864  1.0000
  H   H31       1.0  0.10631  0.21920  0.16079  1.0000
  H   H32       1.0  0.02871  0.27552  0.13722  1.0000
  H   H33       1.0  0.92140  0.27573  0.07392  1.0000
  H   H34       1.0  0.84942  0.21406  0.05575  1.0000
  H   H35       1.0  0.90489  0.56748  0.05427  1.0000
  H   H36       1.0  0.99757  0.72178  0.01357  1.0000
  H   H37       1.0  0.85440  0.80723  0.41824  1.0000
  H   H38       1.0  0.93868  0.74830  0.38714  1.0000
  H   H39       1.0  0.11366  0.55040  0.16742  1.0000
  H   H40       1.0  0.08913  0.48042  0.25920  1.0000
  H   H41       1.0  0.15469  0.50499  0.24306  1.0000
  H   H42       1.0  0.83191  0.44371  0.14972  1.0000
  H   H43       1.0  0.82240  0.51496  0.07681  1.0000
  H   H44       1.0  0.85658  0.50793  0.21851  1.0000
  H   H45       1.0  0.39678  0.06379  0.60593  1.0000
  H   H46       1.0  0.48596  0.22153  0.54816  1.0000
  H   H47       1.0  0.35639  0.11105  0.98679  1.0000
  H   H48       1.0  0.72767  0.17781  0.79263  1.0000
  H   H49       1.0  0.64870  0.12353  0.78785  1.0000
  H   H50       1.0  0.23235  0.31920  0.68827  1.0000
  H   H51       1.0  0.71008  0.31413  0.57823  1.0000
  H   H52       1.0  0.54794  0.97420  0.62710  1.0000
  H   H53       1.0  0.49323  0.81086  0.51209  1.0000
  H   H54       1.0  0.42461  0.77052  0.58368  1.0000
  H   H55       1.0  0.35483  0.70887  0.55263  1.0000
  H   H56       1.0  0.29144  0.85666  0.87235  1.0000
  H   H57       1.0  0.36773  0.91690  0.87514  1.0000
  H   H58       1.0  0.69755  0.71630  0.68366  1.0000
  H   H59       1.0  0.27587  0.69587  0.47676  1.0000
  H   H60       1.0  0.32790  0.93678  0.68242  1.0000
  H   H61       1.0  0.31631  0.00874  0.61850  1.0000
  H   H62       1.0  0.34920  0.00070  0.76299  1.0000
  H   H63       1.0  0.61013  0.04766  0.70582  1.0000
  H   H64       1.0  0.59236  0.97764  0.80542  1.0000
  H   H65       1.0  0.65513  0.01120  0.78575  1.0000
  H   H66       1.0  0.05086  0.47335  0.58576  1.0000
  H   H67       1.0  0.99432  0.31117  0.97156  1.0000
  H   H68       1.0  0.13193  0.42608  0.97343  1.0000
  H   H69       1.0  0.79465  0.35647  0.83482  1.0000
  H   H70       1.0  0.87118  0.41630  0.83450  1.0000
  H   H71       1.0  0.90105  0.56950  0.58103  1.0000
  H   H72       1.0  0.99604  0.72276  0.52529  1.0000
  H   H73       1.0  0.83556  0.63380  0.78220  1.0000
  H   H74       1.0  0.75187  0.69128  0.80925  1.0000
  H   H75       1.0  0.11889  0.54977  0.65809  1.0000
  H   H76       1.0  0.09467  0.47987  0.75036  1.0000
  H   H77       1.0  0.15908  0.50559  0.74002  1.0000
  H   H78       1.0  0.82846  0.44439  0.64472  1.0000
  H   H79       1.0  0.81946  0.51828  0.58769  1.0000
  H   H80       1.0  0.85221  0.50504  0.73069  1.0000
  C   C1        1.0  0.43758  0.08519  0.07653  1.0000
  C   C2        1.0  0.43827  0.14680  0.07160  1.0000
  C   C3        1.0  0.48780  0.17393  0.04548  1.0000
  C   C4        1.0  0.53619  0.14077  0.01688  1.0000
  C   C5        1.0  0.53279  0.07890  0.51430  1.0000
  C   C6        1.0  0.48463  0.04882  0.04467  1.0000
  C   C7        1.0  0.38790  0.18097  0.09154  1.0000
  C   C8        1.0  0.34806  0.15526  0.04475  1.0000
  C   C9        1.0  0.30009  0.18615  0.06339  1.0000
  C   C10       1.0  0.29045  0.24490  0.12693  1.0000
  C   C11       1.0  0.33007  0.27095  0.17294  1.0000
  C   C12       1.0  0.37779  0.23949  0.15662  1.0000
  C   C13       1.0  0.57758  0.22045  0.12110  1.0000
  C   C14       1.0  0.62204  0.25217  0.11954  1.0000
  C   C15       1.0  0.24180  0.27902  0.13856  1.0000
  C   C16       1.0  0.72035  0.27100  0.50943  1.0000
  C   C17       1.0  0.52063  0.95047  0.08623  1.0000
  C   C18       1.0  0.52535  0.88893  0.07457  1.0000
  C   C19       1.0  0.48713  0.85872  0.03327  1.0000
  C   C20       1.0  0.44339  0.88741  0.00990  1.0000
  C   C21       1.0  0.44063  0.95020  0.02085  1.0000
  C   C22       1.0  0.48120  0.98302  0.05036  1.0000
  C   C23       1.0  0.57083  0.85721  0.09799  1.0000
  C   C24       1.0  0.40228  0.85029  0.98136  1.0000
  C   C25       1.0  0.62204  0.88419  0.05815  1.0000
  C   C26       1.0  0.66586  0.85478  0.07473  1.0000
  C   C27       1.0  0.66053  0.79640  0.13112  1.0000
  C   C28       1.0  0.60951  0.76924  0.17211  1.0000
  C   C29       1.0  0.56546  0.79910  0.15651  1.0000
  C   C30       1.0  0.39818  0.79026  0.02466  1.0000
  C   C31       1.0  0.35742  0.75530  0.01261  1.0000
  C   C32       1.0  0.31853  0.77838  0.45992  1.0000
  C   C33       1.0  0.32387  0.83712  0.40799  1.0000
  C   C34       1.0  0.36575  0.87097  0.41472  1.0000
  C   C35       1.0  0.70730  0.76327  0.13812  1.0000
  C   C36       1.0  0.27238  0.74380  0.46416  1.0000
  C   C37       1.0  0.34546  0.98292  0.14932  1.0000
  C   C38       1.0  0.60990  0.02078  0.31153  1.0000
  C   C39       1.0  0.02560  0.44975  0.03954  1.0000
  C   C40       1.0  0.02926  0.38818  0.02959  1.0000
  C   C41       1.0  0.99002  0.35868  0.99141  1.0000
  C   C42       1.0  0.94280  0.39105  0.47500  1.0000
  C   C43       1.0  0.94140  0.45370  0.48693  1.0000
  C   C44       1.0  0.98609  0.48319  0.00606  1.0000
  C   C45       1.0  0.07399  0.35555  0.05448  1.0000
  C   C46       1.0  0.12505  0.38152  0.02115  1.0000
  C   C47       1.0  0.16787  0.35050  0.04019  1.0000
  C   C48       1.0  0.16180  0.29133  0.09064  1.0000
  C   C49       1.0  0.11100  0.26493  0.12273  1.0000
  C   C50       1.0  0.06792  0.29670  0.10778  1.0000
  C   C51       1.0  0.89562  0.29356  0.01406  1.0000
  C   C52       1.0  0.85425  0.25851  0.00734  1.0000
  C   C53       1.0  0.94381  0.58657  0.03415  1.0000
  C   C54       1.0  0.94544  0.64815  0.03573  1.0000
  C   C55       1.0  0.99552  0.67403  0.00897  1.0000
  C   C56       1.0  0.04175  0.64044  0.48967  1.0000
  C   C57       1.0  0.03874  0.57843  0.47750  1.0000
  C   C58       1.0  0.99041  0.54898  0.00083  1.0000
  C   C59       1.0  0.85097  0.76904  0.49692  1.0000
  C   C60       1.0  0.89781  0.73606  0.48072  1.0000
  C   C61       1.0  0.11234  0.51917  0.26555  1.0000
  C   C62       1.0  0.85028  0.48694  0.11122  1.0000
  C   C63       1.0  0.43563  0.08425  0.57824  1.0000
  C   C64       1.0  0.43566  0.14585  0.57401  1.0000
  C   C65       1.0  0.48458  0.17374  0.55152  1.0000
  C   C66       1.0  0.53337  0.14127  0.52391  1.0000
  C   C67       1.0  0.53503  0.07853  0.00837  1.0000
  C   C68       1.0  0.48284  0.04848  0.54910  1.0000
  C   C69       1.0  0.58587  0.17240  0.00551  1.0000
  C   C70       1.0  0.67679  0.23596  0.00439  1.0000
  C   C71       1.0  0.68540  0.18891  0.88579  1.0000
  C   C72       1.0  0.64080  0.15808  0.88528  1.0000
  C   C73       1.0  0.23825  0.27442  0.63065  1.0000
  C   C74       1.0  0.72289  0.26731  0.01371  1.0000
  C   C75       1.0  0.51995  0.95015  0.58916  1.0000
  C   C76       1.0  0.52530  0.88866  0.57501  1.0000
  C   C77       1.0  0.48743  0.85822  0.53290  1.0000
  C   C78       1.0  0.44340  0.88664  0.51119  1.0000
  C   C79       1.0  0.44006  0.94934  0.52362  1.0000
  C   C80       1.0  0.48019  0.98257  0.55421  1.0000
  C   C81       1.0  0.40275  0.84927  0.48176  1.0000
  C   C82       1.0  0.39823  0.78948  0.52751  1.0000
  C   C83       1.0  0.35781  0.75452  0.51331  1.0000
  C   C84       1.0  0.31711  0.77932  0.96393  1.0000
  C   C85       1.0  0.32167  0.83844  0.91522  1.0000
  C   C86       1.0  0.36400  0.87225  0.91933  1.0000
  C   C87       1.0  0.70515  0.76268  0.64749  1.0000
  C   C88       1.0  0.27111  0.74445  0.96814  1.0000
  C   C89       1.0  0.34469  0.98097  0.65126  1.0000
  C   C90       1.0  0.61183  0.01969  0.80710  1.0000
  C   C91       1.0  0.02211  0.45047  0.54862  1.0000
  C   C92       1.0  0.02615  0.38901  0.53197  1.0000
  C   C93       1.0  0.98695  0.36063  0.49124  1.0000
  C   C94       1.0  0.94577  0.38835  0.97393  1.0000
  C   C95       1.0  0.94439  0.45104  0.98128  1.0000
  C   C96       1.0  0.98283  0.48474  0.51655  1.0000
  C   C97       1.0  0.90246  0.35208  0.95606  1.0000
  C   C98       1.0  0.81538  0.28162  0.95077  1.0000
  C   C99       1.0  0.82204  0.33941  0.89022  1.0000
  C   C100      1.0  0.86540  0.37301  0.88905  1.0000
  C   C101      1.0  0.94062  0.58811  0.55551  1.0000
  C   C102      1.0  0.94300  0.64957  0.55428  1.0000
  C   C103      1.0  0.99358  0.67504  0.52365  1.0000
  C   C104      1.0  0.04358  0.63961  0.97708  1.0000
  C   C105      1.0  0.04132  0.57758  0.96513  1.0000
  C   C106      1.0  0.98735  0.55040  0.51643  1.0000
  C   C107      1.0  0.89317  0.68569  0.57868  1.0000
  C   C108      1.0  0.83966  0.67046  0.69758  1.0000
  C   C109      1.0  0.79258  0.70290  0.71311  1.0000
  C   C110      1.0  0.79740  0.75210  0.60967  1.0000
  C   C111      1.0  0.11698  0.51912  0.75834  1.0000
  C   C112      1.0  0.84690  0.48800  0.61726  1.0000
  N   N1        1.0  0.20471  0.25615  0.09731  1.0000
  N   N2        1.0  0.77076  0.24966  0.44255  1.0000
  N   N3        1.0  0.75441  0.78694  0.10508  1.0000
  N   N4        1.0  0.22844  0.76877  0.46259  1.0000
  N   N5        1.0  0.20349  0.25299  0.57665  1.0000
  N   N6        1.0  0.77337  0.24625  0.94680  1.0000
  N   N7        1.0  0.75283  0.78587  0.60818  1.0000
  N   N8        1.0  0.22678  0.76916  0.96868  1.0000
  O   O1        1.0  0.39810  0.98067  0.99859  1.0000
  O   O2        1.0  0.58287  0.04965  0.47997  1.0000
  O   O3        1.0  0.08838  0.54689  0.43559  1.0000
  O   O4        1.0  0.89924  0.48569  0.46579  1.0000
  O   O5        1.0  0.39735  0.97914  0.50073  1.0000
  O   O6        1.0  0.58507  0.04928  0.97460  1.0000
  O   O7        1.0  0.09115  0.54691  0.92801  1.0000
  O   O8        1.0  0.90202  0.48177  0.95841  1.0000
  C   C113      1.0  0.89342  0.74767  0.95099  1.0000
  C   C114      1.0  0.03362  0.68990  0.04544  1.0000
  C  Sn1       1.0  0.98616  0.66672  0.17367  1.0000
  C  Sn2       1.0  0.93302  0.69196  0.20766  1.0000
  C   C115      1.0  0.92872  0.73977  0.11238  1.0000
  C   C116      1.0  0.84102  0.77258  0.98438  1.0000
  H   H81       1.0  0.93037  0.76535  0.85189  1.0000
  O  Te1       1.0  0.99164  0.61895  0.26686  1.0000
  O  Te2       1.0  0.88490  0.66965  0.33505  1.0000
  H   H82       1.0  0.83734  0.80958  0.91121  1.0000
  Mg  Mg1       1.0  0.91382  0.60412  0.42748  1.0000
  C   C117      1.0  0.36344  0.25021  0.67706  1.0000
  C   C118      1.0  0.38110  0.19224  0.61881  1.0000
  C  Sn3       1.0  0.35178  0.15841  0.54899  1.0000
  C  Sn4       1.0  0.30392  0.18320  0.53738  1.0000
  C   C119      1.0  0.28662  0.24125  0.59590  1.0000
  C   C120      1.0  0.31625  0.27470  0.66560  1.0000
  H   H83       1.0  0.38638  0.27611  0.73090  1.0000
  O  Te3       1.0  0.36998  0.10056  0.49146  1.0000
  O  Te4       1.0  0.27386  0.15038  0.46809  1.0000
  H   H84       1.0  0.30259  0.31960  0.71058  1.0000
  Mg  Mg2       1.0  0.31511  0.07347  0.40710  1.0000
  C   C121      1.0  0.18794  0.67294  0.83822  1.0000
  C   C122      1.0  0.18754  0.72250  0.93811  1.0000
  C  Sn5       1.0  0.27296  0.73552  0.06535  1.0000
  C  Sn6       1.0  0.22242  0.70828  0.09283  1.0000
  C   C123      1.0  0.08780  0.66865  0.99230  1.0000
  C   C124      1.0  0.13812  0.64603  0.86529  1.0000
  H   H85       1.0  0.22688  0.65542  0.74001  1.0000
  O  Te5       1.0  0.27331  0.78507  0.16394  1.0000
  O  Te6       1.0  0.17181  0.73033  0.21917  1.0000
  H   H86       1.0  0.13842  0.60764  0.78805  1.0000
  Mg  Mg3       1.0  0.19373  0.79876  0.32051  1.0000
  C   C125      1.0  0.63619  0.88392  0.55803  1.0000
  C   C126      1.0  0.58451  0.86365  0.57847  1.0000
  C  Sn7       1.0  0.56845  0.80731  0.63976  1.0000
  C  Sn8       1.0  0.60490  0.77069  0.68128  1.0000
  C   C127      1.0  0.65651  0.79139  0.66049  1.0000
  C   C128      1.0  0.67216  0.84784  0.59902  1.0000
  H   H87       1.0  0.64830  0.92761  0.51055  1.0000
  O  Te7       1.0  0.51667  0.78774  0.65936  1.0000
  O  Te8       1.0  0.58989  0.71419  0.74284  1.0000
  H   H88       1.0  0.71217  0.86354  0.58331  1.0000
  Mg  Mg4       1.0  0.51499  0.70734  0.74760  1.0000
  C   C129      1.0  0.86472  0.26229  0.50875  1.0000
  C   C130      1.0  0.82318  0.27731  0.45510  1.0000
  C  Sn9       1.0  0.82144  0.33298  0.38992  1.0000
  C  Sn10      1.0  0.86211  0.37428  0.37835  1.0000
  C   C131      1.0  0.90352  0.35881  0.43224  1.0000
  C   C132      1.0  0.90486  0.30299  0.49732  1.0000
  H   H89       1.0  0.86578  0.21909  0.55902  1.0000
  O  Te9       1.0  0.77964  0.34728  0.33695  1.0000
  O  Te10      1.0  0.86136  0.43022  0.31364  1.0000
  H   H90       1.0  0.93705  0.29136  0.53874  1.0000
  Mg  Mg5       1.0  0.79609  0.42903  0.25786  1.0000
  C   C133      1.0  0.65315  0.16188  0.37101  1.0000
  C   C134      1.0  0.59673  0.16805  0.48232  1.0000
  C  Sn11      1.0  0.57782  0.21333  0.60837  1.0000
  C  Sn12      1.0  0.61621  0.25311  0.62291  1.0000
  C   C135      1.0  0.67256  0.24659  0.51085  1.0000
  C   C136      1.0  0.69103  0.20111  0.38522  1.0000
  H   H91       1.0  0.66744  0.12671  0.27373  1.0000
  O  Te11      1.0  0.52131  0.21885  0.71857  1.0000
  O  Te12      1.0  0.59843  0.29878  0.74770  1.0000
  H   H92       1.0  0.73471  0.19637  0.29898  1.0000
  Mg  Mg6       1.0  0.51728  0.28815  0.86791  1.0000
  C   C137      1.0  0.13673  0.38049  0.51703  1.0000
  C   C138      1.0  0.08520  0.36150  0.53201  1.0000
  C  Sn13      1.0  0.06924  0.30400  0.58075  1.0000
  C  Sn14      1.0  0.10563  0.26491  0.61511  1.0000
  C   C139      1.0  0.15708  0.28435  0.59988  1.0000
  C   C140      1.0  0.17263  0.34197  0.55096  1.0000
  H   H93       1.0  0.14875  0.42508  0.47927  1.0000
  O  Te13      1.0  0.01762  0.28574  0.59504  1.0000
  O  Te14      1.0  0.09072  0.20722  0.66412  1.0000
  H   H94       1.0  0.21251  0.35667  0.53949  1.0000
  Mg  Mg7       1.0  0.01603  0.20292  0.66583  1.0000
  C   C141      1.0  0.18719  0.67089  0.34612  1.0000
  C   C142      1.0  0.18803  0.72218  0.43769  1.0000
  C  Sn15      1.0  0.13847  0.74796  0.56010  1.0000
  C  Sn16      1.0  0.08719  0.72179  0.59115  1.0000
  C   C143      1.0  0.08680  0.67046  0.49895  1.0000
  C   C144      1.0  0.13663  0.64504  0.37672  1.0000
  H   H95       1.0  0.22574  0.65120  0.25161  1.0000
  O  Te15      1.0  0.14006  0.79921  0.65040  1.0000
  O  Te16      1.0  0.03705  0.74663  0.71281  1.0000
  H   H96       1.0  0.13597  0.60531  0.30592  1.0000
  Mg  Mg8       1.0  0.06071  0.81655  0.80311  1.0000
