data_image0
_chemical_formula_structural       H48C64N8O8C2Sn2C2HTe2HMgC2Sn2C2HTe2HMgC2Sn2C2HTe2HMgC2Sn2C2HTe2HMgC2Sn2C2HTe2HMgC2Sn2C2HTe2HMgC2Sn2C2HTe2HMgC2Sn2C2HTe2HMgC2Sn2C2HTe2HMgC2Sn2C2HTe2HMgC2Sn2C2HTe2HMgC2Sn2C2HTe2HMgC2Sn2C2HTe2HMgC2Sn2C2HTe2HMgC2Sn2C2HTe2HMgC2Sn2C2HTe2HMg
_chemical_formula_sum              "H80 C128 N8 O8 Sn32 Te32 Mg16"
_cell_length_a       26.5283
_cell_length_b       22.7053
_cell_length_c       8.53695
_cell_angle_alpha    90.9623
_cell_angle_beta     65.143
_cell_angle_gamma    88.6822

_symmetry_space_group_name_H-M    'P1'
_space_group_IT_number       1

loop_
  _space_group_symop_operation_xyz
  'x, y, z'

loop_
  _atom_site_type_symbol
  _atom_site_label
  _atom_site_symmetry_multiplicity
  _atom_site_fract_x
  _atom_site_fract_y
  _atom_site_fract_z
  _atom_site_occupancy
  H   H1        1.0  0.39840  0.06499  0.10746  1.0000
  H   H2        1.0  0.48988  0.22165  0.04144  1.0000
  H   H3        1.0  0.23858  0.32525  0.18353  1.0000
  H   H4        1.0  0.71213  0.30965  0.08680  1.0000
  H   H5        1.0  0.54885  0.97461  0.12302  1.0000
  H   H6        1.0  0.49233  0.81121  0.01583  1.0000
  H   H7        1.0  0.70081  0.71610  0.16506  1.0000
  H   H8        1.0  0.27500  0.69639  0.97717  1.0000
  H   H9        1.0  0.32728  0.93923  0.17614  1.0000
  H   H10       1.0  0.31805  0.01292  0.11874  1.0000
  H   H11       1.0  0.35044  0.00018  0.26298  1.0000
  H   H12       1.0  0.60996  0.05007  0.21060  1.0000
  H   H13       1.0  0.58945  0.97982  0.30572  1.0000
  H   H14       1.0  0.65262  0.01020  0.29313  1.0000
  H   H15       1.0  0.05493  0.47339  0.07213  1.0000
  H   H16       1.0  0.99136  0.31324  0.46861  1.0000
  H   H17       1.0  0.90489  0.56748  0.05427  1.0000
  H   H18       1.0  0.99757  0.72178  0.01357  1.0000
  H   H19       1.0  0.11366  0.55040  0.16742  1.0000
  H   H20       1.0  0.08913  0.48042  0.25920  1.0000
  H   H21       1.0  0.15469  0.50499  0.24306  1.0000
  H   H22       1.0  0.83191  0.44371  0.14972  1.0000
  H   H23       1.0  0.82240  0.51496  0.07681  1.0000
  H   H24       1.0  0.85658  0.50793  0.21851  1.0000
  H   H25       1.0  0.39678  0.06379  0.60593  1.0000
  H   H26       1.0  0.48596  0.22153  0.54816  1.0000
  H   H27       1.0  0.23235  0.31920  0.68827  1.0000
  H   H28       1.0  0.71008  0.31413  0.57823  1.0000
  H   H29       1.0  0.54794  0.97420  0.62710  1.0000
  H   H30       1.0  0.49323  0.81086  0.51209  1.0000
  H   H31       1.0  0.69755  0.71630  0.68366  1.0000
  H   H32       1.0  0.27587  0.69587  0.47676  1.0000
  H   H33       1.0  0.32790  0.93678  0.68242  1.0000
  H   H34       1.0  0.31631  0.00874  0.61850  1.0000
  H   H35       1.0  0.34920  0.00070  0.76299  1.0000
  H   H36       1.0  0.61013  0.04766  0.70582  1.0000
  H   H37       1.0  0.59236  0.97764  0.80542  1.0000
  H   H38       1.0  0.65513  0.01120  0.78575  1.0000
  H   H39       1.0  0.05086  0.47335  0.58576  1.0000
  H   H40       1.0  0.99432  0.31117  0.97156  1.0000
  H   H41       1.0  0.90105  0.56950  0.58103  1.0000
  H   H42       1.0  0.99604  0.72276  0.52529  1.0000
  H   H43       1.0  0.11889  0.54977  0.65809  1.0000
  H   H44       1.0  0.09467  0.47987  0.75036  1.0000
  H   H45       1.0  0.15908  0.50559  0.74002  1.0000
  H   H46       1.0  0.82846  0.44439  0.64472  1.0000
  H   H47       1.0  0.81946  0.51828  0.58769  1.0000
  H   H48       1.0  0.85221  0.50504  0.73069  1.0000
  C   C1        1.0  0.43758  0.08519  0.07653  1.0000
  C   C2        1.0  0.43827  0.14680  0.07160  1.0000
  C   C3        1.0  0.48780  0.17393  0.04548  1.0000
  C   C4        1.0  0.53619  0.14077  0.01688  1.0000
  C   C5        1.0  0.53279  0.07890  0.51430  1.0000
  C   C6        1.0  0.48463  0.04882  0.04467  1.0000
  C   C7        1.0  0.24180  0.27902  0.13856  1.0000
  C   C8        1.0  0.72035  0.27100  0.50943  1.0000
  C   C9        1.0  0.52063  0.95047  0.08623  1.0000
  C   C10       1.0  0.52535  0.88893  0.07457  1.0000
  C   C11       1.0  0.48713  0.85872  0.03327  1.0000
  C   C12       1.0  0.44339  0.88741  0.00990  1.0000
  C   C13       1.0  0.44063  0.95020  0.02085  1.0000
  C   C14       1.0  0.48120  0.98302  0.05036  1.0000
  C   C15       1.0  0.70730  0.76327  0.13812  1.0000
  C   C16       1.0  0.27238  0.74380  0.46416  1.0000
  C   C17       1.0  0.34546  0.98292  0.14932  1.0000
  C   C18       1.0  0.60990  0.02078  0.31153  1.0000
  C   C19       1.0  0.02560  0.44975  0.03954  1.0000
  C   C20       1.0  0.02926  0.38818  0.02959  1.0000
  C   C21       1.0  0.99002  0.35868  0.99141  1.0000
  C   C22       1.0  0.94280  0.39105  0.47500  1.0000
  C   C23       1.0  0.94140  0.45370  0.48693  1.0000
  C   C24       1.0  0.98609  0.48319  0.00606  1.0000
  C   C25       1.0  0.94381  0.58657  0.03415  1.0000
  C   C26       1.0  0.94544  0.64815  0.03573  1.0000
  C   C27       1.0  0.99552  0.67403  0.00897  1.0000
  C   C28       1.0  0.04175  0.64044  0.48967  1.0000
  C   C29       1.0  0.03874  0.57843  0.47750  1.0000
  C   C30       1.0  0.99041  0.54898  0.00083  1.0000
  C   C31       1.0  0.11234  0.51917  0.26555  1.0000
  C   C32       1.0  0.85028  0.48694  0.11122  1.0000
  C   C33       1.0  0.43563  0.08425  0.57824  1.0000
  C   C34       1.0  0.43566  0.14585  0.57401  1.0000
  C   C35       1.0  0.48458  0.17374  0.55152  1.0000
  C   C36       1.0  0.53337  0.14127  0.52391  1.0000
  C   C37       1.0  0.53503  0.07853  0.00837  1.0000
  C   C38       1.0  0.48284  0.04848  0.54910  1.0000
  C   C39       1.0  0.23825  0.27442  0.63065  1.0000
  C   C40       1.0  0.72289  0.26731  0.01371  1.0000
  C   C41       1.0  0.51995  0.95015  0.58916  1.0000
  C   C42       1.0  0.52530  0.88866  0.57501  1.0000
  C   C43       1.0  0.48743  0.85822  0.53290  1.0000
  C   C44       1.0  0.44340  0.88664  0.51119  1.0000
  C   C45       1.0  0.44006  0.94934  0.52362  1.0000
  C   C46       1.0  0.48019  0.98257  0.55421  1.0000
  C   C47       1.0  0.70515  0.76268  0.64749  1.0000
  C   C48       1.0  0.27111  0.74445  0.96814  1.0000
  C   C49       1.0  0.34469  0.98097  0.65126  1.0000
  C   C50       1.0  0.61183  0.01969  0.80710  1.0000
  C   C51       1.0  0.02211  0.45047  0.54862  1.0000
  C   C52       1.0  0.02615  0.38901  0.53197  1.0000
  C   C53       1.0  0.98695  0.36063  0.49124  1.0000
  C   C54       1.0  0.94577  0.38835  0.97393  1.0000
  C   C55       1.0  0.94439  0.45104  0.98128  1.0000
  C   C56       1.0  0.98283  0.48474  0.51655  1.0000
  C   C57       1.0  0.94062  0.58811  0.55551  1.0000
  C   C58       1.0  0.94300  0.64957  0.55428  1.0000
  C   C59       1.0  0.99358  0.67504  0.52365  1.0000
  C   C60       1.0  0.04358  0.63961  0.97708  1.0000
  C   C61       1.0  0.04132  0.57758  0.96513  1.0000
  C   C62       1.0  0.98735  0.55040  0.51643  1.0000
  C   C63       1.0  0.11698  0.51912  0.75834  1.0000
  C   C64       1.0  0.84690  0.48800  0.61726  1.0000
  N   N1        1.0  0.20471  0.25615  0.09731  1.0000
  N   N2        1.0  0.77076  0.24966  0.44255  1.0000
  N   N3        1.0  0.75441  0.78694  0.10508  1.0000
  N   N4        1.0  0.22844  0.76877  0.46259  1.0000
  N   N5        1.0  0.20349  0.25299  0.57665  1.0000
  N   N6        1.0  0.77337  0.24625  0.94680  1.0000
  N   N7        1.0  0.75283  0.78587  0.60818  1.0000
  N   N8        1.0  0.22678  0.76916  0.96868  1.0000
  O   O1        1.0  0.39810  0.98067  0.99859  1.0000
  O   O2        1.0  0.58287  0.04965  0.47997  1.0000
  O   O3        1.0  0.08838  0.54689  0.43559  1.0000
  O   O4        1.0  0.89924  0.48569  0.46579  1.0000
  O   O5        1.0  0.39735  0.97914  0.50073  1.0000
  O   O6        1.0  0.58507  0.04928  0.97460  1.0000
  O   O7        1.0  0.09115  0.54691  0.92801  1.0000
  O   O8        1.0  0.90202  0.48177  0.95841  1.0000
  C   C65       1.0  0.34237  0.26986  0.18364  1.0000
  C   C66       1.0  0.30200  0.25441  0.12684  1.0000
  C  Sn1       1.0  0.30344  0.19818  0.05576  1.0000
  C  Sn2       1.0  0.34612  0.15674  0.04149  1.0000
  C   C67       1.0  0.38628  0.17261  0.09880  1.0000
  C   C68       1.0  0.38447  0.22901  0.16968  1.0000
  H   H49       1.0  0.34095  0.31348  0.23857  1.0000
  O  Te1       1.0  0.12733  0.19343  0.99959  1.0000
  O  Te2       1.0  0.21305  0.11019  0.97101  1.0000
  H   H50       1.0  0.41570  0.24094  0.21374  1.0000
  Mg  Mg1       1.0  0.14828  0.11098  0.91264  1.0000
  C   C69       1.0  0.60663  0.25074  0.13648  1.0000
  C   C70       1.0  0.66356  0.24116  0.03623  1.0000
  C  Sn3       1.0  0.54702  0.20677  0.90731  1.0000
  C  Sn4       1.0  0.50813  0.17144  0.87849  1.0000
  C   C71       1.0  0.45125  0.18141  0.97941  1.0000
  C   C72       1.0  0.56824  0.21593  0.10811  1.0000
  H   H51       1.0  0.59232  0.28517  0.23600  1.0000
  O  Te3       1.0  0.60405  0.19778  0.80836  1.0000
  O  Te4       1.0  0.52591  0.12684  0.75046  1.0000
  H   H52       1.0  0.52415  0.22336  0.18563  1.0000
  Mg  Mg2       1.0  0.60787  0.13156  0.64929  1.0000
  C   C73       1.0  0.60372  0.25427  0.63471  1.0000
  C   C74       1.0  0.66066  0.24431  0.53543  1.0000
  C  Sn5       1.0  0.67961  0.19870  0.41042  1.0000
  C  Sn6       1.0  0.64074  0.16247  0.38459  1.0000
  C   C75       1.0  0.58385  0.17282  0.48449  1.0000
  C   C76       1.0  0.56534  0.21857  0.60927  1.0000
  H   H53       1.0  0.58939  0.28968  0.73119  1.0000
  O  Te5       1.0  0.73665  0.18935  0.31239  1.0000
  O  Te6       1.0  0.65854  0.11659  0.26048  1.0000
  H   H54       1.0  0.52125  0.22629  0.68605  1.0000
  Mg  Mg3       1.0  0.74051  0.12129  0.15909  1.0000
  C   C77       1.0  0.57140  0.78480  0.16359  1.0000
  C   C78       1.0  0.56746  0.84351  0.12220  1.0000
  C  Sn7       1.0  0.61345  0.87924  0.07455  1.0000
  C  Sn8       1.0  0.66428  0.85564  0.06828  1.0000
  C   C79       1.0  0.66780  0.79685  0.10980  1.0000
  C   C80       1.0  0.62152  0.76148  0.15737  1.0000
  H   H55       1.0  0.53560  0.75742  0.20030  1.0000
  O  Te7       1.0  0.60879  0.93781  0.03366  1.0000
  O  Te8       1.0  0.71090  0.89038  0.02100  1.0000
  H   H56       1.0  0.62459  0.71602  0.18930  1.0000
  Mg  Mg4       1.0  0.54843  0.97755  0.97683  1.0000
  C   C81       1.0  0.35219  0.87074  0.90657  1.0000
  C   C82       1.0  0.39283  0.85653  0.96479  1.0000
  C  Sn9       1.0  0.53238  0.78982  0.02005  1.0000
  C  Sn10      1.0  0.49504  0.74657  0.01677  1.0000
  C   C83       1.0  0.31909  0.77117  0.95819  1.0000
  C   C84       1.0  0.31536  0.82811  0.90323  1.0000
  H   H57       1.0  0.34932  0.91478  0.86396  1.0000
  O  Te9       1.0  0.57321  0.77637  0.07788  1.0000
  O  Te10      1.0  0.49821  0.68950  0.07121  1.0000
  H   H58       1.0  0.28392  0.83909  0.85806  1.0000
  Mg  Mg5       1.0  0.56093  0.69250  0.13897  1.0000
  C   C85       1.0  0.35424  0.86940  0.40065  1.0000
  C   C86       1.0  0.39359  0.85548  0.46430  1.0000
  C  Sn11      1.0  0.39670  0.79900  0.52283  1.0000
  C  Sn12      1.0  0.35967  0.75575  0.51733  1.0000
  C   C87       1.0  0.32047  0.77011  0.45330  1.0000
  C   C88       1.0  0.31771  0.82676  0.39511  1.0000
  H   H59       1.0  0.35212  0.91322  0.35554  1.0000
  O  Te11      1.0  0.43626  0.78584  0.58609  1.0000
  O  Te12      1.0  0.36188  0.69896  0.57494  1.0000
  H   H60       1.0  0.28726  0.83752  0.34573  1.0000
  Mg  Mg6       1.0  0.42301  0.70229  0.64986  1.0000
  C   C89       1.0  0.13887  0.38183  0.02318  1.0000
  C   C90       1.0  0.08785  0.36194  0.03603  1.0000
  C  Sn13      1.0  0.07202  0.30466  0.08786  1.0000
  C  Sn14      1.0  0.10801  0.26669  0.12751  1.0000
  C   C91       1.0  0.15895  0.28703  0.11437  1.0000
  C   C92       1.0  0.17439  0.34442  0.06233  1.0000
  H   H61       1.0  0.01534  0.43620  0.98301  1.0000
  O  Te13      1.0  0.02090  0.28548  0.09995  1.0000
  O  Te14      1.0  0.09321  0.20924  0.17969  1.0000
  H   H62       1.0  0.21388  0.35982  0.05250  1.0000
  Mg  Mg7       1.0  0.01927  0.20342  0.17663  1.0000
  C   C93       1.0  0.88779  0.27961  0.02590  1.0000
  C   C94       1.0  0.76740  0.34615  0.96489  1.0000
  C  Sn15      1.0  0.73685  0.37736  0.89243  1.0000
  C  Sn16      1.0  0.69034  0.35133  0.88104  1.0000
  C   C95       1.0  0.67557  0.29471  0.94255  1.0000
  C   C96       1.0  0.84192  0.25391  0.01477  1.0000
  H   H63       1.0  0.91166  0.25575  0.08187  1.0000
  O  Te15      1.0  0.75250  0.43384  0.83205  1.0000
  O  Te16      1.0  0.65906  0.38155  0.80926  1.0000
  H   H64       1.0  0.83021  0.21011  0.06210  1.0000
  Mg  Mg8       1.0  0.69683  0.45741  0.74483  1.0000
  C   C97       1.0  0.88550  0.28218  0.51960  1.0000
  C   C98       1.0  0.90042  0.33906  0.46112  1.0000
  C  Sn17      1.0  0.86979  0.37082  0.38996  1.0000
  C  Sn18      1.0  0.82337  0.34504  0.37733  1.0000
  C   C99       1.0  0.80876  0.28812  0.43632  1.0000
  C   C100      1.0  0.83971  0.25673  0.50725  1.0000
  H   H65       1.0  0.90943  0.25790  0.57457  1.0000
  O  Te17      1.0  0.88528  0.42759  0.33210  1.0000
  O  Te18      1.0  0.79202  0.37581  0.30683  1.0000
  H   H66       1.0  0.82813  0.21271  0.55262  1.0000
  Mg  Mg9       1.0  0.82956  0.45189  0.24581  1.0000
  C   C101      1.0  0.89342  0.74767  0.95099  1.0000
  C   C102      1.0  0.03362  0.68990  0.04544  1.0000
  C  Sn19      1.0  0.98616  0.66672  0.17367  1.0000
  C  Sn20      1.0  0.93302  0.69196  0.20766  1.0000
  C   C103      1.0  0.92872  0.73977  0.11238  1.0000
  C   C104      1.0  0.84102  0.77258  0.98438  1.0000
  H   H67       1.0  0.93037  0.76535  0.85189  1.0000
  O  Te19      1.0  0.99164  0.61895  0.26686  1.0000
  O  Te20      1.0  0.88490  0.66965  0.33505  1.0000
  H   H68       1.0  0.83734  0.80958  0.91121  1.0000
  Mg  Mg10      1.0  0.91382  0.60412  0.42748  1.0000
  C   C105      1.0  0.89163  0.74793  0.46363  1.0000
  C   C106      1.0  0.89595  0.70062  0.56037  1.0000
  C  Sn21      1.0  0.84817  0.67723  0.68664  1.0000
  C  Sn22      1.0  0.79514  0.70175  0.71627  1.0000
  C   C107      1.0  0.79126  0.74905  0.61871  1.0000
  C   C108      1.0  0.83934  0.77212  0.49273  1.0000
  H   H69       1.0  0.92883  0.76576  0.36608  1.0000
  O  Te21      1.0  0.85323  0.62997  0.78217  1.0000
  O  Te22      1.0  0.74670  0.67922  0.84161  1.0000
  H   H70       1.0  0.83598  0.80873  0.41777  1.0000
  Mg  Mg11      1.0  0.77510  0.61458  0.93858  1.0000
  C   C109      1.0  0.11365  0.74923  0.10030  1.0000
  C   C110      1.0  0.03510  0.74982  0.99941  1.0000
  C  Sn23      1.0  0.05408  0.70474  0.87274  1.0000
  C  Sn24      1.0  0.01526  0.66844  0.84686  1.0000
  C   C111      1.0  0.95840  0.67819  0.94838  1.0000
  C   C112      1.0  0.07532  0.71346  0.07481  1.0000
  H   H71       1.0  0.09929  0.78424  0.19806  1.0000
  O  Te23      1.0  0.11110  0.69598  0.77313  1.0000
  O  Te24      1.0  0.03310  0.62308  0.72112  1.0000
  H   H72       1.0  0.03125  0.72072  0.15282  1.0000
  Mg  Mg12      1.0  0.11502  0.62849  0.61793  1.0000
  C   C113      1.0  0.16251  0.65566  0.34260  1.0000
  C   C114      1.0  0.10600  0.66461  0.44989  1.0000
  C  Sn25      1.0  0.08793  0.71199  0.56909  1.0000
  C  Sn26      1.0  0.12726  0.75107  0.58076  1.0000
  C   C115      1.0  0.18370  0.74176  0.47275  1.0000
  C   C116      1.0  0.20133  0.69420  0.35397  1.0000
  H   H73       1.0  0.17615  0.61888  0.25062  1.0000
  O  Te25      1.0  0.03132  0.72027  0.67535  1.0000
  O  Te26      1.0  0.11034  0.79879  0.69870  1.0000
  H   H74       1.0  0.24508  0.68731  0.27084  1.0000
  Mg  Mg13      1.0  0.02867  0.79163  0.81562  1.0000
  C   C117      1.0  0.36344  0.25021  0.67706  1.0000
  C   C118      1.0  0.38110  0.19224  0.61881  1.0000
  C  Sn27      1.0  0.35178  0.15841  0.54899  1.0000
  C  Sn28      1.0  0.30392  0.18320  0.53738  1.0000
  C   C119      1.0  0.28662  0.24125  0.59590  1.0000
  C   C120      1.0  0.31625  0.27470  0.66560  1.0000
  H   H75       1.0  0.38638  0.27611  0.73090  1.0000
  O  Te27      1.0  0.36998  0.10056  0.49146  1.0000
  O  Te28      1.0  0.27386  0.15038  0.46809  1.0000
  H   H76       1.0  0.30259  0.31960  0.71058  1.0000
  Mg  Mg14      1.0  0.31511  0.07347  0.40710  1.0000
  C   C121      1.0  0.66085  0.86665  0.55846  1.0000
  C   C122      1.0  0.66071  0.81192  0.63109  1.0000
  C  Sn29      1.0  0.61389  0.77727  0.68272  1.0000
  C  Sn30      1.0  0.56640  0.79792  0.66102  1.0000
  C   C123      1.0  0.56697  0.85272  0.58812  1.0000
  C   C124      1.0  0.61403  0.88704  0.53696  1.0000
  H   H77       1.0  0.69727  0.89319  0.51879  1.0000
  O  Te29      1.0  0.61444  0.72271  0.75511  1.0000
  O  Te30      1.0  0.51905  0.76418  0.71144  1.0000
  H   H78       1.0  0.61414  0.92939  0.48062  1.0000
  Mg  Mg15      1.0  0.53991  0.69282  0.80374  1.0000
  C   C125      1.0  0.16138  0.36200  0.51437  1.0000
  C   C126      1.0  0.16127  0.30554  0.57719  1.0000
  C  Sn31      1.0  0.11440  0.27123  0.62309  1.0000
  C  Sn32      1.0  0.06682  0.29397  0.60560  1.0000
  C   C127      1.0  0.06736  0.35049  0.54251  1.0000
  C   C128      1.0  0.11448  0.38446  0.49701  1.0000
  H   H79       1.0  0.19785  0.38828  0.47907  1.0000
  O  Te31      1.0  0.11499  0.21492  0.68570  1.0000
  O  Te32      1.0  0.01942  0.26060  0.65046  1.0000
  H   H80       1.0  0.11456  0.42816  0.44827  1.0000
  Mg  Mg16      1.0  0.04036  0.18635  0.72974  1.0000
