data_image0
_chemical_formula_structural       H48C64N8O8SnCSn2CSnTe4Mg2SnCSn2CSnTe4Mg2SnCSn2CSnTe4Mg2SnCSn2CSnTe4Mg2SnCSn2CSnTe4Mg2SnCSn2CSnTe4Mg2SnCSn2CSnTe4Mg2SnCSn2CSnTe4Mg2SnCSn2CSnTe4Mg2SnCSn2CSnTe4Mg2SnCSn2CSnTe4Mg2SnCSn2CSnTe4Mg2SnCSn2CSnTe4Mg2SnCSn2CSnTe4Mg2SnCSn2CSnTe4Mg2SnCSn2CSnTe4Mg2
_chemical_formula_sum              "H48 C96 N8 O8 Sn64 Te64 Mg32"
_cell_length_a       26.5283
_cell_length_b       22.7053
_cell_length_c       8.53695
_cell_angle_alpha    90.9623
_cell_angle_beta     65.143
_cell_angle_gamma    88.6822

_symmetry_space_group_name_H-M    'P1'
_space_group_IT_number       1

loop_
  _space_group_symop_operation_xyz
  'x, y, z'

loop_
  _atom_site_type_symbol
  _atom_site_label
  _atom_site_symmetry_multiplicity
  _atom_site_fract_x
  _atom_site_fract_y
  _atom_site_fract_z
  _atom_site_occupancy
  H   H1        1.0  0.39840  0.06499  0.10746  1.0000
  H   H2        1.0  0.48988  0.22165  0.04144  1.0000
  H   H3        1.0  0.23858  0.32525  0.18353  1.0000
  H   H4        1.0  0.71213  0.30965  0.08680  1.0000
  H   H5        1.0  0.54885  0.97461  0.12302  1.0000
  H   H6        1.0  0.49233  0.81121  0.01583  1.0000
  H   H7        1.0  0.70081  0.71610  0.16506  1.0000
  H   H8        1.0  0.27500  0.69639  0.97717  1.0000
  H   H9        1.0  0.32728  0.93923  0.17614  1.0000
  H   H10       1.0  0.31805  0.01292  0.11874  1.0000
  H   H11       1.0  0.35044  0.00018  0.26298  1.0000
  H   H12       1.0  0.60996  0.05007  0.21060  1.0000
  H   H13       1.0  0.58945  0.97982  0.30572  1.0000
  H   H14       1.0  0.65262  0.01020  0.29313  1.0000
  H   H15       1.0  0.05493  0.47339  0.07213  1.0000
  H   H16       1.0  0.99136  0.31324  0.46861  1.0000
  H   H17       1.0  0.90489  0.56748  0.05427  1.0000
  H   H18       1.0  0.99757  0.72178  0.01357  1.0000
  H   H19       1.0  0.11366  0.55040  0.16742  1.0000
  H   H20       1.0  0.08913  0.48042  0.25920  1.0000
  H   H21       1.0  0.15469  0.50499  0.24306  1.0000
  H   H22       1.0  0.83191  0.44371  0.14972  1.0000
  H   H23       1.0  0.82240  0.51496  0.07681  1.0000
  H   H24       1.0  0.85658  0.50793  0.21851  1.0000
  H   H25       1.0  0.39678  0.06379  0.60593  1.0000
  H   H26       1.0  0.48596  0.22153  0.54816  1.0000
  H   H27       1.0  0.23235  0.31920  0.68827  1.0000
  H   H28       1.0  0.71008  0.31413  0.57823  1.0000
  H   H29       1.0  0.54794  0.97420  0.62710  1.0000
  H   H30       1.0  0.49323  0.81086  0.51209  1.0000
  H   H31       1.0  0.69755  0.71630  0.68366  1.0000
  H   H32       1.0  0.27587  0.69587  0.47676  1.0000
  H   H33       1.0  0.32790  0.93678  0.68242  1.0000
  H   H34       1.0  0.31631  0.00874  0.61850  1.0000
  H   H35       1.0  0.34920  0.00070  0.76299  1.0000
  H   H36       1.0  0.61013  0.04766  0.70582  1.0000
  H   H37       1.0  0.59236  0.97764  0.80542  1.0000
  H   H38       1.0  0.65513  0.01120  0.78575  1.0000
  H   H39       1.0  0.05086  0.47335  0.58576  1.0000
  H   H40       1.0  0.99432  0.31117  0.97156  1.0000
  H   H41       1.0  0.90105  0.56950  0.58103  1.0000
  H   H42       1.0  0.99604  0.72276  0.52529  1.0000
  H   H43       1.0  0.11889  0.54977  0.65809  1.0000
  H   H44       1.0  0.09467  0.47987  0.75036  1.0000
  H   H45       1.0  0.15908  0.50559  0.74002  1.0000
  H   H46       1.0  0.82846  0.44439  0.64472  1.0000
  H   H47       1.0  0.81946  0.51828  0.58769  1.0000
  H   H48       1.0  0.85221  0.50504  0.73069  1.0000
  C   C1        1.0  0.43758  0.08519  0.07653  1.0000
  C   C2        1.0  0.43827  0.14680  0.07160  1.0000
  C   C3        1.0  0.48780  0.17393  0.04548  1.0000
  C   C4        1.0  0.53619  0.14077  0.01688  1.0000
  C   C5        1.0  0.53279  0.07890  0.51430  1.0000
  C   C6        1.0  0.48463  0.04882  0.04467  1.0000
  C   C7        1.0  0.24180  0.27902  0.13856  1.0000
  C   C8        1.0  0.72035  0.27100  0.50943  1.0000
  C   C9        1.0  0.52063  0.95047  0.08623  1.0000
  C   C10       1.0  0.52535  0.88893  0.07457  1.0000
  C   C11       1.0  0.48713  0.85872  0.03327  1.0000
  C   C12       1.0  0.44339  0.88741  0.00990  1.0000
  C   C13       1.0  0.44063  0.95020  0.02085  1.0000
  C   C14       1.0  0.48120  0.98302  0.05036  1.0000
  C   C15       1.0  0.70730  0.76327  0.13812  1.0000
  C   C16       1.0  0.27238  0.74380  0.46416  1.0000
  C   C17       1.0  0.34546  0.98292  0.14932  1.0000
  C   C18       1.0  0.60990  0.02078  0.31153  1.0000
  C   C19       1.0  0.02560  0.44975  0.03954  1.0000
  C   C20       1.0  0.02926  0.38818  0.02959  1.0000
  C   C21       1.0  0.99002  0.35868  0.99141  1.0000
  C   C22       1.0  0.94280  0.39105  0.47500  1.0000
  C   C23       1.0  0.94140  0.45370  0.48693  1.0000
  C   C24       1.0  0.98609  0.48319  0.00606  1.0000
  C   C25       1.0  0.94381  0.58657  0.03415  1.0000
  C   C26       1.0  0.94544  0.64815  0.03573  1.0000
  C   C27       1.0  0.99552  0.67403  0.00897  1.0000
  C   C28       1.0  0.04175  0.64044  0.48967  1.0000
  C   C29       1.0  0.03874  0.57843  0.47750  1.0000
  C   C30       1.0  0.99041  0.54898  0.00083  1.0000
  C   C31       1.0  0.11234  0.51917  0.26555  1.0000
  C   C32       1.0  0.85028  0.48694  0.11122  1.0000
  C   C33       1.0  0.43563  0.08425  0.57824  1.0000
  C   C34       1.0  0.43566  0.14585  0.57401  1.0000
  C   C35       1.0  0.48458  0.17374  0.55152  1.0000
  C   C36       1.0  0.53337  0.14127  0.52391  1.0000
  C   C37       1.0  0.53503  0.07853  0.00837  1.0000
  C   C38       1.0  0.48284  0.04848  0.54910  1.0000
  C   C39       1.0  0.23825  0.27442  0.63065  1.0000
  C   C40       1.0  0.72289  0.26731  0.01371  1.0000
  C   C41       1.0  0.51995  0.95015  0.58916  1.0000
  C   C42       1.0  0.52530  0.88866  0.57501  1.0000
  C   C43       1.0  0.48743  0.85822  0.53290  1.0000
  C   C44       1.0  0.44340  0.88664  0.51119  1.0000
  C   C45       1.0  0.44006  0.94934  0.52362  1.0000
  C   C46       1.0  0.48019  0.98257  0.55421  1.0000
  C   C47       1.0  0.70515  0.76268  0.64749  1.0000
  C   C48       1.0  0.27111  0.74445  0.96814  1.0000
  C   C49       1.0  0.34469  0.98097  0.65126  1.0000
  C   C50       1.0  0.61183  0.01969  0.80710  1.0000
  C   C51       1.0  0.02211  0.45047  0.54862  1.0000
  C   C52       1.0  0.02615  0.38901  0.53197  1.0000
  C   C53       1.0  0.98695  0.36063  0.49124  1.0000
  C   C54       1.0  0.94577  0.38835  0.97393  1.0000
  C   C55       1.0  0.94439  0.45104  0.98128  1.0000
  C   C56       1.0  0.98283  0.48474  0.51655  1.0000
  C   C57       1.0  0.94062  0.58811  0.55551  1.0000
  C   C58       1.0  0.94300  0.64957  0.55428  1.0000
  C   C59       1.0  0.99358  0.67504  0.52365  1.0000
  C   C60       1.0  0.04358  0.63961  0.97708  1.0000
  C   C61       1.0  0.04132  0.57758  0.96513  1.0000
  C   C62       1.0  0.98735  0.55040  0.51643  1.0000
  C   C63       1.0  0.11698  0.51912  0.75834  1.0000
  C   C64       1.0  0.84690  0.48800  0.61726  1.0000
  N   N1        1.0  0.20471  0.25615  0.09731  1.0000
  N   N2        1.0  0.77076  0.24966  0.44255  1.0000
  N   N3        1.0  0.75441  0.78694  0.10508  1.0000
  N   N4        1.0  0.22844  0.76877  0.46259  1.0000
  N   N5        1.0  0.20349  0.25299  0.57665  1.0000
  N   N6        1.0  0.77337  0.24625  0.94680  1.0000
  N   N7        1.0  0.75283  0.78587  0.60818  1.0000
  N   N8        1.0  0.22678  0.76916  0.96868  1.0000
  O   O1        1.0  0.39810  0.98067  0.99859  1.0000
  O   O2        1.0  0.58287  0.04965  0.47997  1.0000
  O   O3        1.0  0.08838  0.54689  0.43559  1.0000
  O   O4        1.0  0.89924  0.48569  0.46579  1.0000
  O   O5        1.0  0.39735  0.97914  0.50073  1.0000
  O   O6        1.0  0.58507  0.04928  0.97460  1.0000
  O   O7        1.0  0.09115  0.54691  0.92801  1.0000
  O   O8        1.0  0.90202  0.48177  0.95841  1.0000
  C  Sn1       1.0  0.34972  0.27355  0.12659  1.0000
  C   C65       1.0  0.30684  0.25492  0.08517  1.0000
  C  Sn2       1.0  0.30092  0.19502  0.05945  1.0000
  C  Sn3       1.0  0.33862  0.15286  0.07557  1.0000
  C   C66       1.0  0.38146  0.17150  0.11699  1.0000
  C  Sn4       1.0  0.38742  0.23139  0.14271  1.0000
  O  Te1       1.0  0.35485  0.33366  0.15174  1.0000
  O  Te2       1.0  0.25774  0.17746  0.01810  1.0000
  O  Te3       1.0  0.33345  0.09272  0.05037  1.0000
  O  Te4       1.0  0.43056  0.24895  0.18407  1.0000
  Mg  Mg1       1.0  0.13245  0.10054  0.99621  1.0000
  Mg  Mg2       1.0  0.42041  0.33582  0.20607  1.0000
  C  Sn5       1.0  0.61208  0.23644  0.16283  1.0000
  C   C67       1.0  0.66825  0.22983  0.04924  1.0000
  C  Sn6       1.0  0.54901  0.20690  0.89505  1.0000
  C  Sn7       1.0  0.50825  0.18009  0.85347  1.0000
  C   C68       1.0  0.45212  0.18671  0.96701  1.0000
  C  Sn8       1.0  0.57132  0.20962  0.12125  1.0000
  O  Te5       1.0  0.59681  0.26951  0.31626  1.0000
  O  Te6       1.0  0.60541  0.20090  0.78357  1.0000
  O  Te7       1.0  0.52358  0.14699  0.69990  1.0000
  O  Te8       1.0  0.51496  0.21564  0.23268  1.0000
  Mg  Mg3       1.0  0.60554  0.15158  0.58993  1.0000
  Mg  Mg4       1.0  0.51478  0.26497  0.42630  1.0000
  C  Sn9       1.0  0.67423  0.19272  0.34660  1.0000
  C   C69       1.0  0.67327  0.23934  0.45691  1.0000
  C  Sn10      1.0  0.62593  0.25168  0.60970  1.0000
  C  Sn11      1.0  0.57858  0.21667  0.65323  1.0000
  C   C70       1.0  0.57955  0.17008  0.54297  1.0000
  C  Sn12      1.0  0.62687  0.15771  0.39012  1.0000
  O  Te9       1.0  0.72200  0.18118  0.19452  1.0000
  O  Te10      1.0  0.62596  0.29853  0.71790  1.0000
  O  Te11      1.0  0.53079  0.22825  0.80545  1.0000
  O  Te12      1.0  0.62687  0.11089  0.28198  1.0000
  Mg  Mg5       1.0  0.55101  0.29681  0.91083  1.0000
  Mg  Mg6       1.0  0.70180  0.11255  0.08908  1.0000
  C  Sn13      1.0  0.56713  0.79546  0.21301  1.0000
  C   C71       1.0  0.56610  0.85233  0.15406  1.0000
  C  Sn14      1.0  0.61560  0.88115  0.06403  1.0000
  C  Sn15      1.0  0.66722  0.85252  0.03215  1.0000
  C   C72       1.0  0.66824  0.79568  0.09105  1.0000
  C  Sn16      1.0  0.61875  0.76683  0.18113  1.0000
  O  Te13      1.0  0.51714  0.76748  0.30273  1.0000
  O  Te14      1.0  0.61351  0.93800  0.00643  1.0000
  O  Te15      1.0  0.58177  0.89050  0.94235  1.0000
  O  Te16      1.0  0.62083  0.71001  0.23869  1.0000
  Mg  Mg7       1.0  0.55737  0.96780  0.88991  1.0000
  Mg  Mg8       1.0  0.54153  0.69011  0.35513  1.0000
  C  Sn17      1.0  0.34388  0.87356  0.96460  1.0000
  C   C73       1.0  0.52299  0.84648  0.00659  1.0000
  C  Sn18      1.0  0.53525  0.78682  0.01569  1.0000
  C  Sn19      1.0  0.36777  0.75331  0.98201  1.0000
  C   C74       1.0  0.32417  0.77044  0.94002  1.0000
  C  Sn20      1.0  0.31187  0.83010  0.93092  1.0000
  O  Te17      1.0  0.33237  0.93345  0.95624  1.0000
  O  Te18      1.0  0.57907  0.77078  0.05798  1.0000
  O  Te19      1.0  0.37932  0.69338  0.99041  1.0000
  O  Te20      1.0  0.26809  0.84615  0.88863  1.0000
  Mg  Mg9       1.0  0.57863  0.68358  0.05312  1.0000
  Mg  Mg10      1.0  0.26850  0.93332  0.89336  1.0000
  C  Sn21      1.0  0.35631  0.76402  0.56979  1.0000
  C   C75       1.0  0.31869  0.77848  0.49984  1.0000
  C  Sn22      1.0  0.32579  0.82860  0.40099  1.0000
  C  Sn23      1.0  0.37148  0.86502  0.37132  1.0000
  C   C76       1.0  0.40907  0.85055  0.44122  1.0000
  C  Sn24      1.0  0.40199  0.80044  0.54013  1.0000
  O  Te21      1.0  0.34840  0.71370  0.66821  1.0000
  O  Te22      1.0  0.28762  0.84216  0.33245  1.0000
  O  Te23      1.0  0.37936  0.91537  0.27282  1.0000
  O  Te24      1.0  0.44014  0.78687  0.60861  1.0000
  Mg  Mg11      1.0  0.31619  0.91536  0.20692  1.0000
  Mg  Mg12      1.0  0.41163  0.71367  0.73408  1.0000
  C  Sn25      1.0  0.10490  0.26261  0.07370  1.0000
  C   C77       1.0  0.15769  0.28188  0.04462  1.0000
  C  Sn26      1.0  0.16832  0.34199  0.03496  1.0000
  C  Sn27      1.0  0.12529  0.38373  0.05489  1.0000
  C   C78       1.0  0.07255  0.36447  0.08398  1.0000
  C  Sn28      1.0  0.06188  0.30436  0.09363  1.0000
  O  Te25      1.0  0.09521  0.20230  0.08289  1.0000
  O  Te26      1.0  0.22143  0.36018  0.00573  1.0000
  O  Te27      1.0  0.13503  0.44408  0.04567  1.0000
  O  Te28      1.0  0.00881  0.28616  0.12288  1.0000
  Mg  Mg13      1.0  0.21418  0.44712  0.00377  1.0000
  Mg  Mg14      1.0  0.01600  0.19924  0.12495  1.0000
  C  Sn29      1.0  0.84022  0.34277  0.83765  1.0000
  C   C79       1.0  0.82532  0.28663  0.90295  1.0000
  C  Sn30      1.0  0.98169  0.25282  0.01430  1.0000
  C  Sn31      1.0  0.01822  0.28576  0.06147  1.0000
  C   C80       1.0  0.89762  0.35181  0.99622  1.0000
  C  Sn32      1.0  0.87674  0.37571  0.88482  1.0000
  O  Te29      1.0  0.81882  0.36575  0.72653  1.0000
  O  Te30      1.0  0.96622  0.19660  0.07788  1.0000
  O  Te31      1.0  0.03961  0.26272  0.17269  1.0000
  O  Te32      1.0  0.89219  0.43189  0.82129  1.0000
  Mg  Mg15      1.0  0.00631  0.18431  0.22544  1.0000
  Mg  Mg16      1.0  0.85211  0.44423  0.67380  1.0000
  C  Sn33      1.0  0.85099  0.27152  0.55484  1.0000
  C   C81       1.0  0.81352  0.28560  0.48402  1.0000
  C  Sn34      1.0  0.82186  0.33421  0.37880  1.0000
  C  Sn35      1.0  0.86864  0.36946  0.34354  1.0000
  C   C82       1.0  0.90609  0.35538  0.41432  1.0000
  C  Sn36      1.0  0.89778  0.30678  0.51958  1.0000
  O  Te33      1.0  0.84184  0.22272  0.65966  1.0000
  O  Te34      1.0  0.78381  0.34741  0.30952  1.0000
  O  Te35      1.0  0.87777  0.41829  0.23863  1.0000
  O  Te36      1.0  0.93580  0.29356  0.58881  1.0000
  Mg  Mg17      1.0  0.81427  0.41837  0.17426  1.0000
  Mg  Mg18      1.0  0.90540  0.22260  0.72401  1.0000
  C  Sn37      1.0  0.89393  0.75555  0.99929  1.0000
  C   C83       1.0  0.03238  0.69422  0.08330  1.0000
  C  Sn38      1.0  0.98453  0.66296  0.17473  1.0000
  C  Sn39      1.0  0.93263  0.68345  0.18227  1.0000
  C   C84       1.0  0.92967  0.73480  0.09828  1.0000
  C  Sn40      1.0  0.97750  0.76610  0.00684  1.0000
  O  Te37      1.0  0.94229  0.78610  0.90864  1.0000
  O  Te38      1.0  0.98855  0.61172  0.25772  1.0000
  O  Te39      1.0  0.88425  0.65285  0.27303  1.0000
  O  Te40      1.0  0.83803  0.82725  0.92386  1.0000
  Mg  Mg19      1.0  0.91098  0.58542  0.36479  1.0000
  Mg  Mg20      1.0  0.91557  0.85356  0.81668  1.0000
  C  Sn41      1.0  0.86166  0.75416  0.44792  1.0000
  C   C85       1.0  0.80640  0.74617  0.56278  1.0000
  C  Sn42      1.0  0.79380  0.71011  0.70447  1.0000
  C  Sn43      1.0  0.83735  0.68145  0.73200  1.0000
  C   C86       1.0  0.89257  0.68946  0.61720  1.0000
  C  Sn44      1.0  0.90520  0.72551  0.47545  1.0000
  O  Te41      1.0  0.87329  0.79042  0.30715  1.0000
  O  Te42      1.0  0.73824  0.70278  0.81749  1.0000
  O  Te43      1.0  0.82567  0.64518  0.87291  1.0000
  O  Te44      1.0  0.96072  0.73285  0.36250  1.0000
  Mg  Mg21      1.0  0.74348  0.64902  0.99064  1.0000
  Mg  Mg22      1.0  0.95553  0.78662  0.18936  1.0000
  C  Sn45      1.0  0.09024  0.73817  0.05869  1.0000
  C   C87       1.0  0.95648  0.69778  0.95990  1.0000
  C  Sn46      1.0  0.00663  0.66647  0.86793  1.0000
  C  Sn47      1.0  0.05611  0.68587  0.87492  1.0000
  C   C88       1.0  0.05438  0.73618  0.97368  1.0000
  C  Sn48      1.0  0.13971  0.75756  0.06568  1.0000
  O  Te45      1.0  0.03964  0.76878  0.14960  1.0000
  O  Te46      1.0  0.00731  0.61628  0.77002  1.0000
  O  Te47      1.0  0.10673  0.65521  0.78390  1.0000
  O  Te48      1.0  0.13903  0.80772  0.16357  1.0000
  Mg  Mg23      1.0  0.08640  0.58945  0.66885  1.0000
  Mg  Mg24      1.0  0.05995  0.83456  0.26485  1.0000
  C  Sn49      1.0  0.18449  0.68599  0.31630  1.0000
  C   C89       1.0  0.18450  0.73365  0.42205  1.0000
  C  Sn50      1.0  0.13710  0.74857  0.57230  1.0000
  C  Sn51      1.0  0.08868  0.71514  0.61790  1.0000
  C   C90       1.0  0.08869  0.66751  0.51221  1.0000
  C  Sn52      1.0  0.13608  0.65256  0.36190  1.0000
  O  Te49      1.0  0.23235  0.67186  0.16669  1.0000
  O  Te50      1.0  0.13810  0.79641  0.67594  1.0000
  O  Te51      1.0  0.04080  0.72931  0.76764  1.0000
  O  Te52      1.0  0.13509  0.60475  0.25832  1.0000
  Mg  Mg25      1.0  0.06260  0.79834  0.86692  1.0000
  Mg  Mg26      1.0  0.21058  0.60277  0.06737  1.0000
  C  Sn53      1.0  0.34545  0.16397  0.48155  1.0000
  C   C91       1.0  0.38500  0.18193  0.53899  1.0000
  C  Sn54      1.0  0.37296  0.22904  0.65786  1.0000
  C  Sn55      1.0  0.32028  0.25880  0.72073  1.0000
  C   C92       1.0  0.28076  0.24083  0.66332  1.0000
  C  Sn56      1.0  0.29276  0.19373  0.54442  1.0000
  O  Te53      1.0  0.35838  0.11676  0.36268  1.0000
  O  Te54      1.0  0.41318  0.24620  0.71334  1.0000
  O  Te55      1.0  0.30737  0.30604  0.83968  1.0000
  O  Te56      1.0  0.25258  0.17656  0.48897  1.0000
  Mg  Mg27      1.0  0.37588  0.31299  0.87647  1.0000
  Mg  Mg28      1.0  0.28982  0.10976  0.32592  1.0000
  C  Sn57      1.0  0.60182  0.76540  0.62807  1.0000
  C   C93       1.0  0.65475  0.78521  0.59491  1.0000
  C  Sn58      1.0  0.66560  0.84521  0.57596  1.0000
  C  Sn59      1.0  0.62264  0.88628  0.59057  1.0000
  C   C94       1.0  0.56975  0.86648  0.62374  1.0000
  C  Sn60      1.0  0.55886  0.80648  0.64268  1.0000
  O  Te57      1.0  0.59191  0.70522  0.64656  1.0000
  O  Te58      1.0  0.71885  0.86395  0.54280  1.0000
  O  Te59      1.0  0.63259  0.94651  0.57205  1.0000
  O  Te60      1.0  0.50565  0.78773  0.67585  1.0000
  Mg  Mg29      1.0  0.71188  0.95046  0.52792  1.0000
  Mg  Mg30      1.0  0.51256  0.70124  0.69084  1.0000
  C  Sn61      1.0  0.15371  0.36424  0.57258  1.0000
  C   C95       1.0  0.15444  0.30558  0.61882  1.0000
  C  Sn62      1.0  0.11382  0.26756  0.61854  1.0000
  C  Sn63      1.0  0.07161  0.28860  0.57094  1.0000
  C   C96       1.0  0.07090  0.34723  0.52470  1.0000
  C  Sn64      1.0  0.11150  0.38528  0.52498  1.0000
  O  Te61      1.0  0.19474  0.40147  0.57377  1.0000
  O  Te62      1.0  0.11540  0.20911  0.66531  1.0000
  O  Te63      1.0  0.03057  0.25132  0.56979  1.0000
  O  Te64      1.0  0.10994  0.44370  0.47821  1.0000
  Mg  Mg31      1.0  0.05038  0.17540  0.64358  1.0000
  Mg  Mg32      1.0  0.17495  0.47744  0.49981  1.0000
