data_image0
_chemical_formula_structural       H96C132S12N12C2Sn2C2HTe2HMgC2Sn2C2HTe2HMgC2Sn2C2HTe2HMgC2Sn2C2HTe2HMgC2Sn2C2HTe2HMgC2Sn2C2HTe2HMgC2Sn2C2HTe2HMgC2Sn2C2HTe2HMgC2Sn2C2HTe2HMgC2Sn2C2HTe2HMgC2Sn2C2HTe2HMgC2Sn2C2HTe2HMg
_chemical_formula_sum              "H120 C180 S12 N12 Sn24 Te24 Mg12"
_cell_length_a       36.4239
_cell_length_b       36.3908
_cell_length_c       7.96688
_cell_angle_alpha    89.3533
_cell_angle_beta     90.4179
_cell_angle_gamma    119.758

_symmetry_space_group_name_H-M    'P1'
_space_group_IT_number       1

loop_
  _space_group_symop_operation_xyz
  'x, y, z'

loop_
  _atom_site_type_symbol
  _atom_site_label
  _atom_site_symmetry_multiplicity
  _atom_site_fract_x
  _atom_site_fract_y
  _atom_site_fract_z
  _atom_site_occupancy
  H   H1        1.0  0.41099  0.69976  0.37179  1.0000
  H   H2        1.0  0.29870  0.71036  0.38841  1.0000
  H   H3        1.0  0.28856  0.58784  0.36734  1.0000
  H   H4        1.0  0.59011  0.30278  0.35337  1.0000
  H   H5        1.0  0.69982  0.28769  0.35010  1.0000
  H   H6        1.0  0.71414  0.41225  0.35730  1.0000
  H   H7        1.0  0.48758  0.90847  0.36818  1.0000
  H   H8        1.0  0.09048  0.58039  0.38121  1.0000
  H   H9        1.0  0.41517  0.50548  0.36910  1.0000
  H   H10       1.0  0.50574  0.09338  0.35545  1.0000
  H   H11       1.0  0.90922  0.41279  0.37098  1.0000
  H   H12       1.0  0.58590  0.49455  0.37067  1.0000
  H   H13       1.0  0.42298  0.46334  0.08335  1.0000
  H   H14       1.0  0.53733  0.95942  0.07077  1.0000
  H   H15       1.0  0.04295  0.58097  0.08862  1.0000
  H   H16       1.0  0.57921  0.53840  0.07048  1.0000
  H   H17       1.0  0.46354  0.04253  0.08060  1.0000
  H   H18       1.0  0.96093  0.42456  0.09654  1.0000
  H   H19       1.0  0.90485  0.51353  0.27207  1.0000
  H   H20       1.0  0.49259  0.39123  0.24068  1.0000
  H   H21       1.0  0.60740  0.09797  0.24761  1.0000
  H   H22       1.0  0.10217  0.49283  0.25416  1.0000
  H   H23       1.0  0.51054  0.60938  0.24070  1.0000
  H   H24       1.0  0.39260  0.90234  0.24984  1.0000
  H   H25       1.0  0.88324  0.57240  0.23994  1.0000
  H   H26       1.0  0.43204  0.31170  0.21567  1.0000
  H   H27       1.0  0.68750  0.11835  0.22812  1.0000
  H   H28       1.0  0.12004  0.43108  0.23579  1.0000
  H   H29       1.0  0.56978  0.68942  0.20800  1.0000
  H   H30       1.0  0.31273  0.88253  0.22630  1.0000
  H   H31       1.0  0.08903  0.35470  0.11028  1.0000
  H   H32       1.0  0.67383  0.71013  0.04794  1.0000
  H   H33       1.0  0.26517  0.90684  0.07092  1.0000
  H   H34       1.0  0.90943  0.64661  0.09630  1.0000
  H   H35       1.0  0.32869  0.28818  0.11110  1.0000
  H   H36       1.0  0.71100  0.03724  0.06770  1.0000
  H   H37       1.0  0.06831  0.35037  0.40370  1.0000
  H   H38       1.0  0.64080  0.73541  0.58210  1.0000
  H   H39       1.0  0.28479  0.93747  0.38026  1.0000
  H   H40       1.0  0.90769  0.63909  0.60329  1.0000
  H   H41       1.0  0.36647  0.28371  0.41056  1.0000
  H   H42       1.0  0.73177  0.09331  0.59158  1.0000
  H   H43       1.0  0.03847  0.32220  0.58221  1.0000
  H   H44       1.0  0.64144  0.71430  0.38238  1.0000
  H   H45       1.0  0.28848  0.96780  0.55881  1.0000
  H   H46       1.0  0.93299  0.64223  0.40874  1.0000
  H   H47       1.0  0.33339  0.28980  0.55617  1.0000
  H   H48       1.0  0.71008  0.06539  0.40152  1.0000
  H   H49       1.0  0.41129  0.70027  0.87241  1.0000
  H   H50       1.0  0.29972  0.71225  0.87554  1.0000
  H   H51       1.0  0.28845  0.58915  0.85808  1.0000
  H   H52       1.0  0.59158  0.30147  0.87128  1.0000
  H   H53       1.0  0.70401  0.29102  0.87197  1.0000
  H   H54       1.0  0.71378  0.41356  0.87116  1.0000
  H   H55       1.0  0.49010  0.90869  0.86730  1.0000
  H   H56       1.0  0.09139  0.58438  0.87536  1.0000
  H   H57       1.0  0.41582  0.50780  0.87311  1.0000
  H   H58       1.0  0.51052  0.09393  0.86464  1.0000
  H   H59       1.0  0.91144  0.42020  0.88306  1.0000
  H   H60       1.0  0.58636  0.49463  0.87318  1.0000
  H   H61       1.0  0.42337  0.46089  0.58739  1.0000
  H   H62       1.0  0.53391  0.95956  0.57836  1.0000
  H   H63       1.0  0.04039  0.57346  0.59395  1.0000
  H   H64       1.0  0.57976  0.53878  0.57846  1.0000
  H   H65       1.0  0.45942  0.04181  0.56696  1.0000
  H   H66       1.0  0.95934  0.41727  0.58189  1.0000
  H   H67       1.0  0.89912  0.50261  0.75031  1.0000
  H   H68       1.0  0.49602  0.39448  0.76809  1.0000
  H   H69       1.0  0.60393  0.10034  0.73279  1.0000
  H   H70       1.0  0.09923  0.48671  0.75524  1.0000
  H   H71       1.0  0.50704  0.60689  0.73695  1.0000
  H   H72       1.0  0.38796  0.90144  0.73777  1.0000
  H   H73       1.0  0.87905  0.56287  0.73011  1.0000
  H   H74       1.0  0.43829  0.31380  0.75089  1.0000
  H   H75       1.0  0.68404  0.12047  0.71759  1.0000
  H   H76       1.0  0.12022  0.42727  0.73525  1.0000
  H   H77       1.0  0.56553  0.68732  0.71190  1.0000
  H   H78       1.0  0.30821  0.88271  0.71123  1.0000
  H   H79       1.0  0.09435  0.35349  0.59720  1.0000
  H   H80       1.0  0.67119  0.71010  0.55093  1.0000
  H   H81       1.0  0.26219  0.91169  0.57411  1.0000
  H   H82       1.0  0.96364  0.66928  0.58719  1.0000
  H   H83       1.0  0.36234  0.26455  0.62027  1.0000
  H   H84       1.0  0.70728  0.03729  0.58883  1.0000
  H   H85       1.0  0.06848  0.35576  0.90806  1.0000
  H   H86       1.0  0.64372  0.73603  0.06955  1.0000
  H   H87       1.0  0.28882  0.93773  0.88763  1.0000
  H   H88       1.0  0.92493  0.64152  0.89073  1.0000
  H   H89       1.0  0.36032  0.26629  0.04682  1.0000
  H   H90       1.0  0.73546  0.09318  0.08509  1.0000
  H   H91       1.0  0.03352  0.32723  0.07466  1.0000
  H   H92       1.0  0.64533  0.71393  0.87342  1.0000
  H   H93       1.0  0.28854  0.96280  0.07707  1.0000
  H   H94       1.0  0.96353  0.67535  0.03663  1.0000
  H   H95       1.0  0.34622  0.29421  0.89996  1.0000
  H   H96       1.0  0.71306  0.06820  0.89093  1.0000
  C   C1        1.0  0.35212  0.64060  0.36671  1.0000
  C   C2        1.0  0.35808  0.71068  0.37845  1.0000
  C   C3        1.0  0.28827  0.64687  0.37487  1.0000
  C   C4        1.0  0.65003  0.36075  0.35214  1.0000
  C   C5        1.0  0.64166  0.28975  0.34909  1.0000
  C   C6        1.0  0.71252  0.35213  0.35144  1.0000
  C   C7        1.0  0.37670  0.68495  0.37051  1.0000
  C   C8        1.0  0.31375  0.69107  0.37938  1.0000
  C   C9        1.0  0.30793  0.62215  0.36676  1.0000
  C   C10       1.0  0.62428  0.31657  0.34932  1.0000
  C   C11       1.0  0.68586  0.30807  0.34786  1.0000
  C   C12       1.0  0.69407  0.37806  0.35108  1.0000
  C   C13       1.0  0.46022  0.89186  0.45235  1.0000
  C   C14       1.0  0.10756  0.56846  0.45849  1.0000
  C   C15       1.0  0.42717  0.53411  0.44617  1.0000
  C   C16       1.0  0.53372  0.10956  0.43727  1.0000
  C   C17       1.0  0.89230  0.42421  0.44967  1.0000
  C   C18       1.0  0.57527  0.46617  0.45042  1.0000
  C   C19       1.0  0.47698  0.95642  0.06847  1.0000
  C   C20       1.0  0.04626  0.52379  0.08404  1.0000
  C   C21       1.0  0.47944  0.52393  0.06968  1.0000
  C   C22       1.0  0.52374  0.04549  0.06858  1.0000
  C   C23       1.0  0.95742  0.48168  0.08582  1.0000
  C   C24       1.0  0.52265  0.47768  0.06851  1.0000
  C   C25       1.0  0.45738  0.47959  0.07804  1.0000
  C   C26       1.0  0.52134  0.97798  0.07020  1.0000
  C   C27       1.0  0.02446  0.54654  0.08898  1.0000
  C   C28       1.0  0.54478  0.52211  0.07103  1.0000
  C   C29       1.0  0.47943  0.02392  0.07549  1.0000
  C   C30       1.0  0.97928  0.45901  0.09319  1.0000
  C   C31       1.0  0.47772  0.45548  0.08450  1.0000
  C   C32       1.0  0.54566  0.02219  0.07884  1.0000
  C   C33       1.0  0.98026  0.52672  0.09806  1.0000
  C   C34       1.0  0.52452  0.54623  0.07908  1.0000
  C   C35       1.0  0.45511  0.97961  0.08304  1.0000
  C   C36       1.0  0.02351  0.47883  0.10013  1.0000
  C   C37       1.0  0.95858  0.55134  0.11024  1.0000
  C   C38       1.0  0.45312  0.40936  0.09764  1.0000
  C   C39       1.0  0.59171  0.04352  0.09300  1.0000
  C   C40       1.0  0.04493  0.45392  0.11230  1.0000
  C   C41       1.0  0.54889  0.59242  0.08832  1.0000
  C   C42       1.0  0.40902  0.95811  0.09715  1.0000
  C   C43       1.0  0.92210  0.54208  0.19683  1.0000
  C   C44       1.0  0.46291  0.38104  0.17519  1.0000
  C   C45       1.0  0.61878  0.08015  0.17832  1.0000
  C   C46       1.0  0.08270  0.46320  0.18991  1.0000
  C   C47       1.0  0.53937  0.62016  0.16912  1.0000
  C   C48       1.0  0.38163  0.92082  0.18020  1.0000
  C   C49       1.0  0.93843  0.60806  0.08256  1.0000
  C   C50       1.0  0.39514  0.33349  0.07493  1.0000
  C   C51       1.0  0.66806  0.06246  0.07644  1.0000
  C   C52       1.0  0.06244  0.39536  0.09133  1.0000
  C   C53       1.0  0.60599  0.66870  0.06141  1.0000
  C   C54       1.0  0.33260  0.93898  0.07369  1.0000
  C   C55       1.0  0.91092  0.57416  0.18118  1.0000
  C   C56       1.0  0.43011  0.33831  0.16231  1.0000
  C   C57       1.0  0.66177  0.09071  0.16886  1.0000
  C   C58       1.0  0.09226  0.42996  0.17911  1.0000
  C   C59       1.0  0.57157  0.66312  0.15325  1.0000
  C   C60       1.0  0.33866  0.91027  0.16729  1.0000
  C   C61       1.0  0.06325  0.35615  0.04380  1.0000
  C   C62       1.0  0.64427  0.70919  0.01038  1.0000
  C   C63       1.0  0.29180  0.93671  0.02486  1.0000
  C   C64       1.0  0.93410  0.64493  0.02401  1.0000
  C   C65       1.0  0.35546  0.29360  0.03112  1.0000
  C   C66       1.0  0.70892  0.06519  0.02792  1.0000
  C   C67       1.0  0.35215  0.64162  0.86240  1.0000
  C   C68       1.0  0.35877  0.71185  0.87140  1.0000
  C   C69       1.0  0.28871  0.64856  0.86374  1.0000
  C   C70       1.0  0.65028  0.36073  0.86826  1.0000
  C   C71       1.0  0.64458  0.29070  0.86908  1.0000
  C   C72       1.0  0.71425  0.35458  0.86960  1.0000
  C   C73       1.0  0.37706  0.68586  0.86678  1.0000
  C   C74       1.0  0.31452  0.69270  0.86804  1.0000
  C   C75       1.0  0.30800  0.62345  0.85874  1.0000
  C   C76       1.0  0.62586  0.31639  0.86779  1.0000
  C   C77       1.0  0.68887  0.31034  0.86846  1.0000
  C   C78       1.0  0.69446  0.37927  0.86761  1.0000
  C   C79       1.0  0.46265  0.89226  0.95124  1.0000
  C   C80       1.0  0.10887  0.57335  0.95519  1.0000
  C   C81       1.0  0.42779  0.53630  0.95097  1.0000
  C   C82       1.0  0.53821  0.11000  0.94783  1.0000
  C   C83       1.0  0.89442  0.43150  0.96180  1.0000
  C   C84       1.0  0.57394  0.46541  0.94903  1.0000
  C   C85       1.0  0.47344  0.95600  0.56690  1.0000
  C   C86       1.0  0.04445  0.51684  0.57948  1.0000
  C   C87       1.0  0.47901  0.52214  0.56936  1.0000
  C   C88       1.0  0.51991  0.04535  0.56128  1.0000
  C   C89       1.0  0.95537  0.47409  0.57686  1.0000
  C   C90       1.0  0.52400  0.47761  0.57409  1.0000
  C   C91       1.0  0.45777  0.47781  0.58091  1.0000
  C   C92       1.0  0.51778  0.97795  0.57210  1.0000
  C   C93       1.0  0.02224  0.53907  0.58857  1.0000
  C   C94       1.0  0.54531  0.52199  0.57618  1.0000
  C   C95       1.0  0.47558  0.02343  0.56624  1.0000
  C   C96       1.0  0.97757  0.45171  0.58184  1.0000
  C   C97       1.0  0.47910  0.45467  0.59112  1.0000
  C   C98       1.0  0.54198  0.02225  0.57752  1.0000
  C   C99       1.0  0.97801  0.51896  0.59608  1.0000
  C   C100      1.0  0.52407  0.54523  0.58138  1.0000
  C   C101      1.0  0.45139  0.97913  0.57627  1.0000
  C   C102      1.0  0.02180  0.47174  0.59141  1.0000
  C   C103      1.0  0.95648  0.54357  0.61252  1.0000
  C   C104      1.0  0.45587  0.40863  0.60965  1.0000
  C   C105      1.0  0.58802  0.04361  0.59321  1.0000
  C   C106      1.0  0.04366  0.44730  0.60577  1.0000
  C   C107      1.0  0.54746  0.59138  0.59144  1.0000
  C   C108      1.0  0.40533  0.95795  0.58878  1.0000
  C   C109      1.0  0.91827  0.53287  0.68812  1.0000
  C   C110      1.0  0.46675  0.38236  0.69750  1.0000
  C   C111      1.0  0.61523  0.08150  0.67074  1.0000
  C   C112      1.0  0.08104  0.45726  0.68818  1.0000
  C   C113      1.0  0.53660  0.61842  0.66988  1.0000
  C   C114      1.0  0.37741  0.92048  0.66942  1.0000
  C   C115      1.0  0.93743  0.60121  0.59352  1.0000
  C   C116      1.0  0.40060  0.33171  0.59397  1.0000
  C   C117      1.0  0.66449  0.06261  0.57926  1.0000
  C   C118      1.0  0.06322  0.39012  0.58875  1.0000
  C   C119      1.0  0.60353  0.66805  0.56889  1.0000
  C   C120      1.0  0.32942  0.94043  0.56592  1.0000
  C   C121      1.0  0.90768  0.56543  0.67738  1.0000
  C   C122      1.0  0.43543  0.33901  0.68884  1.0000
  C   C123      1.0  0.65823  0.09209  0.66270  1.0000
  C   C124      1.0  0.09196  0.42499  0.67824  1.0000
  C   C125      1.0  0.56828  0.66160  0.65686  1.0000
  C   C126      1.0  0.33464  0.91071  0.65597  1.0000
  C   C127      1.0  0.06604  0.35199  0.54077  1.0000
  C   C128      1.0  0.64129  0.70902  0.51871  1.0000
  C   C129      1.0  0.28924  0.93947  0.51727  1.0000
  C   C130      1.0  0.93552  0.64010  0.54592  1.0000
  C   C131      1.0  0.36368  0.29035  0.54295  1.0000
  C   C132      1.0  0.70540  0.06453  0.53808  1.0000
  S   S1        1.0  0.97879  0.60038  0.01027  1.0000
  S   S2        1.0  0.40276  0.38218  0.00934  1.0000
  S   S3        1.0  0.62031  0.02230  0.00200  1.0000
  S   S4        1.0  0.02196  0.40375  0.02411  1.0000
  S   S5        1.0  0.59842  0.62040  0.99407  1.0000
  S   S6        1.0  0.38057  0.97960  0.00262  1.0000
  S   S7        1.0  0.97904  0.59467  0.52945  1.0000
  S   S8        1.0  0.40645  0.37887  0.51662  1.0000
  S   S9        1.0  0.61667  0.02132  0.51127  1.0000
  S   S10       1.0  0.02225  0.39731  0.51699  1.0000
  S   S11       1.0  0.59748  0.62029  0.50238  1.0000
  S   S12       1.0  0.37779  0.98087  0.49791  1.0000
  N   N1        1.0  0.45282  0.91243  0.05761  1.0000
  N   N2        1.0  0.09002  0.54350  0.06520  1.0000
  N   N3        1.0  0.45899  0.54756  0.05435  1.0000
  N   N4        1.0  0.54793  0.08952  0.05580  1.0000
  N   N5        1.0  0.91358  0.46179  0.06805  1.0000
  N   N6        1.0  0.54268  0.45375  0.05156  1.0000
  N   N7        1.0  0.44976  0.91189  0.55722  1.0000
  N   N8        1.0  0.08830  0.53713  0.56225  1.0000
  N   N9        1.0  0.45817  0.54533  0.55047  1.0000
  N   N10       1.0  0.54380  0.08934  0.54513  1.0000
  N   N11       1.0  0.91160  0.45430  0.55686  1.0000
  N   N12       1.0  0.54490  0.45448  0.55737  1.0000
  C   C133      1.0  0.42915  0.61290  0.49154  1.0000
  C   C134      1.0  0.41356  0.57102  0.44190  1.0000
  C  Sn1       1.0  0.37613  0.55022  0.34913  1.0000
  C  Sn2       1.0  0.35396  0.57184  0.30539  1.0000
  C   C135      1.0  0.36982  0.61375  0.35554  1.0000
  C   C136      1.0  0.40731  0.63425  0.44839  1.0000
  H   H97       1.0  0.45816  0.62877  0.56329  1.0000
  O  Te1       1.0  0.36099  0.50837  0.30062  1.0000
  O  Te2       1.0  0.31647  0.55182  0.21270  1.0000
  H   H98       1.0  0.41938  0.66669  0.48670  1.0000
  Mg  Mg1       1.0  0.30855  0.49461  0.17572  1.0000
  C   C137      1.0  0.37135  0.78988  0.50900  1.0000
  C   C138      1.0  0.37891  0.76253  0.41224  1.0000
  C  Sn3       1.0  0.41705  0.77777  0.32581  1.0000
  C  Sn4       1.0  0.44814  0.82120  0.33674  1.0000
  C   C139      1.0  0.44029  0.84830  0.43397  1.0000
  C   C140      1.0  0.40201  0.83272  0.51990  1.0000
  H   H99       1.0  0.34175  0.77782  0.57556  1.0000
  O  Te3       1.0  0.42408  0.75001  0.22965  1.0000
  O  Te4       1.0  0.48654  0.83726  0.25169  1.0000
  H   H100      1.0  0.39618  0.85389  0.59490  1.0000
  Mg  Mg2       1.0  0.48136  0.78694  0.13673  1.0000
  C   C141      1.0  0.18571  0.56910  0.51039  1.0000
  C   C142      1.0  0.15830  0.58346  0.45761  1.0000
  C  Sn5       1.0  0.17339  0.62025  0.35993  1.0000
  C  Sn6       1.0  0.21673  0.64300  0.31440  1.0000
  C   C143      1.0  0.24388  0.62836  0.36773  1.0000
  C   C144      1.0  0.22845  0.59152  0.46549  1.0000
  H   H101      1.0  0.17377  0.54059  0.58594  1.0000
  O  Te5       1.0  0.14558  0.63416  0.30831  1.0000
  O  Te6       1.0  0.23264  0.67986  0.21681  1.0000
  H   H102      1.0  0.24967  0.58039  0.50624  1.0000
  Mg  Mg3       1.0  0.18230  0.68612  0.17704  1.0000
  C   C145      1.0  0.64007  0.45325  0.30640  1.0000
  C   C146      1.0  0.60308  0.44410  0.39185  1.0000
  C  Sn7       1.0  0.58007  0.40564  0.47774  1.0000
  C  Sn8       1.0  0.59445  0.37585  0.47790  1.0000
  C   C147      1.0  0.63152  0.38531  0.39213  1.0000
  C   C148      1.0  0.65429  0.42389  0.30654  1.0000
  H   H103      1.0  0.65771  0.48310  0.24025  1.0000
  O  Te7       1.0  0.54317  0.39700  0.56242  1.0000
  O  Te8       1.0  0.57208  0.33717  0.56278  1.0000
  H   H104      1.0  0.68294  0.43098  0.24049  1.0000
  Mg  Mg4       1.0  0.52363  0.33995  0.65979  1.0000
  C   C149      1.0  0.62538  0.20962  0.48392  1.0000
  C   C150      1.0  0.61921  0.23774  0.38287  1.0000
  C  Sn9       1.0  0.58119  0.22379  0.29585  1.0000
  C  Sn10      1.0  0.54881  0.18088  0.31055  1.0000
  C   C151      1.0  0.55528  0.15300  0.41205  1.0000
  C   C152      1.0  0.59344  0.16729  0.49854  1.0000
  H   H105      1.0  0.65490  0.22067  0.55092  1.0000
  O  Te9       1.0  0.57556  0.25230  0.19538  1.0000
  O  Te10      1.0  0.51050  0.16610  0.22500  1.0000
  H   H106      1.0  0.59820  0.14551  0.57686  1.0000
  Mg  Mg5       1.0  0.51784  0.21708  0.10349  1.0000
  C   C153      1.0  0.79064  0.35175  0.28856  1.0000
  C   C154      1.0  0.76311  0.36376  0.35822  1.0000
  C  Sn11      1.0  0.77879  0.39956  0.45941  1.0000
  C  Sn12      1.0  0.82288  0.42374  0.49120  1.0000
  C   C155      1.0  0.85016  0.41148  0.42083  1.0000
  C   C156      1.0  0.83413  0.37559  0.31980  1.0000
  H   H107      1.0  0.77824  0.32400  0.21031  1.0000
  O  Te11      1.0  0.75084  0.41110  0.52807  1.0000
  O  Te12      1.0  0.83940  0.45967  0.59183  1.0000
  H   H108      1.0  0.85546  0.36632  0.26579  1.0000
  Mg  Mg6       1.0  0.78857  0.46260  0.65706  1.0000
  C   C157      1.0  0.41681  0.62666  0.99701  1.0000
  C   C158      1.0  0.38270  0.62014  0.89535  1.0000
  C  Sn13      1.0  0.35978  0.58227  0.80792  1.0000
  C  Sn14      1.0  0.37128  0.55040  0.82283  1.0000
  C   C159      1.0  0.40544  0.55723  0.92494  1.0000
  C   C160      1.0  0.42768  0.59746  0.01183  1.0000
  H   H109      1.0  0.43390  0.65829  0.06431  1.0000
  O  Te13      1.0  0.32579  0.57628  0.70685  1.0000
  O  Te14      1.0  0.34890  0.51226  0.73688  1.0000
  H   H110      1.0  0.45407  0.60250  0.09062  1.0000
  Mg  Mg7       1.0  0.30503  0.51896  0.61460  1.0000
  C   C161      1.0  0.43599  0.79034  0.80784  1.0000
  C   C162      1.0  0.39681  0.76251  0.87957  1.0000
  C  Sn15      1.0  0.37586  0.77803  0.97723  1.0000
  C  Sn16      1.0  0.39408  0.82447  0.00329  1.0000
  C   C163      1.0  0.43376  0.84982  0.93089  1.0000
  C   C164      1.0  0.45445  0.83395  0.83343  1.0000
  H   H111      1.0  0.45198  0.77807  0.73236  1.0000
  O  Te15      1.0  0.33626  0.75201  0.04802  1.0000
  O  Te16      1.0  0.37383  0.84083  0.10029  1.0000
  H   H112      1.0  0.48477  0.85551  0.77782  1.0000
  Mg  Mg8       1.0  0.32101  0.78961  0.17041  1.0000
  C   C165      1.0  0.20984  0.64697  0.79344  1.0000
  C   C166      1.0  0.23794  0.63589  0.86747  1.0000
  C  Sn17      1.0  0.22283  0.60010  0.97111  1.0000
  C  Sn18      1.0  0.17826  0.57721  0.00091  1.0000
  C   C167      1.0  0.15090  0.58631  0.92617  1.0000
  C   C168      1.0  0.16636  0.62220  0.82272  1.0000
  H   H113      1.0  0.22180  0.67472  0.71332  1.0000
  O  Te17      1.0  0.25085  0.59172  0.04413  1.0000
  O  Te18      1.0  0.16230  0.54126  0.10391  1.0000
  H   H114      1.0  0.14460  0.63075  0.76533  1.0000
  Mg  Mg9       1.0  0.21377  0.53981  0.17499  1.0000
  C   C169      1.0  0.64880  0.43823  0.79984  1.0000
  C   C170      1.0  0.63680  0.39842  0.86929  1.0000
  C  Sn19      1.0  0.60000  0.37727  0.96530  1.0000
  C  Sn20      1.0  0.57480  0.39640  0.99203  1.0000
  C   C171      1.0  0.58706  0.43622  0.92191  1.0000
  C   C172      1.0  0.62396  0.45712  0.82608  1.0000
  H   H115      1.0  0.67733  0.45439  0.72561  1.0000
  O  Te19      1.0  0.58799  0.33974  0.03382  1.0000
  O  Te20      1.0  0.53736  0.37818  0.08742  1.0000
  H   H116      1.0  0.63322  0.48793  0.77223  1.0000
  Mg  Mg10      1.0  0.53489  0.32445  0.15466  1.0000
  C   C173      1.0  0.55231  0.18972  0.81884  1.0000
  C   C174      1.0  0.56155  0.16036  0.89401  1.0000
  C  Sn21      1.0  0.60042  0.17397  0.97378  1.0000
  C  Sn22      1.0  0.63054  0.21780  0.97822  1.0000
  C   C175      1.0  0.62099  0.24693  0.90276  1.0000
  C   C176      1.0  0.58199  0.23297  0.82322  1.0000
  H   H117      1.0  0.52214  0.17892  0.75738  1.0000
  O  Te21      1.0  0.60865  0.14643  0.04820  1.0000
  O  Te22      1.0  0.66914  0.23450  0.05717  1.0000
  H   H118      1.0  0.57484  0.25571  0.76513  1.0000
  Mg  Mg11      1.0  0.66631  0.18170  0.14058  1.0000
  C   C177      1.0  0.81674  0.36563  0.82728  1.0000
  C   C178      1.0  0.84465  0.40388  0.90429  1.0000
  C  Sn23      1.0  0.82930  0.42770  0.98259  1.0000
  C  Sn24      1.0  0.78517  0.41287  0.98366  1.0000
  C   C179      1.0  0.75752  0.37454  0.90638  1.0000
  C   C180      1.0  0.77322  0.35096  0.82834  1.0000
  H   H119      1.0  0.82889  0.34737  0.76697  1.0000
  O  Te23      1.0  0.85713  0.46809  0.05888  1.0000
  O  Te24      1.0  0.76849  0.43827  0.06108  1.0000
  H   H120      1.0  0.75160  0.32133  0.76882  1.0000
  Mg  Mg12      1.0  0.81976  0.48835  0.14807  1.0000
