data_image0
_chemical_formula_structural       H96C168S12N12C2Sn2C2HTe2HMgC2Sn2C2HTe2HMgC2Sn2C2HTe2HMgC2Sn2C2HTe2HMgC2Sn2C2HTe2HMgC2Sn2C2HTe2HMg
_chemical_formula_sum              "H108 C192 S12 N12 Sn12 Te12 Mg6"
_cell_length_a       36.6999
_cell_length_b       36.8447
_cell_length_c       8.35904
_cell_angle_alpha    119.822
_cell_angle_beta     72.4441
_cell_angle_gamma    119.937

_symmetry_space_group_name_H-M    'P1'
_space_group_IT_number       1

loop_
  _space_group_symop_operation_xyz
  'x, y, z'

loop_
  _atom_site_type_symbol
  _atom_site_label
  _atom_site_symmetry_multiplicity
  _atom_site_fract_x
  _atom_site_fract_y
  _atom_site_fract_z
  _atom_site_occupancy
  H   H1        1.0  0.88763  0.26477  0.47368  1.0000
  H   H2        1.0  0.73420  0.62551  0.51538  1.0000
  H   H3        1.0  0.35918  0.05724  0.34428  1.0000
  H   H4        1.0  0.08068  0.70414  0.35935  1.0000
  H   H5        1.0  0.28636  0.33721  0.43175  1.0000
  H   H6        1.0  0.62110  0.88561  0.49325  1.0000
  H   H7        1.0  0.06773  0.72824  0.11658  1.0000
  H   H8        1.0  0.26607  0.38358  0.03240  1.0000
  H   H9        1.0  0.64406  0.94878  0.13713  1.0000
  H   H10       1.0  0.93589  0.29966  0.12680  1.0000
  H   H11       1.0  0.73378  0.61323  0.92159  1.0000
  H   H12       1.0  0.37838  0.11578  0.00301  1.0000
  H   H13       1.0  0.55651  0.24436  0.92594  1.0000
  H   H14       1.0  0.24514  0.70555  0.13008  1.0000
  H   H15       1.0  0.30898  0.57450  0.14052  1.0000
  H   H16       1.0  0.44464  0.76577  0.09837  1.0000
  H   H17       1.0  0.50880  0.16698  0.89632  1.0000
  H   H18       1.0  0.16917  0.67773  0.13283  1.0000
  H   H19       1.0  0.33466  0.52292  0.12154  1.0000
  H   H20       1.0  0.49094  0.84238  0.11617  1.0000
  H   H21       1.0  0.60260  0.15892  0.06797  1.0000
  H   H22       1.0  0.15378  0.53784  0.88549  1.0000
  H   H23       1.0  0.45150  0.58745  0.85253  1.0000
  H   H24       1.0  0.39633  0.84315  0.91847  1.0000
  H   H25       1.0  0.65175  0.23723  0.09481  1.0000
  H   H26       1.0  0.23073  0.56535  0.87993  1.0000
  H   H27       1.0  0.42564  0.63933  0.86913  1.0000
  H   H28       1.0  0.34844  0.76541  0.90233  1.0000
  H   H29       1.0  0.04360  0.46445  0.00210  1.0000
  H   H30       1.0  0.53599  0.57676  0.96702  1.0000
  H   H31       1.0  0.42086  0.95837  0.98114  1.0000
  H   H32       1.0  0.95743  0.53445  0.99661  1.0000
  H   H33       1.0  0.46458  0.42593  0.01485  1.0000
  H   H34       1.0  0.57735  0.04558  0.00488  1.0000
  H   H35       1.0  0.28401  0.59484  0.02094  1.0000
  H   H36       1.0  0.41072  0.69682  0.01153  1.0000
  H   H37       1.0  0.30715  0.71773  0.99227  1.0000
  H   H38       1.0  0.71817  0.40784  0.96678  1.0000
  H   H39       1.0  0.59078  0.31458  0.04379  1.0000
  H   H40       1.0  0.69346  0.28605  0.00848  1.0000
  H   H41       1.0  0.86323  0.32282  0.01888  1.0000
  H   H42       1.0  0.67979  0.53865  0.95295  1.0000
  H   H43       1.0  0.45767  0.14073  0.00478  1.0000
  H   H44       1.0  0.13783  0.67477  0.96915  1.0000
  H   H45       1.0  0.32088  0.45736  0.97589  1.0000
  H   H46       1.0  0.54075  0.86361  0.98308  1.0000
  H   H47       1.0  0.93760  0.27267  0.88094  1.0000
  H   H48       1.0  0.71818  0.65897  0.07071  1.0000
  H   H49       1.0  0.34521  0.07389  0.09353  1.0000
  H   H50       1.0  0.06225  0.69860  0.87401  1.0000
  H   H51       1.0  0.28715  0.37361  0.16504  1.0000
  H   H52       1.0  0.65244  0.92782  0.89227  1.0000
  H   H53       1.0  0.88865  0.26854  0.01282  1.0000
  H   H54       1.0  0.71393  0.63364  0.82887  1.0000
  H   H55       1.0  0.35473  0.05658  0.85050  1.0000
  H   H56       1.0  0.11281  0.72740  0.95928  1.0000
  H   H57       1.0  0.28483  0.33993  0.92319  1.0000
  H   H58       1.0  0.61873  0.88880  0.99655  1.0000
  H   H59       1.0  0.11213  0.73727  0.55142  1.0000
  H   H60       1.0  0.26683  0.37868  0.49848  1.0000
  H   H61       1.0  0.64631  0.94593  0.63095  1.0000
  H   H62       1.0  0.92953  0.29711  0.62118  1.0000
  H   H63       1.0  0.71144  0.66392  0.57625  1.0000
  H   H64       1.0  0.37659  0.11203  0.53566  1.0000
  H   H65       1.0  0.25040  0.67788  0.38530  1.0000
  H   H66       1.0  0.44422  0.75950  0.59205  1.0000
  H   H67       1.0  0.17557  0.65025  0.37329  1.0000
  H   H68       1.0  0.49168  0.83580  0.60817  1.0000
  H   H69       1.0  0.14806  0.55682  0.60115  1.0000
  H   H70       1.0  0.39710  0.83986  0.42434  1.0000
  H   H71       1.0  0.22388  0.58424  0.61266  1.0000
  H   H72       1.0  0.34812  0.76242  0.40978  1.0000
  H   H73       1.0  0.04137  0.46526  0.51311  1.0000
  H   H74       1.0  0.53644  0.57376  0.46429  1.0000
  H   H75       1.0  0.42102  0.95342  0.48400  1.0000
  H   H76       1.0  0.95712  0.53395  0.48244  1.0000
  H   H77       1.0  0.46546  0.42282  0.51110  1.0000
  H   H78       1.0  0.57723  0.04167  0.51460  1.0000
  H   H79       1.0  0.28369  0.58928  0.50633  1.0000
  H   H80       1.0  0.41029  0.69085  0.49440  1.0000
  H   H81       1.0  0.30651  0.71654  0.51686  1.0000
  H   H82       1.0  0.71497  0.40945  0.52676  1.0000
  H   H83       1.0  0.58819  0.30564  0.51305  1.0000
  H   H84       1.0  0.69194  0.27835  0.47648  1.0000
  H   H85       1.0  0.86228  0.31863  0.47292  1.0000
  H   H86       1.0  0.67998  0.54700  0.53615  1.0000
  H   H87       1.0  0.45728  0.13631  0.51656  1.0000
  H   H88       1.0  0.13797  0.67947  0.52060  1.0000
  H   H89       1.0  0.32188  0.45692  0.48530  1.0000
  H   H90       1.0  0.54219  0.85941  0.48293  1.0000
  H   H91       1.0  0.94026  0.27478  0.37713  1.0000
  H   H92       1.0  0.71854  0.62806  0.34073  1.0000
  H   H93       1.0  0.34215  0.06130  0.57266  1.0000
  H   H94       1.0  0.05690  0.72132  0.58847  1.0000
  H   H95       1.0  0.28325  0.37509  0.66783  1.0000
  H   H96       1.0  0.65341  0.92429  0.38625  1.0000
  C   C1        1.0  0.60814  0.24804  0.01585  1.0000
  C   C2        1.0  0.24449  0.63786  0.00259  1.0000
  C   C3        1.0  0.36519  0.61165  0.00834  1.0000
  C   C4        1.0  0.39226  0.75853  0.99876  1.0000
  C   C5        1.0  0.56669  0.22702  0.96562  1.0000
  C   C6        1.0  0.22577  0.66853  0.06994  1.0000
  C   C7        1.0  0.33986  0.57691  0.07183  1.0000
  C   C8        1.0  0.43369  0.78132  0.05219  1.0000
  C   C9        1.0  0.53905  0.18255  0.95019  1.0000
  C   C10       1.0  0.18241  0.65265  0.06991  1.0000
  C   C11       1.0  0.35429  0.54686  0.05821  1.0000
  C   C12       1.0  0.46067  0.82525  0.05988  1.0000
  C   C13       1.0  0.55106  0.15698  0.98807  1.0000
  C   C14       1.0  0.15572  0.60525  0.00187  1.0000
  C   C15       1.0  0.39485  0.54999  0.97933  1.0000
  C   C16       1.0  0.44801  0.84851  0.01097  1.0000
  C   C17       1.0  0.59281  0.17797  0.03683  1.0000
  C   C18       1.0  0.17434  0.57451  0.93686  1.0000
  C   C19       1.0  0.42027  0.58482  0.91583  1.0000
  C   C20       1.0  0.40640  0.82593  0.95919  1.0000
  C   C21       1.0  0.62043  0.22208  0.05022  1.0000
  C   C22       1.0  0.21752  0.59038  0.93655  1.0000
  C   C23       1.0  0.40580  0.61471  0.92946  1.0000
  C   C24       1.0  0.37948  0.78221  0.95229  1.0000
  C   C25       1.0  0.89141  0.41280  0.99612  1.0000
  C   C26       1.0  0.58674  0.48007  0.00582  1.0000
  C   C27       1.0  0.52291  0.11048  0.98407  1.0000
  C   C28       1.0  0.10946  0.58594  0.99926  1.0000
  C   C29       1.0  0.41342  0.52196  0.97603  1.0000
  C   C30       1.0  0.47563  0.89419  0.00678  1.0000
  C   C31       1.0  0.95589  0.47595  0.99920  1.0000
  C   C32       1.0  0.52378  0.48157  0.00210  1.0000
  C   C33       1.0  0.52055  0.04626  0.99018  1.0000
  C   C34       1.0  0.04521  0.52297  0.99901  1.0000
  C   C35       1.0  0.47668  0.52111  0.98009  1.0000
  C   C36       1.0  0.47769  0.95768  0.99596  1.0000
  C   C37       1.0  0.98057  0.45523  0.99818  1.0000
  C   C38       1.0  0.54453  0.52568  0.99278  1.0000
  C   C39       1.0  0.47533  0.02122  0.98322  1.0000
  C   C40       1.0  0.02049  0.54358  0.99910  1.0000
  C   C41       1.0  0.45594  0.47754  0.99390  1.0000
  C   C42       1.0  0.52295  0.98275  0.00264  1.0000
  C   C43       1.0  0.02443  0.47902  0.99898  1.0000
  C   C44       1.0  0.52084  0.54425  0.98002  1.0000
  C   C45       1.0  0.45493  0.97774  0.98568  1.0000
  C   C46       1.0  0.97664  0.51990  0.99945  1.0000
  C   C47       1.0  0.47965  0.45868  0.00372  1.0000
  C   C48       1.0  0.54331  0.02619  0.00012  1.0000
  C   C49       1.0  0.29029  0.65450  0.00655  1.0000
  C   C50       1.0  0.34935  0.64220  0.01421  1.0000
  C   C51       1.0  0.36271  0.71314  0.00211  1.0000
  C   C52       1.0  0.71106  0.34976  0.99623  1.0000
  C   C53       1.0  0.65239  0.36484  0.00467  1.0000
  C   C54       1.0  0.63830  0.29361  0.01641  1.0000
  C   C55       1.0  0.30594  0.62771  0.01483  1.0000
  C   C56       1.0  0.37714  0.68514  0.00956  1.0000
  C   C57       1.0  0.31904  0.69710  0.00097  1.0000
  C   C58       1.0  0.69583  0.37713  0.98926  1.0000
  C   C59       1.0  0.62432  0.32341  0.02186  1.0000
  C   C60       1.0  0.68192  0.30776  0.00611  1.0000
  C   C61       1.0  0.41120  0.45710  0.99662  1.0000
  C   C62       1.0  0.54338  0.95919  0.00761  1.0000
  C   C63       1.0  0.04415  0.58772  0.99601  1.0000
  C   C64       1.0  0.58925  0.54609  0.99205  1.0000
  C   C65       1.0  0.45511  0.04502  0.97855  1.0000
  C   C66       1.0  0.95673  0.41083  0.99851  1.0000
  C   C67       1.0  0.08845  0.60956  0.99325  1.0000
  C   C68       1.0  0.38893  0.47768  0.98573  1.0000
  C   C69       1.0  0.52121  0.91461  0.00328  1.0000
  C   C70       1.0  0.91239  0.38877  0.99944  1.0000
  C   C71       1.0  0.61139  0.52375  0.99037  1.0000
  C   C72       1.0  0.47733  0.08978  0.98418  1.0000
  C   C73       1.0  0.89632  0.34515  0.00660  1.0000
  C   C74       1.0  0.65611  0.54990  0.97032  1.0000
  C   C75       1.0  0.44866  0.10663  0.99180  1.0000
  C   C76       1.0  0.10468  0.65287  0.98350  1.0000
  C   C77       1.0  0.34430  0.44939  0.98855  1.0000
  C   C78       1.0  0.54977  0.89768  0.99562  1.0000
  C   C79       1.0  0.92716  0.33422  0.00514  1.0000
  C   C80       1.0  0.66712  0.59094  0.96628  1.0000
  C   C81       1.0  0.40715  0.07557  0.98479  1.0000
  C   C82       1.0  0.07394  0.66403  0.98582  1.0000
  C   C83       1.0  0.33348  0.41010  0.00676  1.0000
  C   C84       1.0  0.59130  0.92871  0.00248  1.0000
  C   C85       1.0  0.92223  0.29156  0.00640  1.0000
  C   C86       1.0  0.71045  0.62615  0.94601  1.0000
  C   C87       1.0  0.36933  0.08066  0.98338  1.0000
  C   C88       1.0  0.07926  0.70679  0.98398  1.0000
  C   C89       1.0  0.29064  0.37486  0.03209  1.0000
  C   C90       1.0  0.62873  0.92332  0.00660  1.0000
  C   C91       1.0  0.24381  0.63463  0.50578  1.0000
  C   C92       1.0  0.39199  0.75406  0.49898  1.0000
  C   C93       1.0  0.22847  0.65263  0.44045  1.0000
  C   C94       1.0  0.43366  0.77571  0.54771  1.0000
  C   C95       1.0  0.18538  0.63709  0.43531  1.0000
  C   C96       1.0  0.46116  0.81950  0.55528  1.0000
  C   C97       1.0  0.15539  0.60287  0.49636  1.0000
  C   C98       1.0  0.44870  0.84365  0.51076  1.0000
  C   C99       1.0  0.17079  0.58386  0.55665  1.0000
  C   C100      1.0  0.40691  0.82190  0.46191  1.0000
  C   C101      1.0  0.21370  0.59927  0.56093  1.0000
  C   C102      1.0  0.37945  0.77843  0.45575  1.0000
  C   C103      1.0  0.88980  0.41348  0.49707  1.0000
  C   C104      1.0  0.58763  0.47818  0.50804  1.0000
  C   C105      1.0  0.52238  0.10593  0.49148  1.0000
  C   C106      1.0  0.10916  0.58473  0.49554  1.0000
  C   C107      1.0  0.41424  0.52010  0.48234  1.0000
  C   C108      1.0  0.47637  0.88955  0.50881  1.0000
  C   C109      1.0  0.95449  0.47621  0.49620  1.0000
  C   C110      1.0  0.52457  0.47843  0.49657  1.0000
  C   C111      1.0  0.52046  0.04199  0.49760  1.0000
  C   C112      1.0  0.04400  0.52291  0.49907  1.0000
  C   C113      1.0  0.47734  0.51827  0.47965  1.0000
  C   C114      1.0  0.47795  0.95308  0.50026  1.0000
  C   C115      1.0  0.97876  0.45626  0.50485  1.0000
  C   C116      1.0  0.54528  0.52215  0.48450  1.0000
  C   C117      1.0  0.47529  0.01656  0.48868  1.0000
  C   C118      1.0  0.01987  0.54305  0.49060  1.0000
  C   C119      1.0  0.45652  0.47460  0.49301  1.0000
  C   C120      1.0  0.52311  0.97844  0.50844  1.0000
  C   C121      1.0  0.02260  0.47978  0.50644  1.0000
  C   C122      1.0  0.52150  0.54097  0.47500  1.0000
  C   C123      1.0  0.45505  0.97294  0.48973  1.0000
  C   C124      1.0  0.97592  0.51949  0.48942  1.0000
  C   C125      1.0  0.48039  0.45557  0.50033  1.0000
  C   C126      1.0  0.54327  0.02204  0.50780  1.0000
  C   C127      1.0  0.28953  0.65095  0.51087  1.0000
  C   C128      1.0  0.34879  0.63751  0.50834  1.0000
  C   C129      1.0  0.36210  0.70889  0.50214  1.0000
  C   C130      1.0  0.70877  0.34560  0.49863  1.0000
  C   C131      1.0  0.64965  0.36059  0.51175  1.0000
  C   C132      1.0  0.63632  0.28745  0.50392  1.0000
  C   C133      1.0  0.30537  0.62331  0.51124  1.0000
  C   C134      1.0  0.37662  0.68008  0.50136  1.0000
  C   C135      1.0  0.31840  0.69407  0.51028  1.0000
  C   C136      1.0  0.69294  0.37473  0.51233  1.0000
  C   C137      1.0  0.62187  0.31696  0.50984  1.0000
  C   C138      1.0  0.68006  0.30183  0.49278  1.0000
  C   C139      1.0  0.41171  0.45442  0.49788  1.0000
  C   C140      1.0  0.54381  0.95501  0.51215  1.0000
  C   C141      1.0  0.04441  0.58724  0.48777  1.0000
  C   C142      1.0  0.58995  0.54301  0.48629  1.0000
  C   C143      1.0  0.45483  0.04009  0.48395  1.0000
  C   C144      1.0  0.95480  0.41201  0.50669  1.0000
  C   C145      1.0  0.08857  0.60948  0.49501  1.0000
  C   C146      1.0  0.38970  0.47585  0.49169  1.0000
  C   C147      1.0  0.52196  0.91027  0.50617  1.0000
  C   C148      1.0  0.91074  0.38910  0.49825  1.0000
  C   C149      1.0  0.61213  0.52329  0.50448  1.0000
  C   C150      1.0  0.47685  0.08502  0.49180  1.0000
  C   C151      1.0  0.89492  0.34365  0.48800  1.0000
  C   C152      1.0  0.65654  0.55309  0.51201  1.0000
  C   C153      1.0  0.44820  0.10191  0.50042  1.0000
  C   C154      1.0  0.10515  0.65506  0.50599  1.0000
  C   C155      1.0  0.34503  0.44799  0.49387  1.0000
  C   C156      1.0  0.55088  0.89346  0.49606  1.0000
  C   C157      1.0  0.92550  0.33346  0.49483  1.0000
  C   C158      1.0  0.66733  0.59215  0.49219  1.0000
  C   C159      1.0  0.40678  0.07048  0.49037  1.0000
  C   C160      1.0  0.07513  0.66622  0.50078  1.0000
  C   C161      1.0  0.33374  0.40778  0.50555  1.0000
  C   C162      1.0  0.59230  0.92467  0.50177  1.0000
  C   C163      1.0  0.92060  0.29027  0.49116  1.0000
  C   C164      1.0  0.71008  0.62936  0.48105  1.0000
  C   C165      1.0  0.36915  0.07549  0.48603  1.0000
  C   C166      1.0  0.08136  0.70953  0.50062  1.0000
  C   C167      1.0  0.29034  0.37271  0.52610  1.0000
  C   C168      1.0  0.63033  0.91985  0.50242  1.0000
  S   S1        1.0  0.97728  0.37777  0.99982  1.0000
  S   S2        1.0  0.62291  0.59867  0.98184  1.0000
  S   S3        1.0  0.40135  0.02431  0.97166  1.0000
  S   S4        1.0  0.02372  0.62079  0.99358  1.0000
  S   S5        1.0  0.37781  0.40544  0.01427  1.0000
  S   S6        1.0  0.59717  0.97988  0.01447  1.0000
  S   S7        1.0  0.97525  0.37896  0.50908  1.0000
  S   S8        1.0  0.62323  0.59490  0.47017  1.0000
  S   S9        1.0  0.40113  0.01905  0.47460  1.0000
  S   S10       1.0  0.02496  0.62136  0.48711  1.0000
  S   S11       1.0  0.37776  0.40203  0.50947  1.0000
  S   S12       1.0  0.59770  0.97592  0.51641  1.0000
  N   N1        1.0  0.91300  0.45456  0.99794  1.0000
  N   N2        1.0  0.54496  0.46101  0.01126  1.0000
  N   N3        1.0  0.54246  0.08871  0.98714  1.0000
  N   N4        1.0  0.08818  0.54447  0.00018  1.0000
  N   N5        1.0  0.45523  0.54154  0.97145  1.0000
  N   N6        1.0  0.45583  0.91548  0.00167  1.0000
  N   N7        1.0  0.91146  0.45489  0.49524  1.0000
  N   N8        1.0  0.54599  0.45793  0.50394  1.0000
  N   N9        1.0  0.54224  0.08452  0.49502  1.0000
  N   N10       1.0  0.08698  0.54356  0.49869  1.0000
  N   N11       1.0  0.45603  0.53931  0.47476  1.0000
  N   N12       1.0  0.45638  0.91074  0.50434  1.0000
  C   C169      1.0  0.78316  0.32986  0.91824  1.0000
  C   C170      1.0  0.76025  0.35632  0.98857  1.0000
  C  Sn1       1.0  0.79732  0.29962  0.05785  1.0000
  C  Sn2       1.0  0.84196  0.32150  0.05647  1.0000
  C   C171      1.0  0.84838  0.39950  0.98570  1.0000
  C   C172      1.0  0.82719  0.35142  0.91677  1.0000
  H   H97       1.0  0.76677  0.29267  0.86481  1.0000
  O  Te1       1.0  0.77394  0.32553  0.12766  1.0000
  O  Te2       1.0  0.86361  0.36949  0.12480  1.0000
  H   H98       1.0  0.84494  0.33095  0.86222  1.0000
  Mg  Mg1       1.0  0.81778  0.38988  0.20549  1.0000
  C   C173      1.0  0.81815  0.41100  0.41493  1.0000
  C   C174      1.0  0.83985  0.40172  0.49124  1.0000
  C  Sn3       1.0  0.81785  0.36914  0.56565  1.0000
  C  Sn4       1.0  0.77330  0.34545  0.56336  1.0000
  C   C175      1.0  0.75188  0.35496  0.48658  1.0000
  C   C176      1.0  0.77421  0.38764  0.41256  1.0000
  H   H99       1.0  0.83542  0.43626  0.35757  1.0000
  O  Te3       1.0  0.84002  0.36031  0.64141  1.0000
  O  Te4       1.0  0.75053  0.31271  0.63672  1.0000
  H   H100      1.0  0.75740  0.39479  0.35338  1.0000
  Mg  Mg2       1.0  0.79493  0.31267  0.72462  1.0000
  C   C177      1.0  0.55520  0.20886  0.43311  1.0000
  C   C178      1.0  0.59498  0.23810  0.50315  1.0000
  C  Sn5       1.0  0.61409  0.22278  0.56315  1.0000
  C  Sn6       1.0  0.59293  0.17732  0.55264  1.0000
  C   C179      1.0  0.55315  0.14832  0.48223  1.0000
  C   C180      1.0  0.53431  0.16401  0.42262  1.0000
  H   H101      1.0  0.54063  0.22099  0.38689  1.0000
  O  Te5       1.0  0.65384  0.25245  0.63282  1.0000
  O  Te6       1.0  0.61131  0.16111  0.61159  1.0000
  H   H102      1.0  0.50352  0.14135  0.36829  1.0000
  Mg  Mg3       1.0  0.66591  0.21450  0.69600  1.0000
  C   C181      1.0  0.66437  0.43888  0.46052  1.0000
  C   C182      1.0  0.64221  0.40226  0.51302  1.0000
  C  Sn7       1.0  0.59892  0.38767  0.56108  1.0000
  C  Sn8       1.0  0.57750  0.41021  0.55630  1.0000
  C   C183      1.0  0.59995  0.44679  0.50346  1.0000
  C   C184      1.0  0.64327  0.46112  0.45570  1.0000
  H   H103      1.0  0.69788  0.44996  0.42346  1.0000
  O  Te7       1.0  0.57727  0.35103  0.61327  1.0000
  O  Te8       1.0  0.53424  0.39632  0.60359  1.0000
  H   H104      1.0  0.66041  0.48946  0.41495  1.0000
  Mg  Mg4       1.0  0.51853  0.34471  0.66551  1.0000
  C   C185      1.0  0.34703  0.54979  0.58565  1.0000
  C   C186      1.0  0.38406  0.54434  0.49716  1.0000
  C  Sn9       1.0  0.41368  0.57244  0.40881  1.0000
  C  Sn10      1.0  0.40599  0.60661  0.40933  1.0000
  C   C187      1.0  0.36886  0.61182  0.49836  1.0000
  C   C188      1.0  0.33943  0.58350  0.58630  1.0000
  H   H105      1.0  0.32427  0.52790  0.65378  1.0000
  O  Te9       1.0  0.45050  0.56652  0.32100  1.0000
  O  Te10      1.0  0.43507  0.63518  0.32215  1.0000
  H   H106      1.0  0.31078  0.58775  0.65490  1.0000
  Mg  Mg5       1.0  0.48057  0.61383  0.22119  1.0000
  C   C189      1.0  0.58479  0.37968  0.97465  1.0000
  C   C190      1.0  0.62569  0.38923  0.99218  1.0000
  C  Sn11      1.0  0.67383  0.32914  0.03525  1.0000
  C  Sn12      1.0  0.66454  0.36485  0.06122  1.0000
  C   C191      1.0  0.62351  0.35494  0.04350  1.0000
  C   C192      1.0  0.59181  0.31012  0.00031  1.0000
  H   H107      1.0  0.56025  0.34500  0.94132  1.0000
  O  Te11      1.0  0.71453  0.33808  0.05219  1.0000
  O  Te12      1.0  0.69585  0.40981  0.10443  1.0000
  H   H108      1.0  0.54392  0.40750  0.98686  1.0000
  Mg  Mg6       1.0  0.74648  0.40485  0.11276  1.0000
