data_image0
_chemical_formula_structural       H84C156S12N24SnCSn2CSnTe4Mg2SnCSn2CSnTe4Mg2SnCSn2CSnTe4Mg2SnCSn2CSnTe4Mg2SnCSn2CSnTe4Mg2SnCSn2CSnTe4Mg2
_chemical_formula_sum              "H84 C168 S12 N24 Sn24 Te24 Mg12"
_cell_length_a       36.1715
_cell_length_b       36.3558
_cell_length_c       8.11322
_cell_angle_alpha    90.054
_cell_angle_beta     116.876
_cell_angle_gamma    119.543

_symmetry_space_group_name_H-M    'P1'
_space_group_IT_number       1

loop_
  _space_group_symop_operation_xyz
  'x, y, z'

loop_
  _atom_site_type_symbol
  _atom_site_label
  _atom_site_symmetry_multiplicity
  _atom_site_fract_x
  _atom_site_fract_y
  _atom_site_fract_z
  _atom_site_occupancy
  H   H1        1.0  0.90120  0.27665  0.56642  1.0000
  H   H2        1.0  0.74325  0.62409  0.55457  1.0000
  H   H3        1.0  0.32768  0.04975  0.33769  1.0000
  H   H4        1.0  0.11393  0.74112  0.49984  1.0000
  H   H5        1.0  0.26076  0.38201  0.46591  1.0000
  H   H6        1.0  0.61589  0.88296  0.42378  1.0000
  H   H7        1.0  0.07763  0.72033  0.10404  1.0000
  H   H8        1.0  0.29729  0.34824  0.09836  1.0000
  H   H9        1.0  0.65876  0.93293  0.09032  1.0000
  H   H10       1.0  0.89011  0.26539  0.07725  1.0000
  H   H11       1.0  0.73591  0.66119  0.16601  1.0000
  H   H12       1.0  0.35474  0.07284  0.07185  1.0000
  H   H13       1.0  0.72601  0.29295  0.84684  1.0000
  H   H14       1.0  0.69230  0.43827  0.97249  1.0000
  H   H15       1.0  0.26437  0.69693  0.14269  1.0000
  H   H16       1.0  0.44494  0.74603  0.02858  1.0000
  H   H17       1.0  0.80418  0.32172  0.84988  1.0000
  H   H18       1.0  0.66659  0.48946  0.96006  1.0000
  H   H19       1.0  0.18784  0.66774  0.15163  1.0000
  H   H20       1.0  0.49411  0.82101  0.01980  1.0000
  H   H21       1.0  0.85740  0.45345  0.11868  1.0000
  H   H22       1.0  0.54498  0.39407  0.01950  1.0000
  H   H23       1.0  0.13444  0.53617  0.88266  1.0000
  H   H24       1.0  0.38708  0.84569  0.99168  1.0000
  H   H25       1.0  0.77653  0.42454  0.09862  1.0000
  H   H26       1.0  0.56942  0.34076  0.01678  1.0000
  H   H27       1.0  0.21454  0.56543  0.89410  1.0000
  H   H28       1.0  0.33810  0.76928  0.00893  1.0000
  H   H29       1.0  0.03950  0.45825  0.00436  1.0000
  H   H30       1.0  0.53486  0.57817  0.00453  1.0000
  H   H31       1.0  0.41864  0.95569  0.02105  1.0000
  H   H32       1.0  0.95522  0.53227  0.01972  1.0000
  H   H33       1.0  0.46458  0.42046  0.00666  1.0000
  H   H34       1.0  0.57651  0.04025  0.01536  1.0000
  H   H35       1.0  0.86228  0.31876  0.04851  1.0000
  H   H36       1.0  0.68527  0.54427  0.02967  1.0000
  H   H37       1.0  0.44336  0.13020  0.92573  1.0000
  H   H38       1.0  0.13093  0.67124  0.96807  1.0000
  H   H39       1.0  0.32359  0.45918  0.04798  1.0000
  H   H40       1.0  0.53170  0.85571  0.93933  1.0000
  H   H41       1.0  0.95541  0.29166  0.18240  1.0000
  H   H42       1.0  0.70458  0.64424  0.91026  1.0000
  H   H43       1.0  0.31898  0.04785  0.81864  1.0000
  H   H44       1.0  0.04293  0.70038  0.84852  1.0000
  H   H45       1.0  0.25973  0.34691  0.85942  1.0000
  H   H46       1.0  0.62806  0.92780  0.83919  1.0000
  H   H47       1.0  0.91515  0.26947  0.92868  1.0000
  H   H48       1.0  0.74105  0.62412  0.04854  1.0000
  H   H49       1.0  0.36301  0.10598  0.91483  1.0000
  H   H50       1.0  0.10879  0.72751  0.97749  1.0000
  H   H51       1.0  0.27171  0.38056  0.05951  1.0000
  H   H52       1.0  0.60863  0.88016  0.92150  1.0000
  H   H53       1.0  0.07320  0.72771  0.58793  1.0000
  H   H54       1.0  0.29407  0.35886  0.60042  1.0000
  H   H55       1.0  0.66626  0.93550  0.59392  1.0000
  H   H56       1.0  0.96705  0.30830  0.72478  1.0000
  H   H57       1.0  0.73811  0.66125  0.67237  1.0000
  H   H58       1.0  0.36883  0.10812  0.40345  1.0000
  H   H59       1.0  0.73586  0.30101  0.35094  1.0000
  H   H60       1.0  0.56337  0.25598  0.52807  1.0000
  H   H61       1.0  0.81448  0.33173  0.35506  1.0000
  H   H62       1.0  0.51634  0.18122  0.54917  1.0000
  H   H63       1.0  0.86458  0.46214  0.62390  1.0000
  H   H64       1.0  0.60261  0.14787  0.43339  1.0000
  H   H65       1.0  0.78336  0.43127  0.60466  1.0000
  H   H66       1.0  0.65390  0.22555  0.43399  1.0000
  H   H67       1.0  0.04727  0.47108  0.50026  1.0000
  H   H68       1.0  0.53637  0.57928  0.49467  1.0000
  H   H69       1.0  0.42905  0.96176  0.52850  1.0000
  H   H70       1.0  0.96053  0.54259  0.51473  1.0000
  H   H71       1.0  0.46669  0.42311  0.51976  1.0000
  H   H72       1.0  0.58544  0.04513  0.51123  1.0000
  H   H73       1.0  0.87371  0.33057  0.55946  1.0000
  H   H74       1.0  0.68805  0.54479  0.54608  1.0000
  H   H75       1.0  0.45091  0.13434  0.41898  1.0000
  H   H76       1.0  0.13916  0.68580  0.48916  1.0000
  H   H77       1.0  0.31622  0.45989  0.47108  1.0000
  H   H78       1.0  0.53761  0.85933  0.42847  1.0000
  H   H79       1.0  0.94082  0.28809  0.47428  1.0000
  H   H80       1.0  0.70760  0.64504  0.41659  1.0000
  H   H81       1.0  0.36763  0.08076  0.58451  1.0000
  H   H82       1.0  0.04834  0.71119  0.33679  1.0000
  H   H83       1.0  0.26401  0.34381  0.34467  1.0000
  H   H84       1.0  0.63682  0.93062  0.34291  1.0000
  C   C1        1.0  0.74658  0.35685  0.97506  1.0000
  C   C2        1.0  0.63307  0.38635  0.99809  1.0000
  C   C3        1.0  0.24400  0.63318  0.01427  1.0000
  C   C4        1.0  0.38842  0.75253  0.02123  1.0000
  C   C5        1.0  0.75516  0.32799  0.90813  1.0000
  C   C6        1.0  0.66040  0.42893  0.98544  1.0000
  C   C7        1.0  0.23550  0.66182  0.08342  1.0000
  C   C8        1.0  0.43251  0.76806  0.02199  1.0000
  C   C9        1.0  0.79985  0.34427  0.91520  1.0000
  C   C10       1.0  0.64583  0.45807  0.98150  1.0000
  C   C11       1.0  0.19156  0.64527  0.08253  1.0000
  C   C12       1.0  0.45986  0.81073  0.01407  1.0000
  C   C13       1.0  0.83787  0.38965  0.99536  1.0000
  C   C14       1.0  0.60413  0.44629  0.99483  1.0000
  C   C15       1.0  0.15388  0.59983  0.00564  1.0000
  C   C16       1.0  0.44411  0.83973  0.00206  1.0000
  C   C17       1.0  0.82841  0.41841  0.05859  1.0000
  C   C18       1.0  0.57689  0.40321  0.00715  1.0000
  C   C19       1.0  0.16309  0.57129  0.93895  1.0000
  C   C20       1.0  0.39937  0.82351  0.99947  1.0000
  C   C21       1.0  0.78349  0.40240  0.04719  1.0000
  C   C22       1.0  0.59066  0.37374  0.00689  1.0000
  C   C23       1.0  0.20752  0.58753  0.94536  1.0000
  C   C24       1.0  0.37223  0.78107  0.00947  1.0000
  C   C25       1.0  0.88647  0.40901  0.00968  1.0000
  C   C26       1.0  0.58700  0.47580  0.99952  1.0000
  C   C27       1.0  0.51775  0.10669  0.99408  1.0000
  C   C28       1.0  0.10647  0.58059  0.00125  1.0000
  C   C29       1.0  0.41283  0.52263  0.01549  1.0000
  C   C30       1.0  0.47186  0.88608  0.99671  1.0000
  C   C31       1.0  0.95276  0.47231  0.01635  1.0000
  C   C32       1.0  0.52344  0.47802  0.00295  1.0000
  C   C33       1.0  0.51874  0.04278  0.01647  1.0000
  C   C34       1.0  0.04168  0.51805  0.00563  1.0000
  C   C35       1.0  0.47601  0.52064  0.00877  1.0000
  C   C36       1.0  0.47551  0.95252  0.01319  1.0000
  C   C37       1.0  0.97723  0.45081  0.01465  1.0000
  C   C38       1.0  0.54431  0.52366  0.00438  1.0000
  C   C39       1.0  0.47296  0.01840  0.01680  1.0000
  C   C40       1.0  0.01784  0.53988  0.01221  1.0000
  C   C41       1.0  0.45529  0.47500  0.00832  1.0000
  C   C42       1.0  0.52133  0.97702  0.01352  1.0000
  C   C43       1.0  0.02073  0.47388  0.00830  1.0000
  C   C44       1.0  0.52018  0.54394  0.00588  1.0000
  C   C45       1.0  0.45285  0.97434  0.01875  1.0000
  C   C46       1.0  0.97419  0.51673  0.01714  1.0000
  C   C47       1.0  0.47925  0.45469  0.00552  1.0000
  C   C48       1.0  0.54232  0.02147  0.01790  1.0000
  C   C49       1.0  0.29045  0.65034  0.01494  1.0000
  C   C50       1.0  0.34549  0.63821  0.00482  1.0000
  C   C51       1.0  0.35957  0.70697  0.02750  1.0000
  C   C52       1.0  0.70036  0.34066  0.97489  1.0000
  C   C53       1.0  0.64775  0.35525  0.99391  1.0000
  C   C54       1.0  0.63253  0.28613  0.97692  1.0000
  C   C55       1.0  0.41048  0.45430  0.01065  1.0000
  C   C56       1.0  0.54064  0.95207  0.00103  1.0000
  C   C57       1.0  0.04151  0.58442  0.00758  1.0000
  C   C58       1.0  0.58982  0.54444  0.00755  1.0000
  C   C59       1.0  0.45059  0.04212  0.00533  1.0000
  C   C60       1.0  0.95392  0.40650  0.02256  1.0000
  C   C61       1.0  0.08511  0.60545  0.99960  1.0000
  C   C62       1.0  0.38901  0.47718  0.01975  1.0000
  C   C63       1.0  0.51667  0.90663  0.98692  1.0000
  C   C64       1.0  0.90900  0.38475  0.02123  1.0000
  C   C65       1.0  0.61284  0.52227  0.00891  1.0000
  C   C66       1.0  0.47040  0.08508  0.98399  1.0000
  C   C67       1.0  0.89428  0.34098  0.03719  1.0000
  C   C68       1.0  0.65962  0.55224  0.02345  1.0000
  C   C69       1.0  0.43765  0.09921  0.95314  1.0000
  C   C70       1.0  0.10016  0.64943  0.98685  1.0000
  C   C71       1.0  0.34525  0.44905  0.02828  1.0000
  C   C72       1.0  0.54340  0.88990  0.96545  1.0000
  C   C73       1.0  0.92605  0.32981  0.04524  1.0000
  C   C74       1.0  0.67081  0.59433  0.02908  1.0000
  C   C75       1.0  0.39605  0.06904  0.95671  1.0000
  C   C76       1.0  0.07021  0.66156  0.99180  1.0000
  C   C77       1.0  0.33304  0.40659  0.01765  1.0000
  C   C78       1.0  0.58584  0.92118  0.96988  1.0000
  C   C79       1.0  0.92164  0.28696  0.05934  1.0000
  C   C80       1.0  0.71548  0.63307  0.03977  1.0000
  C   C81       1.0  0.35593  0.07401  0.93876  1.0000
  C   C82       1.0  0.07500  0.70461  0.97990  1.0000
  C   C83       1.0  0.28818  0.36845  0.00828  1.0000
  C   C84       1.0  0.62237  0.91532  0.95467  1.0000
  C   C85       1.0  0.75486  0.36425  0.47944  1.0000
  C   C86       1.0  0.61143  0.24564  0.47818  1.0000
  C   C87       1.0  0.76442  0.33618  0.41301  1.0000
  C   C88       1.0  0.57149  0.23200  0.50550  1.0000
  C   C89       1.0  0.80933  0.35353  0.42048  1.0000
  C   C90       1.0  0.54397  0.18914  0.51102  1.0000
  C   C91       1.0  0.84645  0.39910  0.50007  1.0000
  C   C92       1.0  0.55405  0.15770  0.48195  1.0000
  C   C93       1.0  0.83624  0.42696  0.56468  1.0000
  C   C94       1.0  0.59448  0.17186  0.45527  1.0000
  C   C95       1.0  0.79114  0.40991  0.55306  1.0000
  C   C96       1.0  0.62305  0.21505  0.45588  1.0000
  C   C97       1.0  0.89462  0.41947  0.51045  1.0000
  C   C98       1.0  0.58826  0.47640  0.50280  1.0000
  C   C99       1.0  0.52652  0.11167  0.48895  1.0000
  C   C100      1.0  0.11384  0.59407  0.50741  1.0000
  C   C101      1.0  0.41511  0.52653  0.50973  1.0000
  C   C102      1.0  0.48002  0.89117  0.49436  1.0000
  C   C103      1.0  0.95922  0.48315  0.51083  1.0000
  C   C104      1.0  0.52505  0.47926  0.50704  1.0000
  C   C105      1.0  0.52793  0.04796  0.51354  1.0000
  C   C106      1.0  0.04823  0.53031  0.50228  1.0000
  C   C107      1.0  0.47814  0.52324  0.50790  1.0000
  C   C108      1.0  0.48492  0.95810  0.51440  1.0000
  C   C109      1.0  0.98429  0.46232  0.50826  1.0000
  C   C110      1.0  0.54554  0.52452  0.50205  1.0000
  C   C111      1.0  0.48256  0.02392  0.51672  1.0000
  C   C112      1.0  0.02350  0.55129  0.50637  1.0000
  C   C113      1.0  0.45785  0.47808  0.51535  1.0000
  C   C114      1.0  0.53030  0.98212  0.51129  1.0000
  C   C115      1.0  0.02776  0.48604  0.50268  1.0000
  C   C116      1.0  0.52177  0.54537  0.50108  1.0000
  C   C117      1.0  0.46274  0.98016  0.52239  1.0000
  C   C118      1.0  0.97977  0.52747  0.51070  1.0000
  C   C119      1.0  0.48146  0.45712  0.51469  1.0000
  C   C120      1.0  0.55138  0.02651  0.51467  1.0000
  C   C121      1.0  0.29759  0.65875  0.52697  1.0000
  C   C122      1.0  0.35058  0.64401  0.51248  1.0000
  C   C123      1.0  0.36491  0.71270  0.52078  1.0000
  C   C124      1.0  0.70804  0.34713  0.47595  1.0000
  C   C125      1.0  0.65405  0.35989  0.49393  1.0000
  C   C126      1.0  0.64056  0.29137  0.47530  1.0000
  C   C127      1.0  0.41280  0.45814  0.51592  1.0000
  C   C128      1.0  0.54918  0.95673  0.49838  1.0000
  C   C129      1.0  0.04695  0.59600  0.50356  1.0000
  C   C130      1.0  0.59100  0.54495  0.50498  1.0000
  C   C131      1.0  0.46008  0.04749  0.50441  1.0000
  C   C132      1.0  0.96218  0.41817  0.51839  1.0000
  C   C133      1.0  0.09196  0.61849  0.50537  1.0000
  C   C134      1.0  0.38974  0.48063  0.50745  1.0000
  C   C135      1.0  0.52443  0.91118  0.48187  1.0000
  C   C136      1.0  0.91795  0.39600  0.52169  1.0000
  C   C137      1.0  0.61431  0.52282  0.51144  1.0000
  C   C138      1.0  0.47926  0.09017  0.48006  1.0000
  C   C139      1.0  0.90494  0.35289  0.54376  1.0000
  C   C140      1.0  0.66174  0.55279  0.53065  1.0000
  C   C141      1.0  0.44606  0.10380  0.44933  1.0000
  C   C142      1.0  0.10697  0.66283  0.49804  1.0000
  C   C143      1.0  0.34229  0.45138  0.48850  1.0000
  C   C144      1.0  0.55047  0.89382  0.45887  1.0000
  C   C145      1.0  0.93751  0.34276  0.55205  1.0000
  C   C146      1.0  0.67274  0.59470  0.53161  1.0000
  C   C147      1.0  0.40513  0.07369  0.45723  1.0000
  C   C148      1.0  0.07498  0.67335  0.49332  1.0000
  C   C149      1.0  0.33091  0.40944  0.48978  1.0000
  C   C150      1.0  0.59377  0.92492  0.46833  1.0000
  C   C151      1.0  0.93668  0.30183  0.58070  1.0000
  C   C152      1.0  0.71789  0.63341  0.54515  1.0000
  C   C153      1.0  0.36508  0.07821  0.44402  1.0000
  C   C154      1.0  0.07775  0.71554  0.47893  1.0000
  C   C155      1.0  0.28502  0.37139  0.47407  1.0000
  C   C156      1.0  0.63024  0.91828  0.45685  1.0000
  S   S1        1.0  0.97625  0.37314  0.04032  1.0000
  S   S2        1.0  0.62429  0.59929  0.01710  1.0000
  S   S3        1.0  0.39470  0.02135  0.99428  1.0000
  S   S4        1.0  0.02121  0.61887  0.00532  1.0000
  S   S5        1.0  0.37640  0.39982  0.00693  1.0000
  S   S6        1.0  0.59465  0.97288  0.99702  1.0000
  S   S7        1.0  0.98595  0.38604  0.53793  1.0000
  S   S8        1.0  0.62546  0.59958  0.51163  1.0000
  S   S9        1.0  0.40480  0.02657  0.49814  1.0000
  S   S10       1.0  0.02467  0.62907  0.49373  1.0000
  S   S11       1.0  0.37789  0.40380  0.51203  1.0000
  S   S12       1.0  0.60376  0.97708  0.49932  1.0000
  N   N1        1.0  0.90892  0.45116  0.01327  1.0000
  N   N2        1.0  0.54460  0.45608  0.99801  1.0000
  N   N3        1.0  0.53999  0.08558  0.01112  1.0000
  N   N4        1.0  0.08445  0.53861  0.00030  1.0000
  N   N5        1.0  0.45432  0.54240  0.01027  1.0000
  N   N6        1.0  0.45313  0.90899  0.00747  1.0000
  N   N7        1.0  0.30166  0.62107  0.99396  1.0000
  N   N8        1.0  0.37573  0.68085  0.02085  1.0000
  N   N9        1.0  0.31845  0.69379  0.03436  1.0000
  N   N10       1.0  0.68978  0.37062  0.99200  1.0000
  N   N11       1.0  0.61822  0.31344  0.99005  1.0000
  N   N12       1.0  0.67234  0.29772  0.96243  1.0000
  N   N13       1.0  0.91574  0.46143  0.51069  1.0000
  N   N14       1.0  0.54602  0.45689  0.50302  1.0000
  N   N15       1.0  0.54889  0.09063  0.50653  1.0000
  N   N16       1.0  0.09154  0.55181  0.50192  1.0000
  N   N17       1.0  0.45716  0.54580  0.50862  1.0000
  N   N18       1.0  0.46240  0.91470  0.51008  1.0000
  N   N19       1.0  0.30858  0.62877  0.51504  1.0000
  N   N20       1.0  0.37968  0.68555  0.51263  1.0000
  N   N21       1.0  0.32505  0.70135  0.53412  1.0000
  N   N22       1.0  0.69637  0.37634  0.49264  1.0000
  N   N23       1.0  0.62557  0.31792  0.49059  1.0000
  N   N24       1.0  0.68051  0.30393  0.46040  1.0000
  C  Sn1       1.0  0.33315  0.53657  0.89747  1.0000
  C   C157      1.0  0.38014  0.54731  0.94334  1.0000
  C  Sn2       1.0  0.28749  0.52463  0.04115  1.0000
  C  Sn3       1.0  0.28187  0.55790  0.09434  1.0000
  C   C158      1.0  0.23490  0.54715  0.04851  1.0000
  C  Sn4       1.0  0.32753  0.56984  0.95066  1.0000
  O  Te1       1.0  0.29223  0.49305  0.79963  1.0000
  O  Te2       1.0  0.33408  0.53458  0.08537  1.0000
  O  Te3       1.0  0.32284  0.60145  0.19225  1.0000
  O  Te4       1.0  0.28096  0.55989  0.90647  1.0000
  Mg  Mg1       1.0  0.37860  0.59865  0.22029  1.0000
  Mg  Mg2       1.0  0.23643  0.49583  0.77166  1.0000
  C  Sn5       1.0  0.56611  0.22321  0.07451  1.0000
  C   C159      1.0  0.60328  0.24038  0.02915  1.0000
  C  Sn6       1.0  0.74412  0.27820  0.94644  1.0000
  C  Sn7       1.0  0.71303  0.23190  0.90816  1.0000
  C   C160      1.0  0.67588  0.21474  0.95348  1.0000
  C  Sn8       1.0  0.53502  0.17690  0.03623  1.0000
  O  Te5       1.0  0.56004  0.25199  0.15710  1.0000
  O  Te6       1.0  0.78154  0.29615  0.90241  1.0000
  O  Te7       1.0  0.71913  0.20311  0.82550  1.0000
  O  Te8       1.0  0.49762  0.15898  0.08021  1.0000
  Mg  Mg3       1.0  0.77523  0.24340  0.79133  1.0000
  Mg  Mg4       1.0  0.50389  0.21168  0.19120  1.0000
  C  Sn9       1.0  0.39771  0.61370  0.40806  1.0000
  C   C161      1.0  0.36407  0.60989  0.45862  1.0000
  C  Sn10      1.0  0.34903  0.57965  0.55726  1.0000
  C  Sn11      1.0  0.36802  0.55266  0.60652  1.0000
  C   C162      1.0  0.40164  0.55647  0.55600  1.0000
  C  Sn12      1.0  0.41670  0.58671  0.45732  1.0000
  O  Te9       1.0  0.41224  0.64416  0.30948  1.0000
  O  Te10      1.0  0.31535  0.57643  0.60620  1.0000
  O  Te11      1.0  0.35345  0.52218  0.70518  1.0000
  O  Te12      1.0  0.45036  0.58994  0.40842  1.0000
  Mg  Mg5       1.0  0.30681  0.53001  0.74029  1.0000
  Mg  Mg6       1.0  0.45895  0.63635  0.27442  1.0000
  C  Sn13      1.0  0.40530  0.82497  0.54814  1.0000
  C   C163      1.0  0.44960  0.84458  0.54788  1.0000
  C  Sn14      1.0  0.46502  0.81871  0.51117  1.0000
  C  Sn15      1.0  0.43553  0.77227  0.47382  1.0000
  C   C164      1.0  0.39125  0.75268  0.47407  1.0000
  C  Sn16      1.0  0.37580  0.77852  0.51080  1.0000
  O  Te13      1.0  0.39060  0.85147  0.58519  1.0000
  O  Te14      1.0  0.50947  0.83908  0.51174  1.0000
  O  Te15      1.0  0.45026  0.74577  0.43676  1.0000
  O  Te16      1.0  0.33138  0.75818  0.51021  1.0000
  Mg  Mg7       1.0  0.51372  0.78888  0.45326  1.0000
  Mg  Mg8       1.0  0.32708  0.80834  0.56857  1.0000
  C  Sn17      1.0  0.59174  0.40188  0.57973  1.0000
  C   C165      1.0  0.61111  0.44397  0.55381  1.0000
  C  Sn18      1.0  0.64190  0.45821  0.47728  1.0000
  C  Sn19      1.0  0.65355  0.42979  0.42545  1.0000
  C   C166      1.0  0.63418  0.38773  0.45134  1.0000
  C  Sn20      1.0  0.60340  0.37346  0.52790  1.0000
  O  Te17      1.0  0.56103  0.38833  0.65648  1.0000
  O  Te18      1.0  0.66083  0.50044  0.45276  1.0000
  O  Te19      1.0  0.68429  0.44337  0.34865  1.0000
  O  Te20      1.0  0.58446  0.33126  0.55239  1.0000
  Mg  Mg9       1.0  0.70098  0.50384  0.34260  1.0000
  Mg  Mg10      1.0  0.54429  0.32781  0.66244  1.0000
  C  Sn21      1.0  0.20402  0.66558  0.54350  1.0000
  C   C167      1.0  0.16374  0.62199  0.48399  1.0000
  C  Sn22      1.0  0.16822  0.58690  0.45426  1.0000
  C  Sn23      1.0  0.21393  0.59554  0.48477  1.0000
  C   C168      1.0  0.25419  0.63911  0.54427  1.0000
  C  Sn24      1.0  0.24974  0.67423  0.57401  1.0000
  O  Te21      1.0  0.19870  0.70015  0.57235  1.0000
  O  Te22      1.0  0.12741  0.54360  0.39470  1.0000
  O  Te23      1.0  0.21922  0.56092  0.45586  1.0000
  O  Te24      1.0  0.29051  0.71750  0.63356  1.0000
  Mg  Mg11      1.0  0.15301  0.50766  0.37473  1.0000
  Mg  Mg12      1.0  0.26496  0.75347  0.65367  1.0000
