data_image0
_chemical_formula_structural       H60C120S12N24SnCSn2CSnTe4Mg2SnCSn2CSnTe4Mg2SnCSn2CSnTe4Mg2SnCSn2CSnTe4Mg2SnCSn2CSnTe4Mg2SnCSn2CSnTe4Mg2SnCSn2CSnTe4Mg2SnCSn2CSnTe4Mg2SnCSn2CSnTe4Mg2SnCSn2CSnTe4Mg2SnCSn2CSnTe4Mg2SnCSn2CSnTe4Mg2
_chemical_formula_sum              "H60 C144 S12 N24 Sn48 Te48 Mg24"
_cell_length_a       36.1715
_cell_length_b       36.3558
_cell_length_c       8.11322
_cell_angle_alpha    90.054
_cell_angle_beta     116.876
_cell_angle_gamma    119.543

_symmetry_space_group_name_H-M    'P1'
_space_group_IT_number       1

loop_
  _space_group_symop_operation_xyz
  'x, y, z'

loop_
  _atom_site_type_symbol
  _atom_site_label
  _atom_site_symmetry_multiplicity
  _atom_site_fract_x
  _atom_site_fract_y
  _atom_site_fract_z
  _atom_site_occupancy
  H   H1        1.0  0.90120  0.27665  0.56642  1.0000
  H   H2        1.0  0.74325  0.62409  0.55457  1.0000
  H   H3        1.0  0.32768  0.04975  0.33769  1.0000
  H   H4        1.0  0.11393  0.74112  0.49984  1.0000
  H   H5        1.0  0.26076  0.38201  0.46591  1.0000
  H   H6        1.0  0.61589  0.88296  0.42378  1.0000
  H   H7        1.0  0.07763  0.72033  0.10404  1.0000
  H   H8        1.0  0.29729  0.34824  0.09836  1.0000
  H   H9        1.0  0.65876  0.93293  0.09032  1.0000
  H   H10       1.0  0.89011  0.26539  0.07725  1.0000
  H   H11       1.0  0.73591  0.66119  0.16601  1.0000
  H   H12       1.0  0.35474  0.07284  0.07185  1.0000
  H   H13       1.0  0.03950  0.45825  0.00436  1.0000
  H   H14       1.0  0.53486  0.57817  0.00453  1.0000
  H   H15       1.0  0.41864  0.95569  0.02105  1.0000
  H   H16       1.0  0.95522  0.53227  0.01972  1.0000
  H   H17       1.0  0.46458  0.42046  0.00666  1.0000
  H   H18       1.0  0.57651  0.04025  0.01536  1.0000
  H   H19       1.0  0.86228  0.31876  0.04851  1.0000
  H   H20       1.0  0.68527  0.54427  0.02967  1.0000
  H   H21       1.0  0.44336  0.13020  0.92573  1.0000
  H   H22       1.0  0.13093  0.67124  0.96807  1.0000
  H   H23       1.0  0.32359  0.45918  0.04798  1.0000
  H   H24       1.0  0.53170  0.85571  0.93933  1.0000
  H   H25       1.0  0.95541  0.29166  0.18240  1.0000
  H   H26       1.0  0.70458  0.64424  0.91026  1.0000
  H   H27       1.0  0.31898  0.04785  0.81864  1.0000
  H   H28       1.0  0.04293  0.70038  0.84852  1.0000
  H   H29       1.0  0.25973  0.34691  0.85942  1.0000
  H   H30       1.0  0.62806  0.92780  0.83919  1.0000
  H   H31       1.0  0.91515  0.26947  0.92868  1.0000
  H   H32       1.0  0.74105  0.62412  0.04854  1.0000
  H   H33       1.0  0.36301  0.10598  0.91483  1.0000
  H   H34       1.0  0.10879  0.72751  0.97749  1.0000
  H   H35       1.0  0.27171  0.38056  0.05951  1.0000
  H   H36       1.0  0.60863  0.88016  0.92150  1.0000
  H   H37       1.0  0.07320  0.72771  0.58793  1.0000
  H   H38       1.0  0.29407  0.35886  0.60042  1.0000
  H   H39       1.0  0.66626  0.93550  0.59392  1.0000
  H   H40       1.0  0.96705  0.30830  0.72478  1.0000
  H   H41       1.0  0.73811  0.66125  0.67237  1.0000
  H   H42       1.0  0.36883  0.10812  0.40345  1.0000
  H   H43       1.0  0.04727  0.47108  0.50026  1.0000
  H   H44       1.0  0.53637  0.57928  0.49467  1.0000
  H   H45       1.0  0.42905  0.96176  0.52850  1.0000
  H   H46       1.0  0.96053  0.54259  0.51473  1.0000
  H   H47       1.0  0.46669  0.42311  0.51976  1.0000
  H   H48       1.0  0.58544  0.04513  0.51123  1.0000
  H   H49       1.0  0.87371  0.33057  0.55946  1.0000
  H   H50       1.0  0.68805  0.54479  0.54608  1.0000
  H   H51       1.0  0.45091  0.13434  0.41898  1.0000
  H   H52       1.0  0.13916  0.68580  0.48916  1.0000
  H   H53       1.0  0.31622  0.45989  0.47108  1.0000
  H   H54       1.0  0.53761  0.85933  0.42847  1.0000
  H   H55       1.0  0.94082  0.28809  0.47428  1.0000
  H   H56       1.0  0.70760  0.64504  0.41659  1.0000
  H   H57       1.0  0.36763  0.08076  0.58451  1.0000
  H   H58       1.0  0.04834  0.71119  0.33679  1.0000
  H   H59       1.0  0.26401  0.34381  0.34467  1.0000
  H   H60       1.0  0.63682  0.93062  0.34291  1.0000
  C   C1        1.0  0.88647  0.40901  0.00968  1.0000
  C   C2        1.0  0.58700  0.47580  0.99952  1.0000
  C   C3        1.0  0.51775  0.10669  0.99408  1.0000
  C   C4        1.0  0.10647  0.58059  0.00125  1.0000
  C   C5        1.0  0.41283  0.52263  0.01549  1.0000
  C   C6        1.0  0.47186  0.88608  0.99671  1.0000
  C   C7        1.0  0.95276  0.47231  0.01635  1.0000
  C   C8        1.0  0.52344  0.47802  0.00295  1.0000
  C   C9        1.0  0.51874  0.04278  0.01647  1.0000
  C   C10       1.0  0.04168  0.51805  0.00563  1.0000
  C   C11       1.0  0.47601  0.52064  0.00877  1.0000
  C   C12       1.0  0.47551  0.95252  0.01319  1.0000
  C   C13       1.0  0.97723  0.45081  0.01465  1.0000
  C   C14       1.0  0.54431  0.52366  0.00438  1.0000
  C   C15       1.0  0.47296  0.01840  0.01680  1.0000
  C   C16       1.0  0.01784  0.53988  0.01221  1.0000
  C   C17       1.0  0.45529  0.47500  0.00832  1.0000
  C   C18       1.0  0.52133  0.97702  0.01352  1.0000
  C   C19       1.0  0.02073  0.47388  0.00830  1.0000
  C   C20       1.0  0.52018  0.54394  0.00588  1.0000
  C   C21       1.0  0.45285  0.97434  0.01875  1.0000
  C   C22       1.0  0.97419  0.51673  0.01714  1.0000
  C   C23       1.0  0.47925  0.45469  0.00552  1.0000
  C   C24       1.0  0.54232  0.02147  0.01790  1.0000
  C   C25       1.0  0.29045  0.65034  0.01494  1.0000
  C   C26       1.0  0.34549  0.63821  0.00482  1.0000
  C   C27       1.0  0.35957  0.70697  0.02750  1.0000
  C   C28       1.0  0.70036  0.34066  0.97489  1.0000
  C   C29       1.0  0.64775  0.35525  0.99391  1.0000
  C   C30       1.0  0.63253  0.28613  0.97692  1.0000
  C   C31       1.0  0.41048  0.45430  0.01065  1.0000
  C   C32       1.0  0.54064  0.95207  0.00103  1.0000
  C   C33       1.0  0.04151  0.58442  0.00758  1.0000
  C   C34       1.0  0.58982  0.54444  0.00755  1.0000
  C   C35       1.0  0.45059  0.04212  0.00533  1.0000
  C   C36       1.0  0.95392  0.40650  0.02256  1.0000
  C   C37       1.0  0.08511  0.60545  0.99960  1.0000
  C   C38       1.0  0.38901  0.47718  0.01975  1.0000
  C   C39       1.0  0.51667  0.90663  0.98692  1.0000
  C   C40       1.0  0.90900  0.38475  0.02123  1.0000
  C   C41       1.0  0.61284  0.52227  0.00891  1.0000
  C   C42       1.0  0.47040  0.08508  0.98399  1.0000
  C   C43       1.0  0.89428  0.34098  0.03719  1.0000
  C   C44       1.0  0.65962  0.55224  0.02345  1.0000
  C   C45       1.0  0.43765  0.09921  0.95314  1.0000
  C   C46       1.0  0.10016  0.64943  0.98685  1.0000
  C   C47       1.0  0.34525  0.44905  0.02828  1.0000
  C   C48       1.0  0.54340  0.88990  0.96545  1.0000
  C   C49       1.0  0.92605  0.32981  0.04524  1.0000
  C   C50       1.0  0.67081  0.59433  0.02908  1.0000
  C   C51       1.0  0.39605  0.06904  0.95671  1.0000
  C   C52       1.0  0.07021  0.66156  0.99180  1.0000
  C   C53       1.0  0.33304  0.40659  0.01765  1.0000
  C   C54       1.0  0.58584  0.92118  0.96988  1.0000
  C   C55       1.0  0.92164  0.28696  0.05934  1.0000
  C   C56       1.0  0.71548  0.63307  0.03977  1.0000
  C   C57       1.0  0.35593  0.07401  0.93876  1.0000
  C   C58       1.0  0.07500  0.70461  0.97990  1.0000
  C   C59       1.0  0.28818  0.36845  0.00828  1.0000
  C   C60       1.0  0.62237  0.91532  0.95467  1.0000
  C   C61       1.0  0.89462  0.41947  0.51045  1.0000
  C   C62       1.0  0.58826  0.47640  0.50280  1.0000
  C   C63       1.0  0.52652  0.11167  0.48895  1.0000
  C   C64       1.0  0.11384  0.59407  0.50741  1.0000
  C   C65       1.0  0.41511  0.52653  0.50973  1.0000
  C   C66       1.0  0.48002  0.89117  0.49436  1.0000
  C   C67       1.0  0.95922  0.48315  0.51083  1.0000
  C   C68       1.0  0.52505  0.47926  0.50704  1.0000
  C   C69       1.0  0.52793  0.04796  0.51354  1.0000
  C   C70       1.0  0.04823  0.53031  0.50228  1.0000
  C   C71       1.0  0.47814  0.52324  0.50790  1.0000
  C   C72       1.0  0.48492  0.95810  0.51440  1.0000
  C   C73       1.0  0.98429  0.46232  0.50826  1.0000
  C   C74       1.0  0.54554  0.52452  0.50205  1.0000
  C   C75       1.0  0.48256  0.02392  0.51672  1.0000
  C   C76       1.0  0.02350  0.55129  0.50637  1.0000
  C   C77       1.0  0.45785  0.47808  0.51535  1.0000
  C   C78       1.0  0.53030  0.98212  0.51129  1.0000
  C   C79       1.0  0.02776  0.48604  0.50268  1.0000
  C   C80       1.0  0.52177  0.54537  0.50108  1.0000
  C   C81       1.0  0.46274  0.98016  0.52239  1.0000
  C   C82       1.0  0.97977  0.52747  0.51070  1.0000
  C   C83       1.0  0.48146  0.45712  0.51469  1.0000
  C   C84       1.0  0.55138  0.02651  0.51467  1.0000
  C   C85       1.0  0.29759  0.65875  0.52697  1.0000
  C   C86       1.0  0.35058  0.64401  0.51248  1.0000
  C   C87       1.0  0.36491  0.71270  0.52078  1.0000
  C   C88       1.0  0.70804  0.34713  0.47595  1.0000
  C   C89       1.0  0.65405  0.35989  0.49393  1.0000
  C   C90       1.0  0.64056  0.29137  0.47530  1.0000
  C   C91       1.0  0.41280  0.45814  0.51592  1.0000
  C   C92       1.0  0.54918  0.95673  0.49838  1.0000
  C   C93       1.0  0.04695  0.59600  0.50356  1.0000
  C   C94       1.0  0.59100  0.54495  0.50498  1.0000
  C   C95       1.0  0.46008  0.04749  0.50441  1.0000
  C   C96       1.0  0.96218  0.41817  0.51839  1.0000
  C   C97       1.0  0.09196  0.61849  0.50537  1.0000
  C   C98       1.0  0.38974  0.48063  0.50745  1.0000
  C   C99       1.0  0.52443  0.91118  0.48187  1.0000
  C   C100      1.0  0.91795  0.39600  0.52169  1.0000
  C   C101      1.0  0.61431  0.52282  0.51144  1.0000
  C   C102      1.0  0.47926  0.09017  0.48006  1.0000
  C   C103      1.0  0.90494  0.35289  0.54376  1.0000
  C   C104      1.0  0.66174  0.55279  0.53065  1.0000
  C   C105      1.0  0.44606  0.10380  0.44933  1.0000
  C   C106      1.0  0.10697  0.66283  0.49804  1.0000
  C   C107      1.0  0.34229  0.45138  0.48850  1.0000
  C   C108      1.0  0.55047  0.89382  0.45887  1.0000
  C   C109      1.0  0.93751  0.34276  0.55205  1.0000
  C   C110      1.0  0.67274  0.59470  0.53161  1.0000
  C   C111      1.0  0.40513  0.07369  0.45723  1.0000
  C   C112      1.0  0.07498  0.67335  0.49332  1.0000
  C   C113      1.0  0.33091  0.40944  0.48978  1.0000
  C   C114      1.0  0.59377  0.92492  0.46833  1.0000
  C   C115      1.0  0.93668  0.30183  0.58070  1.0000
  C   C116      1.0  0.71789  0.63341  0.54515  1.0000
  C   C117      1.0  0.36508  0.07821  0.44402  1.0000
  C   C118      1.0  0.07775  0.71554  0.47893  1.0000
  C   C119      1.0  0.28502  0.37139  0.47407  1.0000
  C   C120      1.0  0.63024  0.91828  0.45685  1.0000
  S   S1        1.0  0.97625  0.37314  0.04032  1.0000
  S   S2        1.0  0.62429  0.59929  0.01710  1.0000
  S   S3        1.0  0.39470  0.02135  0.99428  1.0000
  S   S4        1.0  0.02121  0.61887  0.00532  1.0000
  S   S5        1.0  0.37640  0.39982  0.00693  1.0000
  S   S6        1.0  0.59465  0.97288  0.99702  1.0000
  S   S7        1.0  0.98595  0.38604  0.53793  1.0000
  S   S8        1.0  0.62546  0.59958  0.51163  1.0000
  S   S9        1.0  0.40480  0.02657  0.49814  1.0000
  S   S10       1.0  0.02467  0.62907  0.49373  1.0000
  S   S11       1.0  0.37789  0.40380  0.51203  1.0000
  S   S12       1.0  0.60376  0.97708  0.49932  1.0000
  N   N1        1.0  0.90892  0.45116  0.01327  1.0000
  N   N2        1.0  0.54460  0.45608  0.99801  1.0000
  N   N3        1.0  0.53999  0.08558  0.01112  1.0000
  N   N4        1.0  0.08445  0.53861  0.00030  1.0000
  N   N5        1.0  0.45432  0.54240  0.01027  1.0000
  N   N6        1.0  0.45313  0.90899  0.00747  1.0000
  N   N7        1.0  0.30166  0.62107  0.99396  1.0000
  N   N8        1.0  0.37573  0.68085  0.02085  1.0000
  N   N9        1.0  0.31845  0.69379  0.03436  1.0000
  N   N10       1.0  0.68978  0.37062  0.99200  1.0000
  N   N11       1.0  0.61822  0.31344  0.99005  1.0000
  N   N12       1.0  0.67234  0.29772  0.96243  1.0000
  N   N13       1.0  0.91574  0.46143  0.51069  1.0000
  N   N14       1.0  0.54602  0.45689  0.50302  1.0000
  N   N15       1.0  0.54889  0.09063  0.50653  1.0000
  N   N16       1.0  0.09154  0.55181  0.50192  1.0000
  N   N17       1.0  0.45716  0.54580  0.50862  1.0000
  N   N18       1.0  0.46240  0.91470  0.51008  1.0000
  N   N19       1.0  0.30858  0.62877  0.51504  1.0000
  N   N20       1.0  0.37968  0.68555  0.51263  1.0000
  N   N21       1.0  0.32505  0.70135  0.53412  1.0000
  N   N22       1.0  0.69637  0.37634  0.49264  1.0000
  N   N23       1.0  0.62557  0.31792  0.49059  1.0000
  N   N24       1.0  0.68051  0.30393  0.46040  1.0000
  C  Sn1       1.0  0.78868  0.41070  0.00291  1.0000
  C   C121      1.0  0.88191  0.43302  0.93220  1.0000
  C  Sn2       1.0  0.88677  0.39817  0.90246  1.0000
  C  Sn3       1.0  0.93347  0.40718  0.94439  1.0000
  C   C122      1.0  0.84021  0.38483  0.01508  1.0000
  C  Sn4       1.0  0.83538  0.41970  0.04484  1.0000
  O  Te1       1.0  0.78296  0.44501  0.03155  1.0000
  O  Te2       1.0  0.84537  0.35478  0.83158  1.0000
  O  Te3       1.0  0.93916  0.37282  0.91568  1.0000
  O  Te4       1.0  0.87675  0.46307  0.11570  1.0000
  Mg  Mg1       1.0  0.87184  0.31928  0.81672  1.0000
  Mg  Mg2       1.0  0.85033  0.49859  0.13071  1.0000
  C  Sn5       1.0  0.71017  0.43921  0.95031  1.0000
  C   C123      1.0  0.75033  0.44565  0.93941  1.0000
  C  Sn6       1.0  0.78917  0.48819  0.97276  1.0000
  C  Sn7       1.0  0.65375  0.45906  0.01807  1.0000
  C   C124      1.0  0.61362  0.45261  0.02898  1.0000
  C  Sn8       1.0  0.70887  0.47608  0.99562  1.0000
  O  Te5       1.0  0.67176  0.39640  0.91644  1.0000
  O  Te6       1.0  0.82891  0.49380  0.96098  1.0000
  O  Te7       1.0  0.69221  0.50190  0.05194  1.0000
  O  Te8       1.0  0.53504  0.40447  0.00741  1.0000
  Mg  Mg3       1.0  0.73829  0.49261  0.01922  1.0000
  Mg  Mg4       1.0  0.62566  0.40568  0.94930  1.0000
  C  Sn9       1.0  0.66354  0.25607  0.95988  1.0000
  C   C125      1.0  0.67011  0.22169  0.94444  1.0000
  C  Sn10      1.0  0.71356  0.23013  0.95738  1.0000
  C  Sn11      1.0  0.75126  0.27383  0.98646  1.0000
  C   C126      1.0  0.61058  0.24218  0.00191  1.0000
  C  Sn12      1.0  0.70124  0.29977  0.98897  1.0000
  O  Te9       1.0  0.61980  0.24687  0.94653  1.0000
  O  Te10      1.0  0.71927  0.19522  0.94144  1.0000
  O  Te11      1.0  0.79502  0.28301  0.99980  1.0000
  O  Te12      1.0  0.56142  0.26865  0.00492  1.0000
  Mg  Mg5       1.0  0.78550  0.22440  0.96924  1.0000
  Mg  Mg6       1.0  0.62933  0.30551  0.97724  1.0000
  C  Sn13      1.0  0.17743  0.57032  0.98813  1.0000
  C   C127      1.0  0.02814  0.52825  0.04342  1.0000
  C  Sn14      1.0  0.05315  0.57387  0.07256  1.0000
  C  Sn15      1.0  0.09418  0.59603  0.04578  1.0000
  C   C128      1.0  0.24345  0.63810  0.99049  1.0000
  C  Sn16      1.0  0.21846  0.59248  0.96134  1.0000
  O  Te13      1.0  0.15188  0.52473  0.95978  1.0000
  O  Te14      1.0  0.03729  0.59708  0.12787  1.0000
  O  Te15      1.0  0.11973  0.64165  0.07418  1.0000
  O  Te16      1.0  0.23430  0.56927  0.90604  1.0000
  Mg  Mg7       1.0  0.08407  0.65879  0.14885  1.0000
  Mg  Mg8       1.0  0.18754  0.50756  0.88492  1.0000
  C  Sn17      1.0  0.43022  0.60656  0.11290  1.0000
  C   C129      1.0  0.40223  0.56056  0.06996  1.0000
  C  Sn18      1.0  0.48442  0.60265  0.97048  1.0000
  C  Sn19      1.0  0.45999  0.62517  0.91261  1.0000
  C   C130      1.0  0.48798  0.67113  0.95553  1.0000
  C  Sn20      1.0  0.40578  0.62908  0.05503  1.0000
  O  Te17      1.0  0.48208  0.62979  0.21247  1.0000
  O  Te18      1.0  0.45723  0.55668  0.92925  1.0000
  O  Te19      1.0  0.40809  0.60189  0.81297  1.0000
  O  Te20      1.0  0.43297  0.67501  0.09623  1.0000
  Mg  Mg9       1.0  0.38737  0.53965  0.79036  1.0000
  Mg  Mg10      1.0  0.50283  0.69207  0.23502  1.0000
  C  Sn21      1.0  0.44846  0.78090  0.07996  1.0000
  C   C131      1.0  0.40289  0.75994  0.07075  1.0000
  C  Sn22      1.0  0.37426  0.77794  0.01029  1.0000
  C  Sn23      1.0  0.52562  0.88370  0.95782  1.0000
  C   C132      1.0  0.57115  0.90462  0.96701  1.0000
  C  Sn24      1.0  0.46572  0.82065  0.02749  1.0000
  O  Te21      1.0  0.47647  0.76231  0.14081  1.0000
  O  Te22      1.0  0.32883  0.75640  0.00232  1.0000
  O  Te23      1.0  0.49756  0.90228  0.89694  1.0000
  O  Te24      1.0  0.51111  0.84217  0.03544  1.0000
  Mg  Mg11      1.0  0.43818  0.86065  0.91011  1.0000
  Mg  Mg12      1.0  0.53589  0.80394  0.12753  1.0000
  C  Sn25      1.0  0.79611  0.41837  0.50872  1.0000
  C   C133      1.0  0.75600  0.37433  0.43816  1.0000
  C  Sn26      1.0  0.76201  0.34028  0.40821  1.0000
  C  Sn27      1.0  0.80911  0.35047  0.44975  1.0000
  C   C134      1.0  0.84919  0.39448  0.52029  1.0000
  C  Sn28      1.0  0.84321  0.42855  0.55026  1.0000
  O  Te25      1.0  0.78925  0.45188  0.53757  1.0000
  O  Te26      1.0  0.72136  0.29651  0.33750  1.0000
  O  Te27      1.0  0.81594  0.31691  0.42083  1.0000
  O  Te28      1.0  0.88384  0.47231  0.62095  1.0000
  Mg  Mg13      1.0  0.74931  0.26244  0.32222  1.0000
  Mg  Mg14      1.0  0.85593  0.50640  0.63638  1.0000
  C  Sn29      1.0  0.64257  0.45006  0.41114  1.0000
  C   C135      1.0  0.60352  0.44295  0.43249  1.0000
  C  Sn30      1.0  0.58334  0.40981  0.51141  1.0000
  C  Sn31      1.0  0.60260  0.38323  0.57034  1.0000
  C   C136      1.0  0.64163  0.39035  0.54901  1.0000
  C  Sn32      1.0  0.66183  0.42348  0.47007  1.0000
  O  Te29      1.0  0.66218  0.48338  0.33189  1.0000
  O  Te30      1.0  0.54430  0.40332  0.53125  1.0000
  O  Te31      1.0  0.58296  0.34989  0.64963  1.0000
  O  Te32      1.0  0.70085  0.42997  0.45025  1.0000
  Mg  Mg15      1.0  0.53006  0.35381  0.64731  1.0000
  Mg  Mg16      1.0  0.71514  0.47949  0.33431  1.0000
  C  Sn33      1.0  0.57392  0.22783  0.56798  1.0000
  C   C137      1.0  0.61170  0.24544  0.52588  1.0000
  C  Sn34      1.0  0.61936  0.21765  0.44628  1.0000
  C  Sn35      1.0  0.58861  0.17130  0.40784  1.0000
  C   C138      1.0  0.55086  0.15371  0.44991  1.0000
  C  Sn36      1.0  0.54318  0.18148  0.52955  1.0000
  O  Te33      1.0  0.56693  0.25623  0.64750  1.0000
  O  Te34      1.0  0.65737  0.23603  0.40548  1.0000
  O  Te35      1.0  0.59564  0.14290  0.32826  1.0000
  O  Te36      1.0  0.50519  0.16312  0.57030  1.0000
  Mg  Mg17      1.0  0.65226  0.18370  0.29785  1.0000
  Mg  Mg18      1.0  0.51025  0.21541  0.67783  1.0000
  C  Sn37      1.0  0.19753  0.59400  0.39440  1.0000
  C   C139      1.0  0.24003  0.63696  0.47350  1.0000
  C  Sn38      1.0  0.24611  0.66907  0.59635  1.0000
  C  Sn39      1.0  0.20893  0.65800  0.64121  1.0000
  C   C140      1.0  0.16646  0.61506  0.56217  1.0000
  C  Sn40      1.0  0.16035  0.58294  0.43926  1.0000
  O  Te37      1.0  0.19224  0.56244  0.27194  1.0000
  O  Te38      1.0  0.28892  0.71179  0.67362  1.0000
  O  Te39      1.0  0.21426  0.68961  0.76378  1.0000
  O  Te40      1.0  0.11758  0.54023  0.36205  1.0000
  Mg  Mg19      1.0  0.27914  0.74325  0.83320  1.0000
  Mg  Mg20      1.0  0.12733  0.50874  0.20254  1.0000
  C  Sn41      1.0  0.34422  0.54263  0.50051  1.0000
  C   C141      1.0  0.38229  0.54911  0.47343  1.0000
  C  Sn42      1.0  0.41614  0.59072  0.47455  1.0000
  C  Sn43      1.0  0.41189  0.62661  0.50345  1.0000
  C   C142      1.0  0.37385  0.62013  0.53054  1.0000
  C  Sn44      1.0  0.33997  0.57852  0.52941  1.0000
  O  Te41      1.0  0.31080  0.50075  0.49885  1.0000
  O  Te42      1.0  0.45387  0.59639  0.44711  1.0000
  O  Te43      1.0  0.44536  0.66852  0.50509  1.0000
  O  Te44      1.0  0.30226  0.57285  0.55686  1.0000
  Mg  Mg21      1.0  0.49039  0.65971  0.46142  1.0000
  Mg  Mg22      1.0  0.26574  0.50956  0.54268  1.0000
  C  Sn45      1.0  0.45635  0.80210  0.45707  1.0000
  C   C143      1.0  0.44752  0.83554  0.45237  1.0000
  C  Sn46      1.0  0.41211  0.83152  0.49193  1.0000
  C  Sn47      1.0  0.38499  0.79329  0.53726  1.0000
  C   C144      1.0  0.39383  0.75989  0.54197  1.0000
  C  Sn48      1.0  0.42923  0.76388  0.50240  1.0000
  O  Te45      1.0  0.49192  0.80683  0.41704  1.0000
  O  Te46      1.0  0.40393  0.86537  0.48629  1.0000
  O  Te47      1.0  0.34940  0.78859  0.57729  1.0000
  O  Te48      1.0  0.43743  0.73005  0.50806  1.0000
  Mg  Mg23      1.0  0.35160  0.84367  0.55158  1.0000
  Mg  Mg24      1.0  0.48975  0.75173  0.44289  1.0000
