data_image0
_chemical_formula_structural       H84C156S12N24C2Sn2C2HTe2HMgC2Sn2C2HTe2HMgC2Sn2C2HTe2HMgC2Sn2C2HTe2HMgC2Sn2C2HTe2HMgC2Sn2C2HTe2HMg
_chemical_formula_sum              "H96 C180 S12 N24 Sn12 Te12 Mg6"
_cell_length_a       36.1715
_cell_length_b       36.3558
_cell_length_c       8.11322
_cell_angle_alpha    90.054
_cell_angle_beta     116.876
_cell_angle_gamma    119.543

_symmetry_space_group_name_H-M    'P1'
_space_group_IT_number       1

loop_
  _space_group_symop_operation_xyz
  'x, y, z'

loop_
  _atom_site_type_symbol
  _atom_site_label
  _atom_site_symmetry_multiplicity
  _atom_site_fract_x
  _atom_site_fract_y
  _atom_site_fract_z
  _atom_site_occupancy
  H   H1        1.0  0.90120  0.27665  0.56642  1.0000
  H   H2        1.0  0.74325  0.62409  0.55457  1.0000
  H   H3        1.0  0.32768  0.04975  0.33769  1.0000
  H   H4        1.0  0.11393  0.74112  0.49984  1.0000
  H   H5        1.0  0.26076  0.38201  0.46591  1.0000
  H   H6        1.0  0.61589  0.88296  0.42378  1.0000
  H   H7        1.0  0.07763  0.72033  0.10404  1.0000
  H   H8        1.0  0.29729  0.34824  0.09836  1.0000
  H   H9        1.0  0.65876  0.93293  0.09032  1.0000
  H   H10       1.0  0.89011  0.26539  0.07725  1.0000
  H   H11       1.0  0.73591  0.66119  0.16601  1.0000
  H   H12       1.0  0.35474  0.07284  0.07185  1.0000
  H   H13       1.0  0.55610  0.25169  0.03808  1.0000
  H   H14       1.0  0.29038  0.54958  0.91492  1.0000
  H   H15       1.0  0.44494  0.74603  0.02858  1.0000
  H   H16       1.0  0.50889  0.17694  0.05991  1.0000
  H   H17       1.0  0.31675  0.49879  0.91105  1.0000
  H   H18       1.0  0.49411  0.82101  0.01980  1.0000
  H   H19       1.0  0.59263  0.14213  0.93240  1.0000
  H   H20       1.0  0.46389  0.60933  0.09145  1.0000
  H   H21       1.0  0.38708  0.84569  0.99168  1.0000
  H   H22       1.0  0.64335  0.21917  0.92783  1.0000
  H   H23       1.0  0.43543  0.66017  0.07889  1.0000
  H   H24       1.0  0.33810  0.76928  0.00893  1.0000
  H   H25       1.0  0.03950  0.45825  0.00436  1.0000
  H   H26       1.0  0.53486  0.57817  0.00453  1.0000
  H   H27       1.0  0.41864  0.95569  0.02105  1.0000
  H   H28       1.0  0.95522  0.53227  0.01972  1.0000
  H   H29       1.0  0.46458  0.42046  0.00666  1.0000
  H   H30       1.0  0.57651  0.04025  0.01536  1.0000
  H   H31       1.0  0.86228  0.31876  0.04851  1.0000
  H   H32       1.0  0.68527  0.54427  0.02967  1.0000
  H   H33       1.0  0.44336  0.13020  0.92573  1.0000
  H   H34       1.0  0.13093  0.67124  0.96807  1.0000
  H   H35       1.0  0.32359  0.45918  0.04798  1.0000
  H   H36       1.0  0.53170  0.85571  0.93933  1.0000
  H   H37       1.0  0.95541  0.29166  0.18240  1.0000
  H   H38       1.0  0.70458  0.64424  0.91026  1.0000
  H   H39       1.0  0.31898  0.04785  0.81864  1.0000
  H   H40       1.0  0.04293  0.70038  0.84852  1.0000
  H   H41       1.0  0.25973  0.34691  0.85942  1.0000
  H   H42       1.0  0.62806  0.92780  0.83919  1.0000
  H   H43       1.0  0.91515  0.26947  0.92868  1.0000
  H   H44       1.0  0.74105  0.62412  0.04854  1.0000
  H   H45       1.0  0.36301  0.10598  0.91483  1.0000
  H   H46       1.0  0.10879  0.72751  0.97749  1.0000
  H   H47       1.0  0.27171  0.38056  0.05951  1.0000
  H   H48       1.0  0.60863  0.88016  0.92150  1.0000
  H   H49       1.0  0.07320  0.72771  0.58793  1.0000
  H   H50       1.0  0.29407  0.35886  0.60042  1.0000
  H   H51       1.0  0.66626  0.93550  0.59392  1.0000
  H   H52       1.0  0.96705  0.30830  0.72478  1.0000
  H   H53       1.0  0.73811  0.66125  0.67237  1.0000
  H   H54       1.0  0.36883  0.10812  0.40345  1.0000
  H   H55       1.0  0.73586  0.30101  0.35094  1.0000
  H   H56       1.0  0.31615  0.56513  0.58654  1.0000
  H   H57       1.0  0.45124  0.75074  0.52920  1.0000
  H   H58       1.0  0.81448  0.33173  0.35506  1.0000
  H   H59       1.0  0.34577  0.51665  0.60463  1.0000
  H   H60       1.0  0.50260  0.82652  0.52846  1.0000
  H   H61       1.0  0.86458  0.46214  0.62390  1.0000
  H   H62       1.0  0.44626  0.60352  0.43182  1.0000
  H   H63       1.0  0.39388  0.85122  0.47804  1.0000
  H   H64       1.0  0.78336  0.43127  0.60466  1.0000
  H   H65       1.0  0.42009  0.65524  0.43622  1.0000
  H   H66       1.0  0.34350  0.77485  0.49175  1.0000
  H   H67       1.0  0.04727  0.47108  0.50026  1.0000
  H   H68       1.0  0.53637  0.57928  0.49467  1.0000
  H   H69       1.0  0.42905  0.96176  0.52850  1.0000
  H   H70       1.0  0.96053  0.54259  0.51473  1.0000
  H   H71       1.0  0.46669  0.42311  0.51976  1.0000
  H   H72       1.0  0.58544  0.04513  0.51123  1.0000
  H   H73       1.0  0.87371  0.33057  0.55946  1.0000
  H   H74       1.0  0.68805  0.54479  0.54608  1.0000
  H   H75       1.0  0.45091  0.13434  0.41898  1.0000
  H   H76       1.0  0.13916  0.68580  0.48916  1.0000
  H   H77       1.0  0.31622  0.45989  0.47108  1.0000
  H   H78       1.0  0.53761  0.85933  0.42847  1.0000
  H   H79       1.0  0.94082  0.28809  0.47428  1.0000
  H   H80       1.0  0.70760  0.64504  0.41659  1.0000
  H   H81       1.0  0.36763  0.08076  0.58451  1.0000
  H   H82       1.0  0.04834  0.71119  0.33679  1.0000
  H   H83       1.0  0.26401  0.34381  0.34467  1.0000
  H   H84       1.0  0.63682  0.93062  0.34291  1.0000
  C   C1        1.0  0.60269  0.24048  0.98024  1.0000
  C   C2        1.0  0.36143  0.60812  0.00042  1.0000
  C   C3        1.0  0.38842  0.75253  0.02123  1.0000
  C   C4        1.0  0.56347  0.22737  0.01190  1.0000
  C   C5        1.0  0.32842  0.56238  0.95428  1.0000
  C   C6        1.0  0.43251  0.76806  0.02199  1.0000
  C   C7        1.0  0.53569  0.18448  0.01746  1.0000
  C   C8        1.0  0.34403  0.53407  0.95715  1.0000
  C   C9        1.0  0.45986  0.81073  0.01407  1.0000
  C   C10       1.0  0.54511  0.15268  0.98621  1.0000
  C   C11       1.0  0.39352  0.55060  0.01168  1.0000
  C   C12       1.0  0.44411  0.83973  0.00206  1.0000
  C   C13       1.0  0.58476  0.16627  0.95519  1.0000
  C   C14       1.0  0.42605  0.59662  0.05426  1.0000
  C   C15       1.0  0.39937  0.82351  0.99947  1.0000
  C   C16       1.0  0.61319  0.20925  0.95362  1.0000
  C   C17       1.0  0.41027  0.62477  0.04677  1.0000
  C   C18       1.0  0.37223  0.78107  0.00947  1.0000
  C   C19       1.0  0.88647  0.40901  0.00968  1.0000
  C   C20       1.0  0.58700  0.47580  0.99952  1.0000
  C   C21       1.0  0.51775  0.10669  0.99408  1.0000
  C   C22       1.0  0.10647  0.58059  0.00125  1.0000
  C   C23       1.0  0.41283  0.52263  0.01549  1.0000
  C   C24       1.0  0.47186  0.88608  0.99671  1.0000
  C   C25       1.0  0.95276  0.47231  0.01635  1.0000
  C   C26       1.0  0.52344  0.47802  0.00295  1.0000
  C   C27       1.0  0.51874  0.04278  0.01647  1.0000
  C   C28       1.0  0.04168  0.51805  0.00563  1.0000
  C   C29       1.0  0.47601  0.52064  0.00877  1.0000
  C   C30       1.0  0.47551  0.95252  0.01319  1.0000
  C   C31       1.0  0.97723  0.45081  0.01465  1.0000
  C   C32       1.0  0.54431  0.52366  0.00438  1.0000
  C   C33       1.0  0.47296  0.01840  0.01680  1.0000
  C   C34       1.0  0.01784  0.53988  0.01221  1.0000
  C   C35       1.0  0.45529  0.47500  0.00832  1.0000
  C   C36       1.0  0.52133  0.97702  0.01352  1.0000
  C   C37       1.0  0.02073  0.47388  0.00830  1.0000
  C   C38       1.0  0.52018  0.54394  0.00588  1.0000
  C   C39       1.0  0.45285  0.97434  0.01875  1.0000
  C   C40       1.0  0.97419  0.51673  0.01714  1.0000
  C   C41       1.0  0.47925  0.45469  0.00552  1.0000
  C   C42       1.0  0.54232  0.02147  0.01790  1.0000
  C   C43       1.0  0.29045  0.65034  0.01494  1.0000
  C   C44       1.0  0.34549  0.63821  0.00482  1.0000
  C   C45       1.0  0.35957  0.70697  0.02750  1.0000
  C   C46       1.0  0.70036  0.34066  0.97489  1.0000
  C   C47       1.0  0.64775  0.35525  0.99391  1.0000
  C   C48       1.0  0.63253  0.28613  0.97692  1.0000
  C   C49       1.0  0.41048  0.45430  0.01065  1.0000
  C   C50       1.0  0.54064  0.95207  0.00103  1.0000
  C   C51       1.0  0.04151  0.58442  0.00758  1.0000
  C   C52       1.0  0.58982  0.54444  0.00755  1.0000
  C   C53       1.0  0.45059  0.04212  0.00533  1.0000
  C   C54       1.0  0.95392  0.40650  0.02256  1.0000
  C   C55       1.0  0.08511  0.60545  0.99960  1.0000
  C   C56       1.0  0.38901  0.47718  0.01975  1.0000
  C   C57       1.0  0.51667  0.90663  0.98692  1.0000
  C   C58       1.0  0.90900  0.38475  0.02123  1.0000
  C   C59       1.0  0.61284  0.52227  0.00891  1.0000
  C   C60       1.0  0.47040  0.08508  0.98399  1.0000
  C   C61       1.0  0.89428  0.34098  0.03719  1.0000
  C   C62       1.0  0.65962  0.55224  0.02345  1.0000
  C   C63       1.0  0.43765  0.09921  0.95314  1.0000
  C   C64       1.0  0.10016  0.64943  0.98685  1.0000
  C   C65       1.0  0.34525  0.44905  0.02828  1.0000
  C   C66       1.0  0.54340  0.88990  0.96545  1.0000
  C   C67       1.0  0.92605  0.32981  0.04524  1.0000
  C   C68       1.0  0.67081  0.59433  0.02908  1.0000
  C   C69       1.0  0.39605  0.06904  0.95671  1.0000
  C   C70       1.0  0.07021  0.66156  0.99180  1.0000
  C   C71       1.0  0.33304  0.40659  0.01765  1.0000
  C   C72       1.0  0.58584  0.92118  0.96988  1.0000
  C   C73       1.0  0.92164  0.28696  0.05934  1.0000
  C   C74       1.0  0.71548  0.63307  0.03977  1.0000
  C   C75       1.0  0.35593  0.07401  0.93876  1.0000
  C   C76       1.0  0.07500  0.70461  0.97990  1.0000
  C   C77       1.0  0.28818  0.36845  0.00828  1.0000
  C   C78       1.0  0.62237  0.91532  0.95467  1.0000
  C   C79       1.0  0.75486  0.36425  0.47944  1.0000
  C   C80       1.0  0.36592  0.61338  0.50912  1.0000
  C   C81       1.0  0.39423  0.75781  0.51201  1.0000
  C   C82       1.0  0.76442  0.33618  0.41301  1.0000
  C   C83       1.0  0.34448  0.57338  0.55175  1.0000
  C   C84       1.0  0.43900  0.77303  0.51905  1.0000
  C   C85       1.0  0.80933  0.35353  0.42048  1.0000
  C   C86       1.0  0.36045  0.54535  0.55596  1.0000
  C   C87       1.0  0.46735  0.81583  0.51451  1.0000
  C   C88       1.0  0.84645  0.39910  0.50007  1.0000
  C   C89       1.0  0.39687  0.55521  0.51014  1.0000
  C   C90       1.0  0.45158  0.84487  0.49795  1.0000
  C   C91       1.0  0.83624  0.42696  0.56468  1.0000
  C   C92       1.0  0.41799  0.59547  0.46655  1.0000
  C   C93       1.0  0.40613  0.82894  0.48904  1.0000
  C   C94       1.0  0.79114  0.40991  0.55306  1.0000
  C   C95       1.0  0.40335  0.62419  0.46859  1.0000
  C   C96       1.0  0.37817  0.78653  0.49685  1.0000
  C   C97       1.0  0.89462  0.41947  0.51045  1.0000
  C   C98       1.0  0.58826  0.47640  0.50280  1.0000
  C   C99       1.0  0.52652  0.11167  0.48895  1.0000
  C   C100      1.0  0.11384  0.59407  0.50741  1.0000
  C   C101      1.0  0.41511  0.52653  0.50973  1.0000
  C   C102      1.0  0.48002  0.89117  0.49436  1.0000
  C   C103      1.0  0.95922  0.48315  0.51083  1.0000
  C   C104      1.0  0.52505  0.47926  0.50704  1.0000
  C   C105      1.0  0.52793  0.04796  0.51354  1.0000
  C   C106      1.0  0.04823  0.53031  0.50228  1.0000
  C   C107      1.0  0.47814  0.52324  0.50790  1.0000
  C   C108      1.0  0.48492  0.95810  0.51440  1.0000
  C   C109      1.0  0.98429  0.46232  0.50826  1.0000
  C   C110      1.0  0.54554  0.52452  0.50205  1.0000
  C   C111      1.0  0.48256  0.02392  0.51672  1.0000
  C   C112      1.0  0.02350  0.55129  0.50637  1.0000
  C   C113      1.0  0.45785  0.47808  0.51535  1.0000
  C   C114      1.0  0.53030  0.98212  0.51129  1.0000
  C   C115      1.0  0.02776  0.48604  0.50268  1.0000
  C   C116      1.0  0.52177  0.54537  0.50108  1.0000
  C   C117      1.0  0.46274  0.98016  0.52239  1.0000
  C   C118      1.0  0.97977  0.52747  0.51070  1.0000
  C   C119      1.0  0.48146  0.45712  0.51469  1.0000
  C   C120      1.0  0.55138  0.02651  0.51467  1.0000
  C   C121      1.0  0.29759  0.65875  0.52697  1.0000
  C   C122      1.0  0.35058  0.64401  0.51248  1.0000
  C   C123      1.0  0.36491  0.71270  0.52078  1.0000
  C   C124      1.0  0.70804  0.34713  0.47595  1.0000
  C   C125      1.0  0.65405  0.35989  0.49393  1.0000
  C   C126      1.0  0.64056  0.29137  0.47530  1.0000
  C   C127      1.0  0.41280  0.45814  0.51592  1.0000
  C   C128      1.0  0.54918  0.95673  0.49838  1.0000
  C   C129      1.0  0.04695  0.59600  0.50356  1.0000
  C   C130      1.0  0.59100  0.54495  0.50498  1.0000
  C   C131      1.0  0.46008  0.04749  0.50441  1.0000
  C   C132      1.0  0.96218  0.41817  0.51839  1.0000
  C   C133      1.0  0.09196  0.61849  0.50537  1.0000
  C   C134      1.0  0.38974  0.48063  0.50745  1.0000
  C   C135      1.0  0.52443  0.91118  0.48187  1.0000
  C   C136      1.0  0.91795  0.39600  0.52169  1.0000
  C   C137      1.0  0.61431  0.52282  0.51144  1.0000
  C   C138      1.0  0.47926  0.09017  0.48006  1.0000
  C   C139      1.0  0.90494  0.35289  0.54376  1.0000
  C   C140      1.0  0.66174  0.55279  0.53065  1.0000
  C   C141      1.0  0.44606  0.10380  0.44933  1.0000
  C   C142      1.0  0.10697  0.66283  0.49804  1.0000
  C   C143      1.0  0.34229  0.45138  0.48850  1.0000
  C   C144      1.0  0.55047  0.89382  0.45887  1.0000
  C   C145      1.0  0.93751  0.34276  0.55205  1.0000
  C   C146      1.0  0.67274  0.59470  0.53161  1.0000
  C   C147      1.0  0.40513  0.07369  0.45723  1.0000
  C   C148      1.0  0.07498  0.67335  0.49332  1.0000
  C   C149      1.0  0.33091  0.40944  0.48978  1.0000
  C   C150      1.0  0.59377  0.92492  0.46833  1.0000
  C   C151      1.0  0.93668  0.30183  0.58070  1.0000
  C   C152      1.0  0.71789  0.63341  0.54515  1.0000
  C   C153      1.0  0.36508  0.07821  0.44402  1.0000
  C   C154      1.0  0.07775  0.71554  0.47893  1.0000
  C   C155      1.0  0.28502  0.37139  0.47407  1.0000
  C   C156      1.0  0.63024  0.91828  0.45685  1.0000
  S   S1        1.0  0.97625  0.37314  0.04032  1.0000
  S   S2        1.0  0.62429  0.59929  0.01710  1.0000
  S   S3        1.0  0.39470  0.02135  0.99428  1.0000
  S   S4        1.0  0.02121  0.61887  0.00532  1.0000
  S   S5        1.0  0.37640  0.39982  0.00693  1.0000
  S   S6        1.0  0.59465  0.97288  0.99702  1.0000
  S   S7        1.0  0.98595  0.38604  0.53793  1.0000
  S   S8        1.0  0.62546  0.59958  0.51163  1.0000
  S   S9        1.0  0.40480  0.02657  0.49814  1.0000
  S   S10       1.0  0.02467  0.62907  0.49373  1.0000
  S   S11       1.0  0.37789  0.40380  0.51203  1.0000
  S   S12       1.0  0.60376  0.97708  0.49932  1.0000
  N   N1        1.0  0.90892  0.45116  0.01327  1.0000
  N   N2        1.0  0.54460  0.45608  0.99801  1.0000
  N   N3        1.0  0.53999  0.08558  0.01112  1.0000
  N   N4        1.0  0.08445  0.53861  0.00030  1.0000
  N   N5        1.0  0.45432  0.54240  0.01027  1.0000
  N   N6        1.0  0.45313  0.90899  0.00747  1.0000
  N   N7        1.0  0.30166  0.62107  0.99396  1.0000
  N   N8        1.0  0.37573  0.68085  0.02085  1.0000
  N   N9        1.0  0.31845  0.69379  0.03436  1.0000
  N   N10       1.0  0.68978  0.37062  0.99200  1.0000
  N   N11       1.0  0.61822  0.31344  0.99005  1.0000
  N   N12       1.0  0.67234  0.29772  0.96243  1.0000
  N   N13       1.0  0.91574  0.46143  0.51069  1.0000
  N   N14       1.0  0.54602  0.45689  0.50302  1.0000
  N   N15       1.0  0.54889  0.09063  0.50653  1.0000
  N   N16       1.0  0.09154  0.55181  0.50192  1.0000
  N   N17       1.0  0.45716  0.54580  0.50862  1.0000
  N   N18       1.0  0.46240  0.91470  0.51008  1.0000
  N   N19       1.0  0.30858  0.62877  0.51504  1.0000
  N   N20       1.0  0.37968  0.68555  0.51263  1.0000
  N   N21       1.0  0.32505  0.70135  0.53412  1.0000
  N   N22       1.0  0.69637  0.37634  0.49264  1.0000
  N   N23       1.0  0.62557  0.31792  0.49059  1.0000
  N   N24       1.0  0.68051  0.30393  0.46040  1.0000
  C   C157      1.0  0.57899  0.39366  0.51870  1.0000
  C   C158      1.0  0.60090  0.43744  0.51308  1.0000
  C  Sn1       1.0  0.64149  0.45709  0.48738  1.0000
  C  Sn2       1.0  0.66040  0.43236  0.46691  1.0000
  C   C159      1.0  0.63820  0.38856  0.47259  1.0000
  C   C160      1.0  0.59761  0.36923  0.49844  1.0000
  H   H85       1.0  0.54757  0.37869  0.53859  1.0000
  O  Te1       1.0  0.66294  0.50088  0.48218  1.0000
  O  Te2       1.0  0.70091  0.45118  0.44097  1.0000
  H   H86       1.0  0.58063  0.33532  0.50266  1.0000
  Mg  Mg1       1.0  0.71747  0.51193  0.44377  1.0000
  C   C161      1.0  0.19549  0.57771  0.93636  1.0000
  C   C162      1.0  0.23541  0.62142  0.99444  1.0000
  C  Sn3       1.0  0.10153  0.58983  0.07272  1.0000
  C  Sn4       1.0  0.06100  0.58020  0.09311  1.0000
  C   C163      1.0  0.02125  0.53636  0.03470  1.0000
  C   C164      1.0  0.15550  0.56818  0.95649  1.0000
  H   H87       1.0  0.19561  0.55126  0.87595  1.0000
  O  Te3       1.0  0.14171  0.63331  0.12994  1.0000
  O  Te4       1.0  0.06028  0.61396  0.17096  1.0000
  H   H88       1.0  0.12460  0.53434  0.91166  1.0000
  Mg  Mg2       1.0  0.12361  0.66792  0.22785  1.0000
  C   C165      1.0  0.65556  0.45626  0.98622  1.0000
  C   C166      1.0  0.61301  0.44910  0.97803  1.0000
  C  Sn5       1.0  0.58027  0.40917  0.99227  1.0000
  C  Sn6       1.0  0.45631  0.30986  0.01517  1.0000
  C   C167      1.0  0.49900  0.31736  0.02334  1.0000
  C   C168      1.0  0.53150  0.35743  0.00888  1.0000
  H   H89       1.0  0.68072  0.48728  0.97515  1.0000
  O  Te5       1.0  0.53792  0.40255  0.98374  1.0000
  O  Te6       1.0  0.42423  0.26964  0.02984  1.0000
  H   H90       1.0  0.56445  0.36298  0.01535  1.0000
  Mg  Mg3       1.0  0.37134  0.27624  0.01026  1.0000
  C   C169      1.0  0.79664  0.41184  0.06649  1.0000
  C   C170      1.0  0.88760  0.43521  0.97878  1.0000
  C  Sn7       1.0  0.88721  0.40083  0.89926  1.0000
  C  Sn8       1.0  0.93090  0.40939  0.90797  1.0000
  C   C171      1.0  0.97389  0.45215  0.99615  1.0000
  C   C172      1.0  0.83975  0.42031  0.07521  1.0000
  H   H91       1.0  0.79663  0.43827  0.12776  1.0000
  O  Te7       1.0  0.84377  0.35844  0.81210  1.0000
  O  Te8       1.0  0.93155  0.37563  0.82970  1.0000
  H   H92       1.0  0.87318  0.45331  0.14322  1.0000
  Mg  Mg4       1.0  0.86313  0.32337  0.72599  1.0000
  C   C173      1.0  0.21295  0.66736  0.60730  1.0000
  C   C174      1.0  0.17012  0.62465  0.53068  1.0000
  C  Sn9       1.0  0.16855  0.58949  0.45064  1.0000
  C  Sn10      1.0  0.21070  0.59734  0.44750  1.0000
  C   C175      1.0  0.25339  0.64019  0.52464  1.0000
  C   C176      1.0  0.25455  0.67513  0.60433  1.0000
  H   H93       1.0  0.21386  0.69439  0.66905  1.0000
  O  Te9       1.0  0.12545  0.54703  0.37464  1.0000
  O  Te10      1.0  0.21015  0.56281  0.36844  1.0000
  H   H94       1.0  0.28773  0.70819  0.66375  1.0000
  Mg  Mg5       1.0  0.14277  0.51077  0.28259  1.0000
  C   C177      1.0  0.54679  0.20061  0.51765  1.0000
  C   C178      1.0  0.55014  0.16481  0.48687  1.0000
  C  Sn11      1.0  0.58672  0.17006  0.45231  1.0000
  C  Sn12      1.0  0.62053  0.21197  0.44863  1.0000
  C   C179      1.0  0.61689  0.24758  0.47972  1.0000
  C   C180      1.0  0.58013  0.24196  0.51412  1.0000
  H   H95       1.0  0.51838  0.19627  0.54437  1.0000
  O  Te11      1.0  0.58953  0.13395  0.42177  1.0000
  O  Te12      1.0  0.65745  0.21814  0.41448  1.0000
  H   H96       1.0  0.57757  0.26969  0.53807  1.0000
  Mg  Mg6       1.0  0.64627  0.15887  0.38098  1.0000
