data_image0
_chemical_formula_structural       H108C156S12N24SnCSn2CSnTe4Mg2SnCSn2CSnTe4Mg2SnCSn2CSnTe4Mg2SnCSn2CSnTe4Mg2SnCSn2CSnTe4Mg2SnCSn2CSnTe4Mg2
_chemical_formula_sum              "H108 C168 S12 N24 Sn24 Te24 Mg12"
_cell_length_a       36.0438
_cell_length_b       36.0406
_cell_length_c       7.87801
_cell_angle_alpha    89.5736
_cell_angle_beta     92.8095
_cell_angle_gamma    119.763

_symmetry_space_group_name_H-M    'P1'
_space_group_IT_number       1

loop_
  _space_group_symop_operation_xyz
  'x, y, z'

loop_
  _atom_site_type_symbol
  _atom_site_label
  _atom_site_symmetry_multiplicity
  _atom_site_fract_x
  _atom_site_fract_y
  _atom_site_fract_z
  _atom_site_occupancy
  H   H1        1.0  0.38378  0.84205  0.57429  1.0000
  H   H2        1.0  0.84111  0.45824  0.53252  1.0000
  H   H3        1.0  0.33636  0.76293  0.53061  1.0000
  H   H4        1.0  0.76135  0.42532  0.48856  1.0000
  H   H5        1.0  0.43530  0.75725  0.26918  1.0000
  H   H6        1.0  0.75563  0.31897  0.22170  1.0000
  H   H7        1.0  0.48090  0.83653  0.29826  1.0000
  H   H8        1.0  0.83540  0.35374  0.25084  1.0000
  H   H9        1.0  0.49049  0.90655  0.38411  1.0000
  H   H10       1.0  0.09056  0.58687  0.37164  1.0000
  H   H11       1.0  0.41332  0.50731  0.37756  1.0000
  H   H12       1.0  0.50420  0.09377  0.35753  1.0000
  H   H13       1.0  0.90638  0.41786  0.33747  1.0000
  H   H14       1.0  0.58501  0.49290  0.37898  1.0000
  H   H15       1.0  0.42149  0.45961  0.09868  1.0000
  H   H16       1.0  0.54117  0.96147  0.09007  1.0000
  H   H17       1.0  0.04302  0.57961  0.07792  1.0000
  H   H18       1.0  0.57902  0.53545  0.07440  1.0000
  H   H19       1.0  0.46276  0.04180  0.07707  1.0000
  H   H20       1.0  0.96142  0.42166  0.06223  1.0000
  H   H21       1.0  0.43451  0.30880  0.23154  1.0000
  H   H22       1.0  0.69139  0.12497  0.24805  1.0000
  H   H23       1.0  0.88228  0.57223  0.18441  1.0000
  H   H24       1.0  0.57019  0.68851  0.21401  1.0000
  H   H25       1.0  0.31464  0.87860  0.22456  1.0000
  H   H26       1.0  0.12456  0.43090  0.20034  1.0000
  H   H27       1.0  0.49404  0.39001  0.26085  1.0000
  H   H28       1.0  0.60996  0.10192  0.26520  1.0000
  H   H29       1.0  0.90162  0.51114  0.22278  1.0000
  H   H30       1.0  0.51094  0.60808  0.24537  1.0000
  H   H31       1.0  0.39608  0.90088  0.25238  1.0000
  H   H32       1.0  0.10368  0.49067  0.23776  1.0000
  H   H33       1.0  0.64066  0.73658  0.52093  1.0000
  H   H34       1.0  0.27919  0.92477  0.37794  1.0000
  H   H35       1.0  0.06364  0.35181  0.33950  1.0000
  H   H36       1.0  0.36566  0.26609  0.47438  1.0000
  H   H37       1.0  0.71059  0.06410  0.40829  1.0000
  H   H38       1.0  0.90105  0.64029  0.56209  1.0000
  H   H39       1.0  0.65183  0.70687  0.37313  1.0000
  H   H40       1.0  0.28684  0.96454  0.52881  1.0000
  H   H41       1.0  0.02849  0.32233  0.50107  1.0000
  H   H42       1.0  0.33962  0.29501  0.41083  1.0000
  H   H43       1.0  0.71414  0.04177  0.60650  1.0000
  H   H44       1.0  0.92474  0.64132  0.36735  1.0000
  H   H45       1.0  0.64251  0.73482  0.07012  1.0000
  H   H46       1.0  0.26400  0.90267  0.07468  1.0000
  H   H47       1.0  0.09746  0.35789  0.03813  1.0000
  H   H48       1.0  0.34966  0.26250  0.11731  1.0000
  H   H49       1.0  0.74012  0.09715  0.11679  1.0000
  H   H50       1.0  0.96868  0.67688  0.03196  1.0000
  H   H51       1.0  0.45845  0.61467  0.07838  1.0000
  H   H52       1.0  0.38632  0.84307  0.07402  1.0000
  H   H53       1.0  0.15990  0.54149  0.04943  1.0000
  H   H54       1.0  0.84287  0.45943  0.03299  1.0000
  H   H55       1.0  0.42690  0.66261  0.03481  1.0000
  H   H56       1.0  0.33887  0.76391  0.03652  1.0000
  H   H57       1.0  0.23890  0.57364  0.01604  1.0000
  H   H58       1.0  0.76322  0.42607  0.98703  1.0000
  H   H59       1.0  0.31845  0.56167  0.75756  1.0000
  H   H60       1.0  0.43731  0.75686  0.77645  1.0000
  H   H61       1.0  0.24116  0.68022  0.75974  1.0000
  H   H62       1.0  0.75825  0.31941  0.72675  1.0000
  H   H63       1.0  0.35174  0.51529  0.78685  1.0000
  H   H64       1.0  0.48318  0.83613  0.80115  1.0000
  H   H65       1.0  0.16194  0.64643  0.77974  1.0000
  H   H66       1.0  0.83789  0.35432  0.75797  1.0000
  H   H67       1.0  0.49192  0.90722  0.87802  1.0000
  H   H68       1.0  0.09314  0.58630  0.86467  1.0000
  H   H69       1.0  0.41519  0.50736  0.87059  1.0000
  H   H70       1.0  0.50658  0.09257  0.85860  1.0000
  H   H71       1.0  0.90812  0.41672  0.84678  1.0000
  H   H72       1.0  0.58602  0.49230  0.88038  1.0000
  H   H73       1.0  0.42237  0.46237  0.59624  1.0000
  H   H74       1.0  0.53732  0.96044  0.59116  1.0000
  H   H75       1.0  0.03989  0.57860  0.58840  1.0000
  H   H76       1.0  0.57991  0.53801  0.57494  1.0000
  H   H77       1.0  0.46069  0.04231  0.56451  1.0000
  H   H78       1.0  0.95878  0.42090  0.55226  1.0000
  H   H79       1.0  0.43435  0.31090  0.73229  1.0000
  H   H80       1.0  0.69001  0.12480  0.72666  1.0000
  H   H81       1.0  0.87498  0.56511  0.69584  1.0000
  H   H82       1.0  0.57049  0.69240  0.68748  1.0000
  H   H83       1.0  0.31065  0.88102  0.71547  1.0000
  H   H84       1.0  0.11971  0.42661  0.67977  1.0000
  H   H85       1.0  0.49342  0.39171  0.76937  1.0000
  H   H86       1.0  0.60921  0.10430  0.74177  1.0000
  H   H87       1.0  0.89776  0.50614  0.72838  1.0000
  H   H88       1.0  0.51089  0.61242  0.72444  1.0000
  H   H89       1.0  0.39164  0.90151  0.74291  1.0000
  H   H90       1.0  0.10196  0.48866  0.71736  1.0000
  H   H91       1.0  0.64050  0.71012  0.87212  1.0000
  H   H92       1.0  0.28537  0.93168  0.88693  1.0000
  H   H93       1.0  0.07012  0.35698  0.84233  1.0000
  H   H94       1.0  0.36382  0.27430  0.90237  1.0000
  H   H95       1.0  0.71857  0.08253  0.90399  1.0000
  H   H96       1.0  0.91228  0.64822  0.04876  1.0000
  H   H97       1.0  0.67344  0.70933  0.04564  1.0000
  H   H98       1.0  0.28728  0.95924  0.07574  1.0000
  H   H99       1.0  0.04081  0.32654  0.01532  1.0000
  H   H100      1.0  0.32940  0.29005  0.99028  1.0000
  H   H101      1.0  0.71368  0.04264  0.04820  1.0000
  H   H102      1.0  0.93501  0.64723  0.85416  1.0000
  H   H103      1.0  0.67518  0.71631  0.58391  1.0000
  H   H104      1.0  0.26175  0.91004  0.58746  1.0000
  H   H105      1.0  0.08470  0.34853  0.54507  1.0000
  H   H106      1.0  0.33535  0.27579  0.62115  1.0000
  H   H107      1.0  0.73687  0.09800  0.58919  1.0000
  H   H108      1.0  0.95737  0.67210  0.54567  1.0000
  C   C1        1.0  0.43559  0.84432  0.44171  1.0000
  C   C2        1.0  0.84312  0.40775  0.39767  1.0000
  C   C3        1.0  0.39441  0.82318  0.50610  1.0000
  C   C4        1.0  0.82200  0.42805  0.46348  1.0000
  C   C5        1.0  0.36824  0.77945  0.48202  1.0000
  C   C6        1.0  0.77805  0.40989  0.43915  1.0000
  C   C7        1.0  0.38309  0.75530  0.39872  1.0000
  C   C8        1.0  0.75381  0.37001  0.35495  1.0000
  C   C9        1.0  0.42425  0.77601  0.33572  1.0000
  C   C10       1.0  0.77458  0.34951  0.28875  1.0000
  C   C11       1.0  0.44978  0.82024  0.35380  1.0000
  C   C12       1.0  0.81906  0.36889  0.30640  1.0000
  C   C13       1.0  0.34891  0.64224  0.38390  1.0000
  C   C14       1.0  0.35568  0.70845  0.38531  1.0000
  C   C15       1.0  0.28942  0.64917  0.38428  1.0000
  C   C16       1.0  0.64759  0.35707  0.36289  1.0000
  C   C17       1.0  0.64096  0.29088  0.35450  1.0000
  C   C18       1.0  0.70680  0.35010  0.34672  1.0000
  C   C19       1.0  0.46243  0.89066  0.46235  1.0000
  C   C20       1.0  0.10787  0.57400  0.44802  1.0000
  C   C21       1.0  0.42591  0.53609  0.45948  1.0000
  C   C22       1.0  0.53412  0.11015  0.43744  1.0000
  C   C23       1.0  0.88956  0.42766  0.42368  1.0000
  C   C24       1.0  0.57334  0.46385  0.45515  1.0000
  C   C25       1.0  0.47921  0.95652  0.07879  1.0000
  C   C26       1.0  0.04726  0.52241  0.06148  1.0000
  C   C27       1.0  0.47818  0.52073  0.08107  1.0000
  C   C28       1.0  0.52433  0.04642  0.07000  1.0000
  C   C29       1.0  0.95700  0.47896  0.05733  1.0000
  C   C30       1.0  0.52191  0.47420  0.07134  1.0000
  C   C31       1.0  0.45607  0.47605  0.08909  1.0000
  C   C32       1.0  0.52408  0.97931  0.08381  1.0000
  C   C33       1.0  0.02484  0.54484  0.07055  1.0000
  C   C34       1.0  0.54424  0.51909  0.07538  1.0000
  C   C35       1.0  0.47967  0.02379  0.07692  1.0000
  C   C36       1.0  0.97951  0.45644  0.06127  1.0000
  C   C37       1.0  0.47686  0.45187  0.09112  1.0000
  C   C38       1.0  0.54766  0.02406  0.08811  1.0000
  C   C39       1.0  0.98013  0.52440  0.07505  1.0000
  C   C40       1.0  0.52385  0.54339  0.08647  1.0000
  C   C41       1.0  0.45627  0.97919  0.08986  1.0000
  C   C42       1.0  0.02432  0.47689  0.06960  1.0000
  C   C43       1.0  0.54831  0.59002  0.09422  1.0000
  C   C44       1.0  0.40996  0.95685  0.10395  1.0000
  C   C45       1.0  0.04647  0.45220  0.07716  1.0000
  C   C46       1.0  0.45268  0.40538  0.10356  1.0000
  C   C47       1.0  0.59438  0.04700  0.10433  1.0000
  C   C48       1.0  0.95853  0.54950  0.08326  1.0000
  C   C49       1.0  0.39579  0.32810  0.07596  1.0000
  C   C50       1.0  0.67202  0.06857  0.09005  1.0000
  C   C51       1.0  0.94048  0.60828  0.04961  1.0000
  C   C52       1.0  0.60540  0.66679  0.06670  1.0000
  C   C53       1.0  0.33211  0.93567  0.07770  1.0000
  C   C54       1.0  0.06620  0.39496  0.04195  1.0000
  C   C55       1.0  0.43162  0.33466  0.17265  1.0000
  C   C56       1.0  0.66539  0.09653  0.18567  1.0000
  C   C57       1.0  0.91071  0.57369  0.13641  1.0000
  C   C58       1.0  0.57159  0.66177  0.15839  1.0000
  C   C59       1.0  0.33987  0.90717  0.16912  1.0000
  C   C60       1.0  0.09574  0.42919  0.14244  1.0000
  C   C61       1.0  0.46386  0.37822  0.18788  1.0000
  C   C62       1.0  0.62164  0.08454  0.19373  1.0000
  C   C63       1.0  0.92074  0.54042  0.15549  1.0000
  C   C64       1.0  0.53933  0.61856  0.17411  1.0000
  C   C65       1.0  0.38373  0.91900  0.18403  1.0000
  C   C66       1.0  0.08477  0.46159  0.16227  1.0000
  C   C67       1.0  0.64258  0.70735  0.01112  1.0000
  C   C68       1.0  0.29010  0.93235  0.02611  1.0000
  C   C69       1.0  0.06858  0.35702  0.98158  1.0000
  C   C70       1.0  0.35764  0.28663  0.01877  1.0000
  C   C71       1.0  0.71321  0.07282  0.03748  1.0000
  C   C72       1.0  0.93918  0.64729  0.99349  1.0000
  C   C73       1.0  0.40692  0.56189  0.93761  1.0000
  C   C74       1.0  0.43787  0.84469  0.94176  1.0000
  C   C75       1.0  0.15629  0.59254  0.92171  1.0000
  C   C76       1.0  0.84534  0.40854  0.90204  1.0000
  C   C77       1.0  0.42807  0.60372  0.00723  1.0000
  C   C78       1.0  0.39682  0.82387  0.00733  1.0000
  C   C79       1.0  0.17819  0.57171  0.98580  1.0000
  C   C80       1.0  0.82403  0.42897  0.96527  1.0000
  C   C81       1.0  0.41061  0.63016  0.98280  1.0000
  C   C82       1.0  0.37054  0.78003  0.98599  1.0000
  C   C83       1.0  0.22177  0.58951  0.96707  1.0000
  C   C84       1.0  0.78004  0.41053  0.94016  1.0000
  C   C85       1.0  0.37071  0.61487  0.89444  1.0000
  C   C86       1.0  0.38527  0.75552  0.90442  1.0000
  C   C87       1.0  0.24492  0.62940  0.88986  1.0000
  C   C88       1.0  0.75586  0.37035  0.85807  1.0000
  C   C89       1.0  0.34923  0.57308  0.82607  1.0000
  C   C90       1.0  0.42638  0.77597  0.84097  1.0000
  C   C91       1.0  0.22320  0.65003  0.82362  1.0000
  C   C92       1.0  0.77693  0.35002  0.79331  1.0000
  C   C93       1.0  0.36776  0.54724  0.84420  1.0000
  C   C94       1.0  0.45198  0.82025  0.85608  1.0000
  C   C95       1.0  0.17909  0.63122  0.83614  1.0000
  C   C96       1.0  0.82138  0.36950  0.81197  1.0000
  C   C97       1.0  0.35119  0.64240  0.88201  1.0000
  C   C98       1.0  0.35790  0.70863  0.89023  1.0000
  C   C99       1.0  0.29174  0.64923  0.88345  1.0000
  C   C100      1.0  0.64948  0.35716  0.86167  1.0000
  C   C101      1.0  0.64293  0.29090  0.86025  1.0000
  C   C102      1.0  0.70877  0.35016  0.85009  1.0000
  C   C103      1.0  0.46484  0.89109  0.96111  1.0000
  C   C104      1.0  0.11041  0.57369  0.94294  1.0000
  C   C105      1.0  0.42643  0.53486  0.95881  1.0000
  C   C106      1.0  0.53597  0.10981  0.94070  1.0000
  C   C107      1.0  0.89172  0.42806  0.92847  1.0000
  C   C108      1.0  0.57348  0.46249  0.95216  1.0000
  C   C109      1.0  0.47577  0.95628  0.57413  1.0000
  C   C110      1.0  0.04441  0.52176  0.56224  1.0000
  C   C111      1.0  0.47910  0.52345  0.57897  1.0000
  C   C112      1.0  0.52202  0.04623  0.56412  1.0000
  C   C113      1.0  0.95426  0.47787  0.55782  1.0000
  C   C114      1.0  0.52286  0.47685  0.57575  1.0000
  C   C115      1.0  0.45701  0.47877  0.58862  1.0000
  C   C116      1.0  0.52067  0.97869  0.58239  1.0000
  C   C117      1.0  0.02179  0.54390  0.57661  1.0000
  C   C118      1.0  0.54516  0.52169  0.57704  1.0000
  C   C119      1.0  0.47722  0.02393  0.56763  1.0000
  C   C120      1.0  0.97690  0.45567  0.55648  1.0000
  C   C121      1.0  0.47778  0.45458  0.59437  1.0000
  C   C122      1.0  0.54485  0.02342  0.58618  1.0000
  C   C123      1.0  0.97704  0.52319  0.58061  1.0000
  C   C124      1.0  0.52481  0.54611  0.58534  1.0000
  C   C125      1.0  0.45314  0.97937  0.58102  1.0000
  C   C126      1.0  0.02167  0.47617  0.56440  1.0000
  C   C127      1.0  0.54954  0.59279  0.59029  1.0000
  C   C128      1.0  0.40671  0.95763  0.59321  1.0000
  C   C129      1.0  0.04316  0.45090  0.56621  1.0000
  C   C130      1.0  0.45351  0.40808  0.60674  1.0000
  C   C131      1.0  0.59154  0.04550  0.60359  1.0000
  C   C132      1.0  0.95455  0.54737  0.59288  1.0000
  C   C133      1.0  0.39664  0.33078  0.57203  1.0000
  C   C134      1.0  0.66876  0.06490  0.59106  1.0000
  C   C135      1.0  0.93290  0.60373  0.56273  1.0000
  C   C136      1.0  0.60749  0.66933  0.55992  1.0000
  C   C137      1.0  0.32917  0.93807  0.56805  1.0000
  C   C138      1.0  0.05941  0.39107  0.53273  1.0000
  C   C139      1.0  0.43177  0.33692  0.67287  1.0000
  C   C140      1.0  0.66327  0.09539  0.67334  1.0000
  C   C141      1.0  0.90406  0.56806  0.64765  1.0000
  C   C142      1.0  0.57268  0.66517  0.64200  1.0000
  C   C143      1.0  0.33630  0.90926  0.66003  1.0000
  C   C144      1.0  0.09089  0.42563  0.62599  1.0000
  C   C145      1.0  0.46391  0.38050  0.69247  1.0000
  C   C146      1.0  0.61983  0.08458  0.68085  1.0000
  C   C147      1.0  0.91610  0.53619  0.66456  1.0000
  C   C148      1.0  0.54016  0.62214  0.66030  1.0000
  C   C149      1.0  0.37989  0.92008  0.67403  1.0000
  C   C150      1.0  0.08185  0.45941  0.64471  1.0000
  C   C151      1.0  0.64600  0.70929  0.50722  1.0000
  C   C152      1.0  0.28720  0.93446  0.51286  1.0000
  C   C153      1.0  0.05889  0.35127  0.47674  1.0000
  C   C154      1.0  0.35726  0.28985  0.51721  1.0000
  C   C155      1.0  0.70963  0.06702  0.54678  1.0000
  C   C156      1.0  0.92901  0.64148  0.50685  1.0000
  S   S1        1.0  0.40183  0.37614  0.00554  1.0000
  S   S2        1.0  0.62366  0.02688  0.01154  1.0000
  S   S3        1.0  0.98129  0.59974  0.99217  1.0000
  S   S4        1.0  0.59733  0.61754  0.00067  1.0000
  S   S5        1.0  0.37944  0.97758  0.01130  1.0000
  S   S6        1.0  0.02434  0.40281  0.97330  1.0000
  S   S7        1.0  0.40343  0.37919  0.50265  1.0000
  S   S8        1.0  0.61967  0.02226  0.52436  1.0000
  S   S9        1.0  0.97545  0.59791  0.50551  1.0000
  S   S10       1.0  0.59981  0.61948  0.50576  1.0000
  S   S11       1.0  0.37689  0.97924  0.50077  1.0000
  S   S12       1.0  0.01831  0.40050  0.46889  1.0000
  N   N1        1.0  0.37531  0.68492  0.38248  1.0000
  N   N2        1.0  0.31294  0.69221  0.38524  1.0000
  N   N3        1.0  0.30584  0.62270  0.38282  1.0000
  N   N4        1.0  0.62135  0.31435  0.36262  1.0000
  N   N5        1.0  0.68348  0.30701  0.34432  1.0000
  N   N6        1.0  0.69042  0.37650  0.35368  1.0000
  N   N7        1.0  0.45553  0.91200  0.06709  1.0000
  N   N8        1.0  0.09138  0.54249  0.04573  1.0000
  N   N9        1.0  0.45726  0.54458  0.07105  1.0000
  N   N10       1.0  0.54781  0.09052  0.05063  1.0000
  N   N11       1.0  0.91240  0.45860  0.03944  1.0000
  N   N12       1.0  0.54186  0.45003  0.05006  1.0000
  N   N13       1.0  0.37754  0.68510  0.88446  1.0000
  N   N14       1.0  0.31515  0.69228  0.89063  1.0000
  N   N15       1.0  0.30814  0.62282  0.87798  1.0000
  N   N16       1.0  0.62332  0.31442  0.86435  1.0000
  N   N17       1.0  0.68556  0.30708  0.85221  1.0000
  N   N18       1.0  0.69230  0.37656  0.85224  1.0000
  N   N19       1.0  0.45193  0.91178  0.56248  1.0000
  N   N20       1.0  0.08861  0.54215  0.54801  1.0000
  N   N21       1.0  0.45817  0.54722  0.56606  1.0000
  N   N22       1.0  0.54600  0.09029  0.54412  1.0000
  N   N23       1.0  0.90967  0.45699  0.53968  1.0000
  N   N24       1.0  0.54275  0.45251  0.55759  1.0000
  C  Sn1       1.0  0.65498  0.43883  0.86240  1.0000
  C   C157      1.0  0.64011  0.39686  0.91480  1.0000
  C  Sn2       1.0  0.59789  0.37170  0.96113  1.0000
  C  Sn3       1.0  0.56992  0.38882  0.95485  1.0000
  C   C158      1.0  0.58479  0.43076  0.90246  1.0000
  C  Sn4       1.0  0.62701  0.45596  0.85613  1.0000
  O  Te1       1.0  0.69732  0.46341  0.81666  1.0000
  O  Te2       1.0  0.57062  0.32493  0.01314  1.0000
  O  Te3       1.0  0.51441  0.35930  0.00066  1.0000
  O  Te4       1.0  0.64114  0.49779  0.80411  1.0000
  Mg  Mg1       1.0  0.51015  0.30405  0.06283  1.0000
  Mg  Mg2       1.0  0.70158  0.51869  0.75432  1.0000
  C  Sn5       1.0  0.55542  0.18656  0.76728  1.0000
  C   C159      1.0  0.56543  0.15852  0.85468  1.0000
  C  Sn6       1.0  0.60060  0.17426  0.97124  1.0000
  C  Sn7       1.0  0.61313  0.21407  0.00116  1.0000
  C   C160      1.0  0.61625  0.24698  0.91382  1.0000
  C  Sn8       1.0  0.58110  0.23126  0.79721  1.0000
  O  Te5       1.0  0.52011  0.17011  0.65134  1.0000
  O  Te6       1.0  0.59683  0.14070  0.05704  1.0000
  O  Te7       1.0  0.64846  0.23050  0.11722  1.0000
  O  Te8       1.0  0.57170  0.25990  0.71147  1.0000
  Mg  Mg3       1.0  0.64824  0.17862  0.20276  1.0000
  Mg  Mg4       1.0  0.52029  0.22202  0.56578  1.0000
  C  Sn9       1.0  0.60795  0.18922  0.52727  1.0000
  C   C161      1.0  0.56561  0.16317  0.46637  1.0000
  C  Sn10      1.0  0.54786  0.17727  0.33740  1.0000
  C  Sn11      1.0  0.57296  0.21826  0.26776  1.0000
  C   C162      1.0  0.61528  0.24429  0.32863  1.0000
  C  Sn12      1.0  0.63305  0.23021  0.45762  1.0000
  O  Te9       1.0  0.62503  0.17446  0.65626  1.0000
  O  Te10      1.0  0.50545  0.15066  0.27864  1.0000
  O  Te11      1.0  0.55585  0.23301  0.13867  1.0000
  O  Te12      1.0  0.67543  0.25679  0.51636  1.0000
  Mg  Mg5       1.0  0.49659  0.18505  0.10102  1.0000
  Mg  Mg6       1.0  0.68434  0.22243  0.69390  1.0000
  C  Sn13      1.0  0.62988  0.44454  0.28900  1.0000
  C   C163      1.0  0.59252  0.43458  0.37024  1.0000
  C  Sn14      1.0  0.57423  0.39957  0.47733  1.0000
  C  Sn15      1.0  0.59370  0.37399  0.50385  1.0000
  C   C164      1.0  0.63104  0.38395  0.42266  1.0000
  C  Sn16      1.0  0.64935  0.41895  0.31553  1.0000
  O  Te13      1.0  0.64761  0.47969  0.18250  1.0000
  O  Te14      1.0  0.53686  0.39025  0.55710  1.0000
  O  Te15      1.0  0.57593  0.33881  0.61045  1.0000
  O  Te16      1.0  0.68669  0.42829  0.23581  1.0000
  Mg  Mg7       1.0  0.52485  0.33905  0.69056  1.0000
  Mg  Mg8       1.0  0.69874  0.47948  0.10240  1.0000
  C  Sn17      1.0  0.18764  0.58048  0.54035  1.0000
  C   C165      1.0  0.16106  0.59618  0.48003  1.0000
  C  Sn18      1.0  0.17488  0.62778  0.35706  1.0000
  C  Sn19      1.0  0.21611  0.64401  0.29297  1.0000
  C   C166      1.0  0.24266  0.62831  0.35326  1.0000
  C  Sn20      1.0  0.22887  0.59671  0.47625  1.0000
  O  Te17      1.0  0.17317  0.54888  0.66330  1.0000
  O  Te18      1.0  0.14774  0.64299  0.29875  1.0000
  O  Te19      1.0  0.23057  0.67563  0.16993  1.0000
  O  Te20      1.0  0.25598  0.58150  0.53453  1.0000
  Mg  Mg9       1.0  0.18191  0.68611  0.13043  1.0000
  Mg  Mg10      1.0  0.22184  0.53836  0.70278  1.0000
  C  Sn21      1.0  0.41959  0.60836  0.55233  1.0000
  C   C167      1.0  0.40348  0.56654  0.49145  1.0000
  C  Sn22      1.0  0.37064  0.54950  0.36441  1.0000
  C  Sn23      1.0  0.35356  0.57479  0.29671  1.0000
  C   C168      1.0  0.36967  0.61658  0.35755  1.0000
  C  Sn24      1.0  0.40251  0.63365  0.48463  1.0000
  O  Te21      1.0  0.45243  0.62474  0.67939  1.0000
  O  Te22      1.0  0.35504  0.50761  0.30563  1.0000
  O  Te23      1.0  0.32069  0.55837  0.16956  1.0000
  O  Te24      1.0  0.41811  0.67551  0.54338  1.0000
  Mg  Mg11      1.0  0.31013  0.49962  0.13106  1.0000
  Mg  Mg12      1.0  0.46303  0.68354  0.71787  1.0000
