data_image0
_chemical_formula_structural       H72C132S12N12SnCSn2CSnTe4Mg2SnCSn2CSnTe4Mg2SnCSn2CSnTe4Mg2SnCSn2CSnTe4Mg2SnCSn2CSnTe4Mg2SnCSn2CSnTe4Mg2SnCSn2CSnTe4Mg2SnCSn2CSnTe4Mg2SnCSn2CSnTe4Mg2SnCSn2CSnTe4Mg2SnCSn2CSnTe4Mg2SnCSn2CSnTe4Mg2
_chemical_formula_sum              "H72 C156 S12 N12 Sn48 Te48 Mg24"
_cell_length_a       36.6999
_cell_length_b       36.8447
_cell_length_c       8.35904
_cell_angle_alpha    119.822
_cell_angle_beta     72.4441
_cell_angle_gamma    119.937

_symmetry_space_group_name_H-M    'P1'
_space_group_IT_number       1

loop_
  _space_group_symop_operation_xyz
  'x, y, z'

loop_
  _atom_site_type_symbol
  _atom_site_label
  _atom_site_symmetry_multiplicity
  _atom_site_fract_x
  _atom_site_fract_y
  _atom_site_fract_z
  _atom_site_occupancy
  H   H1        1.0  0.88763  0.26477  0.47368  1.0000
  H   H2        1.0  0.73420  0.62551  0.51538  1.0000
  H   H3        1.0  0.35918  0.05724  0.34428  1.0000
  H   H4        1.0  0.08068  0.70414  0.35935  1.0000
  H   H5        1.0  0.28636  0.33721  0.43175  1.0000
  H   H6        1.0  0.62110  0.88561  0.49325  1.0000
  H   H7        1.0  0.06773  0.72824  0.11658  1.0000
  H   H8        1.0  0.26607  0.38358  0.03240  1.0000
  H   H9        1.0  0.64406  0.94878  0.13713  1.0000
  H   H10       1.0  0.93589  0.29966  0.12680  1.0000
  H   H11       1.0  0.73378  0.61323  0.92159  1.0000
  H   H12       1.0  0.37838  0.11578  0.00301  1.0000
  H   H13       1.0  0.04360  0.46445  0.00210  1.0000
  H   H14       1.0  0.53599  0.57676  0.96702  1.0000
  H   H15       1.0  0.42086  0.95837  0.98114  1.0000
  H   H16       1.0  0.95743  0.53445  0.99661  1.0000
  H   H17       1.0  0.46458  0.42593  0.01485  1.0000
  H   H18       1.0  0.57735  0.04558  0.00488  1.0000
  H   H19       1.0  0.28401  0.59484  0.02094  1.0000
  H   H20       1.0  0.41072  0.69682  0.01153  1.0000
  H   H21       1.0  0.30715  0.71773  0.99227  1.0000
  H   H22       1.0  0.71817  0.40784  0.96678  1.0000
  H   H23       1.0  0.59078  0.31458  0.04379  1.0000
  H   H24       1.0  0.69346  0.28605  0.00848  1.0000
  H   H25       1.0  0.86323  0.32282  0.01888  1.0000
  H   H26       1.0  0.67979  0.53865  0.95295  1.0000
  H   H27       1.0  0.45767  0.14073  0.00478  1.0000
  H   H28       1.0  0.13783  0.67477  0.96915  1.0000
  H   H29       1.0  0.32088  0.45736  0.97589  1.0000
  H   H30       1.0  0.54075  0.86361  0.98308  1.0000
  H   H31       1.0  0.93760  0.27267  0.88094  1.0000
  H   H32       1.0  0.71818  0.65897  0.07071  1.0000
  H   H33       1.0  0.34521  0.07389  0.09353  1.0000
  H   H34       1.0  0.06225  0.69860  0.87401  1.0000
  H   H35       1.0  0.28715  0.37361  0.16504  1.0000
  H   H36       1.0  0.65244  0.92782  0.89227  1.0000
  H   H37       1.0  0.88865  0.26854  0.01282  1.0000
  H   H38       1.0  0.71393  0.63364  0.82887  1.0000
  H   H39       1.0  0.35473  0.05658  0.85050  1.0000
  H   H40       1.0  0.11281  0.72740  0.95928  1.0000
  H   H41       1.0  0.28483  0.33993  0.92319  1.0000
  H   H42       1.0  0.61873  0.88880  0.99655  1.0000
  H   H43       1.0  0.11213  0.73727  0.55142  1.0000
  H   H44       1.0  0.26683  0.37868  0.49848  1.0000
  H   H45       1.0  0.64631  0.94593  0.63095  1.0000
  H   H46       1.0  0.92953  0.29711  0.62118  1.0000
  H   H47       1.0  0.71144  0.66392  0.57625  1.0000
  H   H48       1.0  0.37659  0.11203  0.53566  1.0000
  H   H49       1.0  0.04137  0.46526  0.51311  1.0000
  H   H50       1.0  0.53644  0.57376  0.46429  1.0000
  H   H51       1.0  0.42102  0.95342  0.48400  1.0000
  H   H52       1.0  0.95712  0.53395  0.48244  1.0000
  H   H53       1.0  0.46546  0.42282  0.51110  1.0000
  H   H54       1.0  0.57723  0.04167  0.51460  1.0000
  H   H55       1.0  0.28369  0.58928  0.50633  1.0000
  H   H56       1.0  0.41029  0.69085  0.49440  1.0000
  H   H57       1.0  0.30651  0.71654  0.51686  1.0000
  H   H58       1.0  0.71497  0.40945  0.52676  1.0000
  H   H59       1.0  0.58819  0.30564  0.51305  1.0000
  H   H60       1.0  0.69194  0.27835  0.47648  1.0000
  H   H61       1.0  0.86228  0.31863  0.47292  1.0000
  H   H62       1.0  0.67998  0.54700  0.53615  1.0000
  H   H63       1.0  0.45728  0.13631  0.51656  1.0000
  H   H64       1.0  0.13797  0.67947  0.52060  1.0000
  H   H65       1.0  0.32188  0.45692  0.48530  1.0000
  H   H66       1.0  0.54219  0.85941  0.48293  1.0000
  H   H67       1.0  0.94026  0.27478  0.37713  1.0000
  H   H68       1.0  0.71854  0.62806  0.34073  1.0000
  H   H69       1.0  0.34215  0.06130  0.57266  1.0000
  H   H70       1.0  0.05690  0.72132  0.58847  1.0000
  H   H71       1.0  0.28325  0.37509  0.66783  1.0000
  H   H72       1.0  0.65341  0.92429  0.38625  1.0000
  C   C1        1.0  0.89141  0.41280  0.99612  1.0000
  C   C2        1.0  0.58674  0.48007  0.00582  1.0000
  C   C3        1.0  0.52291  0.11048  0.98407  1.0000
  C   C4        1.0  0.10946  0.58594  0.99926  1.0000
  C   C5        1.0  0.41342  0.52196  0.97603  1.0000
  C   C6        1.0  0.47563  0.89419  0.00678  1.0000
  C   C7        1.0  0.95589  0.47595  0.99920  1.0000
  C   C8        1.0  0.52378  0.48157  0.00210  1.0000
  C   C9        1.0  0.52055  0.04626  0.99018  1.0000
  C   C10       1.0  0.04521  0.52297  0.99901  1.0000
  C   C11       1.0  0.47668  0.52111  0.98009  1.0000
  C   C12       1.0  0.47769  0.95768  0.99596  1.0000
  C   C13       1.0  0.98057  0.45523  0.99818  1.0000
  C   C14       1.0  0.54453  0.52568  0.99278  1.0000
  C   C15       1.0  0.47533  0.02122  0.98322  1.0000
  C   C16       1.0  0.02049  0.54358  0.99910  1.0000
  C   C17       1.0  0.45594  0.47754  0.99390  1.0000
  C   C18       1.0  0.52295  0.98275  0.00264  1.0000
  C   C19       1.0  0.02443  0.47902  0.99898  1.0000
  C   C20       1.0  0.52084  0.54425  0.98002  1.0000
  C   C21       1.0  0.45493  0.97774  0.98568  1.0000
  C   C22       1.0  0.97664  0.51990  0.99945  1.0000
  C   C23       1.0  0.47965  0.45868  0.00372  1.0000
  C   C24       1.0  0.54331  0.02619  0.00012  1.0000
  C   C25       1.0  0.29029  0.65450  0.00655  1.0000
  C   C26       1.0  0.34935  0.64220  0.01421  1.0000
  C   C27       1.0  0.36271  0.71314  0.00211  1.0000
  C   C28       1.0  0.71106  0.34976  0.99623  1.0000
  C   C29       1.0  0.65239  0.36484  0.00467  1.0000
  C   C30       1.0  0.63830  0.29361  0.01641  1.0000
  C   C31       1.0  0.30594  0.62771  0.01483  1.0000
  C   C32       1.0  0.37714  0.68514  0.00956  1.0000
  C   C33       1.0  0.31904  0.69710  0.00097  1.0000
  C   C34       1.0  0.69583  0.37713  0.98926  1.0000
  C   C35       1.0  0.62432  0.32341  0.02186  1.0000
  C   C36       1.0  0.68192  0.30776  0.00611  1.0000
  C   C37       1.0  0.41120  0.45710  0.99662  1.0000
  C   C38       1.0  0.54338  0.95919  0.00761  1.0000
  C   C39       1.0  0.04415  0.58772  0.99601  1.0000
  C   C40       1.0  0.58925  0.54609  0.99205  1.0000
  C   C41       1.0  0.45511  0.04502  0.97855  1.0000
  C   C42       1.0  0.95673  0.41083  0.99851  1.0000
  C   C43       1.0  0.08845  0.60956  0.99325  1.0000
  C   C44       1.0  0.38893  0.47768  0.98573  1.0000
  C   C45       1.0  0.52121  0.91461  0.00328  1.0000
  C   C46       1.0  0.91239  0.38877  0.99944  1.0000
  C   C47       1.0  0.61139  0.52375  0.99037  1.0000
  C   C48       1.0  0.47733  0.08978  0.98418  1.0000
  C   C49       1.0  0.89632  0.34515  0.00660  1.0000
  C   C50       1.0  0.65611  0.54990  0.97032  1.0000
  C   C51       1.0  0.44866  0.10663  0.99180  1.0000
  C   C52       1.0  0.10468  0.65287  0.98350  1.0000
  C   C53       1.0  0.34430  0.44939  0.98855  1.0000
  C   C54       1.0  0.54977  0.89768  0.99562  1.0000
  C   C55       1.0  0.92716  0.33422  0.00514  1.0000
  C   C56       1.0  0.66712  0.59094  0.96628  1.0000
  C   C57       1.0  0.40715  0.07557  0.98479  1.0000
  C   C58       1.0  0.07394  0.66403  0.98582  1.0000
  C   C59       1.0  0.33348  0.41010  0.00676  1.0000
  C   C60       1.0  0.59130  0.92871  0.00248  1.0000
  C   C61       1.0  0.92223  0.29156  0.00640  1.0000
  C   C62       1.0  0.71045  0.62615  0.94601  1.0000
  C   C63       1.0  0.36933  0.08066  0.98338  1.0000
  C   C64       1.0  0.07926  0.70679  0.98398  1.0000
  C   C65       1.0  0.29064  0.37486  0.03209  1.0000
  C   C66       1.0  0.62873  0.92332  0.00660  1.0000
  C   C67       1.0  0.88980  0.41348  0.49707  1.0000
  C   C68       1.0  0.58763  0.47818  0.50804  1.0000
  C   C69       1.0  0.52238  0.10593  0.49148  1.0000
  C   C70       1.0  0.10916  0.58473  0.49554  1.0000
  C   C71       1.0  0.41424  0.52010  0.48234  1.0000
  C   C72       1.0  0.47637  0.88955  0.50881  1.0000
  C   C73       1.0  0.95449  0.47621  0.49620  1.0000
  C   C74       1.0  0.52457  0.47843  0.49657  1.0000
  C   C75       1.0  0.52046  0.04199  0.49760  1.0000
  C   C76       1.0  0.04400  0.52291  0.49907  1.0000
  C   C77       1.0  0.47734  0.51827  0.47965  1.0000
  C   C78       1.0  0.47795  0.95308  0.50026  1.0000
  C   C79       1.0  0.97876  0.45626  0.50485  1.0000
  C   C80       1.0  0.54528  0.52215  0.48450  1.0000
  C   C81       1.0  0.47529  0.01656  0.48868  1.0000
  C   C82       1.0  0.01987  0.54305  0.49060  1.0000
  C   C83       1.0  0.45652  0.47460  0.49301  1.0000
  C   C84       1.0  0.52311  0.97844  0.50844  1.0000
  C   C85       1.0  0.02260  0.47978  0.50644  1.0000
  C   C86       1.0  0.52150  0.54097  0.47500  1.0000
  C   C87       1.0  0.45505  0.97294  0.48973  1.0000
  C   C88       1.0  0.97592  0.51949  0.48942  1.0000
  C   C89       1.0  0.48039  0.45557  0.50033  1.0000
  C   C90       1.0  0.54327  0.02204  0.50780  1.0000
  C   C91       1.0  0.28953  0.65095  0.51087  1.0000
  C   C92       1.0  0.34879  0.63751  0.50834  1.0000
  C   C93       1.0  0.36210  0.70889  0.50214  1.0000
  C   C94       1.0  0.70877  0.34560  0.49863  1.0000
  C   C95       1.0  0.64965  0.36059  0.51175  1.0000
  C   C96       1.0  0.63632  0.28745  0.50392  1.0000
  C   C97       1.0  0.30537  0.62331  0.51124  1.0000
  C   C98       1.0  0.37662  0.68008  0.50136  1.0000
  C   C99       1.0  0.31840  0.69407  0.51028  1.0000
  C   C100      1.0  0.69294  0.37473  0.51233  1.0000
  C   C101      1.0  0.62187  0.31696  0.50984  1.0000
  C   C102      1.0  0.68006  0.30183  0.49278  1.0000
  C   C103      1.0  0.41171  0.45442  0.49788  1.0000
  C   C104      1.0  0.54381  0.95501  0.51215  1.0000
  C   C105      1.0  0.04441  0.58724  0.48777  1.0000
  C   C106      1.0  0.58995  0.54301  0.48629  1.0000
  C   C107      1.0  0.45483  0.04009  0.48395  1.0000
  C   C108      1.0  0.95480  0.41201  0.50669  1.0000
  C   C109      1.0  0.08857  0.60948  0.49501  1.0000
  C   C110      1.0  0.38970  0.47585  0.49169  1.0000
  C   C111      1.0  0.52196  0.91027  0.50617  1.0000
  C   C112      1.0  0.91074  0.38910  0.49825  1.0000
  C   C113      1.0  0.61213  0.52329  0.50448  1.0000
  C   C114      1.0  0.47685  0.08502  0.49180  1.0000
  C   C115      1.0  0.89492  0.34365  0.48800  1.0000
  C   C116      1.0  0.65654  0.55309  0.51201  1.0000
  C   C117      1.0  0.44820  0.10191  0.50042  1.0000
  C   C118      1.0  0.10515  0.65506  0.50599  1.0000
  C   C119      1.0  0.34503  0.44799  0.49387  1.0000
  C   C120      1.0  0.55088  0.89346  0.49606  1.0000
  C   C121      1.0  0.92550  0.33346  0.49483  1.0000
  C   C122      1.0  0.66733  0.59215  0.49219  1.0000
  C   C123      1.0  0.40678  0.07048  0.49037  1.0000
  C   C124      1.0  0.07513  0.66622  0.50078  1.0000
  C   C125      1.0  0.33374  0.40778  0.50555  1.0000
  C   C126      1.0  0.59230  0.92467  0.50177  1.0000
  C   C127      1.0  0.92060  0.29027  0.49116  1.0000
  C   C128      1.0  0.71008  0.62936  0.48105  1.0000
  C   C129      1.0  0.36915  0.07549  0.48603  1.0000
  C   C130      1.0  0.08136  0.70953  0.50062  1.0000
  C   C131      1.0  0.29034  0.37271  0.52610  1.0000
  C   C132      1.0  0.63033  0.91985  0.50242  1.0000
  S   S1        1.0  0.97728  0.37777  0.99982  1.0000
  S   S2        1.0  0.62291  0.59867  0.98184  1.0000
  S   S3        1.0  0.40135  0.02431  0.97166  1.0000
  S   S4        1.0  0.02372  0.62079  0.99358  1.0000
  S   S5        1.0  0.37781  0.40544  0.01427  1.0000
  S   S6        1.0  0.59717  0.97988  0.01447  1.0000
  S   S7        1.0  0.97525  0.37896  0.50908  1.0000
  S   S8        1.0  0.62323  0.59490  0.47017  1.0000
  S   S9        1.0  0.40113  0.01905  0.47460  1.0000
  S   S10       1.0  0.02496  0.62136  0.48711  1.0000
  S   S11       1.0  0.37776  0.40203  0.50947  1.0000
  S   S12       1.0  0.59770  0.97592  0.51641  1.0000
  N   N1        1.0  0.91300  0.45456  0.99794  1.0000
  N   N2        1.0  0.54496  0.46101  0.01126  1.0000
  N   N3        1.0  0.54246  0.08871  0.98714  1.0000
  N   N4        1.0  0.08818  0.54447  0.00018  1.0000
  N   N5        1.0  0.45523  0.54154  0.97145  1.0000
  N   N6        1.0  0.45583  0.91548  0.00167  1.0000
  N   N7        1.0  0.91146  0.45489  0.49524  1.0000
  N   N8        1.0  0.54599  0.45793  0.50394  1.0000
  N   N9        1.0  0.54224  0.08452  0.49502  1.0000
  N   N10       1.0  0.08698  0.54356  0.49869  1.0000
  N   N11       1.0  0.45603  0.53931  0.47476  1.0000
  N   N12       1.0  0.45638  0.91074  0.50434  1.0000
  C  Sn1       1.0  0.78114  0.33390  0.97985  1.0000
  C   C133      1.0  0.77567  0.25609  0.03336  1.0000
  C  Sn2       1.0  0.79753  0.30175  0.05392  1.0000
  C  Sn3       1.0  0.84200  0.32085  0.02019  1.0000
  C   C134      1.0  0.84745  0.39866  0.96669  1.0000
  C  Sn4       1.0  0.82561  0.35300  0.94612  1.0000
  O  Te1       1.0  0.75864  0.28834  0.96013  1.0000
  O  Te2       1.0  0.77516  0.32803  0.10761  1.0000
  O  Te3       1.0  0.86449  0.36645  0.03996  1.0000
  O  Te4       1.0  0.84796  0.32672  0.89243  1.0000
  Mg  Mg1       1.0  0.81991  0.38839  0.11575  1.0000
  Mg  Mg2       1.0  0.80324  0.26635  0.88416  1.0000
  C  Sn5       1.0  0.63991  0.56805  0.99696  1.0000
  C   C135      1.0  0.59910  0.55721  0.97217  1.0000
  C  Sn6       1.0  0.56546  0.51654  0.97650  1.0000
  C  Sn7       1.0  0.58897  0.38131  0.00634  1.0000
  C   C136      1.0  0.62975  0.39217  0.03114  1.0000
  C  Sn8       1.0  0.66341  0.43283  0.02680  1.0000
  O  Te5       1.0  0.67306  0.60890  0.99211  1.0000
  O  Te6       1.0  0.52495  0.50643  0.95130  1.0000
  O  Te7       1.0  0.55577  0.34044  0.01117  1.0000
  O  Te8       1.0  0.70391  0.44294  0.05201  1.0000
  Mg  Mg3       1.0  0.49005  0.44663  0.96967  1.0000
  Mg  Mg4       1.0  0.73882  0.50274  0.03376  1.0000
  C  Sn9       1.0  0.60471  0.31195  0.99736  1.0000
  C   C137      1.0  0.59774  0.34208  0.96781  1.0000
  C  Sn10      1.0  0.55679  0.33386  0.95814  1.0000
  C  Sn11      1.0  0.52208  0.29472  0.97854  1.0000
  C   C138      1.0  0.54527  0.15985  0.00809  1.0000
  C  Sn12      1.0  0.58621  0.16805  0.01775  1.0000
  O  Te9       1.0  0.66213  0.21609  0.00655  1.0000
  O  Te10      1.0  0.55061  0.36446  0.92843  1.0000
  O  Te11      1.0  0.48085  0.28584  0.96932  1.0000
  O  Te12      1.0  0.59239  0.13747  0.04747  1.0000
  Mg  Mg5       1.0  0.48857  0.33758  0.92668  1.0000
  Mg  Mg6       1.0  0.65441  0.16433  0.04935  1.0000
  C  Sn13      1.0  0.18176  0.57513  0.98153  1.0000
  C   C139      1.0  0.17490  0.49631  0.04243  1.0000
  C  Sn14      1.0  0.19533  0.54256  0.07108  1.0000
  C  Sn15      1.0  0.23973  0.56332  0.03805  1.0000
  C   C140      1.0  0.24656  0.64215  0.97716  1.0000
  C  Sn16      1.0  0.22616  0.59589  0.94851  1.0000
  O  Te13      1.0  0.16068  0.52894  0.95380  1.0000
  O  Te14      1.0  0.17159  0.56780  0.13206  1.0000
  O  Te15      1.0  0.26080  0.60955  0.06584  1.0000
  O  Te16      1.0  0.24987  0.57066  0.88753  1.0000
  Mg  Mg7       1.0  0.21469  0.62960  0.14968  1.0000
  Mg  Mg8       1.0  0.20681  0.50886  0.86977  1.0000
  C  Sn17      1.0  0.34524  0.57838  0.12536  1.0000
  C   C141      1.0  0.36542  0.61252  0.05909  1.0000
  C  Sn18      1.0  0.38442  0.71845  0.93299  1.0000
  C  Sn19      1.0  0.39978  0.68477  0.87174  1.0000
  C   C142      1.0  0.37960  0.65065  0.93797  1.0000
  C  Sn20      1.0  0.36060  0.54470  0.06412  1.0000
  O  Te17      1.0  0.31008  0.57788  0.25136  1.0000
  O  Te18      1.0  0.40407  0.75292  0.86874  1.0000
  O  Te19      1.0  0.43497  0.68530  0.74565  1.0000
  O  Te20      1.0  0.34095  0.51025  0.12832  1.0000
  Mg  Mg9       1.0  0.45092  0.73912  0.69813  1.0000
  Mg  Mg10      1.0  0.29409  0.52401  0.29885  1.0000
  C  Sn21      1.0  0.43688  0.79619  0.11153  1.0000
  C   C143      1.0  0.39626  0.76804  0.04981  1.0000
  C  Sn22      1.0  0.36500  0.88299  0.94933  1.0000
  C  Sn23      1.0  0.39111  0.92211  0.90959  1.0000
  C   C144      1.0  0.43171  0.95023  0.97127  1.0000
  C  Sn24      1.0  0.46299  0.83531  0.07180  1.0000
  O  Te21      1.0  0.45127  0.78535  0.21175  1.0000
  O  Te22      1.0  0.32427  0.85435  0.88914  1.0000
  O  Te23      1.0  0.37669  0.93293  0.80929  1.0000
  O  Te24      1.0  0.50370  0.86392  0.13194  1.0000
  Mg  Mg11      1.0  0.31892  0.88344  0.75724  1.0000
  Mg  Mg12      1.0  0.50909  0.83485  0.26376  1.0000
  C  Sn25      1.0  0.79379  0.39093  0.37436  1.0000
  C   C145      1.0  0.76088  0.35886  0.43817  1.0000
  C  Sn26      1.0  0.76847  0.34681  0.55519  1.0000
  C  Sn27      1.0  0.80981  0.36726  0.60968  1.0000
  C   C146      1.0  0.84269  0.39931  0.54592  1.0000
  C  Sn28      1.0  0.83513  0.41138  0.42886  1.0000
  O  Te25      1.0  0.78548  0.40247  0.25749  1.0000
  O  Te26      1.0  0.73506  0.31466  0.61713  1.0000
  O  Te27      1.0  0.81810  0.35569  0.72665  1.0000
  O  Te28      1.0  0.86850  0.44352  0.36696  1.0000
  Mg  Mg13      1.0  0.76221  0.31017  0.77441  1.0000
  Mg  Mg14      1.0  0.84138  0.44805  0.20976  1.0000
  C  Sn29      1.0  0.66413  0.44541  0.52292  1.0000
  C   C147      1.0  0.64044  0.40601  0.55753  1.0000
  C  Sn30      1.0  0.59656  0.38482  0.55560  1.0000
  C  Sn31      1.0  0.57593  0.40338  0.51819  1.0000
  C   C148      1.0  0.59961  0.44275  0.48358  1.0000
  C  Sn32      1.0  0.64349  0.46397  0.48551  1.0000
  O  Te29      1.0  0.70796  0.46602  0.52554  1.0000
  O  Te30      1.0  0.57356  0.34548  0.59066  1.0000
  O  Te31      1.0  0.53206  0.38274  0.51560  1.0000
  O  Te32      1.0  0.66649  0.50329  0.45044  1.0000
  Mg  Mg15      1.0  0.51452  0.32975  0.57162  1.0000
  Mg  Mg16      1.0  0.72554  0.51903  0.46935  1.0000
  C  Sn33      1.0  0.59483  0.18937  0.60394  1.0000
  C   C149      1.0  0.55410  0.16180  0.54327  1.0000
  C  Sn34      1.0  0.53955  0.17213  0.44157  1.0000
  C  Sn35      1.0  0.56629  0.21081  0.39951  1.0000
  C   C150      1.0  0.60699  0.23835  0.46013  1.0000
  C  Sn36      1.0  0.62156  0.22804  0.56188  1.0000
  O  Te33      1.0  0.60872  0.17839  0.70541  1.0000
  O  Te34      1.0  0.49870  0.14407  0.38248  1.0000
  O  Te35      1.0  0.55237  0.22177  0.29795  1.0000
  O  Te36      1.0  0.66239  0.25607  0.62092  1.0000
  Mg  Mg17      1.0  0.49420  0.17314  0.24815  1.0000
  Mg  Mg18      1.0  0.66694  0.22703  0.75517  1.0000
  C  Sn37      1.0  0.19554  0.63267  0.38012  1.0000
  C   C151      1.0  0.16178  0.59988  0.43788  1.0000
  C  Sn38      1.0  0.16800  0.58607  0.55201  1.0000
  C  Sn39      1.0  0.20881  0.60545  0.60970  1.0000
  C   C152      1.0  0.24254  0.63822  0.55197  1.0000
  C  Sn40      1.0  0.23636  0.65205  0.43781  1.0000
  O  Te37      1.0  0.18860  0.64597  0.26604  1.0000
  O  Te38      1.0  0.13376  0.55323  0.60791  1.0000
  O  Te39      1.0  0.21573  0.59212  0.72386  1.0000
  O  Te40      1.0  0.27057  0.68488  0.38195  1.0000
  Mg  Mg19      1.0  0.15912  0.54626  0.76335  1.0000
  Mg  Mg20      1.0  0.24524  0.69189  0.22660  1.0000
  C  Sn41      1.0  0.40606  0.59581  0.36560  1.0000
  C   C153      1.0  0.36777  0.59886  0.44656  1.0000
  C  Sn42      1.0  0.34354  0.57963  0.57261  1.0000
  C  Sn43      1.0  0.35789  0.55690  0.61880  1.0000
  C   C154      1.0  0.39615  0.55387  0.53789  1.0000
  C  Sn44      1.0  0.42040  0.57308  0.41179  1.0000
  O  Te41      1.0  0.42977  0.61528  0.23994  1.0000
  O  Te42      1.0  0.30537  0.58310  0.65169  1.0000
  O  Te43      1.0  0.33414  0.53742  0.74456  1.0000
  O  Te44      1.0  0.45856  0.56963  0.33276  1.0000
  Mg  Mg21      1.0  0.28432  0.55110  0.81549  1.0000
  Mg  Mg22      1.0  0.47964  0.60163  0.16902  1.0000
  C  Sn45      1.0  0.46169  0.80446  0.50398  1.0000
  C   C155      1.0  0.45425  0.83340  0.46850  1.0000
  C  Sn46      1.0  0.41312  0.82445  0.45772  1.0000
  C  Sn47      1.0  0.37870  0.78580  0.48306  1.0000
  C   C156      1.0  0.38615  0.75690  0.51856  1.0000
  C  Sn48      1.0  0.42728  0.76581  0.52932  1.0000
  O  Te45      1.0  0.50307  0.81407  0.51417  1.0000
  O  Te46      1.0  0.40646  0.85386  0.42204  1.0000
  O  Te47      1.0  0.33730  0.77621  0.47284  1.0000
  O  Te48      1.0  0.43394  0.73643  0.56502  1.0000
  Mg  Mg23      1.0  0.34435  0.82638  0.42125  1.0000
  Mg  Mg24      1.0  0.49603  0.76389  0.56593  1.0000
