data_image0
_chemical_formula_structural       H60C120S12N24C2Sn2C2HTe2HMgC2Sn2C2HTe2HMgC2Sn2C2HTe2HMgC2Sn2C2HTe2HMgC2Sn2C2HTe2HMgC2Sn2C2HTe2HMgC2Sn2C2HTe2HMgC2Sn2C2HTe2HMgC2Sn2C2HTe2HMgC2Sn2C2HTe2HMgC2Sn2C2HTe2HMgC2Sn2C2HTe2HMg
_chemical_formula_sum              "H84 C168 S12 N24 Sn24 Te24 Mg12"
_cell_length_a       36.1715
_cell_length_b       36.3558
_cell_length_c       8.11322
_cell_angle_alpha    90.054
_cell_angle_beta     116.876
_cell_angle_gamma    119.543

_symmetry_space_group_name_H-M    'P1'
_space_group_IT_number       1

loop_
  _space_group_symop_operation_xyz
  'x, y, z'

loop_
  _atom_site_type_symbol
  _atom_site_label
  _atom_site_symmetry_multiplicity
  _atom_site_fract_x
  _atom_site_fract_y
  _atom_site_fract_z
  _atom_site_occupancy
  H   H1        1.0  0.90120  0.27665  0.56642  1.0000
  H   H2        1.0  0.74325  0.62409  0.55457  1.0000
  H   H3        1.0  0.32768  0.04975  0.33769  1.0000
  H   H4        1.0  0.11393  0.74112  0.49984  1.0000
  H   H5        1.0  0.26076  0.38201  0.46591  1.0000
  H   H6        1.0  0.61589  0.88296  0.42378  1.0000
  H   H7        1.0  0.07763  0.72033  0.10404  1.0000
  H   H8        1.0  0.29729  0.34824  0.09836  1.0000
  H   H9        1.0  0.65876  0.93293  0.09032  1.0000
  H   H10       1.0  0.89011  0.26539  0.07725  1.0000
  H   H11       1.0  0.73591  0.66119  0.16601  1.0000
  H   H12       1.0  0.35474  0.07284  0.07185  1.0000
  H   H13       1.0  0.03950  0.45825  0.00436  1.0000
  H   H14       1.0  0.53486  0.57817  0.00453  1.0000
  H   H15       1.0  0.41864  0.95569  0.02105  1.0000
  H   H16       1.0  0.95522  0.53227  0.01972  1.0000
  H   H17       1.0  0.46458  0.42046  0.00666  1.0000
  H   H18       1.0  0.57651  0.04025  0.01536  1.0000
  H   H19       1.0  0.86228  0.31876  0.04851  1.0000
  H   H20       1.0  0.68527  0.54427  0.02967  1.0000
  H   H21       1.0  0.44336  0.13020  0.92573  1.0000
  H   H22       1.0  0.13093  0.67124  0.96807  1.0000
  H   H23       1.0  0.32359  0.45918  0.04798  1.0000
  H   H24       1.0  0.53170  0.85571  0.93933  1.0000
  H   H25       1.0  0.95541  0.29166  0.18240  1.0000
  H   H26       1.0  0.70458  0.64424  0.91026  1.0000
  H   H27       1.0  0.31898  0.04785  0.81864  1.0000
  H   H28       1.0  0.04293  0.70038  0.84852  1.0000
  H   H29       1.0  0.25973  0.34691  0.85942  1.0000
  H   H30       1.0  0.62806  0.92780  0.83919  1.0000
  H   H31       1.0  0.91515  0.26947  0.92868  1.0000
  H   H32       1.0  0.74105  0.62412  0.04854  1.0000
  H   H33       1.0  0.36301  0.10598  0.91483  1.0000
  H   H34       1.0  0.10879  0.72751  0.97749  1.0000
  H   H35       1.0  0.27171  0.38056  0.05951  1.0000
  H   H36       1.0  0.60863  0.88016  0.92150  1.0000
  H   H37       1.0  0.07320  0.72771  0.58793  1.0000
  H   H38       1.0  0.29407  0.35886  0.60042  1.0000
  H   H39       1.0  0.66626  0.93550  0.59392  1.0000
  H   H40       1.0  0.96705  0.30830  0.72478  1.0000
  H   H41       1.0  0.73811  0.66125  0.67237  1.0000
  H   H42       1.0  0.36883  0.10812  0.40345  1.0000
  H   H43       1.0  0.04727  0.47108  0.50026  1.0000
  H   H44       1.0  0.53637  0.57928  0.49467  1.0000
  H   H45       1.0  0.42905  0.96176  0.52850  1.0000
  H   H46       1.0  0.96053  0.54259  0.51473  1.0000
  H   H47       1.0  0.46669  0.42311  0.51976  1.0000
  H   H48       1.0  0.58544  0.04513  0.51123  1.0000
  H   H49       1.0  0.87371  0.33057  0.55946  1.0000
  H   H50       1.0  0.68805  0.54479  0.54608  1.0000
  H   H51       1.0  0.45091  0.13434  0.41898  1.0000
  H   H52       1.0  0.13916  0.68580  0.48916  1.0000
  H   H53       1.0  0.31622  0.45989  0.47108  1.0000
  H   H54       1.0  0.53761  0.85933  0.42847  1.0000
  H   H55       1.0  0.94082  0.28809  0.47428  1.0000
  H   H56       1.0  0.70760  0.64504  0.41659  1.0000
  H   H57       1.0  0.36763  0.08076  0.58451  1.0000
  H   H58       1.0  0.04834  0.71119  0.33679  1.0000
  H   H59       1.0  0.26401  0.34381  0.34467  1.0000
  H   H60       1.0  0.63682  0.93062  0.34291  1.0000
  C   C1        1.0  0.88647  0.40901  0.00968  1.0000
  C   C2        1.0  0.58700  0.47580  0.99952  1.0000
  C   C3        1.0  0.51775  0.10669  0.99408  1.0000
  C   C4        1.0  0.10647  0.58059  0.00125  1.0000
  C   C5        1.0  0.41283  0.52263  0.01549  1.0000
  C   C6        1.0  0.47186  0.88608  0.99671  1.0000
  C   C7        1.0  0.95276  0.47231  0.01635  1.0000
  C   C8        1.0  0.52344  0.47802  0.00295  1.0000
  C   C9        1.0  0.51874  0.04278  0.01647  1.0000
  C   C10       1.0  0.04168  0.51805  0.00563  1.0000
  C   C11       1.0  0.47601  0.52064  0.00877  1.0000
  C   C12       1.0  0.47551  0.95252  0.01319  1.0000
  C   C13       1.0  0.97723  0.45081  0.01465  1.0000
  C   C14       1.0  0.54431  0.52366  0.00438  1.0000
  C   C15       1.0  0.47296  0.01840  0.01680  1.0000
  C   C16       1.0  0.01784  0.53988  0.01221  1.0000
  C   C17       1.0  0.45529  0.47500  0.00832  1.0000
  C   C18       1.0  0.52133  0.97702  0.01352  1.0000
  C   C19       1.0  0.02073  0.47388  0.00830  1.0000
  C   C20       1.0  0.52018  0.54394  0.00588  1.0000
  C   C21       1.0  0.45285  0.97434  0.01875  1.0000
  C   C22       1.0  0.97419  0.51673  0.01714  1.0000
  C   C23       1.0  0.47925  0.45469  0.00552  1.0000
  C   C24       1.0  0.54232  0.02147  0.01790  1.0000
  C   C25       1.0  0.29045  0.65034  0.01494  1.0000
  C   C26       1.0  0.34549  0.63821  0.00482  1.0000
  C   C27       1.0  0.35957  0.70697  0.02750  1.0000
  C   C28       1.0  0.70036  0.34066  0.97489  1.0000
  C   C29       1.0  0.64775  0.35525  0.99391  1.0000
  C   C30       1.0  0.63253  0.28613  0.97692  1.0000
  C   C31       1.0  0.41048  0.45430  0.01065  1.0000
  C   C32       1.0  0.54064  0.95207  0.00103  1.0000
  C   C33       1.0  0.04151  0.58442  0.00758  1.0000
  C   C34       1.0  0.58982  0.54444  0.00755  1.0000
  C   C35       1.0  0.45059  0.04212  0.00533  1.0000
  C   C36       1.0  0.95392  0.40650  0.02256  1.0000
  C   C37       1.0  0.08511  0.60545  0.99960  1.0000
  C   C38       1.0  0.38901  0.47718  0.01975  1.0000
  C   C39       1.0  0.51667  0.90663  0.98692  1.0000
  C   C40       1.0  0.90900  0.38475  0.02123  1.0000
  C   C41       1.0  0.61284  0.52227  0.00891  1.0000
  C   C42       1.0  0.47040  0.08508  0.98399  1.0000
  C   C43       1.0  0.89428  0.34098  0.03719  1.0000
  C   C44       1.0  0.65962  0.55224  0.02345  1.0000
  C   C45       1.0  0.43765  0.09921  0.95314  1.0000
  C   C46       1.0  0.10016  0.64943  0.98685  1.0000
  C   C47       1.0  0.34525  0.44905  0.02828  1.0000
  C   C48       1.0  0.54340  0.88990  0.96545  1.0000
  C   C49       1.0  0.92605  0.32981  0.04524  1.0000
  C   C50       1.0  0.67081  0.59433  0.02908  1.0000
  C   C51       1.0  0.39605  0.06904  0.95671  1.0000
  C   C52       1.0  0.07021  0.66156  0.99180  1.0000
  C   C53       1.0  0.33304  0.40659  0.01765  1.0000
  C   C54       1.0  0.58584  0.92118  0.96988  1.0000
  C   C55       1.0  0.92164  0.28696  0.05934  1.0000
  C   C56       1.0  0.71548  0.63307  0.03977  1.0000
  C   C57       1.0  0.35593  0.07401  0.93876  1.0000
  C   C58       1.0  0.07500  0.70461  0.97990  1.0000
  C   C59       1.0  0.28818  0.36845  0.00828  1.0000
  C   C60       1.0  0.62237  0.91532  0.95467  1.0000
  C   C61       1.0  0.89462  0.41947  0.51045  1.0000
  C   C62       1.0  0.58826  0.47640  0.50280  1.0000
  C   C63       1.0  0.52652  0.11167  0.48895  1.0000
  C   C64       1.0  0.11384  0.59407  0.50741  1.0000
  C   C65       1.0  0.41511  0.52653  0.50973  1.0000
  C   C66       1.0  0.48002  0.89117  0.49436  1.0000
  C   C67       1.0  0.95922  0.48315  0.51083  1.0000
  C   C68       1.0  0.52505  0.47926  0.50704  1.0000
  C   C69       1.0  0.52793  0.04796  0.51354  1.0000
  C   C70       1.0  0.04823  0.53031  0.50228  1.0000
  C   C71       1.0  0.47814  0.52324  0.50790  1.0000
  C   C72       1.0  0.48492  0.95810  0.51440  1.0000
  C   C73       1.0  0.98429  0.46232  0.50826  1.0000
  C   C74       1.0  0.54554  0.52452  0.50205  1.0000
  C   C75       1.0  0.48256  0.02392  0.51672  1.0000
  C   C76       1.0  0.02350  0.55129  0.50637  1.0000
  C   C77       1.0  0.45785  0.47808  0.51535  1.0000
  C   C78       1.0  0.53030  0.98212  0.51129  1.0000
  C   C79       1.0  0.02776  0.48604  0.50268  1.0000
  C   C80       1.0  0.52177  0.54537  0.50108  1.0000
  C   C81       1.0  0.46274  0.98016  0.52239  1.0000
  C   C82       1.0  0.97977  0.52747  0.51070  1.0000
  C   C83       1.0  0.48146  0.45712  0.51469  1.0000
  C   C84       1.0  0.55138  0.02651  0.51467  1.0000
  C   C85       1.0  0.29759  0.65875  0.52697  1.0000
  C   C86       1.0  0.35058  0.64401  0.51248  1.0000
  C   C87       1.0  0.36491  0.71270  0.52078  1.0000
  C   C88       1.0  0.70804  0.34713  0.47595  1.0000
  C   C89       1.0  0.65405  0.35989  0.49393  1.0000
  C   C90       1.0  0.64056  0.29137  0.47530  1.0000
  C   C91       1.0  0.41280  0.45814  0.51592  1.0000
  C   C92       1.0  0.54918  0.95673  0.49838  1.0000
  C   C93       1.0  0.04695  0.59600  0.50356  1.0000
  C   C94       1.0  0.59100  0.54495  0.50498  1.0000
  C   C95       1.0  0.46008  0.04749  0.50441  1.0000
  C   C96       1.0  0.96218  0.41817  0.51839  1.0000
  C   C97       1.0  0.09196  0.61849  0.50537  1.0000
  C   C98       1.0  0.38974  0.48063  0.50745  1.0000
  C   C99       1.0  0.52443  0.91118  0.48187  1.0000
  C   C100      1.0  0.91795  0.39600  0.52169  1.0000
  C   C101      1.0  0.61431  0.52282  0.51144  1.0000
  C   C102      1.0  0.47926  0.09017  0.48006  1.0000
  C   C103      1.0  0.90494  0.35289  0.54376  1.0000
  C   C104      1.0  0.66174  0.55279  0.53065  1.0000
  C   C105      1.0  0.44606  0.10380  0.44933  1.0000
  C   C106      1.0  0.10697  0.66283  0.49804  1.0000
  C   C107      1.0  0.34229  0.45138  0.48850  1.0000
  C   C108      1.0  0.55047  0.89382  0.45887  1.0000
  C   C109      1.0  0.93751  0.34276  0.55205  1.0000
  C   C110      1.0  0.67274  0.59470  0.53161  1.0000
  C   C111      1.0  0.40513  0.07369  0.45723  1.0000
  C   C112      1.0  0.07498  0.67335  0.49332  1.0000
  C   C113      1.0  0.33091  0.40944  0.48978  1.0000
  C   C114      1.0  0.59377  0.92492  0.46833  1.0000
  C   C115      1.0  0.93668  0.30183  0.58070  1.0000
  C   C116      1.0  0.71789  0.63341  0.54515  1.0000
  C   C117      1.0  0.36508  0.07821  0.44402  1.0000
  C   C118      1.0  0.07775  0.71554  0.47893  1.0000
  C   C119      1.0  0.28502  0.37139  0.47407  1.0000
  C   C120      1.0  0.63024  0.91828  0.45685  1.0000
  S   S1        1.0  0.97625  0.37314  0.04032  1.0000
  S   S2        1.0  0.62429  0.59929  0.01710  1.0000
  S   S3        1.0  0.39470  0.02135  0.99428  1.0000
  S   S4        1.0  0.02121  0.61887  0.00532  1.0000
  S   S5        1.0  0.37640  0.39982  0.00693  1.0000
  S   S6        1.0  0.59465  0.97288  0.99702  1.0000
  S   S7        1.0  0.98595  0.38604  0.53793  1.0000
  S   S8        1.0  0.62546  0.59958  0.51163  1.0000
  S   S9        1.0  0.40480  0.02657  0.49814  1.0000
  S   S10       1.0  0.02467  0.62907  0.49373  1.0000
  S   S11       1.0  0.37789  0.40380  0.51203  1.0000
  S   S12       1.0  0.60376  0.97708  0.49932  1.0000
  N   N1        1.0  0.90892  0.45116  0.01327  1.0000
  N   N2        1.0  0.54460  0.45608  0.99801  1.0000
  N   N3        1.0  0.53999  0.08558  0.01112  1.0000
  N   N4        1.0  0.08445  0.53861  0.00030  1.0000
  N   N5        1.0  0.45432  0.54240  0.01027  1.0000
  N   N6        1.0  0.45313  0.90899  0.00747  1.0000
  N   N7        1.0  0.30166  0.62107  0.99396  1.0000
  N   N8        1.0  0.37573  0.68085  0.02085  1.0000
  N   N9        1.0  0.31845  0.69379  0.03436  1.0000
  N   N10       1.0  0.68978  0.37062  0.99200  1.0000
  N   N11       1.0  0.61822  0.31344  0.99005  1.0000
  N   N12       1.0  0.67234  0.29772  0.96243  1.0000
  N   N13       1.0  0.91574  0.46143  0.51069  1.0000
  N   N14       1.0  0.54602  0.45689  0.50302  1.0000
  N   N15       1.0  0.54889  0.09063  0.50653  1.0000
  N   N16       1.0  0.09154  0.55181  0.50192  1.0000
  N   N17       1.0  0.45716  0.54580  0.50862  1.0000
  N   N18       1.0  0.46240  0.91470  0.51008  1.0000
  N   N19       1.0  0.30858  0.62877  0.51504  1.0000
  N   N20       1.0  0.37968  0.68555  0.51263  1.0000
  N   N21       1.0  0.32505  0.70135  0.53412  1.0000
  N   N22       1.0  0.69637  0.37634  0.49264  1.0000
  N   N23       1.0  0.62557  0.31792  0.49059  1.0000
  N   N24       1.0  0.68051  0.30393  0.46040  1.0000
  C   C121      1.0  0.78805  0.33445  0.90801  1.0000
  C   C122      1.0  0.82709  0.37823  0.95896  1.0000
  C  Sn1       1.0  0.69283  0.34676  0.03362  1.0000
  C  Sn2       1.0  0.65280  0.33718  0.05760  1.0000
  C   C123      1.0  0.61394  0.29327  0.00633  1.0000
  C   C124      1.0  0.74857  0.32497  0.93169  1.0000
  H   H61       1.0  0.78847  0.30791  0.85036  1.0000
  O  Te1       1.0  0.73211  0.39032  0.08371  1.0000
  O  Te2       1.0  0.65171  0.37106  0.13196  1.0000
  H   H62       1.0  0.71835  0.29107  0.89238  1.0000
  Mg  Mg1       1.0  0.71381  0.42509  0.17916  1.0000
  C   C125      1.0  0.66175  0.43948  0.97603  1.0000
  C   C126      1.0  0.50884  0.33224  0.01022  1.0000
  C  Sn3       1.0  0.46699  0.31332  0.02763  1.0000
  C  Sn4       1.0  0.44359  0.33617  0.01037  1.0000
  C   C127      1.0  0.59676  0.44340  0.97602  1.0000
  C   C128      1.0  0.63868  0.46203  0.95890  1.0000
  H   H63       1.0  0.69416  0.45389  0.96267  1.0000
  O  Te3       1.0  0.44870  0.27210  0.06187  1.0000
  O  Te4       1.0  0.40169  0.31801  0.02708  1.0000
  H   H64       1.0  0.65321  0.49395  0.93230  1.0000
  Mg  Mg2       1.0  0.39069  0.26102  0.07374  1.0000
  C   C129      1.0  0.59435  0.17427  0.94452  1.0000
  C   C130      1.0  0.55692  0.15621  0.98856  1.0000
  C  Sn5       1.0  0.40650  0.11547  0.02299  1.0000
  C  Sn6       1.0  0.42813  0.15961  0.01300  1.0000
  C   C131      1.0  0.59963  0.24336  0.96870  1.0000
  C   C132      1.0  0.61569  0.21780  0.93456  1.0000
  H   H65       1.0  0.60676  0.15449  0.91800  1.0000
  O  Te5       1.0  0.36908  0.09692  0.06687  1.0000
  O  Te6       1.0  0.41251  0.18558  0.04669  1.0000
  H   H66       1.0  0.64464  0.23178  0.90035  1.0000
  Mg  Mg3       1.0  0.36039  0.14551  0.10131  1.0000
  C   C133      1.0  0.19549  0.57771  0.93636  1.0000
  C   C134      1.0  0.23541  0.62142  0.99444  1.0000
  C  Sn7       1.0  0.10153  0.58983  0.07272  1.0000
  C  Sn8       1.0  0.06100  0.58020  0.09311  1.0000
  C   C135      1.0  0.02125  0.53636  0.03470  1.0000
  C   C136      1.0  0.15550  0.56818  0.95649  1.0000
  H   H67       1.0  0.19561  0.55126  0.87595  1.0000
  O  Te7       1.0  0.14171  0.63331  0.12994  1.0000
  O  Te8       1.0  0.06028  0.61396  0.17096  1.0000
  H   H68       1.0  0.12460  0.53434  0.91166  1.0000
  Mg  Mg4       1.0  0.12361  0.66792  0.22785  1.0000
  C   C137      1.0  0.32480  0.55075  0.94069  1.0000
  C   C138      1.0  0.21917  0.53089  0.00156  1.0000
  C  Sn9       1.0  0.26931  0.55462  0.05743  1.0000
  C  Sn10      1.0  0.29124  0.53165  0.05205  1.0000
  C   C139      1.0  0.39653  0.55149  0.99080  1.0000
  C   C140      1.0  0.34639  0.52807  0.93527  1.0000
  H   H69       1.0  0.28600  0.53263  0.89762  1.0000
  O  Te9       1.0  0.29722  0.60071  0.11793  1.0000
  O  Te10      1.0  0.34126  0.55455  0.10703  1.0000
  H   H70       1.0  0.32435  0.49235  0.88803  1.0000
  Mg  Mg5       1.0  0.36394  0.61719  0.17875  1.0000
  C   C141      1.0  0.44312  0.77640  0.01698  1.0000
  C   C142      1.0  0.40027  0.75623  0.02801  1.0000
  C  Sn11      1.0  0.37745  0.77854  0.01944  1.0000
  C  Sn12      1.0  0.53211  0.88784  0.99940  1.0000
  C   C143      1.0  0.57497  0.90772  0.98835  1.0000
  C   C144      1.0  0.59750  0.88510  0.99713  1.0000
  H   H71       1.0  0.46054  0.75889  0.02367  1.0000
  O  Te11      1.0  0.33467  0.75790  0.03074  1.0000
  O  Te12      1.0  0.51005  0.91088  0.99039  1.0000
  H   H72       1.0  0.63066  0.90071  0.98846  1.0000
  Mg  Mg6       1.0  0.31814  0.80278  0.01193  1.0000
  C   C145      1.0  0.79763  0.34352  0.41306  1.0000
  C   C146      1.0  0.83601  0.38766  0.46490  1.0000
  C  Sn13      1.0  0.83483  0.42140  0.53997  1.0000
  C  Sn14      1.0  0.79443  0.41067  0.56344  1.0000
  C   C147      1.0  0.75623  0.36641  0.51127  1.0000
  C   C148      1.0  0.75778  0.33290  0.43623  1.0000
  H   H73       1.0  0.79884  0.31759  0.35510  1.0000
  O  Te13      1.0  0.87347  0.46533  0.59096  1.0000
  O  Te14      1.0  0.79233  0.44374  0.63819  1.0000
  H   H74       1.0  0.72807  0.29873  0.39622  1.0000
  Mg  Mg7       1.0  0.85384  0.49869  0.68663  1.0000
  C   C149      1.0  0.58923  0.37941  0.52916  1.0000
  C   C150      1.0  0.62415  0.38358  0.48587  1.0000
  C  Sn15      1.0  0.65275  0.42234  0.45198  1.0000
  C  Sn16      1.0  0.64621  0.45752  0.46176  1.0000
  C   C151      1.0  0.61121  0.45303  0.50530  1.0000
  C   C152      1.0  0.58277  0.41409  0.53890  1.0000
  H   H75       1.0  0.56725  0.34929  0.55526  1.0000
  O  Te15      1.0  0.68745  0.42596  0.40885  1.0000
  O  Te16      1.0  0.67431  0.49663  0.42859  1.0000
  H   H76       1.0  0.55577  0.41088  0.57253  1.0000
  Mg  Mg8       1.0  0.71689  0.48579  0.37492  1.0000
  C   C153      1.0  0.62129  0.20400  0.45562  1.0000
  C   C154      1.0  0.61524  0.23873  0.47022  1.0000
  C  Sn17      1.0  0.57848  0.23342  0.50371  1.0000
  C  Sn18      1.0  0.54728  0.19253  0.52294  1.0000
  C   C155      1.0  0.55366  0.15799  0.50824  1.0000
  C   C156      1.0  0.59054  0.16366  0.47464  1.0000
  H   H77       1.0  0.64985  0.20839  0.42972  1.0000
  O  Te17      1.0  0.57292  0.26846  0.51784  1.0000
  O  Te18      1.0  0.51026  0.18632  0.55654  1.0000
  H   H78       1.0  0.59524  0.13677  0.46347  1.0000
  Mg  Mg9       1.0  0.51717  0.24392  0.56451  1.0000
  C   C157      1.0  0.20159  0.58855  0.44515  1.0000
  C   C158      1.0  0.24253  0.63180  0.50509  1.0000
  C  Sn19      1.0  0.24395  0.66699  0.58383  1.0000
  C  Sn20      1.0  0.20358  0.65863  0.60278  1.0000
  C   C159      1.0  0.16281  0.61524  0.54251  1.0000
  C   C160      1.0  0.16177  0.58027  0.46386  1.0000
  H   H79       1.0  0.20079  0.56149  0.38439  1.0000
  O  Te19      1.0  0.28513  0.71000  0.64292  1.0000
  O  Te20      1.0  0.20405  0.69319  0.68105  1.0000
  H   H80       1.0  0.13008  0.54679  0.41757  1.0000
  Mg  Mg10      1.0  0.26846  0.74607  0.74071  1.0000
  C   C161      1.0  0.41217  0.62210  0.46517  1.0000
  C   C162      1.0  0.37503  0.61692  0.49569  1.0000
  C  Sn21      1.0  0.34921  0.57995  0.54593  1.0000
  C  Sn22      1.0  0.36089  0.54763  0.56592  1.0000
  C   C163      1.0  0.39813  0.55313  0.53521  1.0000
  C   C164      1.0  0.42372  0.59025  0.48493  1.0000
  H   H81       1.0  0.43199  0.65083  0.42637  1.0000
  O  Te21      1.0  0.31220  0.57528  0.57583  1.0000
  O  Te22      1.0  0.33568  0.51037  0.61607  1.0000
  H   H82       1.0  0.45250  0.59426  0.46143  1.0000
  Mg  Mg11      1.0  0.28826  0.51877  0.64180  1.0000
  C   C165      1.0  0.46624  0.80523  0.52145  1.0000
  C   C166      1.0  0.45580  0.83775  0.49687  1.0000
  C  Sn23      1.0  0.41262  0.83013  0.48386  1.0000
  C  Sn24      1.0  0.37935  0.78917  0.49577  1.0000
  C   C167      1.0  0.39015  0.75687  0.52050  1.0000
  C   C168      1.0  0.43346  0.76483  0.53329  1.0000
  H   H83       1.0  0.49976  0.81139  0.53145  1.0000
  O  Te23      1.0  0.40274  0.86298  0.45925  1.0000
  O  Te24      1.0  0.33593  0.78070  0.48328  1.0000
  H   H84       1.0  0.44155  0.73965  0.55244  1.0000
  Mg  Mg12      1.0  0.33877  0.83581  0.44993  1.0000
