data_image0
_chemical_formula_structural       H108C180N12O12SnCSn2CSnTe4Mg2SnCSn2CSnTe4Mg2SnCSn2CSnTe4Mg2SnCSn2CSnTe4Mg2SnCSn2CSnTe4Mg2SnCSn2CSnTe4Mg2SnCSn2CSnTe4Mg2SnCSn2CSnTe4Mg2SnCSn2CSnTe4Mg2SnCSn2CSnTe4Mg2SnCSn2CSnTe4Mg2SnCSn2CSnTe4Mg2
_chemical_formula_sum              "H108 C204 N12 O12 Sn48 Te48 Mg24"
_cell_length_a       36.8471
_cell_length_b       36.9439
_cell_length_c       7.94349
_cell_angle_alpha    90.8113
_cell_angle_beta     90.7457
_cell_angle_gamma    120.422

_symmetry_space_group_name_H-M    'P1'
_space_group_IT_number       1

loop_
  _space_group_symop_operation_xyz
  'x, y, z'

loop_
  _atom_site_type_symbol
  _atom_site_label
  _atom_site_symmetry_multiplicity
  _atom_site_fract_x
  _atom_site_fract_y
  _atom_site_fract_z
  _atom_site_occupancy
  H   H1        1.0  0.44566  0.67958  0.45452  1.0000
  H   H2        1.0  0.32511  0.76257  0.44675  1.0000
  H   H3        1.0  0.24081  0.55964  0.43146  1.0000
  H   H4        1.0  0.56018  0.32467  0.46669  1.0000
  H   H5        1.0  0.68038  0.24133  0.44604  1.0000
  H   H6        1.0  0.76313  0.44520  0.40318  1.0000
  H   H7        1.0  0.48105  0.42610  0.23105  1.0000
  H   H8        1.0  0.57728  0.05388  0.23729  1.0000
  H   H9        1.0  0.94932  0.52437  0.22484  1.0000
  H   H10       1.0  0.52433  0.57553  0.20476  1.0000
  H   H11       1.0  0.42697  0.94606  0.21709  1.0000
  H   H12       1.0  0.05420  0.47949  0.21711  1.0000
  H   H13       1.0  0.42551  0.41083  0.43847  1.0000
  H   H14       1.0  0.60343  0.02108  0.41705  1.0000
  H   H15       1.0  0.99125  0.58085  0.44386  1.0000
  H   H16       1.0  0.58790  0.59000  0.42708  1.0000
  H   H17       1.0  0.38442  0.96932  0.26201  1.0000
  H   H18       1.0  0.01551  0.42339  0.42172  1.0000
  H   H19       1.0  0.41353  0.38246  0.24073  1.0000
  H   H20       1.0  0.61860  0.02891  0.19957  1.0000
  H   H21       1.0  0.97497  0.59234  0.24749  1.0000
  H   H22       1.0  0.59124  0.61889  0.24186  1.0000
  H   H23       1.0  0.38994  0.01875  0.32379  1.0000
  H   H24       1.0  0.02904  0.41197  0.21938  1.0000
  H   H25       1.0  0.37364  0.38786  0.34460  1.0000
  H   H26       1.0  0.62018  0.98844  0.31638  1.0000
  H   H27       1.0  0.02147  0.63207  0.35581  1.0000
  H   H28       1.0  0.63544  0.61444  0.30829  1.0000
  H   H29       1.0  0.41563  0.99736  0.44553  1.0000
  H   H30       1.0  0.98431  0.37219  0.32519  1.0000
  H   H31       1.0  0.38763  0.47511  0.12975  1.0000
  H   H32       1.0  0.52645  0.91035  0.12836  1.0000
  H   H33       1.0  0.09203  0.61489  0.12648  1.0000
  H   H34       1.0  0.61678  0.52435  0.12733  1.0000
  H   H35       1.0  0.47722  0.08727  0.11722  1.0000
  H   H36       1.0  0.91097  0.38755  0.12131  1.0000
  H   H37       1.0  0.33494  0.56955  0.26226  1.0000
  H   H38       1.0  0.43230  0.76248  0.24492  1.0000
  H   H39       1.0  0.24134  0.66848  0.25119  1.0000
  H   H40       1.0  0.66813  0.42868  0.25422  1.0000
  H   H41       1.0  0.56965  0.23646  0.24651  1.0000
  H   H42       1.0  0.76352  0.33365  0.24964  1.0000
  H   H43       1.0  0.20788  0.41749  0.07369  1.0000
  H   H44       1.0  0.58082  0.78733  0.04686  1.0000
  H   H45       1.0  0.21815  0.79436  0.07506  1.0000
  H   H46       1.0  0.79588  0.57906  0.07654  1.0000
  H   H47       1.0  0.41757  0.20712  0.06044  1.0000
  H   H48       1.0  0.78651  0.20777  0.07007  1.0000
  H   H49       1.0  0.48757  0.64376  0.41454  1.0000
  H   H50       1.0  0.35996  0.84037  0.40581  1.0000
  H   H51       1.0  0.16245  0.51745  0.39072  1.0000
  H   H52       1.0  0.51935  0.36183  0.43104  1.0000
  H   H53       1.0  0.64583  0.16320  0.41213  1.0000
  H   H54       1.0  0.84114  0.48796  0.36242  1.0000
  H   H55       1.0  0.44346  0.67922  0.96109  1.0000
  H   H56       1.0  0.32134  0.76099  0.92407  1.0000
  H   H57       1.0  0.23922  0.55822  0.92669  1.0000
  H   H58       1.0  0.55769  0.32333  0.97851  1.0000
  H   H59       1.0  0.67580  0.23899  0.96269  1.0000
  H   H60       1.0  0.75997  0.44400  0.88719  1.0000
  H   H61       1.0  0.47560  0.42365  0.74370  1.0000
  H   H62       1.0  0.57167  0.05442  0.68282  1.0000
  H   H63       1.0  0.94613  0.52134  0.73025  1.0000
  H   H64       1.0  0.51873  0.57300  0.72667  1.0000
  H   H65       1.0  0.42289  0.94652  0.74481  1.0000
  H   H66       1.0  0.05130  0.47686  0.72304  1.0000
  H   H67       1.0  0.41910  0.40433  0.93911  1.0000
  H   H68       1.0  0.60488  0.02737  0.83496  1.0000
  H   H69       1.0  0.98304  0.57541  0.94266  1.0000
  H   H70       1.0  0.57890  0.59658  0.91939  1.0000
  H   H71       1.0  0.40223  0.98266  0.93815  1.0000
  H   H72       1.0  0.01004  0.41898  0.92796  1.0000
  H   H73       1.0  0.40843  0.38046  0.73216  1.0000
  H   H74       1.0  0.61093  0.98289  0.79214  1.0000
  H   H75       1.0  0.97176  0.58902  0.74013  1.0000
  H   H76       1.0  0.58599  0.61674  0.71035  1.0000
  H   H77       1.0  0.38044  0.97005  0.72748  1.0000
  H   H78       1.0  0.02599  0.40915  0.72740  1.0000
  H   H79       1.0  0.36771  0.38304  0.84266  1.0000
  H   H80       1.0  0.57239  0.97884  0.93835  1.0000
  H   H81       1.0  0.01532  0.62764  0.86711  1.0000
  H   H82       1.0  0.62843  0.61559  0.81858  1.0000
  H   H83       1.0  0.38157  0.01265  0.84297  1.0000
  H   H84       1.0  0.97989  0.36848  0.82394  1.0000
  H   H85       1.0  0.38253  0.47434  0.63226  1.0000
  H   H86       1.0  0.52319  0.91283  0.62118  1.0000
  H   H87       1.0  0.08863  0.61221  0.63267  1.0000
  H   H88       1.0  0.61112  0.52238  0.64205  1.0000
  H   H89       1.0  0.47143  0.08934  0.62857  1.0000
  H   H90       1.0  0.90776  0.38470  0.62164  1.0000
  H   H91       1.0  0.33241  0.57139  0.75956  1.0000
  H   H92       1.0  0.43231  0.76483  0.74630  1.0000
  H   H93       1.0  0.23786  0.66658  0.75062  1.0000
  H   H94       1.0  0.66460  0.42872  0.76696  1.0000
  H   H95       1.0  0.56742  0.23811  0.75622  1.0000
  H   H96       1.0  0.75973  0.33158  0.74392  1.0000
  H   H97       1.0  0.20383  0.42309  0.55410  1.0000
  H   H98       1.0  0.58435  0.79498  0.55984  1.0000
  H   H99       1.0  0.21622  0.79170  0.58074  1.0000
  H   H100      1.0  0.78963  0.58017  0.58267  1.0000
  H   H101      1.0  0.42369  0.21833  0.53075  1.0000
  H   H102      1.0  0.78431  0.20524  0.56529  1.0000
  H   H103      1.0  0.48352  0.64095  0.93374  1.0000
  H   H104      1.0  0.35506  0.83860  0.88914  1.0000
  H   H105      1.0  0.16056  0.51548  0.89356  1.0000
  H   H106      1.0  0.51508  0.35845  0.93734  1.0000
  H   H107      1.0  0.64067  0.16129  0.91255  1.0000
  H   H108      1.0  0.83811  0.48632  0.84718  1.0000
  C   C1        1.0  0.36309  0.64672  0.37189  1.0000
  C   C2        1.0  0.35506  0.71265  0.36670  1.0000
  C   C3        1.0  0.29107  0.64396  0.36332  1.0000
  C   C4        1.0  0.63925  0.35178  0.36631  1.0000
  C   C5        1.0  0.64464  0.28884  0.35894  1.0000
  C   C6        1.0  0.71418  0.36126  0.35485  1.0000
  C   C7        1.0  0.37292  0.68778  0.37478  1.0000
  C   C8        1.0  0.31100  0.68810  0.36659  1.0000
  C   C9        1.0  0.32081  0.63218  0.37147  1.0000
  C   C10       1.0  0.61968  0.30783  0.35976  1.0000
  C   C11       1.0  0.68653  0.31890  0.36043  1.0000
  C   C12       1.0  0.68229  0.36966  0.36682  1.0000
  C   C13       1.0  0.39992  0.50642  0.18341  1.0000
  C   C14       1.0  0.49530  0.89107  0.17847  1.0000
  C   C15       1.0  0.11155  0.60316  0.17619  1.0000
  C   C16       1.0  0.60478  0.49374  0.18166  1.0000
  C   C17       1.0  0.50819  0.10740  0.17359  1.0000
  C   C18       1.0  0.89190  0.39986  0.16983  1.0000
  C   C19       1.0  0.38776  0.62610  0.35790  1.0000
  C   C20       1.0  0.37713  0.75829  0.34780  1.0000
  C   C21       1.0  0.24536  0.61695  0.34149  1.0000
  C   C22       1.0  0.61644  0.37467  0.35725  1.0000
  C   C23       1.0  0.62654  0.24325  0.34383  1.0000
  C   C24       1.0  0.75931  0.38664  0.32994  1.0000
  C   C25       1.0  0.36834  0.58525  0.29430  1.0000
  C   C26       1.0  0.41691  0.77984  0.28057  1.0000
  C   C27       1.0  0.22328  0.63525  0.27874  1.0000
  C   C28       1.0  0.63555  0.41453  0.29145  1.0000
  C   C29       1.0  0.58574  0.21968  0.27999  1.0000
  C   C30       1.0  0.78096  0.36740  0.27337  1.0000
  C   C31       1.0  0.39118  0.56449  0.26776  1.0000
  C   C32       1.0  0.43733  0.82359  0.25477  1.0000
  C   C33       1.0  0.17927  0.61226  0.25194  1.0000
  C   C34       1.0  0.61340  0.43612  0.26775  1.0000
  C   C35       1.0  0.56563  0.17579  0.25670  1.0000
  C   C36       1.0  0.82461  0.39083  0.24450  1.0000
  C   C37       1.0  0.43540  0.58666  0.31131  1.0000
  C   C38       1.0  0.41592  0.84563  0.30084  1.0000
  C   C39       1.0  0.15703  0.56859  0.29422  1.0000
  C   C40       1.0  0.57004  0.41574  0.31599  1.0000
  C   C41       1.0  0.58822  0.15509  0.30458  1.0000
  C   C42       1.0  0.84671  0.43532  0.28066  1.0000
  C   C43       1.0  0.45431  0.62828  0.37988  1.0000
  C   C44       1.0  0.37503  0.82273  0.36928  1.0000
  C   C45       1.0  0.18030  0.55036  0.35789  1.0000
  C   C46       1.0  0.55163  0.37555  0.38992  1.0000
  C   C47       1.0  0.62987  0.17978  0.37302  1.0000
  C   C48       1.0  0.82353  0.45429  0.33671  1.0000
  C   C49       1.0  0.43126  0.64779  0.40184  1.0000
  C   C50       1.0  0.35614  0.78029  0.39226  1.0000
  C   C51       1.0  0.22336  0.57372  0.38040  1.0000
  C   C52       1.0  0.57405  0.35535  0.40954  1.0000
  C   C53       1.0  0.64874  0.22276  0.39153  1.0000
  C   C54       1.0  0.78086  0.43072  0.35977  1.0000
  C   C55       1.0  0.44320  0.53049  0.23105  1.0000
  C   C56       1.0  0.47203  0.91025  0.22949  1.0000
  C   C57       1.0  0.09212  0.56063  0.22499  1.0000
  C   C58       1.0  0.56210  0.47107  0.23045  1.0000
  C   C59       1.0  0.53227  0.08937  0.22849  1.0000
  C   C60       1.0  0.91145  0.44307  0.21692  1.0000
  C   C61       1.0  0.47199  0.51373  0.21603  1.0000
  C   C62       1.0  0.48897  0.95610  0.22268  1.0000
  C   C63       1.0  0.04587  0.53213  0.21767  1.0000
  C   C64       1.0  0.53319  0.48778  0.21435  1.0000
  C   C65       1.0  0.51537  0.04346  0.22061  1.0000
  C   C66       1.0  0.95759  0.47171  0.21306  1.0000
  C   C67       1.0  0.45960  0.47070  0.22201  1.0000
  C   C68       1.0  0.53228  0.98719  0.23168  1.0000
  C   C69       1.0  0.01564  0.54498  0.22450  1.0000
  C   C70       1.0  0.54550  0.53070  0.20566  1.0000
  C   C71       1.0  0.47215  0.01246  0.21767  1.0000
  C   C72       1.0  0.98789  0.45892  0.21587  1.0000
  C   C73       1.0  0.48982  0.45878  0.22037  1.0000
  C   C74       1.0  0.54441  0.02946  0.22802  1.0000
  C   C75       1.0  0.97294  0.51512  0.21882  1.0000
  C   C76       1.0  0.51523  0.54262  0.20610  1.0000
  C   C77       1.0  0.46005  0.97016  0.21770  1.0000
  C   C78       1.0  0.03057  0.48876  0.21456  1.0000
  C   C79       1.0  0.40735  0.40344  0.31933  1.0000
  C   C80       1.0  0.60335  0.00550  0.29794  1.0000
  C   C81       1.0  0.00228  0.59834  0.32674  1.0000
  C   C82       1.0  0.60096  0.59820  0.30040  1.0000
  C   C83       1.0  0.40600  0.00065  0.31775  1.0000
  C   C84       1.0  0.00285  0.40588  0.30186  1.0000
  C   C85       1.0  0.37332  0.52237  0.20263  1.0000
  C   C86       1.0  0.47892  0.84817  0.19125  1.0000
  C   C87       1.0  0.15478  0.62975  0.19055  1.0000
  C   C88       1.0  0.63111  0.47740  0.20150  1.0000
  C   C89       1.0  0.52360  0.15013  0.19056  1.0000
  C   C90       1.0  0.84897  0.37317  0.18510  1.0000
  C   C91       1.0  0.36319  0.65046  0.86926  1.0000
  C   C92       1.0  0.35772  0.71323  0.85574  1.0000
  C   C93       1.0  0.28812  0.64092  0.85677  1.0000
  C   C94       1.0  0.63702  0.35187  0.88530  1.0000
  C   C95       1.0  0.64194  0.28864  0.88128  1.0000
  C   C96       1.0  0.71091  0.36022  0.84527  1.0000
  C   C97       1.0  0.38286  0.69448  0.86599  1.0000
  C   C98       1.0  0.31561  0.68350  0.85594  1.0000
  C   C99       1.0  0.32024  0.63301  0.86832  1.0000
  C   C100      1.0  0.61788  0.30818  0.90401  1.0000
  C   C101      1.0  0.68355  0.31813  0.86328  1.0000
  C   C102      1.0  0.67965  0.36936  0.86572  1.0000
  C   C103      1.0  0.39509  0.50546  0.68867  1.0000
  C   C104      1.0  0.49237  0.89303  0.67295  1.0000
  C   C105      1.0  0.10814  0.60052  0.68297  1.0000
  C   C106      1.0  0.59929  0.49170  0.69564  1.0000
  C   C107      1.0  0.50320  0.10910  0.67874  1.0000
  C   C108      1.0  0.88860  0.39716  0.66731  1.0000
  C   C109      1.0  0.38554  0.62711  0.86002  1.0000
  C   C110      1.0  0.37552  0.75856  0.83596  1.0000
  C   C111      1.0  0.24252  0.61513  0.83982  1.0000
  C   C112      1.0  0.61370  0.37423  0.87315  1.0000
  C   C113      1.0  0.62315  0.24300  0.85981  1.0000
  C   C114      1.0  0.75595  0.38515  0.81813  1.0000
  C   C115      1.0  0.36550  0.58622  0.79633  1.0000
  C   C116      1.0  0.41598  0.78163  0.77583  1.0000
  C   C117      1.0  0.22030  0.63350  0.78058  1.0000
  C   C118      1.0  0.63200  0.41383  0.80501  1.0000
  C   C119      1.0  0.58296  0.22074  0.78875  1.0000
  C   C120      1.0  0.77741  0.36545  0.76444  1.0000
  C   C121      1.0  0.38743  0.56434  0.77284  1.0000
  C   C122      1.0  0.43562  0.82525  0.75176  1.0000
  C   C123      1.0  0.17618  0.61008  0.75670  1.0000
  C   C124      1.0  0.60900  0.43456  0.78010  1.0000
  C   C125      1.0  0.56231  0.17693  0.75888  1.0000
  C   C126      1.0  0.82114  0.38853  0.73632  1.0000
  C   C127      1.0  0.43121  0.58517  0.82280  1.0000
  C   C128      1.0  0.41286  0.84617  0.79383  1.0000
  C   C129      1.0  0.15430  0.56647  0.79970  1.0000
  C   C130      1.0  0.56555  0.41352  0.82712  1.0000
  C   C131      1.0  0.58404  0.15529  0.80453  1.0000
  C   C132      1.0  0.84339  0.43316  0.77015  1.0000
  C   C133      1.0  0.45072  0.62662  0.89313  1.0000
  C   C134      1.0  0.37138  0.82194  0.85603  1.0000
  C   C135      1.0  0.17799  0.54842  0.86086  1.0000
  C   C136      1.0  0.54770  0.37320  0.89963  1.0000
  C   C137      1.0  0.62541  0.17875  0.87645  1.0000
  C   C138      1.0  0.82037  0.45258  0.82310  1.0000
  C   C139      1.0  0.42871  0.64731  0.90945  1.0000
  C   C140      1.0  0.35300  0.77927  0.87554  1.0000
  C   C141      1.0  0.22109  0.57194  0.87943  1.0000
  C   C142      1.0  0.57104  0.35407  0.92235  1.0000
  C   C143      1.0  0.64461  0.22150  0.90346  1.0000
  C   C144      1.0  0.77765  0.42933  0.84530  1.0000
  C   C145      1.0  0.43795  0.52832  0.74304  1.0000
  C   C146      1.0  0.46808  0.91133  0.72126  1.0000
  C   C147      1.0  0.08905  0.55809  0.73299  1.0000
  C   C148      1.0  0.55671  0.46861  0.74495  1.0000
  C   C149      1.0  0.52702  0.09035  0.72795  1.0000
  C   C150      1.0  0.90826  0.44044  0.71301  1.0000
  C   C151      1.0  0.46650  0.51120  0.73125  1.0000
  C   C152      1.0  0.48443  0.95711  0.71177  1.0000
  C   C153      1.0  0.04283  0.52940  0.72532  1.0000
  C   C154      1.0  0.52777  0.48535  0.73180  1.0000
  C   C155      1.0  0.51010  0.04449  0.71562  1.0000
  C   C156      1.0  0.95454  0.46888  0.71389  1.0000
  C   C157      1.0  0.45402  0.46820  0.73707  1.0000
  C   C158      1.0  0.52710  0.98842  0.69568  1.0000
  C   C159      1.0  0.01253  0.54217  0.73346  1.0000
  C   C160      1.0  0.54021  0.52843  0.72873  1.0000
  C   C161      1.0  0.46728  0.01319  0.73346  1.0000
  C   C162      1.0  0.98486  0.45607  0.71790  1.0000
  C   C163      1.0  0.48434  0.45635  0.73523  1.0000
  C   C164      1.0  0.53876  0.03059  0.69554  1.0000
  C   C165      1.0  0.96987  0.51227  0.72375  1.0000
  C   C166      1.0  0.50982  0.54017  0.72624  1.0000
  C   C167      1.0  0.45538  0.97096  0.72931  1.0000
  C   C168      1.0  0.02758  0.48604  0.71983  1.0000
  C   C169      1.0  0.40157  0.39946  0.81978  1.0000
  C   C170      1.0  0.58827  0.99294  0.82035  1.0000
  C   C171      1.0  0.99696  0.59429  0.83063  1.0000
  C   C172      1.0  0.59420  0.59914  0.79876  1.0000
  C   C173      1.0  0.39838  0.99572  0.82020  1.0000
  C   C174      1.0  0.99889  0.40240  0.80547  1.0000
  C   C175      1.0  0.36922  0.52243  0.70449  1.0000
  C   C176      1.0  0.47731  0.85053  0.69052  1.0000
  C   C177      1.0  0.15134  0.62717  0.69610  1.0000
  C   C178      1.0  0.62599  0.47576  0.71414  1.0000
  C   C179      1.0  0.52021  0.15219  0.69193  1.0000
  C   C180      1.0  0.84556  0.37055  0.68086  1.0000
  N   N1        1.0  0.46040  0.56975  0.29300  1.0000
  N   N2        1.0  0.43299  0.88770  0.28690  1.0000
  N   N3        1.0  0.11453  0.54374  0.28080  1.0000
  N   N4        1.0  0.54541  0.43302  0.29692  1.0000
  N   N5        1.0  0.57147  0.11285  0.29159  1.0000
  N   N6        1.0  0.88901  0.46034  0.26785  1.0000
  N   N7        1.0  0.45537  0.56729  0.80810  1.0000
  N   N8        1.0  0.42913  0.88817  0.77939  1.0000
  N   N9        1.0  0.11179  0.54148  0.78812  1.0000
  N   N10       1.0  0.54041  0.43028  0.80868  1.0000
  N   N11       1.0  0.56665  0.11306  0.78705  1.0000
  N   N12       1.0  0.88573  0.45796  0.75959  1.0000
  O   O1        1.0  0.41718  0.44130  0.23451  1.0000
  O   O2        1.0  0.56122  0.97407  0.24903  1.0000
  O   O3        1.0  0.02960  0.58747  0.24102  1.0000
  O   O4        1.0  0.58804  0.56066  0.20082  1.0000
  O   O5        1.0  0.44218  0.02472  0.21642  1.0000
  O   O6        1.0  0.97412  0.41647  0.22490  1.0000
  O   O7        1.0  0.41154  0.43898  0.75001  1.0000
  O   O8        1.0  0.55867  0.97833  0.68010  1.0000
  O   O9        1.0  0.02643  0.58445  0.75762  1.0000
  O   O10       1.0  0.58277  0.55822  0.73339  1.0000
  O   O11       1.0  0.43863  0.02634  0.75855  1.0000
  O   O12       1.0  0.97105  0.41357  0.72423  1.0000
  C  Sn1       1.0  0.30173  0.44112  0.17757  1.0000
  C   C181      1.0  0.32612  0.48313  0.13293  1.0000
  C  Sn2       1.0  0.30688  0.50539  0.07962  1.0000
  C  Sn3       1.0  0.26233  0.48526  0.07083  1.0000
  C   C182      1.0  0.23797  0.44329  0.11547  1.0000
  C  Sn4       1.0  0.25718  0.42099  0.16877  1.0000
  O  Te1       1.0  0.32164  0.41947  0.23052  1.0000
  O  Te2       1.0  0.33192  0.54736  0.03560  1.0000
  O  Te3       1.0  0.24243  0.50695  0.01782  1.0000
  O  Te4       1.0  0.23216  0.37906  0.21280  1.0000
  Mg  Mg1       1.0  0.29596  0.56960  0.97123  1.0000
  Mg  Mg2       1.0  0.27394  0.36279  0.27727  1.0000
  C  Sn5       1.0  0.55960  0.85776  0.16441  1.0000
  C   C183      1.0  0.51710  0.84024  0.11910  1.0000
  C  Sn6       1.0  0.49377  0.79877  0.05872  1.0000
  C  Sn7       1.0  0.51332  0.77428  0.04339  1.0000
  C   C184      1.0  0.55579  0.79179  0.08870  1.0000
  C  Sn8       1.0  0.57915  0.83327  0.14908  1.0000
  O  Te5       1.0  0.58231  0.89929  0.22448  1.0000
  O  Te6       1.0  0.45133  0.78195  0.01417  1.0000
  O  Te7       1.0  0.49642  0.73872  0.98325  1.0000
  O  Te8       1.0  0.62156  0.85009  0.19364  1.0000
  Mg  Mg3       1.0  0.43948  0.72990  0.93884  1.0000
  Mg  Mg4       1.0  0.63928  0.90812  0.26906  1.0000
  C  Sn9       1.0  0.16930  0.73203  0.23885  1.0000
  C   C185      1.0  0.20478  0.75938  0.14844  1.0000
  C  Sn10      1.0  0.22370  0.74367  0.04188  1.0000
  C  Sn11      1.0  0.20680  0.69969  0.02524  1.0000
  C   C186      1.0  0.17134  0.67237  0.11559  1.0000
  C  Sn12      1.0  0.15240  0.68806  0.22221  1.0000
  O  Te9       1.0  0.15090  0.74844  0.34464  1.0000
  O  Te10      1.0  0.26501  0.77763  0.95283  1.0000
  O  Te11      1.0  0.23109  0.68930  0.91935  1.0000
  O  Te12      1.0  0.11696  0.66012  0.31120  1.0000
  Mg  Mg5       1.0  0.27889  0.74007  0.82441  1.0000
  Mg  Mg6       1.0  0.10304  0.69765  0.43958  1.0000
  C  Sn13      1.0  0.73590  0.51846  0.99927  1.0000
  C   C187      1.0  0.75601  0.55413  0.05408  1.0000
  C  Sn14      1.0  0.74310  0.57123  0.18163  1.0000
  C  Sn15      1.0  0.70342  0.54616  0.25605  1.0000
  C   C188      1.0  0.67748  0.50452  0.20126  1.0000
  C  Sn16      1.0  0.69037  0.48739  0.07368  1.0000
  O  Te13      1.0  0.74945  0.50202  0.87158  1.0000
  O  Te14      1.0  0.76959  0.61297  0.23428  1.0000
  O  Te15      1.0  0.68988  0.56265  0.38383  1.0000
  O  Te16      1.0  0.66390  0.44568  0.02106  1.0000
  Mg  Mg7       1.0  0.73715  0.62113  0.41244  1.0000
  Mg  Mg8       1.0  0.70217  0.44349  0.84298  1.0000
  C  Sn17      1.0  0.50827  0.21590  0.09267  1.0000
  C   C189      1.0  0.50059  0.17973  0.17626  1.0000
  C  Sn18      1.0  0.45936  0.14789  0.20522  1.0000
  C  Sn19      1.0  0.42510  0.15227  0.14938  1.0000
  C   C190      1.0  0.43279  0.18842  0.06582  1.0000
  C  Sn20      1.0  0.47401  0.22028  0.03683  1.0000
  O  Te17      1.0  0.54974  0.24733  0.06508  1.0000
  O  Te18      1.0  0.45247  0.11203  0.28911  1.0000
  O  Te19      1.0  0.38360  0.12080  0.17705  1.0000
  O  Te20      1.0  0.48676  0.26212  0.95297  1.0000
  Mg  Mg9       1.0  0.39032  0.07786  0.29686  1.0000
  Mg  Mg10      1.0  0.54889  0.29629  0.94508  1.0000
  C  Sn21      1.0  0.85811  0.30180  0.17011  1.0000
  C   C191      1.0  0.84059  0.32586  0.11944  1.0000
  C  Sn22      1.0  0.79868  0.30638  0.06288  1.0000
  C  Sn23      1.0  0.77376  0.26193  0.05693  1.0000
  C   C192      1.0  0.79128  0.23790  0.10760  1.0000
  C  Sn24      1.0  0.83318  0.25735  0.16415  1.0000
  O  Te21      1.0  0.90007  0.32194  0.22622  1.0000
  O  Te22      1.0  0.78187  0.33109  0.01283  1.0000
  O  Te23      1.0  0.73177  0.24180  0.00075  1.0000
  O  Te24      1.0  0.84999  0.23266  0.21421  1.0000
  Mg  Mg11      1.0  0.72899  0.29505  0.94604  1.0000
  Mg  Mg12      1.0  0.90871  0.27467  0.28110  1.0000
  C  Sn25      1.0  0.27051  0.48811  0.48618  1.0000
  C   C193      1.0  0.24385  0.44692  0.53637  1.0000
  C  Sn26      1.0  0.25634  0.43002  0.66550  1.0000
  C  Sn27      1.0  0.29631  0.45480  0.74623  1.0000
  C   C194      1.0  0.32294  0.49596  0.69606  1.0000
  C  Sn28      1.0  0.31048  0.51290  0.56691  1.0000
  O  Te25      1.0  0.25737  0.50437  0.35681  1.0000
  O  Te26      1.0  0.22915  0.38875  0.71345  1.0000
  O  Te27      1.0  0.30943  0.43850  0.87569  1.0000
  O  Te28      1.0  0.33765  0.55413  0.51898  1.0000
  Mg  Mg13      1.0  0.26124  0.38069  0.89623  1.0000
  Mg  Mg14      1.0  0.30557  0.56223  0.33629  1.0000
  C  Sn29      1.0  0.55922  0.86293  0.67125  1.0000
  C   C195      1.0  0.51672  0.84392  0.62355  1.0000
  C  Sn30      1.0  0.49481  0.80223  0.56498  1.0000
  C  Sn31      1.0  0.51581  0.77904  0.55394  1.0000
  C   C196      1.0  0.55829  0.79805  0.60165  1.0000
  C  Sn32      1.0  0.58023  0.83975  0.66022  1.0000
  O  Te29      1.0  0.58050  0.90465  0.72945  1.0000
  O  Te30      1.0  0.45233  0.78391  0.51797  1.0000
  O  Te31      1.0  0.49449  0.73730  0.49567  1.0000
  O  Te32      1.0  0.62268  0.85807  0.70723  1.0000
  Mg  Mg15      1.0  0.43689  0.72619  0.44661  1.0000
  Mg  Mg16      1.0  0.63814  0.91577  0.77868  1.0000
  C  Sn33      1.0  0.14392  0.69948  0.67970  1.0000
  C   C197      1.0  0.15977  0.67388  0.62887  1.0000
  C  Sn34      1.0  0.20089  0.69165  0.57182  1.0000
  C  Sn35      1.0  0.22673  0.73593  0.56553  1.0000
  C   C198      1.0  0.21089  0.76151  0.61636  1.0000
  C  Sn36      1.0  0.16976  0.74377  0.67341  1.0000
  O  Te33      1.0  0.10272  0.68104  0.73630  1.0000
  O  Te34      1.0  0.21602  0.66541  0.52161  1.0000
  O  Te35      1.0  0.26796  0.75436  0.50886  1.0000
  O  Te36      1.0  0.15463  0.76998  0.72361  1.0000
  Mg  Mg17      1.0  0.27428  0.70543  0.45412  1.0000
  Mg  Mg18      1.0  0.09639  0.72999  0.79121  1.0000
  C  Sn37      1.0  0.69718  0.55678  0.69314  1.0000
  C   C199      1.0  0.67234  0.51445  0.64526  1.0000
  C  Sn38      1.0  0.69102  0.49198  0.58717  1.0000
  C  Sn39      1.0  0.73545  0.51224  0.57681  1.0000
  C   C200      1.0  0.76026  0.55455  0.62470  1.0000
  C  Sn40      1.0  0.74161  0.57705  0.68278  1.0000
  O  Te37      1.0  0.67783  0.57863  0.75085  1.0000
  O  Te38      1.0  0.66553  0.44968  0.53997  1.0000
  O  Te39      1.0  0.75479  0.49036  0.51904  1.0000
  O  Te40      1.0  0.76707  0.61931  0.72999  1.0000
  Mg  Mg19      1.0  0.70666  0.43328  0.46947  1.0000
  Mg  Mg20      1.0  0.72598  0.63574  0.80058  1.0000
  C  Sn41      1.0  0.51098  0.22035  0.57985  1.0000
  C   C201      1.0  0.50005  0.18390  0.66827  1.0000
  C  Sn42      1.0  0.45781  0.15450  0.69523  1.0000
  C  Sn43      1.0  0.42582  0.16166  0.63242  1.0000
  C   C202      1.0  0.43677  0.19808  0.54403  1.0000
  C  Sn44      1.0  0.47900  0.22751  0.51704  1.0000
  O  Te41      1.0  0.55341  0.24931  0.55437  1.0000
  O  Te42      1.0  0.44765  0.11831  0.78405  1.0000
  O  Te43      1.0  0.38337  0.13266  0.65798  1.0000
  O  Te44      1.0  0.48916  0.26367  0.42826  1.0000
  Mg  Mg21      1.0  0.38537  0.08816  0.78640  1.0000
  Mg  Mg22      1.0  0.55143  0.29384  0.42576  1.0000
  C  Sn45      1.0  0.85529  0.29965  0.66509  1.0000
  C   C203      1.0  0.83710  0.32332  0.61749  1.0000
  C  Sn46      1.0  0.79504  0.30342  0.56268  1.0000
  C  Sn47      1.0  0.77064  0.25895  0.55540  1.0000
  C   C204      1.0  0.78883  0.23530  0.60301  1.0000
  C  Sn48      1.0  0.83089  0.25517  0.65781  1.0000
  O  Te45      1.0  0.89739  0.32020  0.71949  1.0000
  O  Te46      1.0  0.77756  0.32776  0.51569  1.0000
  O  Te47      1.0  0.72851  0.23841  0.50094  1.0000
  O  Te48      1.0  0.84837  0.23086  0.70481  1.0000
  Mg  Mg23      1.0  0.71888  0.28523  0.45030  1.0000
  Mg  Mg24      1.0  0.90703  0.27335  0.77030  1.0000
