data_image0
_chemical_formula_structural       H80C92N28O12SnCSn2CSnTe4Mg2SnCSn2CSnTe4Mg2SnCSn2CSnTe4Mg2SnCSn2CSnTe4Mg2SnCSn2CSnTe4Mg2SnCSn2CSnTe4Mg2SnCSn2CSnTe4Mg2SnCSn2CSnTe4Mg2SnCSn2CSnTe4Mg2SnCSn2CSnTe4Mg2SnCSn2CSnTe4Mg2SnCSn2CSnTe4Mg2
_chemical_formula_sum              "H80 C116 N28 O12 Sn48 Te48 Mg24"
_cell_length_a       37.3817
_cell_length_b       37.9025
_cell_length_c       8.35052
_cell_angle_alpha    63.234
_cell_angle_beta     92.2258
_cell_angle_gamma    122.372

_symmetry_space_group_name_H-M    'P1'
_space_group_IT_number       1

loop_
  _space_group_symop_operation_xyz
  'x, y, z'

loop_
  _atom_site_type_symbol
  _atom_site_label
  _atom_site_symmetry_multiplicity
  _atom_site_fract_x
  _atom_site_fract_y
  _atom_site_fract_z
  _atom_site_occupancy
  H   H1        1.0  0.39466  0.69438  0.35150  1.0000
  H   H2        1.0  0.56642  0.29243  0.25838  1.0000
  H   H3        1.0  0.44228  0.91506  0.09875  1.0000
  H   H4        1.0  0.56773  0.13374  0.06303  1.0000
  H   H5        1.0  0.47275  0.88777  0.43528  1.0000
  H   H6        1.0  0.49366  0.07623  0.39162  1.0000
  H   H7        1.0  0.27258  0.57688  0.36251  1.0000
  H   H8        1.0  0.68434  0.41065  0.26508  1.0000
  H   H9        1.0  0.45044  0.40613  0.38207  1.0000
  H   H10       1.0  0.49224  0.56422  0.27562  1.0000
  H   H11       1.0  0.56629  0.61927  0.07246  1.0000
  H   H12       1.0  0.38632  0.37954  0.27454  1.0000
  H   H13       1.0  0.61013  0.62452  0.18053  1.0000
  H   H14       1.0  0.33443  0.35027  0.42741  1.0000
  H   H15       1.0  0.61464  0.62165  0.71314  1.0000
  H   H16       1.0  0.42260  0.37069  0.92139  1.0000
  H   H17       1.0  0.44546  0.57652  0.13939  1.0000
  H   H18       1.0  0.50232  0.42001  0.22505  1.0000
  H   H19       1.0  0.38442  0.48121  0.47760  1.0000
  H   H20       1.0  0.55541  0.47102  0.41692  1.0000
  H   H21       1.0  0.56803  0.07056  0.21125  1.0000
  H   H22       1.0  0.41958  0.92911  0.33120  1.0000
  H   H23       1.0  0.37198  0.98802  0.47084  1.0000
  H   H24       1.0  0.62146  0.07333  0.07864  1.0000
  H   H25       1.0  0.10213  0.54104  0.14449  1.0000
  H   H26       1.0  0.88585  0.44878  0.04366  1.0000
  H   H27       1.0  0.42249  0.00892  0.53696  1.0000
  H   H28       1.0  0.62907  0.02554  0.18071  1.0000
  H   H29       1.0  0.38783  0.94749  0.58561  1.0000
  H   H30       1.0  0.60523  0.03435  0.32884  1.0000
  H   H31       1.0  0.07258  0.55854  0.40621  1.0000
  H   H32       1.0  0.86809  0.42014  0.43686  1.0000
  H   H33       1.0  0.92482  0.50525  0.33257  1.0000
  H   H34       1.0  0.03348  0.47339  0.25710  1.0000
  H   H35       1.0  0.00722  0.41177  0.20587  1.0000
  H   H36       1.0  0.97095  0.59189  0.18923  1.0000
  H   H37       1.0  0.95413  0.35508  0.30283  1.0000
  H   H38       1.0  0.00129  0.61944  0.31963  1.0000
  H   H39       1.0  0.05753  0.41777  0.81031  1.0000
  H   H40       1.0  0.97885  0.55513  0.94988  1.0000
  H   H41       1.0  0.43309  0.70764  0.82000  1.0000
  H   H42       1.0  0.61065  0.31184  0.68325  1.0000
  H   H43       1.0  0.44450  0.91089  0.63906  1.0000
  H   H44       1.0  0.58054  0.14308  0.51291  1.0000
  H   H45       1.0  0.49506  0.90004  0.91559  1.0000
  H   H46       1.0  0.52090  0.08498  0.89006  1.0000
  H   H47       1.0  0.31204  0.58180  0.86959  1.0000
  H   H48       1.0  0.72449  0.41176  0.78630  1.0000
  H   H49       1.0  0.49819  0.42108  0.90086  1.0000
  H   H50       1.0  0.53967  0.58703  0.65970  1.0000
  H   H51       1.0  0.60795  0.64443  0.48073  1.0000
  H   H52       1.0  0.41733  0.41571  0.74141  1.0000
  H   H53       1.0  0.65777  0.64966  0.51655  1.0000
  H   H54       1.0  0.37614  0.37135  0.96002  1.0000
  H   H55       1.0  0.56003  0.60591  0.30937  1.0000
  H   H56       1.0  0.37757  0.34844  0.52366  1.0000
  H   H57       1.0  0.46744  0.57605  0.56622  1.0000
  H   H58       1.0  0.54059  0.42431  0.74354  1.0000
  H   H59       1.0  0.44576  0.51282  0.96853  1.0000
  H   H60       1.0  0.60746  0.49912  0.82279  1.0000
  H   H61       1.0  0.58545  0.07938  0.66827  1.0000
  H   H62       1.0  0.43418  0.93615  0.82981  1.0000
  H   H63       1.0  0.38336  0.95299  0.84514  1.0000
  H   H64       1.0  0.63796  0.07251  0.60785  1.0000
  H   H65       1.0  0.11314  0.51677  0.90828  1.0000
  H   H66       1.0  0.92669  0.47843  0.64737  1.0000
  H   H67       1.0  0.37845  0.97483  0.98825  1.0000
  H   H68       1.0  0.63926  0.02038  0.70896  1.0000
  H   H69       1.0  0.39611  0.93571  0.06539  1.0000
  H   H70       1.0  0.61230  0.02781  0.85210  1.0000
  H   H71       1.0  0.10555  0.59479  0.82194  1.0000
  H   H72       1.0  0.91065  0.39448  0.99007  1.0000
  H   H73       1.0  0.95781  0.50526  0.83553  1.0000
  H   H74       1.0  0.07914  0.49070  0.76555  1.0000
  H   H75       1.0  0.04715  0.44603  0.59239  1.0000
  H   H76       1.0  0.98935  0.58901  0.70088  1.0000
  H   H77       1.0  0.01436  0.38091  0.73741  1.0000
  H   H78       1.0  0.02069  0.61943  0.82210  1.0000
  H   H79       1.0  0.97811  0.38082  0.44614  1.0000
  H   H80       1.0  0.95151  0.55920  0.43803  1.0000
  C   C1        1.0  0.27436  0.63574  0.34778  1.0000
  C   C2        1.0  0.68918  0.36050  0.22768  1.0000
  C   C3        1.0  0.29261  0.61072  0.36270  1.0000
  C   C4        1.0  0.66664  0.37822  0.25448  1.0000
  C   C5        1.0  0.47925  0.91316  0.28664  1.0000
  C   C6        1.0  0.50637  0.08555  0.25085  1.0000
  C   C7        1.0  0.48854  0.95955  0.26944  1.0000
  C   C8        1.0  0.49939  0.04069  0.26197  1.0000
  C   C9        1.0  0.53089  0.00103  0.22951  1.0000
  C   C10       1.0  0.45742  0.00031  0.29357  1.0000
  C   C11       1.0  0.40441  0.50336  0.33154  1.0000
  C   C12       1.0  0.54016  0.47055  0.30140  1.0000
  C   C13       1.0  0.43926  0.49400  0.32803  1.0000
  C   C14       1.0  0.50422  0.47774  0.31671  1.0000
  C   C15       1.0  0.42723  0.44859  0.36310  1.0000
  C   C16       1.0  0.51586  0.52221  0.29106  1.0000
  C   C17       1.0  0.51563  0.91892  0.18794  1.0000
  C   C18       1.0  0.48101  0.10049  0.13238  1.0000
  C   C19       1.0  0.45986  0.44119  0.35458  1.0000
  C   C20       1.0  0.48346  0.52999  0.29547  1.0000
  C   C21       1.0  0.57441  0.60412  0.20314  1.0000
  C   C22       1.0  0.37006  0.37041  0.40788  1.0000
  C   C23       1.0  0.33998  0.69971  0.33541  1.0000
  C   C24       1.0  0.62553  0.29682  0.22443  1.0000
  C   C25       1.0  0.07138  0.55547  0.28066  1.0000
  C   C26       1.0  0.88631  0.42536  0.31801  1.0000
  C   C27       1.0  0.02344  0.52008  0.29297  1.0000
  C   C28       1.0  0.93509  0.45816  0.30009  1.0000
  C   C29       1.0  0.37404  0.48800  0.22059  1.0000
  C   C30       1.0  0.57659  0.51133  0.13016  1.0000
  C   C31       1.0  0.99246  0.52919  0.31490  1.0000
  C   C32       1.0  0.96605  0.44962  0.27556  1.0000
  C   C33       1.0  0.53552  0.03991  0.23298  1.0000
  C   C34       1.0  0.45260  0.96028  0.30223  1.0000
  C   C35       1.0  0.39980  0.98526  0.48568  1.0000
  C   C36       1.0  0.60791  0.03635  0.19383  1.0000
  C   C37       1.0  0.08774  0.60392  0.11912  1.0000
  C   C38       1.0  0.86954  0.37606  0.36017  1.0000
  C   C39       1.0  0.33715  0.63196  0.35806  1.0000
  C   C40       1.0  0.62148  0.35417  0.26620  1.0000
  C   C41       1.0  0.36029  0.67650  0.35153  1.0000
  C   C42       1.0  0.60114  0.31256  0.25124  1.0000
  C   C43       1.0  0.94905  0.49857  0.31730  1.0000
  C   C44       1.0  0.00972  0.48041  0.27398  1.0000
  C   C45       1.0  0.97486  0.38895  0.30466  1.0000
  C   C46       1.0  0.98107  0.58533  0.31924  1.0000
  C   C47       1.0  0.30949  0.63769  0.86330  1.0000
  C   C48       1.0  0.72748  0.36314  0.73009  1.0000
  C   C49       1.0  0.33080  0.61651  0.86325  1.0000
  C   C50       1.0  0.70691  0.38319  0.75274  1.0000
  C   C51       1.0  0.49358  0.92034  0.77310  1.0000
  C   C52       1.0  0.52647  0.09377  0.74392  1.0000
  C   C53       1.0  0.50272  0.96687  0.75107  1.0000
  C   C54       1.0  0.51735  0.04889  0.74660  1.0000
  C   C55       1.0  0.54561  0.00731  0.70846  1.0000
  C   C56       1.0  0.47417  0.00726  0.80009  1.0000
  C   C57       1.0  0.45257  0.52037  0.82510  1.0000
  C   C58       1.0  0.58702  0.48899  0.73102  1.0000
  C   C59       1.0  0.48707  0.51165  0.79965  1.0000
  C   C60       1.0  0.55164  0.49699  0.74678  1.0000
  C   C61       1.0  0.47581  0.46481  0.86770  1.0000
  C   C62       1.0  0.56317  0.54421  0.68039  1.0000
  C   C63       1.0  0.52642  0.92658  0.65015  1.0000
  C   C64       1.0  0.49482  0.10483  0.67012  1.0000
  C   C65       1.0  0.50788  0.45800  0.84054  1.0000
  C   C66       1.0  0.53115  0.55096  0.70863  1.0000
  C   C67       1.0  0.62210  0.62695  0.57485  1.0000
  C   C68       1.0  0.41136  0.39394  0.89237  1.0000
  C   C69       1.0  0.37384  0.70407  0.84688  1.0000
  C   C70       1.0  0.66435  0.30529  0.70097  1.0000
  C   C71       1.0  0.10814  0.57428  0.76769  1.0000
  C   C72       1.0  0.92784  0.42189  0.84088  1.0000
  C   C73       1.0  0.06173  0.53479  0.78399  1.0000
  C   C74       1.0  0.97515  0.46074  0.82330  1.0000
  C   C75       1.0  0.41084  0.48681  0.80029  1.0000
  C   C76       1.0  0.61657  0.52067  0.54039  1.0000
  C   C77       1.0  0.02721  0.53913  0.80019  1.0000
  C   C78       1.0  0.00969  0.45611  0.81075  1.0000
  C   C79       1.0  0.55230  0.04796  0.70250  1.0000
  C   C80       1.0  0.46738  0.96772  0.79500  1.0000
  C   C81       1.0  0.39737  0.96513  0.94334  1.0000
  C   C82       1.0  0.61969  0.03367  0.71263  1.0000
  C   C83       1.0  0.13179  0.61025  0.56891  1.0000
  C   C84       1.0  0.92546  0.39494  0.75158  1.0000
  C   C85       1.0  0.37629  0.64146  0.84349  1.0000
  C   C86       1.0  0.66330  0.36454  0.74132  1.0000
  C   C87       1.0  0.39774  0.68582  0.83949  1.0000
  C   C88       1.0  0.64311  0.32616  0.70649  1.0000
  C   C89       1.0  0.98448  0.50213  0.82008  1.0000
  C   C90       1.0  0.05254  0.49371  0.78568  1.0000
  C   C91       1.0  0.03197  0.41525  0.73647  1.0000
  C   C92       1.0  0.00425  0.58579  0.81833  1.0000
  N   N1        1.0  0.43936  0.89083  0.22907  1.0000
  N   N2        1.0  0.55302  0.12458  0.18936  1.0000
  N   N3        1.0  0.42570  0.55417  0.27292  1.0000
  N   N4        1.0  0.52167  0.42423  0.31401  1.0000
  N   N5        1.0  0.53928  0.91690  0.11078  1.0000
  N   N6        1.0  0.46392  0.11615  0.03381  1.0000
  N   N7        1.0  0.29760  0.68006  0.32912  1.0000
  N   N8        1.0  0.66880  0.32080  0.21115  1.0000
  N   N9        1.0  0.09884  0.53934  0.26996  1.0000
  N   N10       1.0  0.87420  0.44926  0.15138  1.0000
  N   N11       1.0  0.34964  0.47804  0.13123  1.0000
  N   N12       1.0  0.60557  0.54053  0.99488  1.0000
  N   N13       1.0  0.10108  0.64079  0.98259  1.0000
  N   N14       1.0  0.85180  0.33740  0.37985  1.0000
  N   N15       1.0  0.44951  0.89092  0.75701  1.0000
  N   N16       1.0  0.57225  0.13420  0.64741  1.0000
  N   N17       1.0  0.46837  0.57132  0.69683  1.0000
  N   N18       1.0  0.56703  0.43805  0.79373  1.0000
  N   N19       1.0  0.54777  0.92390  0.56383  1.0000
  N   N20       1.0  0.47126  0.11562  0.61005  1.0000
  N   N21       1.0  0.33074  0.68075  0.85429  1.0000
  N   N22       1.0  0.70625  0.32375  0.71057  1.0000
  N   N23       1.0  0.12842  0.55125  0.88097  1.0000
  N   N24       1.0  0.90589  0.44591  0.76609  1.0000
  N   N25       1.0  0.37897  0.46476  0.76204  1.0000
  N   N26       1.0  0.63972  0.54166  0.39287  1.0000
  N   N27       1.0  0.14803  0.64081  0.41250  1.0000
  N   N28       1.0  0.91945  0.37175  0.68438  1.0000
  O   O1        1.0  0.56589  0.00162  0.18523  1.0000
  O   O2        1.0  0.42034  0.00007  0.30401  1.0000
  O   O3        1.0  0.38309  0.41374  0.40716  1.0000
  O   O4        1.0  0.55949  0.55543  0.26452  1.0000
  O   O5        1.0  0.00835  0.56893  0.33378  1.0000
  O   O6        1.0  0.95229  0.41169  0.24890  1.0000
  O   O7        1.0  0.57975  0.00531  0.67189  1.0000
  O   O8        1.0  0.44129  0.00861  0.85740  1.0000
  O   O9        1.0  0.43298  0.42519  0.96974  1.0000
  O   O10       1.0  0.60636  0.58139  0.59050  1.0000
  O   O11       1.0  0.03857  0.58058  0.79340  1.0000
  O   O12       1.0  0.99918  0.41338  0.83146  1.0000
  C  Sn1       1.0  0.33875  0.55014  0.45062  1.0000
  C   C93       1.0  0.35738  0.59783  0.40544  1.0000
  C  Sn2       1.0  0.39983  0.63533  0.28792  1.0000
  C  Sn3       1.0  0.42419  0.62494  0.21392  1.0000
  C   C94       1.0  0.40556  0.57728  0.25908  1.0000
  C  Sn4       1.0  0.36310  0.53976  0.37662  1.0000
  O  Te1       1.0  0.29625  0.51323  0.56836  1.0000
  O  Te2       1.0  0.41776  0.68272  0.24481  1.0000
  O  Te3       1.0  0.46672  0.66191  0.09610  1.0000
  O  Te4       1.0  0.34518  0.49240  0.41971  1.0000
  Mg  Mg1       1.0  0.47685  0.72060  0.07821  1.0000
  Mg  Mg2       1.0  0.28608  0.45449  0.58621  1.0000
  C  Sn5       1.0  0.60300  0.43687  0.27371  1.0000
  C   C95       1.0  0.55990  0.42017  0.26299  1.0000
  C  Sn6       1.0  0.53086  0.37411  0.28560  1.0000
  C  Sn7       1.0  0.54521  0.34410  0.31975  1.0000
  C   C96       1.0  0.58829  0.36080  0.33048  1.0000
  C  Sn8       1.0  0.61735  0.40686  0.30785  1.0000
  O  Te5       1.0  0.63146  0.48304  0.25068  1.0000
  O  Te6       1.0  0.48793  0.35822  0.27424  1.0000
  O  Te7       1.0  0.51670  0.29790  0.34277  1.0000
  O  Te8       1.0  0.66026  0.42275  0.31923  1.0000
  Mg  Mg3       1.0  0.46142  0.29249  0.31528  1.0000
  Mg  Mg4       1.0  0.68679  0.48846  0.27831  1.0000
  C  Sn9       1.0  0.20672  0.64036  0.18910  1.0000
  C   C97       1.0  0.22242  0.62136  0.33489  1.0000
  C  Sn10      1.0  0.19825  0.57138  0.45908  1.0000
  C  Sn11      1.0  0.15754  0.53971  0.43704  1.0000
  C   C98       1.0  0.14186  0.55871  0.29131  1.0000
  C  Sn12      1.0  0.16601  0.60869  0.16705  1.0000
  O  Te9       1.0  0.23143  0.69045  0.06658  1.0000
  O  Te10      1.0  0.21463  0.55324  0.60380  1.0000
  O  Te11      1.0  0.13283  0.48959  0.55972  1.0000
  O  Te12      1.0  0.14966  0.62683  0.02240  1.0000
  Mg  Mg5       1.0  0.16895  0.48232  0.73478  1.0000
  Mg  Mg6       1.0  0.13197  0.56507  0.89128  1.0000
  C  Sn13      1.0  0.77478  0.43754  0.19923  1.0000
  C   C99       1.0  0.74414  0.39869  0.17590  1.0000
  C  Sn14      1.0  0.75422  0.36868  0.16968  1.0000
  C  Sn15      1.0  0.79578  0.37768  0.18726  1.0000
  C   C100      1.0  0.82639  0.41650  0.21061  1.0000
  C  Sn16      1.0  0.81634  0.44653  0.21681  1.0000
  O  Te13      1.0  0.76401  0.46706  0.20505  1.0000
  O  Te14      1.0  0.72306  0.33008  0.14618  1.0000
  O  Te15      1.0  0.80654  0.34811  0.18141  1.0000
  O  Te16      1.0  0.84748  0.48511  0.24033  1.0000
  Mg  Mg7       1.0  0.75313  0.30006  0.14708  1.0000
  Mg  Mg8       1.0  0.81743  0.51514  0.23954  1.0000
  C  Sn17      1.0  0.36373  0.81263  0.24409  1.0000
  C   C101      1.0  0.40242  0.83506  0.29476  1.0000
  C  Sn18      1.0  0.42640  0.81526  0.34494  1.0000
  C  Sn19      1.0  0.41143  0.77214  0.34435  1.0000
  C   C102      1.0  0.37277  0.74973  0.29368  1.0000
  C  Sn20      1.0  0.34876  0.76951  0.24350  1.0000
  O  Te17      1.0  0.34029  0.83307  0.19442  1.0000
  O  Te18      1.0  0.46497  0.83833  0.39513  1.0000
  O  Te19      1.0  0.43491  0.75170  0.39409  1.0000
  O  Te20      1.0  0.31022  0.74646  0.19330  1.0000
  Mg  Mg9       1.0  0.48547  0.79652  0.45174  1.0000
  Mg  Mg10      1.0  0.28970  0.78825  0.13658  1.0000
  C  Sn21      1.0  0.62084  0.20304  0.20356  1.0000
  C   C103      1.0  0.57658  0.16680  0.23836  1.0000
  C  Sn22      1.0  0.54456  0.17496  0.24556  1.0000
  C  Sn23      1.0  0.55703  0.22031  0.21728  1.0000
  C   C104      1.0  0.60127  0.25652  0.18247  1.0000
  C  Sn24      1.0  0.63332  0.24839  0.17527  1.0000
  O  Te21      1.0  0.65230  0.19409  0.19696  1.0000
  O  Te22      1.0  0.50051  0.13817  0.28063  1.0000
  O  Te23      1.0  0.52553  0.22924  0.22390  1.0000
  O  Te24      1.0  0.67734  0.28515  0.14020  1.0000
  Mg  Mg11      1.0  0.46978  0.16778  0.27604  1.0000
  Mg  Mg12      1.0  0.70810  0.25559  0.14466  1.0000
  C  Sn25      1.0  0.37724  0.57160  0.80087  1.0000
  C   C105      1.0  0.39300  0.60679  0.85154  1.0000
  C  Sn26      1.0  0.43789  0.63698  0.83256  1.0000
  C  Sn27      1.0  0.46765  0.63191  0.76135  1.0000
  C   C106      1.0  0.45189  0.59673  0.71070  1.0000
  C  Sn28      1.0  0.40700  0.56652  0.72966  1.0000
  O  Te25      1.0  0.33223  0.54181  0.82101  1.0000
  O  Te26      1.0  0.45287  0.67189  0.88421  1.0000
  O  Te27      1.0  0.51269  0.66173  0.74124  1.0000
  O  Te28      1.0  0.39202  0.53164  0.67803  1.0000
  Mg  Mg13      1.0  0.51715  0.70388  0.83067  1.0000
  Mg  Mg14      1.0  0.32775  0.49965  0.73141  1.0000
  C  Sn29      1.0  0.65467  0.42551  0.82853  1.0000
  C   C107      1.0  0.63921  0.38382  0.82020  1.0000
  C  Sn30      1.0  0.59890  0.36054  0.78125  1.0000
  C  Sn31      1.0  0.57353  0.37933  0.74985  1.0000
  C   C108      1.0  0.58899  0.42099  0.75815  1.0000
  C  Sn32      1.0  0.62929  0.44429  0.79713  1.0000
  O  Te29      1.0  0.69506  0.44819  0.86768  1.0000
  O  Te30      1.0  0.58413  0.31891  0.77372  1.0000
  O  Te31      1.0  0.53311  0.35661  0.71068  1.0000
  O  Te32      1.0  0.64407  0.48590  0.80464  1.0000
  Mg  Mg15      1.0  0.52702  0.30094  0.71537  1.0000
  Mg  Mg16      1.0  0.70118  0.50392  0.86288  1.0000
  C  Sn33      1.0  0.23789  0.64419  0.80256  1.0000
  C   C109      1.0  0.25713  0.62007  0.89090  1.0000
  C  Sn34      1.0  0.23456  0.57047  0.95740  1.0000
  C  Sn35      1.0  0.19187  0.54445  0.93504  1.0000
  C   C110      1.0  0.17265  0.56857  0.84673  1.0000
  C  Sn36      1.0  0.19520  0.61817  0.78021  1.0000
  O  Te33      1.0  0.26107  0.69378  0.73716  1.0000
  O  Te34      1.0  0.31781  0.67982  0.04530  1.0000
  O  Te35      1.0  0.23204  0.62749  0.00055  1.0000
  O  Te36      1.0  0.17532  0.64149  0.69233  1.0000
  Mg  Mg17      1.0  0.27305  0.61187  0.11066  1.0000
  Mg  Mg18      1.0  0.22006  0.70943  0.62683  1.0000
  C  Sn37      1.0  0.81763  0.44356  0.61278  1.0000
  C   C111      1.0  0.78346  0.39528  0.67249  1.0000
  C  Sn38      1.0  0.78713  0.35786  0.79233  1.0000
  C  Sn39      1.0  0.82574  0.36890  0.85387  1.0000
  C   C112      1.0  0.85987  0.41715  0.79419  1.0000
  C  Sn40      1.0  0.85624  0.45460  0.67432  1.0000
  O  Te37      1.0  0.81326  0.48039  0.49298  1.0000
  O  Te38      1.0  0.75254  0.30987  0.85007  1.0000
  O  Te39      1.0  0.83009  0.33202  0.97375  1.0000
  O  Te40      1.0  0.89080  0.50256  0.61661  1.0000
  Mg  Mg19      1.0  0.83736  0.40503  0.01371  1.0000
  Mg  Mg20      1.0  0.86936  0.54009  0.45306  1.0000
  C  Sn41      1.0  0.45630  0.81498  0.83413  1.0000
  C   C113      1.0  0.44176  0.84474  0.75986  1.0000
  C  Sn42      1.0  0.39945  0.82604  0.73520  1.0000
  C  Sn43      1.0  0.37108  0.77655  0.78594  1.0000
  C   C114      1.0  0.38562  0.74682  0.86018  1.0000
  C  Sn44      1.0  0.42793  0.76549  0.88486  1.0000
  O  Te41      1.0  0.49872  0.83444  0.85757  1.0000
  O  Te42      1.0  0.38566  0.85651  0.66063  1.0000
  O  Te43      1.0  0.32864  0.75710  0.76243  1.0000
  O  Te44      1.0  0.44172  0.73505  0.95941  1.0000
  Mg  Mg21      1.0  0.32493  0.81308  0.65548  1.0000
  Mg  Mg22      1.0  0.50243  0.77843  0.96471  1.0000
  C  Sn45      1.0  0.57216  0.20235  0.70269  1.0000
  C   C115      1.0  0.58882  0.18585  0.62882  1.0000
  C  Sn46      1.0  0.63334  0.20425  0.60073  1.0000
  C  Sn47      1.0  0.66180  0.23986  0.64755  1.0000
  C   C116      1.0  0.64514  0.25633  0.72139  1.0000
  C  Sn48      1.0  0.60062  0.23795  0.74951  1.0000
  O  Te45      1.0  0.52754  0.18344  0.72961  1.0000
  O  Te46      1.0  0.64923  0.18721  0.52663  1.0000
  O  Te47      1.0  0.70645  0.25876  0.62056  1.0000
  O  Te48      1.0  0.58473  0.25497  0.82359  1.0000
  Mg  Mg23      1.0  0.71251  0.22405  0.51582  1.0000
  Mg  Mg24      1.0  0.52145  0.21814  0.83454  1.0000
