data_image0
_chemical_formula_structural       H72C132N12SnCSn2CSnTe4Mg2SnCSn2CSnTe4Mg2SnCSn2CSnTe4Mg2SnCSn2CSnTe4Mg2SnCSn2CSnTe4Mg2SnCSn2CSnTe4Mg2SnCSn2CSnTe4Mg2SnCSn2CSnTe4Mg2SnCSn2CSnTe4Mg2SnCSn2CSnTe4Mg2SnCSn2CSnTe4Mg2SnCSn2CSnTe4Mg2SnCSn2CSnTe4Mg2SnCSn2CSnTe4Mg2SnCSn2CSnTe4Mg2SnCSn2CSnTe4Mg2SnCSn2CSnTe4Mg2SnCSn2CSnTe4Mg2
_chemical_formula_sum              "H72 C168 N12 Sn72 Te72 Mg36"
_cell_length_a       36.6727
_cell_length_b       36.5832
_cell_length_c       8.0567
_cell_angle_alpha    89.7715
_cell_angle_beta     88.819
_cell_angle_gamma    120.386

_symmetry_space_group_name_H-M    'P1'
_space_group_IT_number       1

loop_
  _space_group_symop_operation_xyz
  'x, y, z'

loop_
  _atom_site_type_symbol
  _atom_site_label
  _atom_site_symmetry_multiplicity
  _atom_site_fract_x
  _atom_site_fract_y
  _atom_site_fract_z
  _atom_site_occupancy
  H   H1        1.0  0.48389  0.64060  0.42811  1.0000
  H   H2        1.0  0.35853  0.83974  0.42643  1.0000
  H   H3        1.0  0.15911  0.51561  0.42415  1.0000
  H   H4        1.0  0.51909  0.35941  0.45390  1.0000
  H   H5        1.0  0.63944  0.15742  0.41871  1.0000
  H   H6        1.0  0.84121  0.48225  0.42361  1.0000
  H   H7        1.0  0.44053  0.67410  0.48268  1.0000
  H   H8        1.0  0.32554  0.76273  0.48826  1.0000
  H   H9        1.0  0.23619  0.55798  0.47381  1.0000
  H   H10       1.0  0.56224  0.32555  0.49981  1.0000
  H   H11       1.0  0.67254  0.23425  0.47978  1.0000
  H   H12       1.0  0.76386  0.43743  0.47874  1.0000
  H   H13       1.0  0.38936  0.47717  0.11388  1.0000
  H   H14       1.0  0.52234  0.91038  0.08927  1.0000
  H   H15       1.0  0.09371  0.61471  0.12530  1.0000
  H   H16       1.0  0.61435  0.52288  0.11551  1.0000
  H   H17       1.0  0.47768  0.09057  0.10263  1.0000
  H   H18       1.0  0.91245  0.39104  0.09418  1.0000
  H   H19       1.0  0.41331  0.70872  0.38228  1.0000
  H   H20       1.0  0.29260  0.70103  0.38538  1.0000
  H   H21       1.0  0.29936  0.58737  0.37560  1.0000
  H   H22       1.0  0.58858  0.29067  0.38210  1.0000
  H   H23       1.0  0.70852  0.29660  0.36202  1.0000
  H   H24       1.0  0.70354  0.41127  0.37239  1.0000
  H   H25       1.0  0.20768  0.41986  0.08987  1.0000
  H   H26       1.0  0.57759  0.78258  0.07016  1.0000
  H   H27       1.0  0.22368  0.79542  0.04853  1.0000
  H   H28       1.0  0.79626  0.57967  0.07071  1.0000
  H   H29       1.0  0.41903  0.21304  0.09001  1.0000
  H   H30       1.0  0.78926  0.20834  0.06275  1.0000
  H   H31       1.0  0.33568  0.57062  0.24340  1.0000
  H   H32       1.0  0.43107  0.76263  0.24719  1.0000
  H   H33       1.0  0.24061  0.66688  0.24789  1.0000
  H   H34       1.0  0.66766  0.42937  0.24118  1.0000
  H   H35       1.0  0.57038  0.23761  0.24295  1.0000
  H   H36       1.0  0.76360  0.33476  0.22084  1.0000
  H   H37       1.0  0.48141  0.64313  0.93184  1.0000
  H   H38       1.0  0.36141  0.84430  0.92293  1.0000
  H   H39       1.0  0.15866  0.51630  0.93258  1.0000
  H   H40       1.0  0.51637  0.36090  0.95456  1.0000
  H   H41       1.0  0.63934  0.15951  0.91381  1.0000
  H   H42       1.0  0.84028  0.48194  0.91426  1.0000
  H   H43       1.0  0.43733  0.67573  0.98620  1.0000
  H   H44       1.0  0.32643  0.76691  0.98557  1.0000
  H   H45       1.0  0.23526  0.56177  0.98310  1.0000
  H   H46       1.0  0.55933  0.32698  0.00437  1.0000
  H   H47       1.0  0.67145  0.23599  0.97526  1.0000
  H   H48       1.0  0.76273  0.43999  0.97174  1.0000
  H   H49       1.0  0.38923  0.48025  0.61330  1.0000
  H   H50       1.0  0.52443  0.91073  0.58490  1.0000
  H   H51       1.0  0.08776  0.60769  0.61197  1.0000
  H   H52       1.0  0.61242  0.52434  0.61776  1.0000
  H   H53       1.0  0.47795  0.09112  0.59244  1.0000
  H   H54       1.0  0.90600  0.38316  0.60687  1.0000
  H   H55       1.0  0.41074  0.71042  0.88549  1.0000
  H   H56       1.0  0.29083  0.70408  0.86783  1.0000
  H   H57       1.0  0.29633  0.58958  0.87251  1.0000
  H   H58       1.0  0.58547  0.29178  0.87446  1.0000
  H   H59       1.0  0.70517  0.29730  0.87325  1.0000
  H   H60       1.0  0.70053  0.41213  0.88230  1.0000
  H   H61       1.0  0.20725  0.41684  0.60443  1.0000
  H   H62       1.0  0.57920  0.78391  0.57222  1.0000
  H   H63       1.0  0.20524  0.79075  0.58773  1.0000
  H   H64       1.0  0.79371  0.58276  0.57321  1.0000
  H   H65       1.0  0.41808  0.21415  0.60339  1.0000
  H   H66       1.0  0.77461  0.20437  0.52769  1.0000
  H   H67       1.0  0.33341  0.57208  0.74352  1.0000
  H   H68       1.0  0.42953  0.76321  0.73861  1.0000
  H   H69       1.0  0.23590  0.66578  0.73000  1.0000
  H   H70       1.0  0.66480  0.42983  0.74222  1.0000
  H   H71       1.0  0.56794  0.23769  0.74176  1.0000
  H   H72       1.0  0.75825  0.33215  0.74085  1.0000
  C   C1        1.0  0.35935  0.64564  0.38095  1.0000
  C   C2        1.0  0.35532  0.71042  0.38550  1.0000
  C   C3        1.0  0.29037  0.64108  0.38120  1.0000
  C   C4        1.0  0.64301  0.35344  0.37918  1.0000
  C   C5        1.0  0.64605  0.28815  0.37433  1.0000
  C   C6        1.0  0.71154  0.35704  0.36880  1.0000
  C   C7        1.0  0.37898  0.68992  0.38525  1.0000
  C   C8        1.0  0.31114  0.68546  0.38681  1.0000
  C   C9        1.0  0.31496  0.62170  0.38125  1.0000
  C   C10       1.0  0.62292  0.30913  0.38115  1.0000
  C   C11       1.0  0.69035  0.31256  0.37002  1.0000
  C   C12       1.0  0.68737  0.37687  0.37560  1.0000
  C   C13       1.0  0.38484  0.62489  0.36204  1.0000
  C   C14       1.0  0.37596  0.75696  0.36683  1.0000
  C   C15       1.0  0.24407  0.61585  0.36223  1.0000
  C   C16       1.0  0.61801  0.37474  0.36753  1.0000
  C   C17       1.0  0.62439  0.24168  0.35741  1.0000
  C   C18       1.0  0.75802  0.38283  0.34892  1.0000
  C   C19       1.0  0.40124  0.50809  0.16918  1.0000
  C   C20       1.0  0.49161  0.89082  0.15034  1.0000
  C   C21       1.0  0.11246  0.60254  0.17955  1.0000
  C   C22       1.0  0.60226  0.49194  0.17440  1.0000
  C   C23       1.0  0.50857  0.10931  0.15684  1.0000
  C   C24       1.0  0.89299  0.40247  0.15057  1.0000
  C   C25       1.0  0.36782  0.58574  0.28649  1.0000
  C   C26       1.0  0.41535  0.77952  0.28769  1.0000
  C   C27       1.0  0.22285  0.63404  0.28966  1.0000
  C   C28       1.0  0.63537  0.41417  0.28957  1.0000
  C   C29       1.0  0.58536  0.22009  0.28273  1.0000
  C   C30       1.0  0.78054  0.36672  0.26794  1.0000
  C   C31       1.0  0.39118  0.56519  0.25920  1.0000
  C   C32       1.0  0.43520  0.82346  0.25306  1.0000
  C   C33       1.0  0.17889  0.61104  0.26313  1.0000
  C   C34       1.0  0.61203  0.43478  0.26609  1.0000
  C   C35       1.0  0.56502  0.17619  0.25208  1.0000
  C   C36       1.0  0.82486  0.39081  0.24190  1.0000
  C   C37       1.0  0.43463  0.58649  0.30612  1.0000
  C   C38       1.0  0.41320  0.84524  0.29904  1.0000
  C   C39       1.0  0.15565  0.56691  0.30986  1.0000
  C   C40       1.0  0.56847  0.41353  0.32071  1.0000
  C   C41       1.0  0.58620  0.15367  0.29583  1.0000
  C   C42       1.0  0.84687  0.43406  0.29443  1.0000
  C   C43       1.0  0.45150  0.62608  0.38681  1.0000
  C   C44       1.0  0.37357  0.82213  0.38546  1.0000
  C   C45       1.0  0.17761  0.54873  0.38558  1.0000
  C   C46       1.0  0.55148  0.37388  0.40593  1.0000
  C   C47       1.0  0.62527  0.17575  0.37855  1.0000
  C   C48       1.0  0.82357  0.44997  0.37926  1.0000
  C   C49       1.0  0.42734  0.64456  0.41525  1.0000
  C   C50       1.0  0.35551  0.77942  0.41898  1.0000
  C   C51       1.0  0.22035  0.57240  0.41174  1.0000
  C   C52       1.0  0.57553  0.35523  0.42967  1.0000
  C   C53       1.0  0.64358  0.21831  0.41011  1.0000
  C   C54       1.0  0.78068  0.42505  0.40775  1.0000
  C   C55       1.0  0.44430  0.53214  0.21430  1.0000
  C   C56       1.0  0.46705  0.90946  0.19623  1.0000
  C   C57       1.0  0.09242  0.55885  0.22376  1.0000
  C   C58       1.0  0.55895  0.46774  0.22530  1.0000
  C   C59       1.0  0.53257  0.09000  0.19772  1.0000
  C   C60       1.0  0.91192  0.44534  0.20143  1.0000
  C   C61       1.0  0.37399  0.52358  0.19197  1.0000
  C   C62       1.0  0.47656  0.84805  0.17745  1.0000
  C   C63       1.0  0.15555  0.62925  0.19618  1.0000
  C   C64       1.0  0.62937  0.47639  0.19425  1.0000
  C   C65       1.0  0.52380  0.15196  0.18375  1.0000
  C   C66       1.0  0.84995  0.37454  0.17173  1.0000
  C   C67       1.0  0.35665  0.64739  0.87996  1.0000
  C   C68       1.0  0.35319  0.71254  0.87881  1.0000
  C   C69       1.0  0.28790  0.64350  0.87303  1.0000
  C   C70       1.0  0.63996  0.35432  0.88347  1.0000
  C   C71       1.0  0.64290  0.28897  0.87746  1.0000
  C   C72       1.0  0.70841  0.35779  0.87813  1.0000
  C   C73       1.0  0.37644  0.69167  0.88443  1.0000
  C   C74       1.0  0.30890  0.68802  0.87512  1.0000
  C   C75       1.0  0.31232  0.62393  0.87730  1.0000
  C   C76       1.0  0.61973  0.30998  0.88097  1.0000
  C   C77       1.0  0.68709  0.31336  0.87902  1.0000
  C   C78       1.0  0.68434  0.37773  0.88404  1.0000
  C   C79       1.0  0.38207  0.62649  0.86338  1.0000
  C   C80       1.0  0.37523  0.75924  0.86045  1.0000
  C   C81       1.0  0.24152  0.61722  0.85486  1.0000
  C   C82       1.0  0.61511  0.37579  0.87073  1.0000
  C   C83       1.0  0.62219  0.24263  0.85714  1.0000
  C   C84       1.0  0.75488  0.38283  0.85649  1.0000
  C   C85       1.0  0.40063  0.51108  0.66875  1.0000
  C   C86       1.0  0.49344  0.89184  0.64510  1.0000
  C   C87       1.0  0.10717  0.59638  0.66679  1.0000
  C   C88       1.0  0.60020  0.49335  0.67618  1.0000
  C   C89       1.0  0.50850  0.11004  0.64902  1.0000
  C   C90       1.0  0.88737  0.39563  0.66281  1.0000
  C   C91       1.0  0.36555  0.58746  0.78704  1.0000
  C   C92       1.0  0.41480  0.78087  0.78153  1.0000
  C   C93       1.0  0.21908  0.63331  0.77656  1.0000
  C   C94       1.0  0.63260  0.41505  0.79137  1.0000
  C   C95       1.0  0.58344  0.22065  0.78111  1.0000
  C   C96       1.0  0.77619  0.36477  0.78037  1.0000
  C   C97       1.0  0.38944  0.56741  0.75951  1.0000
  C   C98       1.0  0.43594  0.82499  0.74858  1.0000
  C   C99       1.0  0.17496  0.60860  0.75302  1.0000
  C   C100      1.0  0.60958  0.43599  0.76784  1.0000
  C   C101      1.0  0.56392  0.17691  0.74836  1.0000
  C   C102      1.0  0.82036  0.38741  0.75024  1.0000
  C   C103      1.0  0.43289  0.58905  0.80714  1.0000
  C   C104      1.0  0.41493  0.84774  0.79416  1.0000
  C   C105      1.0  0.15306  0.56478  0.80462  1.0000
  C   C106      1.0  0.56599  0.41494  0.82214  1.0000
  C   C107      1.0  0.58558  0.15486  0.79179  1.0000
  C   C108      1.0  0.84366  0.43102  0.79762  1.0000
  C   C109      1.0  0.44909  0.62836  0.88955  1.0000
  C   C110      1.0  0.37538  0.82570  0.88163  1.0000
  C   C111      1.0  0.17624  0.54894  0.88729  1.0000
  C   C112      1.0  0.54880  0.37531  0.90755  1.0000
  C   C113      1.0  0.62456  0.17737  0.87487  1.0000
  C   C114      1.0  0.82159  0.44920  0.87591  1.0000
  C   C115      1.0  0.42447  0.64632  0.91810  1.0000
  C   C116      1.0  0.35621  0.78288  0.91483  1.0000
  C   C117      1.0  0.21881  0.57439  0.91353  1.0000
  C   C118      1.0  0.57266  0.35650  0.93290  1.0000
  C   C119      1.0  0.64218  0.21980  0.90749  1.0000
  C   C120      1.0  0.77861  0.42582  0.90583  1.0000
  C   C121      1.0  0.44351  0.53533  0.71480  1.0000
  C   C122      1.0  0.46947  0.91128  0.68831  1.0000
  C   C123      1.0  0.08850  0.55306  0.71557  1.0000
  C   C124      1.0  0.55692  0.46943  0.72690  1.0000
  C   C125      1.0  0.53299  0.09119  0.68959  1.0000
  C   C126      1.0  0.90765  0.43878  0.71017  1.0000
  C   C127      1.0  0.37289  0.52595  0.69143  1.0000
  C   C128      1.0  0.47761  0.84902  0.67485  1.0000
  C   C129      1.0  0.14978  0.62476  0.68688  1.0000
  C   C130      1.0  0.62721  0.47770  0.69673  1.0000
  C   C131      1.0  0.52297  0.15246  0.67823  1.0000
  C   C132      1.0  0.84394  0.36935  0.68075  1.0000
  N   N1        1.0  0.46044  0.57031  0.28195  1.0000
  N   N2        1.0  0.42869  0.88724  0.26799  1.0000
  N   N3        1.0  0.11344  0.54135  0.28714  1.0000
  N   N4        1.0  0.54265  0.42965  0.29831  1.0000
  N   N5        1.0  0.57034  0.11185  0.26676  1.0000
  N   N6        1.0  0.88921  0.46048  0.27276  1.0000
  N   N7        1.0  0.45923  0.57342  0.78288  1.0000
  N   N8        1.0  0.43126  0.88978  0.76175  1.0000
  N   N9        1.0  0.11093  0.53776  0.78464  1.0000
  N   N10       1.0  0.54034  0.43128  0.79969  1.0000
  N   N11       1.0  0.57047  0.11324  0.76066  1.0000
  N   N12       1.0  0.88615  0.45598  0.77533  1.0000
  C  Sn1       1.0  0.29311  0.51010  0.09647  1.0000
  C   C133      1.0  0.32088  0.50173  0.18241  1.0000
  C  Sn2       1.0  0.30944  0.46011  0.22421  1.0000
  C  Sn3       1.0  0.26941  0.42614  0.17909  1.0000
  C   C134      1.0  0.24166  0.43451  0.09317  1.0000
  C  Sn4       1.0  0.25308  0.47613  0.05134  1.0000
  O  Te1       1.0  0.30521  0.55195  0.05595  1.0000
  O  Te2       1.0  0.33773  0.45254  0.31021  1.0000
  O  Te3       1.0  0.25732  0.38427  0.21969  1.0000
  O  Te4       1.0  0.21814  0.47944  0.96537  1.0000
  Mg  Mg1       1.0  0.30679  0.39008  0.33734  1.0000
  Mg  Mg2       1.0  0.24905  0.54188  0.93811  1.0000
  C  Sn5       1.0  0.55790  0.85661  0.15390  1.0000
  C   C135      1.0  0.51599  0.83979  0.10703  1.0000
  C  Sn6       1.0  0.49224  0.79762  0.05849  1.0000
  C  Sn7       1.0  0.51077  0.77170  0.05685  1.0000
  C   C136      1.0  0.55265  0.78852  0.10372  1.0000
  C  Sn8       1.0  0.57643  0.83070  0.15226  1.0000
  O  Te5       1.0  0.58105  0.89886  0.20200  1.0000
  O  Te6       1.0  0.45040  0.78152  0.01210  1.0000
  O  Te7       1.0  0.48758  0.72943  0.00869  1.0000
  O  Te8       1.0  0.61824  0.84680  0.19865  1.0000
  Mg  Mg3       1.0  0.42508  0.71777  0.95634  1.0000
  Mg  Mg4       1.0  0.63690  0.90626  0.25452  1.0000
  C  Sn9       1.0  0.22526  0.70910  0.08327  1.0000
  C   C137      1.0  0.18822  0.68243  0.17478  1.0000
  C  Sn10      1.0  0.15863  0.69489  0.20925  1.0000
  C  Sn11      1.0  0.16621  0.73483  0.15095  1.0000
  C   C138      1.0  0.20322  0.76148  0.05948  1.0000
  C  Sn12      1.0  0.23284  0.74905  0.02497  1.0000
  O  Te9       1.0  0.25440  0.69600  0.05026  1.0000
  O  Te10      1.0  0.12184  0.66768  0.30102  1.0000
  O  Te11      1.0  0.13703  0.74793  0.18404  1.0000
  O  Te12      1.0  0.26292  0.77196  0.93323  1.0000
  Mg  Mg5       1.0  0.09166  0.69974  0.31393  1.0000
  Mg  Mg6       1.0  0.29311  0.73993  0.92018  1.0000
  C  Sn13      1.0  0.71027  0.48992  0.08532  1.0000
  C   C139      1.0  0.68223  0.49814  0.17488  1.0000
  C  Sn14      1.0  0.69382  0.53963  0.21596  1.0000
  C  Sn15      1.0  0.73427  0.57362  0.16641  1.0000
  C   C140      1.0  0.76229  0.56538  0.07688  1.0000
  C  Sn16      1.0  0.75073  0.52390  0.03577  1.0000
  O  Te13      1.0  0.69802  0.44819  0.04561  1.0000
  O  Te14      1.0  0.66525  0.54707  0.30562  1.0000
  O  Te15      1.0  0.74651  0.61537  0.20621  1.0000
  O  Te16      1.0  0.77259  0.51219  0.94614  1.0000
  Mg  Mg7       1.0  0.69654  0.60940  0.32994  1.0000
  Mg  Mg8       1.0  0.74132  0.44989  0.92168  1.0000
  C  Sn17      1.0  0.47860  0.21081  0.99722  1.0000
  C   C141      1.0  0.44399  0.19841  0.06013  1.0000
  C  Sn18      1.0  0.42866  0.16816  0.18871  1.0000
  C  Sn19      1.0  0.45515  0.15430  0.25589  1.0000
  C   C142      1.0  0.49641  0.17097  0.19301  1.0000
  C  Sn20      1.0  0.51177  0.20121  0.06440  1.0000
  O  Te17      1.0  0.49327  0.24102  0.86865  1.0000
  O  Te18      1.0  0.38727  0.15194  0.24952  1.0000
  O  Te19      1.0  0.44044  0.12406  0.38455  1.0000
  O  Te20      1.0  0.55314  0.21743  0.00361  1.0000
  Mg  Mg9       1.0  0.38175  0.11141  0.42560  1.0000
  Mg  Mg10      1.0  0.55201  0.25371  0.82761  1.0000
  C  Sn21      1.0  0.85949  0.30260  0.15985  1.0000
  C   C143      1.0  0.84247  0.32724  0.10796  1.0000
  C  Sn22      1.0  0.80115  0.30797  0.05139  1.0000
  C  Sn23      1.0  0.77630  0.26314  0.04667  1.0000
  C   C144      1.0  0.79332  0.23853  0.09856  1.0000
  C  Sn24      1.0  0.83464  0.25777  0.15513  1.0000
  O  Te21      1.0  0.90087  0.32255  0.21595  1.0000
  O  Te22      1.0  0.78484  0.33327  0.00011  1.0000
  O  Te23      1.0  0.72821  0.23895  0.99051  1.0000
  O  Te24      1.0  0.85095  0.23250  0.20641  1.0000
  Mg  Mg11      1.0  0.72012  0.28703  0.93386  1.0000
  Mg  Mg12      1.0  0.90897  0.27444  0.27276  1.0000
  C  Sn25      1.0  0.47853  0.45672  0.14884  1.0000
  C   C145      1.0  0.52256  0.48030  0.15777  1.0000
  C  Sn26      1.0  0.54284  0.52298  0.20087  1.0000
  C  Sn27      1.0  0.51860  0.54248  0.23587  1.0000
  C   C146      1.0  0.47459  0.51890  0.22696  1.0000
  C  Sn28      1.0  0.45429  0.47622  0.18384  1.0000
  O  Te25      1.0  0.45893  0.41410  0.10551  1.0000
  O  Te26      1.0  0.58690  0.54591  0.20893  1.0000
  O  Te27      1.0  0.53824  0.58513  0.27921  1.0000
  O  Te28      1.0  0.41026  0.45329  0.17580  1.0000
  Mg  Mg13      1.0  0.59903  0.60308  0.27359  1.0000
  Mg  Mg14      1.0  0.39809  0.39612  0.11124  1.0000
  C  Sn29      1.0  0.46157  0.98111  0.08688  1.0000
  C   C147      1.0  0.48318  0.95994  0.12520  1.0000
  C  Sn30      1.0  0.52195  0.98111  0.20401  1.0000
  C  Sn31      1.0  0.03488  0.02435  0.24549  1.0000
  C   C148      1.0  0.01326  0.04550  0.20721  1.0000
  C  Sn32      1.0  0.97450  0.02435  0.12837  1.0000
  O  Te29      1.0  0.42286  0.95931  0.00808  1.0000
  O  Te30      1.0  0.54297  0.95928  0.24101  1.0000
  O  Te31      1.0  0.07362  0.04615  0.32435  1.0000
  O  Te32      1.0  0.95347  0.04616  0.09140  1.0000
  Mg  Mg15      1.0  0.09022  0.00270  0.34910  1.0000
  Mg  Mg16      1.0  0.89495  0.99850  0.98340  1.0000
  C  Sn33      1.0  0.99583  0.46129  0.20789  1.0000
  C   C149      1.0  0.96335  0.47055  0.22445  1.0000
  C  Sn34      1.0  0.97235  0.51247  0.21562  1.0000
  C  Sn35      1.0  0.01469  0.54582  0.18958  1.0000
  C   C150      1.0  0.04714  0.53655  0.17300  1.0000
  C  Sn36      1.0  0.03817  0.49464  0.18185  1.0000
  O  Te33      1.0  0.98610  0.41916  0.21712  1.0000
  O  Te34      1.0  0.93936  0.52094  0.23260  1.0000
  O  Te35      1.0  0.02440  0.58798  0.18035  1.0000
  O  Te36      1.0  0.07113  0.48616  0.16485  1.0000
  Mg  Mg17      1.0  0.96856  0.58346  0.21083  1.0000
  Mg  Mg18      1.0  0.04197  0.42366  0.18652  1.0000
  C  Sn37      1.0  0.27088  0.48378  0.50660  1.0000
  C   C151      1.0  0.24674  0.44258  0.57146  1.0000
  C  Sn38      1.0  0.26231  0.42857  0.69845  1.0000
  C  Sn39      1.0  0.30284  0.45633  0.76202  1.0000
  C   C152      1.0  0.32696  0.49750  0.69719  1.0000
  C  Sn40      1.0  0.31141  0.51153  0.57018  1.0000
  O  Te37      1.0  0.25468  0.49711  0.37968  1.0000
  O  Te38      1.0  0.23759  0.38724  0.76125  1.0000
  O  Te39      1.0  0.31903  0.44296  0.88904  1.0000
  O  Te40      1.0  0.33610  0.55283  0.50740  1.0000
  Mg  Mg19      1.0  0.27344  0.38380  0.93391  1.0000
  Mg  Mg20      1.0  0.30028  0.55631  0.33482  1.0000
  C  Sn41      1.0  0.55856  0.85693  0.66213  1.0000
  C   C153      1.0  0.51706  0.84049  0.61054  1.0000
  C  Sn42      1.0  0.49379  0.79877  0.55638  1.0000
  C  Sn43      1.0  0.51239  0.77292  0.55383  1.0000
  C   C154      1.0  0.55387  0.78936  0.60542  1.0000
  C  Sn44      1.0  0.57716  0.83108  0.65957  1.0000
  O  Te41      1.0  0.58122  0.89873  0.71579  1.0000
  O  Te42      1.0  0.45236  0.78305  0.50535  1.0000
  O  Te43      1.0  0.48969  0.73110  0.50010  1.0000
  O  Te44      1.0  0.61856  0.84680  0.71061  1.0000
  Mg  Mg21      1.0  0.43430  0.72411  0.44282  1.0000
  Mg  Mg22      1.0  0.63664  0.90573  0.77324  1.0000
  C  Sn45      1.0  0.21538  0.70878  0.59000  1.0000
  C   C155      1.0  0.17910  0.67825  0.67623  1.0000
  C  Sn46      1.0  0.14692  0.68649  0.71997  1.0000
  C  Sn47      1.0  0.15108  0.72606  0.67652  1.0000
  C   C156      1.0  0.18735  0.75656  0.59031  1.0000
  C  Sn48      1.0  0.21955  0.74835  0.54654  1.0000
  O  Te45      1.0  0.24715  0.69985  0.54754  1.0000
  O  Te46      1.0  0.11094  0.65548  0.80622  1.0000
  O  Te47      1.0  0.11927  0.73497  0.71906  1.0000
  O  Te48      1.0  0.25550  0.77933  0.46032  1.0000
  Mg  Mg23      1.0  0.07629  0.68258  0.83630  1.0000
  Mg  Mg24      1.0  0.29016  0.75226  0.43011  1.0000
  C  Sn49      1.0  0.72993  0.56690  0.74246  1.0000
  C   C157      1.0  0.75796  0.55992  0.64658  1.0000
  C  Sn50      1.0  0.74269  0.52576  0.53871  1.0000
  C  Sn51      1.0  0.69848  0.49801  0.52633  1.0000
  C   C158      1.0  0.67047  0.50500  0.62215  1.0000
  C  Sn52      1.0  0.68572  0.53915  0.73008  1.0000
  O  Te49      1.0  0.74590  0.60125  0.84946  1.0000
  O  Te50      1.0  0.77133  0.51942  0.44416  1.0000
  O  Te51      1.0  0.68252  0.46364  0.41922  1.0000
  O  Te52      1.0  0.65710  0.54550  0.82456  1.0000
  Mg  Mg25      1.0  0.73417  0.46822  0.31617  1.0000
  Mg  Mg26      1.0  0.69422  0.59670  0.95252  1.0000
  C  Sn53      1.0  0.50844  0.22035  0.59591  1.0000
  C   C159      1.0  0.50038  0.18277  0.67453  1.0000
  C  Sn54      1.0  0.45896  0.15135  0.71632  1.0000
  C  Sn55      1.0  0.42488  0.15762  0.67866  1.0000
  C   C160      1.0  0.43295  0.19518  0.60006  1.0000
  C  Sn56      1.0  0.47436  0.22662  0.55825  1.0000
  O  Te53      1.0  0.55010  0.25132  0.55526  1.0000
  O  Te54      1.0  0.45168  0.11405  0.79492  1.0000
  O  Te55      1.0  0.38319  0.12661  0.71939  1.0000
  O  Te56      1.0  0.48164  0.26390  0.47967  1.0000
  Mg  Mg27      1.0  0.38939  0.08122  0.82539  1.0000
  Mg  Mg28      1.0  0.54391  0.29674  0.44907  1.0000
  C  Sn57      1.0  0.77413  0.29099  0.57296  1.0000
  C   C161      1.0  0.81100  0.31655  0.65940  1.0000
  C  Sn58      1.0  0.84006  0.30327  0.68646  1.0000
  C  Sn59      1.0  0.83210  0.26362  0.62576  1.0000
  C   C162      1.0  0.79525  0.23808  0.53935  1.0000
  C  Sn60      1.0  0.76617  0.25134  0.51226  1.0000
  O  Te57      1.0  0.74552  0.30490  0.54735  1.0000
  O  Te58      1.0  0.87669  0.32937  0.77327  1.0000
  O  Te59      1.0  0.86075  0.24972  0.65145  1.0000
  O  Te60      1.0  0.72956  0.22526  0.42549  1.0000
  Mg  Mg29      1.0  0.90610  0.29652  0.77668  1.0000
  Mg  Mg30      1.0  0.70015  0.25809  0.42193  1.0000
  C  Sn61      1.0  0.54003  0.53678  0.74614  1.0000
  C   C163      1.0  0.53054  0.49465  0.74778  1.0000
  C  Sn62      1.0  0.49023  0.46209  0.70748  1.0000
  C  Sn63      1.0  0.45875  0.47184  0.66455  1.0000
  C   C164      1.0  0.46824  0.51394  0.66290  1.0000
  C  Sn64      1.0  0.50855  0.54652  0.70321  1.0000
  O  Te61      1.0  0.58055  0.56882  0.78685  1.0000
  O  Te62      1.0  0.48149  0.42022  0.71004  1.0000
  O  Te63      1.0  0.41821  0.43975  0.62384  1.0000
  O  Te64      1.0  0.51730  0.58837  0.70064  1.0000
  Mg  Mg31      1.0  0.42163  0.38765  0.64500  1.0000
  Mg  Mg32      1.0  0.57715  0.62097  0.76557  1.0000
  C  Sn65      1.0  0.54683  0.02196  0.63566  1.0000
  C   C165      1.0  0.52347  0.04235  0.62139  1.0000
  C  Sn66      1.0  0.47946  0.01942  0.64004  1.0000
  C  Sn67      1.0  0.96293  0.97519  0.67377  1.0000
  C   C166      1.0  0.98628  0.95483  0.68805  1.0000
  C  Sn68      1.0  0.03031  0.97773  0.66939  1.0000
  O  Te65      1.0  0.59081  0.04551  0.61655  1.0000
  O  Te66      1.0  0.45678  0.04050  0.62518  1.0000
  O  Te67      1.0  0.91891  0.95165  0.69287  1.0000
  O  Te68      1.0  0.05297  0.95668  0.68426  1.0000
  Mg  Mg33      1.0  0.90196  0.99465  0.66154  1.0000
  Mg  Mg34      1.0  0.60780  0.00250  0.64802  1.0000
  C  Sn69      1.0  0.00402  0.53507  0.74197  1.0000
  C   C167      1.0  0.03649  0.52562  0.73946  1.0000
  C  Sn70      1.0  0.02823  0.48519  0.69702  1.0000
  C  Sn71      1.0  0.98665  0.45355  0.65613  1.0000
  C   C168      1.0  0.95421  0.46300  0.65863  1.0000
  C  Sn72      1.0  0.96245  0.50343  0.70108  1.0000
  O  Te69      1.0  0.01301  0.57570  0.78476  1.0000
  O  Te70      1.0  0.06121  0.47650  0.69543  1.0000
  O  Te71      1.0  0.97769  0.41289  0.61333  1.0000
  O  Te72      1.0  0.92950  0.51213  0.70265  1.0000
  Mg  Mg35      1.0  0.03318  0.41643  0.62888  1.0000
  Mg  Mg36      1.0  0.95749  0.57219  0.76910  1.0000
