data_image0
_chemical_formula_structural       H36C48N24C2Sn2C2HTe2HMgC2Sn2C2HTe2HMgC2Sn2C2HTe2HMgC2Sn2C2HTe2HMgC2Sn2C2HTe2HMgC2Sn2C2HTe2HMgC2Sn2C2HTe2HMgC2Sn2C2HTe2HMgC2Sn2C2HTe2HMgC2Sn2C2HTe2HMgC2Sn2C2HTe2HMgC2Sn2C2HTe2HMgC2Sn2C2HTe2HMgC2Sn2C2HTe2HMgC2Sn2C2HTe2HMgC2Sn2C2HTe2HMgC2Sn2C2HTe2HMgC2Sn2C2HTe2HMg
_chemical_formula_sum              "H72 C120 N24 Sn36 Te36 Mg18"
_cell_length_a       37.8786
_cell_length_b       37.0106
_cell_length_c       9.03777
_cell_angle_alpha    81.9181
_cell_angle_beta     124.843
_cell_angle_gamma    120.225

_symmetry_space_group_name_H-M    'P1'
_space_group_IT_number       1

loop_
  _space_group_symop_operation_xyz
  'x, y, z'

loop_
  _atom_site_type_symbol
  _atom_site_label
  _atom_site_symmetry_multiplicity
  _atom_site_fract_x
  _atom_site_fract_y
  _atom_site_fract_z
  _atom_site_occupancy
  H   H1        1.0  0.30347  0.59354  0.31778  1.0000
  H   H2        1.0  0.41885  0.70789  0.31841  1.0000
  H   H3        1.0  0.30274  0.71033  0.28581  1.0000
  H   H4        1.0  0.70825  0.41778  0.24473  1.0000
  H   H5        1.0  0.60529  0.30509  0.30909  1.0000
  H   H6        1.0  0.71772  0.30479  0.30769  1.0000
  H   H7        1.0  0.45250  0.58249  0.12604  1.0000
  H   H8        1.0  0.42504  0.87971  0.01373  1.0000
  H   H9        1.0  0.08267  0.53083  0.08921  1.0000
  H   H10       1.0  0.52640  0.44366  0.06733  1.0000
  H   H11       1.0  0.56971  0.11076  0.07117  1.0000
  H   H12       1.0  0.85988  0.44060  0.03234  1.0000
  H   H13       1.0  0.43619  0.51681  0.34429  1.0000
  H   H14       1.0  0.49709  0.91344  0.41077  1.0000
  H   H15       1.0  0.11469  0.59027  0.38321  1.0000
  H   H16       1.0  0.61134  0.50266  0.42884  1.0000
  H   H17       1.0  0.53165  0.10548  0.28349  1.0000
  H   H18       1.0  0.93438  0.44415  0.41832  1.0000
  H   H19       1.0  0.30018  0.58482  0.82565  1.0000
  H   H20       1.0  0.40215  0.69488  0.75134  1.0000
  H   H21       1.0  0.29669  0.70051  0.78501  1.0000
  H   H22       1.0  0.70341  0.40763  0.76826  1.0000
  H   H23       1.0  0.58811  0.29067  0.75612  1.0000
  H   H24       1.0  0.70181  0.29087  0.75969  1.0000
  H   H25       1.0  0.45343  0.57519  0.64515  1.0000
  H   H26       1.0  0.41078  0.88480  0.60073  1.0000
  H   H27       1.0  0.07609  0.52159  0.59379  1.0000
  H   H28       1.0  0.52141  0.43808  0.52563  1.0000
  H   H29       1.0  0.57878  0.09670  0.80155  1.0000
  H   H30       1.0  0.85844  0.44515  0.56084  1.0000
  H   H31       1.0  0.41759  0.50160  0.80339  1.0000
  H   H32       1.0  0.51050  0.91266  0.94486  1.0000
  H   H33       1.0  0.10909  0.58499  0.87582  1.0000
  H   H34       1.0  0.58588  0.46872  0.92473  1.0000
  H   H35       1.0  0.48120  0.07950  0.68089  1.0000
  H   H36       1.0  0.92744  0.43124  0.91586  1.0000
  C   C1        1.0  0.29788  0.64933  0.30379  1.0000
  C   C2        1.0  0.36467  0.64822  0.32445  1.0000
  C   C3        1.0  0.36335  0.71449  0.30023  1.0000
  C   C4        1.0  0.71963  0.36483  0.27774  1.0000
  C   C5        1.0  0.65592  0.36510  0.28471  1.0000
  C   C6        1.0  0.65853  0.30018  0.30188  1.0000
  C   C7        1.0  0.32063  0.62743  0.31639  1.0000
  C   C8        1.0  0.38556  0.69174  0.31751  1.0000
  C   C9        1.0  0.32001  0.69294  0.29724  1.0000
  C   C10       1.0  0.69615  0.38545  0.26915  1.0000
  C   C11       1.0  0.63665  0.32185  0.29787  1.0000
  C   C12       1.0  0.70084  0.32224  0.29939  1.0000
  C   C13       1.0  0.38715  0.49627  0.05823  1.0000
  C   C14       1.0  0.51979  0.90798  0.25808  1.0000
  C   C15       1.0  0.07285  0.59961  0.11978  1.0000
  C   C16       1.0  0.61193  0.52896  0.21276  1.0000
  C   C17       1.0  0.48467  0.08766  0.99634  1.0000
  C   C18       1.0  0.90616  0.39515  0.22353  1.0000
  C   C19       1.0  0.43734  0.52657  0.22519  1.0000
  C   C20       1.0  0.48723  0.91622  0.27083  1.0000
  C   C21       1.0  0.08610  0.57066  0.24157  1.0000
  C   C22       1.0  0.58305  0.49733  0.27877  1.0000
  C   C23       1.0  0.52855  0.09068  0.17598  1.0000
  C   C24       1.0  0.91887  0.43876  0.27108  1.0000
  C   C25       1.0  0.29075  0.63904  0.79654  1.0000
  C   C26       1.0  0.35550  0.63794  0.79986  1.0000
  C   C27       1.0  0.35262  0.70327  0.77124  1.0000
  C   C28       1.0  0.70870  0.35242  0.76321  1.0000
  C   C29       1.0  0.64290  0.35170  0.75873  1.0000
  C   C30       1.0  0.64360  0.28605  0.76322  1.0000
  C   C31       1.0  0.31416  0.61777  0.80912  1.0000
  C   C32       1.0  0.37339  0.68032  0.77609  1.0000
  C   C33       1.0  0.31184  0.68233  0.78382  1.0000
  C   C34       1.0  0.68647  0.37345  0.76291  1.0000
  C   C35       1.0  0.62187  0.30794  0.75950  1.0000
  C   C36       1.0  0.68671  0.30860  0.76503  1.0000
  C   C37       1.0  0.37722  0.49086  0.51610  1.0000
  C   C38       1.0  0.50930  0.89908  0.72819  1.0000
  C   C39       1.0  0.06476  0.59055  0.60792  1.0000
  C   C40       1.0  0.60400  0.50764  0.75987  1.0000
  C   C41       1.0  0.47916  0.07628  0.44961  1.0000
  C   C42       1.0  0.89345  0.38845  0.68462  1.0000
  C   C43       1.0  0.42525  0.51477  0.70088  1.0000
  C   C44       1.0  0.48776  0.91060  0.79426  1.0000
  C   C45       1.0  0.07963  0.56344  0.73834  1.0000
  C   C46       1.0  0.56556  0.47352  0.78263  1.0000
  C   C47       1.0  0.50273  0.07503  0.64715  1.0000
  C   C48       1.0  0.91164  0.43120  0.76852  1.0000
  N   N1        1.0  0.45151  0.57108  0.23431  1.0000
  N   N2        1.0  0.43352  0.88328  0.14251  1.0000
  N   N3        1.0  0.10843  0.55304  0.20970  1.0000
  N   N4        1.0  0.55889  0.45332  0.19651  1.0000
  N   N5        1.0  0.57532  0.11879  0.19005  1.0000
  N   N6        1.0  0.87674  0.44555  0.17121  1.0000
  N   N7        1.0  0.34863  0.47261  0.92342  1.0000
  N   N8        1.0  0.54269  0.90043  0.23301  1.0000
  N   N9        1.0  0.06382  0.62297  0.02368  1.0000
  N   N10       1.0  0.63630  0.55263  0.16354  1.0000
  N   N11       1.0  0.45291  0.08533  0.84664  1.0000
  N   N12       1.0  0.89602  0.36091  0.18354  1.0000
  N   N13       1.0  0.44487  0.56024  0.73362  1.0000
  N   N14       1.0  0.43509  0.87949  0.71966  1.0000
  N   N15       1.0  0.10186  0.54503  0.71028  1.0000
  N   N16       1.0  0.53719  0.43271  0.65676  1.0000
  N   N17       1.0  0.55617  0.10784  0.77159  1.0000
  N   N18       1.0  0.87247  0.44078  0.69338  1.0000
  N   N19       1.0  0.34037  0.47294  0.36873  1.0000
  N   N20       1.0  0.52772  0.89040  0.68213  1.0000
  N   N21       1.0  0.05473  0.61272  0.50639  1.0000
  N   N22       1.0  0.63235  0.53163  0.72647  1.0000
  N   N23       1.0  0.45844  0.07718  0.29344  1.0000
  N   N24       1.0  0.87810  0.35443  0.61795  1.0000
  C   C49       1.0  0.49139  0.46743  0.24812  1.0000
  C   C50       1.0  0.53293  0.49570  0.24528  1.0000
  C  Sn1       1.0  0.54787  0.53880  0.24759  1.0000
  C  Sn2       1.0  0.52063  0.55378  0.25289  1.0000
  C   C51       1.0  0.47914  0.52524  0.25582  1.0000
  C   C52       1.0  0.46452  0.48218  0.25342  1.0000
  H   H37       1.0  0.48008  0.43412  0.24636  1.0000
  O  Te1       1.0  0.58946  0.56661  0.24463  1.0000
  O  Te2       1.0  0.53475  0.59669  0.25536  1.0000
  H   H38       1.0  0.43237  0.46030  0.25573  1.0000
  Mg  Mg1       1.0  0.59404  0.62220  0.24967  1.0000
  C   C53       1.0  0.55525  0.00588  0.30034  1.0000
  C   C54       1.0  0.51152  0.96964  0.26851  1.0000
  C  Sn3       1.0  0.46838  0.97123  0.19340  1.0000
  C  Sn4       1.0  0.97728  0.00984  0.14943  1.0000
  C   C55       1.0  0.02121  0.04591  0.18168  1.0000
  C   C56       1.0  0.06417  0.04398  0.25695  1.0000
  H   H39       1.0  0.58849  0.00438  0.35849  1.0000
  O  Te3       1.0  0.42500  0.93473  0.16254  1.0000
  O  Te4       1.0  0.93469  0.01231  0.07415  1.0000
  H   H40       1.0  0.09802  0.07203  0.28147  1.0000
  Mg  Mg2       1.0  0.37649  0.95401  0.05754  1.0000
  C   C57       1.0  0.98887  0.53634  0.17531  1.0000
  C   C58       1.0  0.03189  0.53769  0.22444  1.0000
  C  Sn5       1.0  0.03806  0.50291  0.28044  1.0000
  C  Sn6       1.0  0.00038  0.46614  0.28718  1.0000
  C   C59       1.0  0.95746  0.46509  0.23763  1.0000
  C   C60       1.0  0.95168  0.50007  0.18186  1.0000
  H   H41       1.0  0.98438  0.56339  0.13207  1.0000
  O  Te5       1.0  0.08128  0.50480  0.32912  1.0000
  O  Te6       1.0  0.00558  0.43092  0.34257  1.0000
  H   H42       1.0  0.91835  0.49901  0.14371  1.0000
  Mg  Mg3       1.0  0.07120  0.44875  0.39556  1.0000
  C   C61       1.0  0.45016  0.64840  0.40470  1.0000
  C   C62       1.0  0.40041  0.63207  0.34010  1.0000
  C  Sn7       1.0  0.36347  0.58965  0.24563  1.0000
  C  Sn8       1.0  0.37671  0.56315  0.21553  1.0000
  C   C63       1.0  0.42659  0.57978  0.28082  1.0000
  C   C64       1.0  0.46325  0.62228  0.37513  1.0000
  H   H43       1.0  0.47853  0.68127  0.47776  1.0000
  O  Te7       1.0  0.31394  0.57386  0.18196  1.0000
  O  Te8       1.0  0.34055  0.52063  0.12159  1.0000
  H   H44       1.0  0.50177  0.63490  0.42524  1.0000
  Mg  Mg4       1.0  0.27811  0.51381  0.06136  1.0000
  C   C65       1.0  0.38575  0.82110  0.29048  1.0000
  C   C66       1.0  0.41379  0.84037  0.21868  1.0000
  C  Sn9       1.0  0.42602  0.81729  0.16498  1.0000
  C  Sn10      1.0  0.40982  0.77412  0.18364  1.0000
  C   C67       1.0  0.38175  0.75512  0.25550  1.0000
  C   C68       1.0  0.36973  0.77851  0.30886  1.0000
  H   H45       1.0  0.37642  0.83919  0.33167  1.0000
  O  Te9       1.0  0.45409  0.83704  0.09358  1.0000
  O  Te10      1.0  0.42150  0.75031  0.13098  1.0000
  H   H46       1.0  0.34799  0.76358  0.36433  1.0000
  Mg  Mg5       1.0  0.46060  0.79135  0.04119  1.0000
  C   C69       1.0  0.18268  0.63056  0.19843  1.0000
  C   C70       1.0  0.15920  0.58985  0.22908  1.0000
  C  Sn11      1.0  0.18353  0.56678  0.30242  1.0000
  C  Sn12      1.0  0.23227  0.58490  0.34579  1.0000
  C   C71       1.0  0.25546  0.62566  0.31473  1.0000
  C   C72       1.0  0.23077  0.64846  0.24123  1.0000
  H   H47       1.0  0.16360  0.64820  0.14166  1.0000
  O  Te11      1.0  0.15951  0.52615  0.33211  1.0000
  O  Te12      1.0  0.25745  0.56256  0.41929  1.0000
  H   H48       1.0  0.24898  0.67999  0.21763  1.0000
  Mg  Mg6       1.0  0.20914  0.50823  0.43483  1.0000
  C   C73       1.0  0.66133  0.44331  0.34136  1.0000
  C   C74       1.0  0.64087  0.39932  0.30304  1.0000
  C  Sn13      1.0  0.58924  0.37090  0.21552  1.0000
  C  Sn14      1.0  0.55760  0.38692  0.16556  1.0000
  C   C75       1.0  0.57843  0.43098  0.20439  1.0000
  C   C76       1.0  0.63015  0.45914  0.29207  1.0000
  H   H49       1.0  0.70134  0.46510  0.40911  1.0000
  O  Te13      1.0  0.56942  0.32704  0.17832  1.0000
  O  Te14      1.0  0.50587  0.35923  0.07790  1.0000
  H   H50       1.0  0.64597  0.49320  0.32161  1.0000
  Mg  Mg7       1.0  0.49661  0.30211  0.05655  1.0000
  C   C77       1.0  0.56979  0.19239  0.06499  1.0000
  C   C78       1.0  0.58827  0.16784  0.18143  1.0000
  C  Sn15      1.0  0.63118  0.18678  0.36281  1.0000
  C  Sn16      1.0  0.65597  0.23113  0.42845  1.0000
  C   C79       1.0  0.63717  0.25540  0.31091  1.0000
  C   C80       1.0  0.59420  0.23613  0.12965  1.0000
  H   H51       1.0  0.69650  0.22557  0.92477  1.0000
  O  Te15      1.0  0.64915  0.16178  0.47728  1.0000
  O  Te16      1.0  0.69893  0.25087  0.60913  1.0000
  H   H52       1.0  0.57989  0.25514  0.03956  1.0000
  Mg  Mg8       1.0  0.70898  0.20332  0.71244  1.0000
  C   C81       1.0  0.79561  0.44009  0.25762  1.0000
  C   C82       1.0  0.76521  0.39707  0.24899  1.0000
  C  Sn17      1.0  0.77386  0.36648  0.22575  1.0000
  C  Sn18      1.0  0.81371  0.37929  0.21097  1.0000
  C   C83       1.0  0.84393  0.42240  0.21991  1.0000
  C   C84       1.0  0.83493  0.45275  0.24314  1.0000
  H   H53       1.0  0.78867  0.46357  0.27569  1.0000
  O  Te17      1.0  0.74312  0.32364  0.21733  1.0000
  O  Te18      1.0  0.82319  0.34938  0.18775  1.0000
  H   H54       1.0  0.85849  0.48605  0.24994  1.0000
  Mg  Mg9       1.0  0.77096  0.29479  0.18435  1.0000
  C   C85       1.0  0.51694  0.54038  0.73421  1.0000
  C   C86       1.0  0.47137  0.51331  0.71281  1.0000
  C  Sn19      1.0  0.45486  0.47016  0.71848  1.0000
  C  Sn20      1.0  0.48462  0.45391  0.74617  1.0000
  C   C87       1.0  0.53017  0.48126  0.76757  1.0000
  C   C88       1.0  0.54633  0.52438  0.76160  1.0000
  H   H55       1.0  0.52946  0.57375  0.72970  1.0000
  O  Te19      1.0  0.40922  0.44356  0.69678  1.0000
  O  Te20      1.0  0.46902  0.41092  0.75249  1.0000
  H   H56       1.0  0.58163  0.54534  0.77830  1.0000
  Mg  Mg10      1.0  0.40400  0.38733  0.71576  1.0000
  C   C89       1.0  0.95818  0.99581  0.76736  1.0000
  C   C90       1.0  0.98467  0.02729  0.70574  1.0000
  C  Sn21      1.0  0.01073  0.02061  0.65975  1.0000
  C  Sn22      1.0  0.01019  0.98167  0.67584  1.0000
  C   C91       1.0  0.98355  0.95038  0.73750  1.0000
  C   C92       1.0  0.95761  0.95739  0.78320  1.0000
  H   H57       1.0  0.93808  0.00123  0.80263  1.0000
  O  Te21      1.0  0.54515  0.05240  0.59848  1.0000
  O  Te22      1.0  0.03591  0.97416  0.63074  1.0000
  H   H58       1.0  0.93707  0.93301  0.83079  1.0000
  Mg  Mg11      1.0  0.57443  0.02720  0.55366  1.0000
  C   C93       1.0  0.02511  0.47882  0.79389  1.0000
  C   C94       1.0  0.03421  0.51856  0.74572  1.0000
  C  Sn23      1.0  0.00285  0.53313  0.70854  1.0000
  C  Sn24      1.0  0.96165  0.50736  0.71996  1.0000
  C   C95       1.0  0.95289  0.46766  0.76839  1.0000
  C   C96       1.0  0.98449  0.45339  0.80525  1.0000
  H   H59       1.0  0.04957  0.46779  0.82251  1.0000
  O  Te23      1.0  0.01247  0.57291  0.66054  1.0000
  O  Te24      1.0  0.92973  0.52114  0.68358  1.0000
  H   H60       1.0  0.97746  0.42263  0.84266  1.0000
  Mg  Mg12      1.0  0.95830  0.57774  0.62363  1.0000
  C   C97       1.0  0.36125  0.55055  0.70844  1.0000
  C   C98       1.0  0.40871  0.56886  0.74552  1.0000
  C  Sn25      1.0  0.44433  0.61223  0.82592  1.0000
  C  Sn26      1.0  0.43209  0.63765  0.86991  1.0000
  C   C99       1.0  0.38451  0.61902  0.83239  1.0000
  C   C100      1.0  0.34915  0.57559  0.75185  1.0000
  H   H61       1.0  0.33389  0.51694  0.64622  1.0000
  O  Te25      1.0  0.49157  0.63001  0.86197  1.0000
  O  Te26      1.0  0.46698  0.68107  0.95041  1.0000
  H   H62       1.0  0.31241  0.56142  0.72327  1.0000
  Mg  Mg13      1.0  0.52637  0.69064  0.97298  1.0000
  C   C101      1.0  0.44805  0.80865  0.82991  1.0000
  C   C102      1.0  0.42457  0.83216  0.74294  1.0000
  C  Sn27      1.0  0.37338  0.81356  0.66323  1.0000
  C  Sn28      1.0  0.34528  0.77064  0.67099  1.0000
  C   C103      1.0  0.36912  0.74740  0.75842  1.0000
  C   C104      1.0  0.42036  0.76632  0.83768  1.0000
  H   H63       1.0  0.48770  0.82329  0.89132  1.0000
  O  Te27      1.0  0.35052  0.83749  0.57683  1.0000
  O  Te28      1.0  0.29407  0.75127  0.59251  1.0000
  H   H64       1.0  0.43853  0.74813  0.90511  1.0000
  Mg  Mg14      1.0  0.27981  0.79699  0.49009  1.0000
  C   C105      1.0  0.18150  0.62417  0.73469  1.0000
  C   C106      1.0  0.15336  0.58121  0.73403  1.0000
  C  Sn29      1.0  0.17235  0.55449  0.77211  1.0000
  C  Sn30      1.0  0.22044  0.57118  0.81160  1.0000
  C   C107      1.0  0.24832  0.61421  0.81205  1.0000
  C   C108      1.0  0.22894  0.64066  0.77370  1.0000
  H   H65       1.0  0.16653  0.64464  0.70512  1.0000
  O  Te29      1.0  0.14373  0.51165  0.77080  1.0000
  O  Te30      1.0  0.24034  0.54519  0.85020  1.0000
  H   H66       1.0  0.25076  0.67392  0.77434  1.0000
  Mg  Mg15      1.0  0.18702  0.48895  0.83184  1.0000
  C   C109      1.0  0.61480  0.41413  0.62027  1.0000
  C   C110      1.0  0.62108  0.38363  0.72614  1.0000
  C  Sn31      1.0  0.59710  0.36675  0.81366  1.0000
  C  Sn32      1.0  0.56627  0.38072  0.79454  1.0000
  C   C111      1.0  0.56019  0.41123  0.68821  1.0000
  C   C112      1.0  0.58438  0.42791  0.60128  1.0000
  H   H67       1.0  0.63349  0.42703  0.55291  1.0000
  O  Te31      1.0  0.60379  0.33632  0.91897  1.0000
  O  Te32      1.0  0.54184  0.36437  0.88047  1.0000
  H   H68       1.0  0.57948  0.45151  0.51922  1.0000
  Mg  Mg16      1.0  0.40269  0.27543  0.00942  1.0000
  C   C113      1.0  0.65185  0.21241  0.88003  1.0000
  C   C114      1.0  0.62899  0.23564  0.77827  1.0000
  C  Sn33      1.0  0.57652  0.21556  0.66408  1.0000
  C  Sn34      1.0  0.54649  0.17140  0.65186  1.0000
  C   C115      1.0  0.56973  0.14844  0.75432  1.0000
  C   C116      1.0  0.62226  0.16885  0.86811  1.0000
  H   H69       1.0  0.69250  0.22820  0.96815  1.0000
  O  Te33      1.0  0.55429  0.23925  0.56330  1.0000
  O  Te34      1.0  0.49397  0.15053  0.53885  1.0000
  H   H70       1.0  0.63995  0.15086  0.94697  1.0000
  Mg  Mg17      1.0  0.48127  0.19651  0.42846  1.0000
  C   C117      1.0  0.81459  0.36977  0.79065  1.0000
  C   C118      1.0  0.83032  0.40703  0.72514  1.0000
  C  Sn35      1.0  0.80812  0.43130  0.68153  1.0000
  C  Sn36      1.0  0.76948  0.41796  0.70411  1.0000
  C   C119      1.0  0.75404  0.38066  0.76987  1.0000
  C   C120      1.0  0.77649  0.35660  0.81303  1.0000
  H   H71       1.0  0.83198  0.35117  0.82415  1.0000
  O  Te35      1.0  0.82427  0.46843  0.61617  1.0000
  O  Te36      1.0  0.74667  0.44164  0.66163  1.0000
  H   H72       1.0  0.76433  0.32778  0.86386  1.0000
  Mg  Mg18      1.0  0.78164  0.48989  0.57703  1.0000
