data_image0
_chemical_formula_structural       H72C132N12C2Sn2C2HTe2HMgC2Sn2C2HTe2HMgC2Sn2C2HTe2HMgC2Sn2C2HTe2HMgC2Sn2C2HTe2HMgC2Sn2C2HTe2HMgC2Sn2C2HTe2HMgC2Sn2C2HTe2HMgC2Sn2C2HTe2HMgC2Sn2C2HTe2HMgC2Sn2C2HTe2HMgC2Sn2C2HTe2HMgC2Sn2C2HTe2HMgC2Sn2C2HTe2HMgC2Sn2C2HTe2HMgC2Sn2C2HTe2HMgC2Sn2C2HTe2HMgC2Sn2C2HTe2HMg
_chemical_formula_sum              "H108 C204 N12 Sn36 Te36 Mg18"
_cell_length_a       36.6727
_cell_length_b       36.5832
_cell_length_c       8.0567
_cell_angle_alpha    89.7715
_cell_angle_beta     88.819
_cell_angle_gamma    120.386

_symmetry_space_group_name_H-M    'P1'
_space_group_IT_number       1

loop_
  _space_group_symop_operation_xyz
  'x, y, z'

loop_
  _atom_site_type_symbol
  _atom_site_label
  _atom_site_symmetry_multiplicity
  _atom_site_fract_x
  _atom_site_fract_y
  _atom_site_fract_z
  _atom_site_occupancy
  H   H1        1.0  0.48389  0.64060  0.42811  1.0000
  H   H2        1.0  0.35853  0.83974  0.42643  1.0000
  H   H3        1.0  0.15911  0.51561  0.42415  1.0000
  H   H4        1.0  0.51909  0.35941  0.45390  1.0000
  H   H5        1.0  0.63944  0.15742  0.41871  1.0000
  H   H6        1.0  0.84121  0.48225  0.42361  1.0000
  H   H7        1.0  0.44053  0.67410  0.48268  1.0000
  H   H8        1.0  0.32554  0.76273  0.48826  1.0000
  H   H9        1.0  0.23619  0.55798  0.47381  1.0000
  H   H10       1.0  0.56224  0.32555  0.49981  1.0000
  H   H11       1.0  0.67254  0.23425  0.47978  1.0000
  H   H12       1.0  0.76386  0.43743  0.47874  1.0000
  H   H13       1.0  0.38936  0.47717  0.11388  1.0000
  H   H14       1.0  0.52234  0.91038  0.08927  1.0000
  H   H15       1.0  0.09371  0.61471  0.12530  1.0000
  H   H16       1.0  0.61435  0.52288  0.11551  1.0000
  H   H17       1.0  0.47768  0.09057  0.10263  1.0000
  H   H18       1.0  0.91245  0.39104  0.09418  1.0000
  H   H19       1.0  0.41331  0.70872  0.38228  1.0000
  H   H20       1.0  0.29260  0.70103  0.38538  1.0000
  H   H21       1.0  0.29936  0.58737  0.37560  1.0000
  H   H22       1.0  0.58858  0.29067  0.38210  1.0000
  H   H23       1.0  0.70852  0.29660  0.36202  1.0000
  H   H24       1.0  0.70354  0.41127  0.37239  1.0000
  H   H25       1.0  0.20768  0.41986  0.08987  1.0000
  H   H26       1.0  0.57759  0.78258  0.07016  1.0000
  H   H27       1.0  0.22368  0.79542  0.04853  1.0000
  H   H28       1.0  0.79626  0.57967  0.07071  1.0000
  H   H29       1.0  0.41903  0.21304  0.09001  1.0000
  H   H30       1.0  0.78926  0.20834  0.06275  1.0000
  H   H31       1.0  0.33568  0.57062  0.24340  1.0000
  H   H32       1.0  0.43107  0.76263  0.24719  1.0000
  H   H33       1.0  0.24061  0.66688  0.24789  1.0000
  H   H34       1.0  0.66766  0.42937  0.24118  1.0000
  H   H35       1.0  0.57038  0.23761  0.24295  1.0000
  H   H36       1.0  0.76360  0.33476  0.22084  1.0000
  H   H37       1.0  0.48141  0.64313  0.93184  1.0000
  H   H38       1.0  0.36141  0.84430  0.92293  1.0000
  H   H39       1.0  0.15866  0.51630  0.93258  1.0000
  H   H40       1.0  0.51637  0.36090  0.95456  1.0000
  H   H41       1.0  0.63934  0.15951  0.91381  1.0000
  H   H42       1.0  0.84028  0.48194  0.91426  1.0000
  H   H43       1.0  0.43733  0.67573  0.98620  1.0000
  H   H44       1.0  0.32643  0.76691  0.98557  1.0000
  H   H45       1.0  0.23526  0.56177  0.98310  1.0000
  H   H46       1.0  0.55933  0.32698  0.00437  1.0000
  H   H47       1.0  0.67145  0.23599  0.97526  1.0000
  H   H48       1.0  0.76273  0.43999  0.97174  1.0000
  H   H49       1.0  0.38923  0.48025  0.61330  1.0000
  H   H50       1.0  0.52443  0.91073  0.58490  1.0000
  H   H51       1.0  0.08776  0.60769  0.61197  1.0000
  H   H52       1.0  0.61242  0.52434  0.61776  1.0000
  H   H53       1.0  0.47795  0.09112  0.59244  1.0000
  H   H54       1.0  0.90600  0.38316  0.60687  1.0000
  H   H55       1.0  0.41074  0.71042  0.88549  1.0000
  H   H56       1.0  0.29083  0.70408  0.86783  1.0000
  H   H57       1.0  0.29633  0.58958  0.87251  1.0000
  H   H58       1.0  0.58547  0.29178  0.87446  1.0000
  H   H59       1.0  0.70517  0.29730  0.87325  1.0000
  H   H60       1.0  0.70053  0.41213  0.88230  1.0000
  H   H61       1.0  0.20725  0.41684  0.60443  1.0000
  H   H62       1.0  0.57920  0.78391  0.57222  1.0000
  H   H63       1.0  0.20524  0.79075  0.58773  1.0000
  H   H64       1.0  0.79371  0.58276  0.57321  1.0000
  H   H65       1.0  0.41808  0.21415  0.60339  1.0000
  H   H66       1.0  0.77461  0.20437  0.52769  1.0000
  H   H67       1.0  0.33341  0.57208  0.74352  1.0000
  H   H68       1.0  0.42953  0.76321  0.73861  1.0000
  H   H69       1.0  0.23590  0.66578  0.73000  1.0000
  H   H70       1.0  0.66480  0.42983  0.74222  1.0000
  H   H71       1.0  0.56794  0.23769  0.74176  1.0000
  H   H72       1.0  0.75825  0.33215  0.74085  1.0000
  C   C1        1.0  0.35935  0.64564  0.38095  1.0000
  C   C2        1.0  0.35532  0.71042  0.38550  1.0000
  C   C3        1.0  0.29037  0.64108  0.38120  1.0000
  C   C4        1.0  0.64301  0.35344  0.37918  1.0000
  C   C5        1.0  0.64605  0.28815  0.37433  1.0000
  C   C6        1.0  0.71154  0.35704  0.36880  1.0000
  C   C7        1.0  0.37898  0.68992  0.38525  1.0000
  C   C8        1.0  0.31114  0.68546  0.38681  1.0000
  C   C9        1.0  0.31496  0.62170  0.38125  1.0000
  C   C10       1.0  0.62292  0.30913  0.38115  1.0000
  C   C11       1.0  0.69035  0.31256  0.37002  1.0000
  C   C12       1.0  0.68737  0.37687  0.37560  1.0000
  C   C13       1.0  0.38484  0.62489  0.36204  1.0000
  C   C14       1.0  0.37596  0.75696  0.36683  1.0000
  C   C15       1.0  0.24407  0.61585  0.36223  1.0000
  C   C16       1.0  0.61801  0.37474  0.36753  1.0000
  C   C17       1.0  0.62439  0.24168  0.35741  1.0000
  C   C18       1.0  0.75802  0.38283  0.34892  1.0000
  C   C19       1.0  0.40124  0.50809  0.16918  1.0000
  C   C20       1.0  0.49161  0.89082  0.15034  1.0000
  C   C21       1.0  0.11246  0.60254  0.17955  1.0000
  C   C22       1.0  0.60226  0.49194  0.17440  1.0000
  C   C23       1.0  0.50857  0.10931  0.15684  1.0000
  C   C24       1.0  0.89299  0.40247  0.15057  1.0000
  C   C25       1.0  0.36782  0.58574  0.28649  1.0000
  C   C26       1.0  0.41535  0.77952  0.28769  1.0000
  C   C27       1.0  0.22285  0.63404  0.28966  1.0000
  C   C28       1.0  0.63537  0.41417  0.28957  1.0000
  C   C29       1.0  0.58536  0.22009  0.28273  1.0000
  C   C30       1.0  0.78054  0.36672  0.26794  1.0000
  C   C31       1.0  0.39118  0.56519  0.25920  1.0000
  C   C32       1.0  0.43520  0.82346  0.25306  1.0000
  C   C33       1.0  0.17889  0.61104  0.26313  1.0000
  C   C34       1.0  0.61203  0.43478  0.26609  1.0000
  C   C35       1.0  0.56502  0.17619  0.25208  1.0000
  C   C36       1.0  0.82486  0.39081  0.24190  1.0000
  C   C37       1.0  0.43463  0.58649  0.30612  1.0000
  C   C38       1.0  0.41320  0.84524  0.29904  1.0000
  C   C39       1.0  0.15565  0.56691  0.30986  1.0000
  C   C40       1.0  0.56847  0.41353  0.32071  1.0000
  C   C41       1.0  0.58620  0.15367  0.29583  1.0000
  C   C42       1.0  0.84687  0.43406  0.29443  1.0000
  C   C43       1.0  0.45150  0.62608  0.38681  1.0000
  C   C44       1.0  0.37357  0.82213  0.38546  1.0000
  C   C45       1.0  0.17761  0.54873  0.38558  1.0000
  C   C46       1.0  0.55148  0.37388  0.40593  1.0000
  C   C47       1.0  0.62527  0.17575  0.37855  1.0000
  C   C48       1.0  0.82357  0.44997  0.37926  1.0000
  C   C49       1.0  0.42734  0.64456  0.41525  1.0000
  C   C50       1.0  0.35551  0.77942  0.41898  1.0000
  C   C51       1.0  0.22035  0.57240  0.41174  1.0000
  C   C52       1.0  0.57553  0.35523  0.42967  1.0000
  C   C53       1.0  0.64358  0.21831  0.41011  1.0000
  C   C54       1.0  0.78068  0.42505  0.40775  1.0000
  C   C55       1.0  0.44430  0.53214  0.21430  1.0000
  C   C56       1.0  0.46705  0.90946  0.19623  1.0000
  C   C57       1.0  0.09242  0.55885  0.22376  1.0000
  C   C58       1.0  0.55895  0.46774  0.22530  1.0000
  C   C59       1.0  0.53257  0.09000  0.19772  1.0000
  C   C60       1.0  0.91192  0.44534  0.20143  1.0000
  C   C61       1.0  0.37399  0.52358  0.19197  1.0000
  C   C62       1.0  0.47656  0.84805  0.17745  1.0000
  C   C63       1.0  0.15555  0.62925  0.19618  1.0000
  C   C64       1.0  0.62937  0.47639  0.19425  1.0000
  C   C65       1.0  0.52380  0.15196  0.18375  1.0000
  C   C66       1.0  0.84995  0.37454  0.17173  1.0000
  C   C67       1.0  0.35665  0.64739  0.87996  1.0000
  C   C68       1.0  0.35319  0.71254  0.87881  1.0000
  C   C69       1.0  0.28790  0.64350  0.87303  1.0000
  C   C70       1.0  0.63996  0.35432  0.88347  1.0000
  C   C71       1.0  0.64290  0.28897  0.87746  1.0000
  C   C72       1.0  0.70841  0.35779  0.87813  1.0000
  C   C73       1.0  0.37644  0.69167  0.88443  1.0000
  C   C74       1.0  0.30890  0.68802  0.87512  1.0000
  C   C75       1.0  0.31232  0.62393  0.87730  1.0000
  C   C76       1.0  0.61973  0.30998  0.88097  1.0000
  C   C77       1.0  0.68709  0.31336  0.87902  1.0000
  C   C78       1.0  0.68434  0.37773  0.88404  1.0000
  C   C79       1.0  0.38207  0.62649  0.86338  1.0000
  C   C80       1.0  0.37523  0.75924  0.86045  1.0000
  C   C81       1.0  0.24152  0.61722  0.85486  1.0000
  C   C82       1.0  0.61511  0.37579  0.87073  1.0000
  C   C83       1.0  0.62219  0.24263  0.85714  1.0000
  C   C84       1.0  0.75488  0.38283  0.85649  1.0000
  C   C85       1.0  0.40063  0.51108  0.66875  1.0000
  C   C86       1.0  0.49344  0.89184  0.64510  1.0000
  C   C87       1.0  0.10717  0.59638  0.66679  1.0000
  C   C88       1.0  0.60020  0.49335  0.67618  1.0000
  C   C89       1.0  0.50850  0.11004  0.64902  1.0000
  C   C90       1.0  0.88737  0.39563  0.66281  1.0000
  C   C91       1.0  0.36555  0.58746  0.78704  1.0000
  C   C92       1.0  0.41480  0.78087  0.78153  1.0000
  C   C93       1.0  0.21908  0.63331  0.77656  1.0000
  C   C94       1.0  0.63260  0.41505  0.79137  1.0000
  C   C95       1.0  0.58344  0.22065  0.78111  1.0000
  C   C96       1.0  0.77619  0.36477  0.78037  1.0000
  C   C97       1.0  0.38944  0.56741  0.75951  1.0000
  C   C98       1.0  0.43594  0.82499  0.74858  1.0000
  C   C99       1.0  0.17496  0.60860  0.75302  1.0000
  C   C100      1.0  0.60958  0.43599  0.76784  1.0000
  C   C101      1.0  0.56392  0.17691  0.74836  1.0000
  C   C102      1.0  0.82036  0.38741  0.75024  1.0000
  C   C103      1.0  0.43289  0.58905  0.80714  1.0000
  C   C104      1.0  0.41493  0.84774  0.79416  1.0000
  C   C105      1.0  0.15306  0.56478  0.80462  1.0000
  C   C106      1.0  0.56599  0.41494  0.82214  1.0000
  C   C107      1.0  0.58558  0.15486  0.79179  1.0000
  C   C108      1.0  0.84366  0.43102  0.79762  1.0000
  C   C109      1.0  0.44909  0.62836  0.88955  1.0000
  C   C110      1.0  0.37538  0.82570  0.88163  1.0000
  C   C111      1.0  0.17624  0.54894  0.88729  1.0000
  C   C112      1.0  0.54880  0.37531  0.90755  1.0000
  C   C113      1.0  0.62456  0.17737  0.87487  1.0000
  C   C114      1.0  0.82159  0.44920  0.87591  1.0000
  C   C115      1.0  0.42447  0.64632  0.91810  1.0000
  C   C116      1.0  0.35621  0.78288  0.91483  1.0000
  C   C117      1.0  0.21881  0.57439  0.91353  1.0000
  C   C118      1.0  0.57266  0.35650  0.93290  1.0000
  C   C119      1.0  0.64218  0.21980  0.90749  1.0000
  C   C120      1.0  0.77861  0.42582  0.90583  1.0000
  C   C121      1.0  0.44351  0.53533  0.71480  1.0000
  C   C122      1.0  0.46947  0.91128  0.68831  1.0000
  C   C123      1.0  0.08850  0.55306  0.71557  1.0000
  C   C124      1.0  0.55692  0.46943  0.72690  1.0000
  C   C125      1.0  0.53299  0.09119  0.68959  1.0000
  C   C126      1.0  0.90765  0.43878  0.71017  1.0000
  C   C127      1.0  0.37289  0.52595  0.69143  1.0000
  C   C128      1.0  0.47761  0.84902  0.67485  1.0000
  C   C129      1.0  0.14978  0.62476  0.68688  1.0000
  C   C130      1.0  0.62721  0.47770  0.69673  1.0000
  C   C131      1.0  0.52297  0.15246  0.67823  1.0000
  C   C132      1.0  0.84394  0.36935  0.68075  1.0000
  N   N1        1.0  0.46044  0.57031  0.28195  1.0000
  N   N2        1.0  0.42869  0.88724  0.26799  1.0000
  N   N3        1.0  0.11344  0.54135  0.28714  1.0000
  N   N4        1.0  0.54265  0.42965  0.29831  1.0000
  N   N5        1.0  0.57034  0.11185  0.26676  1.0000
  N   N6        1.0  0.88921  0.46048  0.27276  1.0000
  N   N7        1.0  0.45923  0.57342  0.78288  1.0000
  N   N8        1.0  0.43126  0.88978  0.76175  1.0000
  N   N9        1.0  0.11093  0.53776  0.78464  1.0000
  N   N10       1.0  0.54034  0.43128  0.79969  1.0000
  N   N11       1.0  0.57047  0.11324  0.76066  1.0000
  N   N12       1.0  0.88615  0.45598  0.77533  1.0000
  C   C133      1.0  0.27417  0.42875  0.21742  1.0000
  C   C134      1.0  0.24545  0.43688  0.13781  1.0000
  C  Sn1       1.0  0.25940  0.47591  0.05816  1.0000
  C  Sn2       1.0  0.30293  0.50730  0.05838  1.0000
  C   C135      1.0  0.33142  0.49884  0.13827  1.0000
  C   C136      1.0  0.31712  0.45969  0.21764  1.0000
  H   H73       1.0  0.26312  0.39845  0.27875  1.0000
  O  Te1       1.0  0.22359  0.47925  0.97928  1.0000
  O  Te2       1.0  0.31105  0.54231  0.97968  1.0000
  H   H74       1.0  0.33937  0.45339  0.27916  1.0000
  Mg  Mg1       1.0  0.25911  0.53766  0.88915  1.0000
  C   C137      1.0  0.50550  0.77387  0.02506  1.0000
  C   C138      1.0  0.54790  0.79083  0.06500  1.0000
  C  Sn3       1.0  0.56886  0.82854  0.15281  1.0000
  C  Sn4       1.0  0.54688  0.84958  0.20141  1.0000
  C   C139      1.0  0.50445  0.83234  0.16096  1.0000
  C   C140      1.0  0.48378  0.79459  0.07301  1.0000
  H   H75       1.0  0.48282  0.74039  0.95709  1.0000
  O  Te3       1.0  0.61124  0.84506  0.19164  1.0000
  O  Te4       1.0  0.56706  0.88731  0.28933  1.0000
  H   H76       1.0  0.45094  0.78145  0.04220  1.0000
  Mg  Mg2       1.0  0.62502  0.89730  0.31313  1.0000
  C   C141      1.0  0.15538  0.70734  0.21873  1.0000
  C   C142      1.0  0.16790  0.67920  0.16200  1.0000
  C  Sn5       1.0  0.20425  0.69383  0.06128  1.0000
  C  Sn6       1.0  0.22845  0.73746  0.01678  1.0000
  C   C143      1.0  0.21567  0.76536  0.07427  1.0000
  C   C144      1.0  0.17924  0.75038  0.17495  1.0000
  H   H77       1.0  0.12720  0.69575  0.29670  1.0000
  O  Te5       1.0  0.21630  0.66529  0.00563  1.0000
  O  Te6       1.0  0.25824  0.74867  0.91632  1.0000
  H   H78       1.0  0.16956  0.77218  0.21894  1.0000
  Mg  Mg3       1.0  0.26175  0.69735  0.87143  1.0000
  C   C145      1.0  0.70606  0.55534  0.22884  1.0000
  C   C146      1.0  0.67911  0.51533  0.16436  1.0000
  C  Sn7       1.0  0.69533  0.49579  0.06253  1.0000
  C  Sn8       1.0  0.73936  0.51678  0.02481  1.0000
  C   C147      1.0  0.76606  0.55678  0.09002  1.0000
  C   C148      1.0  0.74950  0.57605  0.19175  1.0000
  H   H79       1.0  0.69325  0.57023  0.30762  1.0000
  O  Te7       1.0  0.66127  0.45155  0.99910  1.0000
  O  Te8       1.0  0.74973  0.49370  0.92341  1.0000
  H   H80       1.0  0.77038  0.60701  0.24174  1.0000
  Mg  Mg4       1.0  0.69958  0.43893  0.86670  1.0000
  C   C149      1.0  0.44411  0.14725  0.23216  1.0000
  C   C150      1.0  0.48472  0.16221  0.16462  1.0000
  C  Sn9       1.0  0.50445  0.19939  0.06800  1.0000
  C  Sn10      1.0  0.48304  0.22194  0.03871  1.0000
  C   C151      1.0  0.44244  0.20672  0.10693  1.0000
  C   C152      1.0  0.42299  0.16947  0.20339  1.0000
  H   H81       1.0  0.42907  0.11844  0.30687  1.0000
  O  Te9       1.0  0.54502  0.21389  0.00141  1.0000
  O  Te10      1.0  0.49535  0.25492  0.94266  1.0000
  H   H82       1.0  0.39156  0.15791  0.25575  1.0000
  Mg  Mg5       1.0  0.55099  0.26194  0.87874  1.0000
  C   C153      1.0  0.77872  0.27087  0.01584  1.0000
  C   C154      1.0  0.79605  0.24600  0.06045  1.0000
  C  Sn11      1.0  0.83236  0.26305  0.15535  1.0000
  C  Sn12      1.0  0.85159  0.30580  0.20638  1.0000
  C   C155      1.0  0.83398  0.33040  0.16121  1.0000
  C   C156      1.0  0.79765  0.31303  0.06618  1.0000
  H   H83       1.0  0.74391  0.25316  0.94240  1.0000
  O  Te11      1.0  0.84927  0.23777  0.19878  1.0000
  O  Te12      1.0  0.88789  0.32363  0.30134  1.0000
  H   H84       1.0  0.78422  0.33228  0.03175  1.0000
  Mg  Mg6       1.0  0.89910  0.27644  0.32939  1.0000
  C   C157      1.0  0.54328  0.53740  0.19477  1.0000
  C   C158      1.0  0.53489  0.49572  0.20765  1.0000
  C  Sn13      1.0  0.49327  0.46186  0.20695  1.0000
  C  Sn14      1.0  0.45949  0.46998  0.19303  1.0000
  C   C159      1.0  0.46822  0.51179  0.18010  1.0000
  C   C160      1.0  0.50998  0.54543  0.18098  1.0000
  H   H85       1.0  0.57560  0.56343  0.19537  1.0000
  O  Te13      1.0  0.48545  0.42042  0.21999  1.0000
  O  Te14      1.0  0.41759  0.43673  0.19195  1.0000
  H   H86       1.0  0.51647  0.57769  0.17090  1.0000
  Mg  Mg7       1.0  0.42300  0.38574  0.21287  1.0000
  C   C161      1.0  0.54441  0.01870  0.21589  1.0000
  C   C162      1.0  0.52377  0.04067  0.17465  1.0000
  C  Sn15      1.0  0.48097  0.01854  0.13614  1.0000
  C  Sn16      1.0  0.96308  0.97357  0.13913  1.0000
  C   C163      1.0  0.98401  0.95189  0.18067  1.0000
  C   C164      1.0  0.02685  0.97435  0.21893  1.0000
  H   H87       1.0  0.57755  0.03608  0.24559  1.0000
  O  Te15      1.0  0.46084  0.04098  0.09514  1.0000
  O  Te16      1.0  0.92028  0.95065  0.10124  1.0000
  H   H88       1.0  0.04282  0.95733  0.25097  1.0000
  Mg  Mg8       1.0  0.90677  0.99555  0.05291  1.0000
  C   C165      1.0  0.98362  0.52886  0.22905  1.0000
  C   C166      1.0  0.96178  0.48612  0.18634  1.0000
  C  Sn17      1.0  0.98375  0.46476  0.15541  1.0000
  C  Sn18      1.0  0.02840  0.48667  0.16761  1.0000
  C   C167      1.0  0.04995  0.52941  0.21054  1.0000
  C   C168      1.0  0.02766  0.55048  0.24117  1.0000
  H   H89       1.0  0.96637  0.54516  0.25284  1.0000
  O  Te17      1.0  0.96144  0.42207  0.11283  1.0000
  O  Te18      1.0  0.05114  0.46608  0.13742  1.0000
  H   H90       1.0  0.04458  0.58356  0.27434  1.0000
  Mg  Mg9       1.0  0.00654  0.40779  0.08335  1.0000
  C   C169      1.0  0.26841  0.49104  0.54623  1.0000
  C   C170      1.0  0.24456  0.44841  0.59507  1.0000
  C  Sn19      1.0  0.26288  0.42976  0.68747  1.0000
  C  Sn20      1.0  0.30589  0.45432  0.73165  1.0000
  C   C171      1.0  0.32947  0.49695  0.68230  1.0000
  C   C172      1.0  0.31082  0.51530  0.58981  1.0000
  H   H91       1.0  0.25398  0.50525  0.47475  1.0000
  O  Te19      1.0  0.23861  0.38712  0.73519  1.0000
  O  Te20      1.0  0.32498  0.43648  0.82399  1.0000
  H   H92       1.0  0.32929  0.54831  0.55211  1.0000
  Mg  Mg10      1.0  0.27883  0.37712  0.85987  1.0000
  C   C173      1.0  0.49357  0.78545  0.53000  1.0000
  C   C174      1.0  0.49972  0.81962  0.62690  1.0000
  C  Sn21      1.0  0.53823  0.84469  0.70402  1.0000
  C  Sn22      1.0  0.57114  0.83531  0.68349  1.0000
  C   C175      1.0  0.56468  0.80107  0.58621  1.0000
  C   C176      1.0  0.52602  0.77618  0.50964  1.0000
  H   H93       1.0  0.46367  0.76621  0.47068  1.0000
  O  Te21      1.0  0.54383  0.87871  0.80045  1.0000
  O  Te22      1.0  0.60994  0.85986  0.75913  1.0000
  H   H94       1.0  0.52128  0.74975  0.43453  1.0000
  Mg  Mg11      1.0  0.60235  0.90285  0.87849  1.0000
  C   C177      1.0  0.14253  0.69799  0.73533  1.0000
  C   C178      1.0  0.15851  0.67375  0.66660  1.0000
  C  Sn23      1.0  0.19517  0.69296  0.56610  1.0000
  C  Sn24      1.0  0.21616  0.73728  0.53408  1.0000
  C   C179      1.0  0.19993  0.76125  0.60351  1.0000
  C   C180      1.0  0.16322  0.74170  0.70386  1.0000
  H   H95       1.0  0.11413  0.68286  0.81304  1.0000
  O  Te23      1.0  0.21071  0.66827  0.49837  1.0000
  O  Te24      1.0  0.25287  0.75730  0.43412  1.0000
  H   H96       1.0  0.15086  0.76048  0.75714  1.0000
  Mg  Mg12      1.0  0.26174  0.71011  0.37006  1.0000
  C   C181      1.0  0.72602  0.57324  0.70412  1.0000
  C   C182      1.0  0.75557  0.56562  0.62338  1.0000
  C  Sn25      1.0  0.74264  0.52653  0.54999  1.0000
  C  Sn26      1.0  0.69930  0.49453  0.55773  1.0000
  C   C183      1.0  0.66998  0.50248  0.63870  1.0000
  C   C184      1.0  0.68327  0.54170  0.71176  1.0000
  H   H97       1.0  0.73629  0.60359  0.76058  1.0000
  O  Te25      1.0  0.77258  0.51944  0.46987  1.0000
  O  Te26      1.0  0.68552  0.45518  0.48538  1.0000
  H   H98       1.0  0.66038  0.54760  0.77417  1.0000
  Mg  Mg13      1.0  0.73831  0.46068  0.39023  1.0000
  C   C185      1.0  0.49110  0.22550  0.54005  1.0000
  C   C186      1.0  0.44885  0.20753  0.59260  1.0000
  C  Sn27      1.0  0.42921  0.16975  0.68552  1.0000
  C  Sn28      1.0  0.45239  0.14966  0.72644  1.0000
  C   C187      1.0  0.49466  0.16791  0.67338  1.0000
  C   C188      1.0  0.51400  0.20571  0.58041  1.0000
  H   H99       1.0  0.50607  0.25476  0.46820  1.0000
  O  Te27      1.0  0.38697  0.15223  0.73696  1.0000
  O  Te28      1.0  0.43355  0.11189  0.81921  1.0000
  H   H100      1.0  0.54672  0.21963  0.53984  1.0000
  Mg  Mg14      1.0  0.37522  0.10034  0.86075  1.0000
  C   C189      1.0  0.84293  0.29051  0.69438  1.0000
  C   C190      1.0  0.83101  0.31949  0.64394  1.0000
  C  Sn29      1.0  0.79512  0.30618  0.54891  1.0000
  C  Sn30      1.0  0.77077  0.26304  0.50377  1.0000
  C   C191      1.0  0.78294  0.23429  0.55494  1.0000
  C   C192      1.0  0.81892  0.24795  0.64996  1.0000
  H   H101      1.0  0.87076  0.30108  0.76798  1.0000
  O  Te29      1.0  0.78367  0.33556  0.49951  1.0000
  O  Te30      1.0  0.73474  0.24888  0.40891  1.0000
  H   H102      1.0  0.82813  0.22550  0.68909  1.0000
  Mg  Mg15      1.0  0.73199  0.30094  0.37145  1.0000
  C   C193      1.0  0.52734  0.54835  0.69843  1.0000
  C   C194      1.0  0.48332  0.52578  0.68775  1.0000
  C  Sn31      1.0  0.46117  0.48150  0.69290  1.0000
  C  Sn32      1.0  0.48360  0.45951  0.70909  1.0000
  C   C195      1.0  0.52763  0.48239  0.71980  1.0000
  C   C196      1.0  0.54948  0.52669  0.71446  1.0000
  H   H103      1.0  0.54425  0.58263  0.69439  1.0000
  O  Te31      1.0  0.41720  0.45944  0.68201  1.0000
  O  Te32      1.0  0.46225  0.41527  0.71462  1.0000
  H   H104      1.0  0.58356  0.54416  0.72284  1.0000
  Mg  Mg16      1.0  0.40227  0.39934  0.69520  1.0000
  C   C197      1.0  0.45682  0.98162  0.63714  1.0000
  C   C198      1.0  0.47955  0.96051  0.64822  1.0000
  C  Sn33      1.0  0.52309  0.98328  0.67292  1.0000
  C  Sn34      1.0  0.03959  0.02801  0.68677  1.0000
  C   C199      1.0  0.01656  0.04883  0.67563  1.0000
  C   C200      1.0  0.97300  0.02574  0.65085  1.0000
  H   H105      1.0  0.42311  0.96376  0.61806  1.0000
  O  Te33      1.0  0.54531  0.96169  0.68365  1.0000
  O  Te34      1.0  0.08308  0.05154  0.71155  1.0000
  H   H106      1.0  0.95541  0.04209  0.64238  1.0000
  Mg  Mg17      1.0  0.09959  0.00773  0.71792  1.0000
  C   C201      1.0  0.97969  0.52231  0.69528  1.0000
  C   C202      1.0  0.95768  0.47816  0.68426  1.0000
  C  Sn35      1.0  0.97944  0.45597  0.68620  1.0000
  C  Sn36      1.0  0.02408  0.47848  0.69949  1.0000
  C   C203      1.0  0.04581  0.52265  0.71056  1.0000
  C   C204      1.0  0.02372  0.54453  0.70845  1.0000
  H   H107      1.0  0.96260  0.53924  0.69373  1.0000
  O  Te35      1.0  0.95695  0.41187  0.67502  1.0000
  O  Te36      1.0  0.04661  0.45710  0.70178  1.0000
  H   H108      1.0  0.04077  0.57871  0.71709  1.0000
  Mg  Mg18      1.0  0.00182  0.39693  0.68326  1.0000
