data_image0
_chemical_formula_structural       H32C44N28C2Sn2C2HTe2HMgC2Sn2C2HTe2HMgC2Sn2C2HTe2HMgC2Sn2C2HTe2HMgC2Sn2C2HTe2HMgC2Sn2C2HTe2HMgC2Sn2C2HTe2HMgC2Sn2C2HTe2HMgC2Sn2C2HTe2HMgC2Sn2C2HTe2HMgC2Sn2C2HTe2HMgC2Sn2C2HTe2HMgC2Sn2C2HTe2HMgC2Sn2C2HTe2HMgC2Sn2C2HTe2HMgC2Sn2C2HTe2HMgC2Sn2C2HTe2HMgC2Sn2C2HTe2HMg
_chemical_formula_sum              "H68 C116 N28 Sn36 Te36 Mg18"
_cell_length_a       37.29
_cell_length_b       37.1705
_cell_length_c       8.11249
_cell_angle_alpha    87.8567
_cell_angle_beta     92.204
_cell_angle_gamma    121.205

_symmetry_space_group_name_H-M    'P1'
_space_group_IT_number       1

loop_
  _space_group_symop_operation_xyz
  'x, y, z'

loop_
  _atom_site_type_symbol
  _atom_site_label
  _atom_site_symmetry_multiplicity
  _atom_site_fract_x
  _atom_site_fract_y
  _atom_site_fract_z
  _atom_site_occupancy
  H   H1        1.0  0.40560  0.69742  0.18308  1.0000
  H   H2        1.0  0.58782  0.28913  0.24548  1.0000
  H   H3        1.0  0.42447  0.88468  0.03920  1.0000
  H   H4        1.0  0.57360  0.10781  0.02518  1.0000
  H   H5        1.0  0.48053  0.89872  0.32847  1.0000
  H   H6        1.0  0.52030  0.08879  0.31477  1.0000
  H   H7        1.0  0.29109  0.57921  0.27426  1.0000
  H   H8        1.0  0.70297  0.40728  0.31250  1.0000
  H   H9        1.0  0.45238  0.57384  0.44207  1.0000
  H   H10       1.0  0.52912  0.43329  0.58820  1.0000
  H   H11       1.0  0.40244  0.49082  0.23881  1.0000
  H   H12       1.0  0.56585  0.46364  0.28406  1.0000
  H   H13       1.0  0.09988  0.52358  0.39089  1.0000
  H   H14       1.0  0.89303  0.45821  0.17993  1.0000
  H   H15       1.0  0.10182  0.56912  0.09733  1.0000
  H   H16       1.0  0.90415  0.41687  0.02157  1.0000
  H   H17       1.0  0.41130  0.70902  0.73172  1.0000
  H   H18       1.0  0.59102  0.30076  0.70525  1.0000
  H   H19       1.0  0.42700  0.89509  0.54523  1.0000
  H   H20       1.0  0.57625  0.11786  0.53773  1.0000
  H   H21       1.0  0.48309  0.90900  0.83363  1.0000
  H   H22       1.0  0.51738  0.09811  0.80812  1.0000
  H   H23       1.0  0.29660  0.58939  0.78737  1.0000
  H   H24       1.0  0.70599  0.41776  0.79510  1.0000
  H   H25       1.0  0.46586  0.56553  0.05483  1.0000
  H   H26       1.0  0.54795  0.42972  0.95301  1.0000
  H   H27       1.0  0.43495  0.53485  0.77024  1.0000
  H   H28       1.0  0.59460  0.50394  0.73988  1.0000
  H   H29       1.0  0.10489  0.52451  0.89302  1.0000
  H   H30       1.0  0.89891  0.46976  0.75257  1.0000
  H   H31       1.0  0.09933  0.57032  0.59186  1.0000
  H   H32       1.0  0.89844  0.42926  0.51714  1.0000
  C   C1        1.0  0.28905  0.63608  0.28540  1.0000
  C   C2        1.0  0.70666  0.35099  0.31861  1.0000
  C   C3        1.0  0.30911  0.61338  0.26444  1.0000
  C   C4        1.0  0.68548  0.37311  0.30810  1.0000
  C   C5        1.0  0.50542  0.89794  0.10703  1.0000
  C   C6        1.0  0.49201  0.08783  0.08869  1.0000
  C   C7        1.0  0.42199  0.50366  0.12719  1.0000
  C   C8        1.0  0.55698  0.46567  0.15416  1.0000
  C   C9        1.0  0.35098  0.69939  0.24259  1.0000
  C   C10       1.0  0.64476  0.28731  0.27960  1.0000
  C   C11       1.0  0.08953  0.56937  0.46049  1.0000
  C   C12       1.0  0.91171  0.43966  0.39333  1.0000
  C   C13       1.0  0.39300  0.48131  0.98818  1.0000
  C   C14       1.0  0.59355  0.50092  0.07145  1.0000
  C   C15       1.0  0.35189  0.63475  0.22663  1.0000
  C   C16       1.0  0.64203  0.35100  0.28101  1.0000
  C   C17       1.0  0.37294  0.67882  0.21808  1.0000
  C   C18       1.0  0.62136  0.30717  0.27234  1.0000
  C   C19       1.0  0.09933  0.61168  0.41222  1.0000
  C   C20       1.0  0.91032  0.40309  0.31941  1.0000
  C   C21       1.0  0.47649  0.90557  0.19776  1.0000
  C   C22       1.0  0.52338  0.08246  0.18601  1.0000
  C   C23       1.0  0.29280  0.64550  0.79656  1.0000
  C   C24       1.0  0.70869  0.36102  0.80866  1.0000
  C   C25       1.0  0.31398  0.62362  0.78341  1.0000
  C   C26       1.0  0.68822  0.38369  0.78742  1.0000
  C   C27       1.0  0.50777  0.90769  0.61262  1.0000
  C   C28       1.0  0.49327  0.09615  0.57317  1.0000
  C   C29       1.0  0.44293  0.53463  0.64104  1.0000
  C   C30       1.0  0.57687  0.49576  0.62028  1.0000
  C   C31       1.0  0.35442  0.70972  0.76325  1.0000
  C   C32       1.0  0.64633  0.29799  0.76558  1.0000
  C   C33       1.0  0.09136  0.56766  0.96639  1.0000
  C   C34       1.0  0.91469  0.43327  0.90104  1.0000
  C   C35       1.0  0.40508  0.50069  0.55839  1.0000
  C   C36       1.0  0.60742  0.52397  0.49687  1.0000
  C   C37       1.0  0.35734  0.64618  0.75974  1.0000
  C   C38       1.0  0.64510  0.36270  0.74997  1.0000
  C   C39       1.0  0.37790  0.69013  0.75515  1.0000
  C   C40       1.0  0.62399  0.31876  0.74156  1.0000
  C   C41       1.0  0.09875  0.60925  0.91921  1.0000
  C   C42       1.0  0.91214  0.40085  0.79241  1.0000
  C   C43       1.0  0.47908  0.91577  0.70276  1.0000
  C   C44       1.0  0.52346  0.09192  0.68360  1.0000
  N   N1        1.0  0.43995  0.54901  0.12491  1.0000
  N   N2        1.0  0.54594  0.42569  0.07860  1.0000
  N   N3        1.0  0.52714  0.89125  0.03028  1.0000
  N   N4        1.0  0.46914  0.09289  0.00223  1.0000
  N   N5        1.0  0.30971  0.67846  0.27307  1.0000
  N   N6        1.0  0.68684  0.30894  0.30159  1.0000
  N   N7        1.0  0.11141  0.55432  0.35721  1.0000
  N   N8        1.0  0.88555  0.45263  0.30203  1.0000
  N   N9        1.0  0.36839  0.46242  0.88406  1.0000
  N   N10       1.0  0.62003  0.52550  0.98546  1.0000
  N   N11       1.0  0.10601  0.64532  0.37776  1.0000
  N   N12       1.0  0.90935  0.37621  0.24532  1.0000
  N   N13       1.0  0.43258  0.87754  0.15178  1.0000
  N   N14       1.0  0.56604  0.11251  0.13861  1.0000
  N   N15       1.0  0.45431  0.57587  0.56814  1.0000
  N   N16       1.0  0.56075  0.45159  0.58304  1.0000
  N   N17       1.0  0.52836  0.89961  0.53526  1.0000
  N   N18       1.0  0.46998  0.09928  0.48182  1.0000
  N   N19       1.0  0.31258  0.68784  0.78260  1.0000
  N   N20       1.0  0.68800  0.31876  0.79714  1.0000
  N   N21       1.0  0.11436  0.55479  0.85843  1.0000
  N   N22       1.0  0.88805  0.44991  0.85239  1.0000
  N   N23       1.0  0.37732  0.47674  0.47423  1.0000
  N   N24       1.0  0.63263  0.54657  0.40252  1.0000
  N   N25       1.0  0.10343  0.64217  0.88524  1.0000
  N   N26       1.0  0.90854  0.37439  0.70760  1.0000
  N   N27       1.0  0.43522  0.88745  0.65653  1.0000
  N   N28       1.0  0.56700  0.12212  0.64828  1.0000
  C   C45       1.0  0.98181  0.99436  0.25478  1.0000
  C   C46       1.0  0.50297  0.02994  0.20620  1.0000
  C  Sn1       1.0  0.53406  0.02559  0.13543  1.0000
  C  Sn2       1.0  0.04373  0.98483  0.11300  1.0000
  C   C47       1.0  0.00599  0.94943  0.16190  1.0000
  C   C48       1.0  0.97509  0.95414  0.23264  1.0000
  H   H33       1.0  0.95790  0.99799  0.30943  1.0000
  O  Te1       1.0  0.57146  0.06148  0.08764  1.0000
  O  Te2       1.0  0.07427  0.97958  0.04252  1.0000
  H   H34       1.0  0.94597  0.92658  0.27015  1.0000
  Mg  Mg1       1.0  0.60928  0.03288  0.99731  1.0000
  C   C49       1.0  0.42781  0.63237  0.21231  1.0000
  C   C50       1.0  0.38532  0.61876  0.19030  1.0000
  C  Sn3       1.0  0.35662  0.57739  0.14497  1.0000
  C  Sn4       1.0  0.37081  0.54919  0.12137  1.0000
  C   C51       1.0  0.41338  0.56311  0.14381  1.0000
  C   C52       1.0  0.44183  0.60457  0.18912  1.0000
  H   H35       1.0  0.44982  0.66445  0.24746  1.0000
  O  Te3       1.0  0.31428  0.56431  0.12344  1.0000
  O  Te4       1.0  0.34280  0.50767  0.07611  1.0000
  H   H36       1.0  0.47473  0.61509  0.20626  1.0000
  Mg  Mg2       1.0  0.28820  0.50469  0.06143  1.0000
  C   C53       1.0  0.62168  0.42411  0.07134  1.0000
  C   C54       1.0  0.58093  0.41261  0.11161  1.0000
  C  Sn5       1.0  0.55907  0.38090  0.22973  1.0000
  C  Sn6       1.0  0.57844  0.36039  0.30884  1.0000
  C   C55       1.0  0.61923  0.37215  0.26777  1.0000
  C   C56       1.0  0.64082  0.40391  0.14935  1.0000
  H   H37       1.0  0.64407  0.44348  0.97979  1.0000
  O  Te5       1.0  0.51837  0.36979  0.26845  1.0000
  O  Te6       1.0  0.55730  0.32861  0.42739  1.0000
  H   H38       1.0  0.67238  0.41282  0.11828  1.0000
  Mg  Mg3       1.0  0.50238  0.32459  0.43808  1.0000
  C   C57       1.0  0.45165  0.44542  0.09102  1.0000
  C   C58       1.0  0.45297  0.48194  0.13719  1.0000
  C  Sn7       1.0  0.49081  0.51691  0.18895  1.0000
  C  Sn8       1.0  0.52797  0.51519  0.19442  1.0000
  C   C59       1.0  0.52633  0.47852  0.14787  1.0000
  C   C60       1.0  0.48829  0.44371  0.09632  1.0000
  H   H39       1.0  0.42222  0.41849  0.05105  1.0000
  O  Te7       1.0  0.49157  0.55314  0.23471  1.0000
  O  Te8       1.0  0.56622  0.54969  0.24561  1.0000
  H   H40       1.0  0.48728  0.41544  0.06048  1.0000
  Mg  Mg4       1.0  0.55126  0.59197  0.29579  1.0000
  C   C61       1.0  0.18677  0.55485  0.41133  1.0000
  C   C62       1.0  0.16095  0.57133  0.37816  1.0000
  C  Sn9       1.0  0.17721  0.61105  0.30309  1.0000
  C  Sn10      1.0  0.22010  0.63463  0.26054  1.0000
  C   C63       1.0  0.24566  0.61785  0.29414  1.0000
  C   C64       1.0  0.22908  0.57808  0.36935  1.0000
  H   H41       1.0  0.17393  0.52407  0.46944  1.0000
  O  Te9       1.0  0.15098  0.62705  0.27088  1.0000
  O  Te10      1.0  0.23715  0.67440  0.18535  1.0000
  H   H42       1.0  0.24906  0.56531  0.39492  1.0000
  Mg  Mg5       1.0  0.18882  0.68272  0.16656  1.0000
  C   C65       1.0  0.78525  0.42113  0.43702  1.0000
  C   C66       1.0  0.75742  0.38436  0.35320  1.0000
  C  Sn11      1.0  0.77264  0.36570  0.25278  1.0000
  C  Sn12      1.0  0.81654  0.38427  0.23625  1.0000
  C   C67       1.0  0.84411  0.42104  0.32072  1.0000
  C   C68       1.0  0.82855  0.43946  0.42084  1.0000
  H   H43       1.0  0.77321  0.43537  0.51456  1.0000
  O  Te11      1.0  0.74441  0.32897  0.16986  1.0000
  O  Te12      1.0  0.83259  0.36627  0.13674  1.0000
  H   H44       1.0  0.85010  0.46791  0.48581  1.0000
  Mg  Mg6       1.0  0.78152  0.31625  0.04866  1.0000
  C   C69       1.0  0.01804  0.48825  0.54223  1.0000
  C   C70       1.0  0.04004  0.52795  0.46563  1.0000
  C  Sn13      1.0  0.01911  0.54186  0.35944  1.0000
  C  Sn14      1.0  0.97534  0.51547  0.32965  1.0000
  C   C71       1.0  0.95360  0.47582  0.40697  1.0000
  C   C72       1.0  0.97486  0.46221  0.51297  1.0000
  H   H45       1.0  0.03448  0.47772  0.62432  1.0000
  O  Te13      1.0  0.04157  0.58161  0.28388  1.0000
  O  Te14      1.0  0.95364  0.52860  0.22412  1.0000
  H   H46       1.0  0.95781  0.43148  0.57234  1.0000
  Mg  Mg7       1.0  0.99804  0.58542  0.15013  1.0000
  C   C73       1.0  0.42221  0.78262  0.29958  1.0000
  C   C74       1.0  0.38142  0.75159  0.25371  1.0000
  C  Sn15      1.0  0.35592  0.76230  0.16028  1.0000
  C  Sn16      1.0  0.37163  0.80489  0.11203  1.0000
  C   C75       1.0  0.41249  0.83570  0.15844  1.0000
  C   C76       1.0  0.43774  0.82463  0.25198  1.0000
  H   H47       1.0  0.44176  0.77406  0.37188  1.0000
  O  Te15      1.0  0.31524  0.73091  0.11556  1.0000
  O  Te16      1.0  0.34681  0.81647  0.01858  1.0000
  H   H48       1.0  0.46932  0.84866  0.28738  1.0000
  Mg  Mg8       1.0  0.29914  0.75711  0.98788  1.0000
  C   C77       1.0  0.57308  0.20275  0.29693  1.0000
  C   C78       1.0  0.61456  0.23491  0.27183  1.0000
  C  Sn17      1.0  0.64145  0.22732  0.18428  1.0000
  C  Sn18      1.0  0.62644  0.18676  0.12080  1.0000
  C   C79       1.0  0.58488  0.15481  0.14648  1.0000
  C   C80       1.0  0.55825  0.16274  0.23431  1.0000
  H   H49       1.0  0.55246  0.20889  0.36480  1.0000
  O  Te17      1.0  0.68280  0.25980  0.16037  1.0000
  O  Te18      1.0  0.65263  0.17832  0.03280  1.0000
  H   H50       1.0  0.52612  0.13784  0.25363  1.0000
  Mg  Mg9       1.0  0.70646  0.23284  0.03245  1.0000
  C   C81       1.0  0.46232  0.98137  0.77071  1.0000
  C   C82       1.0  0.48248  0.96298  0.70040  1.0000
  C  Sn19      1.0  0.52088  0.98808  0.62340  1.0000
  C  Sn20      1.0  0.02292  0.03242  0.61691  1.0000
  C   C83       1.0  0.00251  0.05052  0.68772  1.0000
  C   C84       1.0  0.96409  0.02510  0.76441  1.0000
  H   H51       1.0  0.43260  0.96171  0.83013  1.0000
  O  Te19      1.0  0.54059  0.96919  0.55372  1.0000
  O  Te20      1.0  0.06128  0.05826  0.54077  1.0000
  H   H52       1.0  0.94850  0.03935  0.81894  1.0000
  Mg  Mg10      1.0  0.07601  0.01771  0.46360  1.0000
  C   C85       1.0  0.44393  0.63026  0.76681  1.0000
  C   C86       1.0  0.43216  0.59697  0.66071  1.0000
  C  Sn21      1.0  0.39331  0.57824  0.57768  1.0000
  C  Sn22      1.0  0.36580  0.59321  0.60154  1.0000
  C   C87       1.0  0.37788  0.62655  0.70786  1.0000
  C   C88       1.0  0.41682  0.64505  0.79036  1.0000
  H   H53       1.0  0.47406  0.64459  0.83058  1.0000
  O  Te21      1.0  0.38203  0.54500  0.47217  1.0000
  O  Te22      1.0  0.32680  0.57508  0.52006  1.0000
  H   H54       1.0  0.42594  0.67085  0.87242  1.0000
  Mg  Mg11      1.0  0.32558  0.53057  0.38892  1.0000
  C   C89       1.0  0.63575  0.45015  0.61607  1.0000
  C   C90       1.0  0.59311  0.43648  0.62060  1.0000
  C  Sn23      1.0  0.56447  0.39626  0.68170  1.0000
  C  Sn24      1.0  0.57886  0.36931  0.73928  1.0000
  C   C91       1.0  0.62158  0.38329  0.73433  1.0000
  C   C92       1.0  0.64997  0.42359  0.67290  1.0000
  H   H55       1.0  0.65772  0.48133  0.56862  1.0000
  O  Te23      1.0  0.52198  0.38309  0.68529  1.0000
  O  Te24      1.0  0.55091  0.32896  0.80102  1.0000
  H   H56       1.0  0.68298  0.43417  0.66950  1.0000
  Mg  Mg12      1.0  0.49605  0.32534  0.78058  1.0000
  C   C93       1.0  0.48875  0.47024  0.66153  1.0000
  C   C94       1.0  0.53160  0.49668  0.63406  1.0000
  C  Sn25      1.0  0.54890  0.54005  0.61413  1.0000
  C  Sn26      1.0  0.52273  0.55718  0.62197  1.0000
  C   C95       1.0  0.47990  0.53047  0.64963  1.0000
  C   C96       1.0  0.46292  0.48711  0.66934  1.0000
  H   H57       1.0  0.47560  0.43670  0.67688  1.0000
  O  Te25      1.0  0.59178  0.56601  0.58671  1.0000
  O  Te26      1.0  0.53921  0.60041  0.60254  1.0000
  H   H58       1.0  0.42974  0.46665  0.69072  1.0000
  Mg  Mg13      1.0  0.59952  0.62288  0.56772  1.0000
  C   C97       1.0  0.21299  0.63861  0.74217  1.0000
  C   C98       1.0  0.24209  0.62946  0.81412  1.0000
  C  Sn27      1.0  0.22848  0.59236  0.90683  1.0000
  C  Sn28      1.0  0.18491  0.56394  0.92763  1.0000
  C   C99       1.0  0.15605  0.57337  0.85505  1.0000
  C   C100      1.0  0.17001  0.61060  0.76257  1.0000
  H   H59       1.0  0.22378  0.66740  0.67054  1.0000
  O  Te27      1.0  0.25798  0.58371  0.97791  1.0000
  O  Te28      1.0  0.16478  0.53184  0.01962  1.0000
  H   H60       1.0  0.14747  0.61766  0.70679  1.0000
  Mg  Mg14      1.0  0.21717  0.53403  0.09232  1.0000
  C   C101      1.0  0.78570  0.36182  0.79297  1.0000
  C   C102      1.0  0.75946  0.37612  0.83783  1.0000
  C  Sn29      1.0  0.77652  0.41762  0.88687  1.0000
  C  Sn30      1.0  0.82067  0.44525  0.89091  1.0000
  C   C103      1.0  0.84666  0.43065  0.84570  1.0000
  C   C104      1.0  0.82926  0.38906  0.79687  1.0000
  H   H61       1.0  0.77224  0.32965  0.75511  1.0000
  O  Te29      1.0  0.74985  0.43138  0.93134  1.0000
  O  Te30      1.0  0.83855  0.48688  0.93938  1.0000
  H   H62       1.0  0.84958  0.37801  0.76205  1.0000
  Mg  Mg15      1.0  0.78916  0.49090  0.98869  1.0000
  C   C105      1.0  0.02240  0.48359  0.04071  1.0000
  C   C106      1.0  0.04880  0.51893  0.97084  1.0000
  C  Sn31      1.0  0.02652  0.53319  0.87501  1.0000
  C  Sn32      1.0  0.98268  0.50630  0.84891  1.0000
  C   C107      1.0  0.96222  0.46580  0.91944  1.0000
  C   C108      1.0  0.97915  0.45705  0.01508  1.0000
  H   H63       1.0  0.03988  0.47279  0.11478  1.0000
  O  Te31      1.0  0.04773  0.57379  0.80607  1.0000
  O  Te32      1.0  0.95964  0.51977  0.75371  1.0000
  H   H64       1.0  0.96308  0.42567  0.06924  1.0000
  Mg  Mg16      1.0  0.00264  0.57777  0.68573  1.0000
  C   C109      1.0  0.36672  0.80609  0.60937  1.0000
  C   C110      1.0  0.40494  0.83799  0.67434  1.0000
  C  Sn33      1.0  0.43019  0.82793  0.77313  1.0000
  C  Sn34      1.0  0.41684  0.78513  0.80725  1.0000
  C   C111      1.0  0.37856  0.75345  0.74157  1.0000
  C   C112      1.0  0.35354  0.76386  0.64291  1.0000
  H   H65       1.0  0.34737  0.81414  0.53296  1.0000
  O  Te33      1.0  0.46828  0.86019  0.83711  1.0000
  O  Te34      1.0  0.44146  0.77419  0.90557  1.0000
  H   H66       1.0  0.32396  0.73916  0.59253  1.0000
  Mg  Mg17      1.0  0.49082  0.82942  0.96443  1.0000
  C   C113      1.0  0.64705  0.22651  0.65079  1.0000
  C   C114      1.0  0.63102  0.24915  0.71893  1.0000
  C  Sn35      1.0  0.59032  0.22818  0.77909  1.0000
  C  Sn36      1.0  0.56528  0.18370  0.77074  1.0000
  C   C115      1.0  0.58162  0.16134  0.70244  1.0000
  C   C116      1.0  0.62239  0.18265  0.64257  1.0000
  H   H67       1.0  0.67860  0.24300  0.60454  1.0000
  O  Te35      1.0  0.57478  0.25128  0.84672  1.0000
  O  Te36      1.0  0.52450  0.16194  0.83000  1.0000
  H   H68       1.0  0.63480  0.16511  0.58991  1.0000
  Mg  Mg18      1.0  0.51735  0.20738  0.91109  1.0000
