data_image0
_chemical_formula_structural       H72C102N24C2Sn2C2HTe2HMgC2Sn2C2HTe2HMgC2Sn2C2HTe2HMgC2Sn2C2HTe2HMgC2Sn2C2HTe2HMgC2Sn2C2HTe2HMgC2Sn2C2HTe2HMgC2Sn2C2HTe2HMgC2Sn2C2HTe2HMg
_chemical_formula_sum              "H90 C138 N24 Sn18 Te18 Mg9"
_cell_length_a       37.8786
_cell_length_b       37.0106
_cell_length_c       9.03777
_cell_angle_alpha    81.9181
_cell_angle_beta     124.843
_cell_angle_gamma    120.225

_symmetry_space_group_name_H-M    'P1'
_space_group_IT_number       1

loop_
  _space_group_symop_operation_xyz
  'x, y, z'

loop_
  _atom_site_type_symbol
  _atom_site_label
  _atom_site_symmetry_multiplicity
  _atom_site_fract_x
  _atom_site_fract_y
  _atom_site_fract_z
  _atom_site_occupancy
  H   H1        1.0  0.30347  0.59354  0.31778  1.0000
  H   H2        1.0  0.41885  0.70789  0.31841  1.0000
  H   H3        1.0  0.30274  0.71033  0.28581  1.0000
  H   H4        1.0  0.70825  0.41778  0.24473  1.0000
  H   H5        1.0  0.60529  0.30509  0.30909  1.0000
  H   H6        1.0  0.71772  0.30479  0.30769  1.0000
  H   H7        1.0  0.41482  0.75016  0.15024  1.0000
  H   H8        1.0  0.70094  0.45050  0.40883  1.0000
  H   H9        1.0  0.57478  0.24179  0.00231  1.0000
  H   H10       1.0  0.76029  0.32833  0.22873  1.0000
  H   H11       1.0  0.44705  0.82232  0.09066  1.0000
  H   H12       1.0  0.66058  0.48971  0.36749  1.0000
  H   H13       1.0  0.53834  0.16367  0.94551  1.0000
  H   H14       1.0  0.82771  0.36172  0.19087  1.0000
  H   H15       1.0  0.38618  0.85161  0.30433  1.0000
  H   H16       1.0  0.51698  0.37138  0.10223  1.0000
  H   H17       1.0  0.65326  0.17448  0.50675  1.0000
  H   H18       1.0  0.84220  0.48330  0.23277  1.0000
  H   H19       1.0  0.35719  0.78000  0.38097  1.0000
  H   H20       1.0  0.55775  0.33247  0.14094  1.0000
  H   H21       1.0  0.69118  0.25333  0.56207  1.0000
  H   H22       1.0  0.77442  0.44994  0.27750  1.0000
  H   H23       1.0  0.49587  0.43947  0.24292  1.0000
  H   H24       1.0  0.93271  0.51418  0.16195  1.0000
  H   H25       1.0  0.52439  0.58568  0.25036  1.0000
  H   H26       1.0  0.06778  0.49172  0.31728  1.0000
  H   H27       1.0  0.45250  0.58249  0.12604  1.0000
  H   H28       1.0  0.42504  0.87971  0.01373  1.0000
  H   H29       1.0  0.08267  0.53083  0.08921  1.0000
  H   H30       1.0  0.52640  0.44366  0.06733  1.0000
  H   H31       1.0  0.56971  0.11076  0.07117  1.0000
  H   H32       1.0  0.85988  0.44060  0.03234  1.0000
  H   H33       1.0  0.43619  0.51681  0.34429  1.0000
  H   H34       1.0  0.49709  0.91344  0.41077  1.0000
  H   H35       1.0  0.11469  0.59027  0.38321  1.0000
  H   H36       1.0  0.61134  0.50266  0.42884  1.0000
  H   H37       1.0  0.53165  0.10548  0.28349  1.0000
  H   H38       1.0  0.93438  0.44415  0.41832  1.0000
  H   H39       1.0  0.43576  0.45232  0.22730  1.0000
  H   H40       1.0  0.00222  0.56965  0.14390  1.0000
  H   H41       1.0  0.58367  0.57263  0.26163  1.0000
  H   H42       1.0  0.99702  0.43530  0.32889  1.0000
  H   H43       1.0  0.30018  0.58482  0.82565  1.0000
  H   H44       1.0  0.40215  0.69488  0.75134  1.0000
  H   H45       1.0  0.29669  0.70051  0.78501  1.0000
  H   H46       1.0  0.70341  0.40763  0.76826  1.0000
  H   H47       1.0  0.58811  0.29067  0.75612  1.0000
  H   H48       1.0  0.70181  0.29087  0.75969  1.0000
  H   H49       1.0  0.23052  0.66850  0.73375  1.0000
  H   H50       1.0  0.54386  0.22523  0.57195  1.0000
  H   H51       1.0  0.15104  0.63023  0.69734  1.0000
  H   H52       1.0  0.50489  0.14869  0.57131  1.0000
  H   H53       1.0  0.16196  0.51798  0.79964  1.0000
  H   H54       1.0  0.65243  0.16476  0.94043  1.0000
  H   H55       1.0  0.24281  0.55666  0.84083  1.0000
  H   H56       1.0  0.69106  0.24193  0.94356  1.0000
  H   H57       1.0  0.93179  0.51175  0.69525  1.0000
  H   H58       1.0  0.05904  0.48321  0.80853  1.0000
  H   H59       1.0  0.45343  0.57519  0.64515  1.0000
  H   H60       1.0  0.41078  0.88480  0.60073  1.0000
  H   H61       1.0  0.07609  0.52159  0.59379  1.0000
  H   H62       1.0  0.52141  0.43808  0.52563  1.0000
  H   H63       1.0  0.57878  0.09670  0.80155  1.0000
  H   H64       1.0  0.85844  0.44515  0.56084  1.0000
  H   H65       1.0  0.41759  0.50160  0.80339  1.0000
  H   H66       1.0  0.51050  0.91266  0.94486  1.0000
  H   H67       1.0  0.10909  0.58499  0.87582  1.0000
  H   H68       1.0  0.58588  0.46872  0.92473  1.0000
  H   H69       1.0  0.48120  0.07950  0.68089  1.0000
  H   H70       1.0  0.92744  0.43124  0.91586  1.0000
  H   H71       1.0  0.00097  0.56636  0.67625  1.0000
  H   H72       1.0  0.98799  0.42753  0.81824  1.0000
  C   C1        1.0  0.29788  0.64933  0.30379  1.0000
  C   C2        1.0  0.36467  0.64822  0.32445  1.0000
  C   C3        1.0  0.36335  0.71449  0.30023  1.0000
  C   C4        1.0  0.71963  0.36483  0.27774  1.0000
  C   C5        1.0  0.65592  0.36510  0.28471  1.0000
  C   C6        1.0  0.65853  0.30018  0.30188  1.0000
  C   C7        1.0  0.50239  0.47162  0.24627  1.0000
  C   C8        1.0  0.96213  0.50917  0.19485  1.0000
  C   C9        1.0  0.51776  0.55353  0.24782  1.0000
  C   C10       1.0  0.03809  0.49650  0.28339  1.0000
  C   C11       1.0  0.32063  0.62743  0.31639  1.0000
  C   C12       1.0  0.38556  0.69174  0.31751  1.0000
  C   C13       1.0  0.32001  0.69294  0.29724  1.0000
  C   C14       1.0  0.69615  0.38545  0.26915  1.0000
  C   C15       1.0  0.63665  0.32185  0.29787  1.0000
  C   C16       1.0  0.70084  0.32224  0.29939  1.0000
  C   C17       1.0  0.38359  0.75901  0.27171  1.0000
  C   C18       1.0  0.76129  0.38610  0.25659  1.0000
  C   C19       1.0  0.63264  0.38840  0.27507  1.0000
  C   C20       1.0  0.63508  0.25306  0.28671  1.0000
  C   C21       1.0  0.40956  0.77236  0.19070  1.0000
  C   C22       1.0  0.66038  0.43280  0.33926  1.0000
  C   C23       1.0  0.59147  0.22699  0.11404  1.0000
  C   C24       1.0  0.77825  0.36253  0.23434  1.0000
  C   C25       1.0  0.42724  0.81315  0.15364  1.0000
  C   C26       1.0  0.63752  0.45531  0.31643  1.0000
  C   C27       1.0  0.57117  0.18303  0.08177  1.0000
  C   C28       1.0  0.81678  0.38149  0.21204  1.0000
  C   C29       1.0  0.41854  0.84189  0.19237  1.0000
  C   C30       1.0  0.58522  0.43355  0.22589  1.0000
  C   C31       1.0  0.59361  0.16391  0.22261  1.0000
  C   C32       1.0  0.83972  0.42500  0.20870  1.0000
  C   C33       1.0  0.39321  0.82936  0.27478  1.0000
  C   C34       1.0  0.55729  0.38884  0.16673  1.0000
  C   C35       1.0  0.63600  0.18940  0.39725  1.0000
  C   C36       1.0  0.82387  0.44929  0.23278  1.0000
  C   C37       1.0  0.37620  0.78863  0.31485  1.0000
  C   C38       1.0  0.58054  0.36692  0.19150  1.0000
  C   C39       1.0  0.65691  0.23365  0.42810  1.0000
  C   C40       1.0  0.78535  0.43008  0.25661  1.0000
  C   C41       1.0  0.38715  0.49627  0.05823  1.0000
  C   C42       1.0  0.51979  0.90798  0.25808  1.0000
  C   C43       1.0  0.07285  0.59961  0.11978  1.0000
  C   C44       1.0  0.61193  0.52896  0.21276  1.0000
  C   C45       1.0  0.48467  0.08766  0.99634  1.0000
  C   C46       1.0  0.90616  0.39515  0.22353  1.0000
  C   C47       1.0  0.43734  0.52657  0.22519  1.0000
  C   C48       1.0  0.48723  0.91622  0.27083  1.0000
  C   C49       1.0  0.08610  0.57066  0.24157  1.0000
  C   C50       1.0  0.58305  0.49733  0.27877  1.0000
  C   C51       1.0  0.52855  0.09068  0.17598  1.0000
  C   C52       1.0  0.91887  0.43876  0.27108  1.0000
  C   C53       1.0  0.47597  0.52002  0.23849  1.0000
  C   C54       1.0  0.04030  0.53481  0.23336  1.0000
  C   C55       1.0  0.54452  0.50532  0.25682  1.0000
  C   C56       1.0  0.96060  0.47154  0.25034  1.0000
  C   C57       1.0  0.46849  0.47890  0.23689  1.0000
  C   C58       1.0  0.00143  0.54035  0.18529  1.0000
  C   C59       1.0  0.55160  0.54618  0.25616  1.0000
  C   C60       1.0  0.99845  0.46504  0.29113  1.0000
  C   C61       1.0  0.29075  0.63904  0.79654  1.0000
  C   C62       1.0  0.35550  0.63794  0.79986  1.0000
  C   C63       1.0  0.35262  0.70327  0.77124  1.0000
  C   C64       1.0  0.70870  0.35242  0.76321  1.0000
  C   C65       1.0  0.64290  0.35170  0.75873  1.0000
  C   C66       1.0  0.64360  0.28605  0.76322  1.0000
  C   C67       1.0  0.95910  0.50503  0.71755  1.0000
  C   C68       1.0  0.03094  0.48936  0.78228  1.0000
  C   C69       1.0  0.31416  0.61777  0.80912  1.0000
  C   C70       1.0  0.37339  0.68032  0.77609  1.0000
  C   C71       1.0  0.31184  0.68233  0.78382  1.0000
  C   C72       1.0  0.68647  0.37345  0.76291  1.0000
  C   C73       1.0  0.62187  0.30794  0.75950  1.0000
  C   C74       1.0  0.68671  0.30860  0.76503  1.0000
  C   C75       1.0  0.24400  0.61619  0.78821  1.0000
  C   C76       1.0  0.62045  0.23975  0.75970  1.0000
  C   C77       1.0  0.21678  0.63564  0.75175  1.0000
  C   C78       1.0  0.56797  0.21233  0.65595  1.0000
  C   C79       1.0  0.17092  0.61377  0.72989  1.0000
  C   C80       1.0  0.54568  0.16863  0.65405  1.0000
  C   C81       1.0  0.14963  0.57056  0.74117  1.0000
  C   C82       1.0  0.57591  0.15101  0.75719  1.0000
  C   C83       1.0  0.17699  0.55095  0.78292  1.0000
  C   C84       1.0  0.62855  0.17801  0.85892  1.0000
  C   C85       1.0  0.22297  0.57325  0.80647  1.0000
  C   C86       1.0  0.65022  0.22148  0.86009  1.0000
  C   C87       1.0  0.37722  0.49086  0.51610  1.0000
  C   C88       1.0  0.50930  0.89908  0.72819  1.0000
  C   C89       1.0  0.06476  0.59055  0.60792  1.0000
  C   C90       1.0  0.60400  0.50764  0.75987  1.0000
  C   C91       1.0  0.47916  0.07628  0.44961  1.0000
  C   C92       1.0  0.89345  0.38845  0.68462  1.0000
  C   C93       1.0  0.42525  0.51477  0.70088  1.0000
  C   C94       1.0  0.48776  0.91060  0.79426  1.0000
  C   C95       1.0  0.07963  0.56344  0.73834  1.0000
  C   C96       1.0  0.56556  0.47352  0.78263  1.0000
  C   C97       1.0  0.50273  0.07503  0.64715  1.0000
  C   C98       1.0  0.91164  0.43120  0.76852  1.0000
  C   C99       1.0  0.03494  0.52863  0.74031  1.0000
  C   C100      1.0  0.95471  0.46567  0.75729  1.0000
  C   C101      1.0  0.99852  0.53603  0.70769  1.0000
  C   C102      1.0  0.99107  0.45817  0.78950  1.0000
  N   N1        1.0  0.45151  0.57108  0.23431  1.0000
  N   N2        1.0  0.43352  0.88328  0.14251  1.0000
  N   N3        1.0  0.10843  0.55304  0.20970  1.0000
  N   N4        1.0  0.55889  0.45332  0.19651  1.0000
  N   N5        1.0  0.57532  0.11879  0.19005  1.0000
  N   N6        1.0  0.87674  0.44555  0.17121  1.0000
  N   N7        1.0  0.34863  0.47261  0.92342  1.0000
  N   N8        1.0  0.54269  0.90043  0.23301  1.0000
  N   N9        1.0  0.06382  0.62297  0.02368  1.0000
  N   N10       1.0  0.63630  0.55263  0.16354  1.0000
  N   N11       1.0  0.45291  0.08533  0.84664  1.0000
  N   N12       1.0  0.89602  0.36091  0.18354  1.0000
  N   N13       1.0  0.44487  0.56024  0.73362  1.0000
  N   N14       1.0  0.43509  0.87949  0.71966  1.0000
  N   N15       1.0  0.10186  0.54503  0.71028  1.0000
  N   N16       1.0  0.53719  0.43271  0.65676  1.0000
  N   N17       1.0  0.55617  0.10784  0.77159  1.0000
  N   N18       1.0  0.87247  0.44078  0.69338  1.0000
  N   N19       1.0  0.34037  0.47294  0.36873  1.0000
  N   N20       1.0  0.52772  0.89040  0.68213  1.0000
  N   N21       1.0  0.05473  0.61272  0.50639  1.0000
  N   N22       1.0  0.63235  0.53163  0.72647  1.0000
  N   N23       1.0  0.45844  0.07718  0.29344  1.0000
  N   N24       1.0  0.87810  0.35443  0.61795  1.0000
  C   C103      1.0  0.45197  0.62966  0.85758  1.0000
  C   C104      1.0  0.43114  0.58662  0.79577  1.0000
  C  Sn1       1.0  0.38107  0.55667  0.72880  1.0000
  C  Sn2       1.0  0.35141  0.57016  0.72374  1.0000
  C   C105      1.0  0.37260  0.61329  0.78578  1.0000
  C   C106      1.0  0.42274  0.64299  0.85258  1.0000
  H   H73       1.0  0.49076  0.65265  0.90918  1.0000
  O  Te1       1.0  0.36085  0.51380  0.66764  1.0000
  O  Te2       1.0  0.30127  0.54090  0.65742  1.0000
  H   H74       1.0  0.43885  0.67632  0.90032  1.0000
  Mg  Mg1       1.0  0.29071  0.48598  0.58948  1.0000
  C   C107      1.0  0.36816  0.56116  0.21442  1.0000
  C   C108      1.0  0.41609  0.57923  0.25601  1.0000
  C  Sn3       1.0  0.45282  0.62185  0.34793  1.0000
  C  Sn4       1.0  0.44125  0.64676  0.39902  1.0000
  C   C109      1.0  0.39320  0.62838  0.35690  1.0000
  C   C110      1.0  0.35672  0.58570  0.26483  1.0000
  H   H75       1.0  0.33994  0.52814  0.14328  1.0000
  O  Te3       1.0  0.50051  0.63940  0.38836  1.0000
  O  Te4       1.0  0.47726  0.68942  0.49105  1.0000
  H   H76       1.0  0.31963  0.57172  0.23275  1.0000
  Mg  Mg2       1.0  0.53687  0.69894  0.51562  1.0000
  C   C111      1.0  0.60279  0.42620  0.61321  1.0000
  C   C112      1.0  0.57147  0.41723  0.66609  1.0000
  C  Sn5       1.0  0.56509  0.38624  0.77112  1.0000
  C  Sn6       1.0  0.59060  0.36388  0.82402  1.0000
  C   C113      1.0  0.62188  0.37311  0.77054  1.0000
  C   C114      1.0  0.62798  0.40417  0.66539  1.0000
  H   H77       1.0  0.60754  0.45025  0.53194  1.0000
  O  Te5       1.0  0.53364  0.37766  0.82271  1.0000
  O  Te6       1.0  0.58491  0.33276  0.92904  1.0000
  H   H78       1.0  0.65226  0.41113  0.62457  1.0000
  Mg  Mg3       1.0  0.53797  0.33244  0.96565  1.0000
  C   C115      1.0  0.45677  0.45536  0.73241  1.0000
  C   C116      1.0  0.46119  0.49510  0.73654  1.0000
  C  Sn7       1.0  0.50043  0.53125  0.74040  1.0000
  C  Sn8       1.0  0.53583  0.52744  0.74006  1.0000
  C   C117      1.0  0.53106  0.48754  0.73578  1.0000
  C   C118      1.0  0.49167  0.45158  0.73200  1.0000
  H   H79       1.0  0.42628  0.42752  0.72939  1.0000
  O  Te7       1.0  0.50429  0.57071  0.74457  1.0000
  O  Te8       1.0  0.57540  0.56305  0.74380  1.0000
  H   H80       1.0  0.48824  0.42081  0.72868  1.0000
  Mg  Mg4       1.0  0.56476  0.60993  0.74877  1.0000
  C   C119      1.0  0.55525  0.00588  0.30034  1.0000
  C   C120      1.0  0.51152  0.96964  0.26851  1.0000
  C  Sn9       1.0  0.46838  0.97123  0.19340  1.0000
  C  Sn10      1.0  0.97728  0.00984  0.14943  1.0000
  C   C121      1.0  0.02121  0.04591  0.18168  1.0000
  C   C122      1.0  0.06417  0.04398  0.25695  1.0000
  H   H81       1.0  0.58849  0.00438  0.35849  1.0000
  O  Te9       1.0  0.42500  0.93473  0.16254  1.0000
  O  Te10      1.0  0.93469  0.01231  0.07415  1.0000
  H   H82       1.0  0.09802  0.07203  0.28147  1.0000
  Mg  Mg5       1.0  0.37649  0.95401  0.05754  1.0000
  C   C123      1.0  0.81459  0.36977  0.79065  1.0000
  C   C124      1.0  0.83032  0.40703  0.72514  1.0000
  C  Sn11      1.0  0.80812  0.43130  0.68153  1.0000
  C  Sn12      1.0  0.76948  0.41796  0.70411  1.0000
  C   C125      1.0  0.75404  0.38066  0.76987  1.0000
  C   C126      1.0  0.77649  0.35660  0.81303  1.0000
  H   H83       1.0  0.83198  0.35117  0.82415  1.0000
  O  Te11      1.0  0.82427  0.46843  0.61617  1.0000
  O  Te12      1.0  0.74667  0.44164  0.66163  1.0000
  H   H84       1.0  0.76433  0.32778  0.86386  1.0000
  Mg  Mg6       1.0  0.78164  0.48989  0.57703  1.0000
  C   C127      1.0  0.01727  0.01105  0.64622  1.0000
  C   C128      1.0  0.99328  0.02843  0.65668  1.0000
  C  Sn13      1.0  0.96585  0.00847  0.73055  1.0000
  C  Sn14      1.0  0.96246  0.97041  0.79509  1.0000
  C   C129      1.0  0.98664  0.95329  0.78413  1.0000
  C   C130      1.0  0.01397  0.97352  0.70990  1.0000
  H   H85       1.0  0.03845  0.02671  0.58888  1.0000
  O  Te13      1.0  0.94209  0.02625  0.73991  1.0000
  O  Te14      1.0  0.93532  0.94981  0.86962  1.0000
  H   H86       1.0  0.03257  0.96007  0.70194  1.0000
  Mg  Mg7       1.0  0.90950  0.98641  0.85283  1.0000
  C   C131      1.0  0.19965  0.56366  0.32680  1.0000
  C   C132      1.0  0.16462  0.57554  0.26790  1.0000
  C  Sn15      1.0  0.17186  0.61415  0.20983  1.0000
  C  Sn16      1.0  0.21501  0.64130  0.21085  1.0000
  C   C133      1.0  0.24983  0.62911  0.26991  1.0000
  C   C134      1.0  0.24222  0.59041  0.32779  1.0000
  H   H87       1.0  0.19376  0.53370  0.37149  1.0000
  O  Te15      1.0  0.13649  0.62555  0.15147  1.0000
  O  Te16      1.0  0.22317  0.68007  0.15347  1.0000
  H   H88       1.0  0.26934  0.58120  0.37327  1.0000
  Mg  Mg8       1.0  0.16423  0.68157  0.08615  1.0000
  C   C135      1.0  0.34305  0.77713  0.66260  1.0000
  C   C136      1.0  0.36453  0.75185  0.72155  1.0000
  C  Sn17      1.0  0.41548  0.77023  0.79785  1.0000
  C  Sn18      1.0  0.44538  0.81476  0.81532  1.0000
  C   C137      1.0  0.42353  0.83978  0.75604  1.0000
  C   C138      1.0  0.37251  0.82105  0.67984  1.0000
  H   H89       1.0  0.30358  0.76265  0.60373  1.0000
  O  Te17      1.0  0.43634  0.74450  0.85599  1.0000
  O  Te18      1.0  0.49640  0.83395  0.89114  1.0000
  H   H90       1.0  0.35590  0.84064  0.63431  1.0000
  Mg  Mg9       1.0  0.50758  0.78548  0.95034  1.0000
