data_image0
_chemical_formula_structural       H80C92N28O12C2Sn2C2HTe2HMgC2Sn2C2HTe2HMgC2Sn2C2HTe2HMgC2Sn2C2HTe2HMgC2Sn2C2HTe2HMgC2Sn2C2HTe2HMgC2Sn2C2HTe2HMgC2Sn2C2HTe2HMgC2Sn2C2HTe2HMgC2Sn2C2HTe2HMgC2Sn2C2HTe2HMgC2Sn2C2HTe2HMg
_chemical_formula_sum              "H104 C140 N28 O12 Sn24 Te24 Mg12"
_cell_length_a       37.3817
_cell_length_b       37.9025
_cell_length_c       8.35052
_cell_angle_alpha    63.234
_cell_angle_beta     92.2258
_cell_angle_gamma    122.372

_symmetry_space_group_name_H-M    'P1'
_space_group_IT_number       1

loop_
  _space_group_symop_operation_xyz
  'x, y, z'

loop_
  _atom_site_type_symbol
  _atom_site_label
  _atom_site_symmetry_multiplicity
  _atom_site_fract_x
  _atom_site_fract_y
  _atom_site_fract_z
  _atom_site_occupancy
  H   H1        1.0  0.39466  0.69438  0.35150  1.0000
  H   H2        1.0  0.56642  0.29243  0.25838  1.0000
  H   H3        1.0  0.44228  0.91506  0.09875  1.0000
  H   H4        1.0  0.56773  0.13374  0.06303  1.0000
  H   H5        1.0  0.47275  0.88777  0.43528  1.0000
  H   H6        1.0  0.49366  0.07623  0.39162  1.0000
  H   H7        1.0  0.27258  0.57688  0.36251  1.0000
  H   H8        1.0  0.68434  0.41065  0.26508  1.0000
  H   H9        1.0  0.45044  0.40613  0.38207  1.0000
  H   H10       1.0  0.49224  0.56422  0.27562  1.0000
  H   H11       1.0  0.56629  0.61927  0.07246  1.0000
  H   H12       1.0  0.38632  0.37954  0.27454  1.0000
  H   H13       1.0  0.61013  0.62452  0.18053  1.0000
  H   H14       1.0  0.33443  0.35027  0.42741  1.0000
  H   H15       1.0  0.61464  0.62165  0.71314  1.0000
  H   H16       1.0  0.42260  0.37069  0.92139  1.0000
  H   H17       1.0  0.44546  0.57652  0.13939  1.0000
  H   H18       1.0  0.50232  0.42001  0.22505  1.0000
  H   H19       1.0  0.38442  0.48121  0.47760  1.0000
  H   H20       1.0  0.55541  0.47102  0.41692  1.0000
  H   H21       1.0  0.56803  0.07056  0.21125  1.0000
  H   H22       1.0  0.41958  0.92911  0.33120  1.0000
  H   H23       1.0  0.37198  0.98802  0.47084  1.0000
  H   H24       1.0  0.62146  0.07333  0.07864  1.0000
  H   H25       1.0  0.10213  0.54104  0.14449  1.0000
  H   H26       1.0  0.88585  0.44878  0.04366  1.0000
  H   H27       1.0  0.42249  0.00892  0.53696  1.0000
  H   H28       1.0  0.62907  0.02554  0.18071  1.0000
  H   H29       1.0  0.38783  0.94749  0.58561  1.0000
  H   H30       1.0  0.60523  0.03435  0.32884  1.0000
  H   H31       1.0  0.07258  0.55854  0.40621  1.0000
  H   H32       1.0  0.86809  0.42014  0.43686  1.0000
  H   H33       1.0  0.92482  0.50525  0.33257  1.0000
  H   H34       1.0  0.03348  0.47339  0.25710  1.0000
  H   H35       1.0  0.00722  0.41177  0.20587  1.0000
  H   H36       1.0  0.97095  0.59189  0.18923  1.0000
  H   H37       1.0  0.95413  0.35508  0.30283  1.0000
  H   H38       1.0  0.00129  0.61944  0.31963  1.0000
  H   H39       1.0  0.05753  0.41777  0.81031  1.0000
  H   H40       1.0  0.97885  0.55513  0.94988  1.0000
  H   H41       1.0  0.43309  0.70764  0.82000  1.0000
  H   H42       1.0  0.61065  0.31184  0.68325  1.0000
  H   H43       1.0  0.44450  0.91089  0.63906  1.0000
  H   H44       1.0  0.58054  0.14308  0.51291  1.0000
  H   H45       1.0  0.49506  0.90004  0.91559  1.0000
  H   H46       1.0  0.52090  0.08498  0.89006  1.0000
  H   H47       1.0  0.31204  0.58180  0.86959  1.0000
  H   H48       1.0  0.72449  0.41176  0.78630  1.0000
  H   H49       1.0  0.49819  0.42108  0.90086  1.0000
  H   H50       1.0  0.53967  0.58703  0.65970  1.0000
  H   H51       1.0  0.60795  0.64443  0.48073  1.0000
  H   H52       1.0  0.41733  0.41571  0.74141  1.0000
  H   H53       1.0  0.65777  0.64966  0.51655  1.0000
  H   H54       1.0  0.37614  0.37135  0.96002  1.0000
  H   H55       1.0  0.56003  0.60591  0.30937  1.0000
  H   H56       1.0  0.37757  0.34844  0.52366  1.0000
  H   H57       1.0  0.46744  0.57605  0.56622  1.0000
  H   H58       1.0  0.54059  0.42431  0.74354  1.0000
  H   H59       1.0  0.44576  0.51282  0.96853  1.0000
  H   H60       1.0  0.60746  0.49912  0.82279  1.0000
  H   H61       1.0  0.58545  0.07938  0.66827  1.0000
  H   H62       1.0  0.43418  0.93615  0.82981  1.0000
  H   H63       1.0  0.38336  0.95299  0.84514  1.0000
  H   H64       1.0  0.63796  0.07251  0.60785  1.0000
  H   H65       1.0  0.11314  0.51677  0.90828  1.0000
  H   H66       1.0  0.92669  0.47843  0.64737  1.0000
  H   H67       1.0  0.37845  0.97483  0.98825  1.0000
  H   H68       1.0  0.63926  0.02038  0.70896  1.0000
  H   H69       1.0  0.39611  0.93571  0.06539  1.0000
  H   H70       1.0  0.61230  0.02781  0.85210  1.0000
  H   H71       1.0  0.10555  0.59479  0.82194  1.0000
  H   H72       1.0  0.91065  0.39448  0.99007  1.0000
  H   H73       1.0  0.95781  0.50526  0.83553  1.0000
  H   H74       1.0  0.07914  0.49070  0.76555  1.0000
  H   H75       1.0  0.04715  0.44603  0.59239  1.0000
  H   H76       1.0  0.98935  0.58901  0.70088  1.0000
  H   H77       1.0  0.01436  0.38091  0.73741  1.0000
  H   H78       1.0  0.02069  0.61943  0.82210  1.0000
  H   H79       1.0  0.97811  0.38082  0.44614  1.0000
  H   H80       1.0  0.95151  0.55920  0.43803  1.0000
  C   C1        1.0  0.27436  0.63574  0.34778  1.0000
  C   C2        1.0  0.68918  0.36050  0.22768  1.0000
  C   C3        1.0  0.29261  0.61072  0.36270  1.0000
  C   C4        1.0  0.66664  0.37822  0.25448  1.0000
  C   C5        1.0  0.47925  0.91316  0.28664  1.0000
  C   C6        1.0  0.50637  0.08555  0.25085  1.0000
  C   C7        1.0  0.48854  0.95955  0.26944  1.0000
  C   C8        1.0  0.49939  0.04069  0.26197  1.0000
  C   C9        1.0  0.53089  0.00103  0.22951  1.0000
  C   C10       1.0  0.45742  0.00031  0.29357  1.0000
  C   C11       1.0  0.40441  0.50336  0.33154  1.0000
  C   C12       1.0  0.54016  0.47055  0.30140  1.0000
  C   C13       1.0  0.43926  0.49400  0.32803  1.0000
  C   C14       1.0  0.50422  0.47774  0.31671  1.0000
  C   C15       1.0  0.42723  0.44859  0.36310  1.0000
  C   C16       1.0  0.51586  0.52221  0.29106  1.0000
  C   C17       1.0  0.51563  0.91892  0.18794  1.0000
  C   C18       1.0  0.48101  0.10049  0.13238  1.0000
  C   C19       1.0  0.45986  0.44119  0.35458  1.0000
  C   C20       1.0  0.48346  0.52999  0.29547  1.0000
  C   C21       1.0  0.57441  0.60412  0.20314  1.0000
  C   C22       1.0  0.37006  0.37041  0.40788  1.0000
  C   C23       1.0  0.33998  0.69971  0.33541  1.0000
  C   C24       1.0  0.62553  0.29682  0.22443  1.0000
  C   C25       1.0  0.07138  0.55547  0.28066  1.0000
  C   C26       1.0  0.88631  0.42536  0.31801  1.0000
  C   C27       1.0  0.02344  0.52008  0.29297  1.0000
  C   C28       1.0  0.93509  0.45816  0.30009  1.0000
  C   C29       1.0  0.37404  0.48800  0.22059  1.0000
  C   C30       1.0  0.57659  0.51133  0.13016  1.0000
  C   C31       1.0  0.99246  0.52919  0.31490  1.0000
  C   C32       1.0  0.96605  0.44962  0.27556  1.0000
  C   C33       1.0  0.53552  0.03991  0.23298  1.0000
  C   C34       1.0  0.45260  0.96028  0.30223  1.0000
  C   C35       1.0  0.39980  0.98526  0.48568  1.0000
  C   C36       1.0  0.60791  0.03635  0.19383  1.0000
  C   C37       1.0  0.08774  0.60392  0.11912  1.0000
  C   C38       1.0  0.86954  0.37606  0.36017  1.0000
  C   C39       1.0  0.33715  0.63196  0.35806  1.0000
  C   C40       1.0  0.62148  0.35417  0.26620  1.0000
  C   C41       1.0  0.36029  0.67650  0.35153  1.0000
  C   C42       1.0  0.60114  0.31256  0.25124  1.0000
  C   C43       1.0  0.94905  0.49857  0.31730  1.0000
  C   C44       1.0  0.00972  0.48041  0.27398  1.0000
  C   C45       1.0  0.97486  0.38895  0.30466  1.0000
  C   C46       1.0  0.98107  0.58533  0.31924  1.0000
  C   C47       1.0  0.30949  0.63769  0.86330  1.0000
  C   C48       1.0  0.72748  0.36314  0.73009  1.0000
  C   C49       1.0  0.33080  0.61651  0.86325  1.0000
  C   C50       1.0  0.70691  0.38319  0.75274  1.0000
  C   C51       1.0  0.49358  0.92034  0.77310  1.0000
  C   C52       1.0  0.52647  0.09377  0.74392  1.0000
  C   C53       1.0  0.50272  0.96687  0.75107  1.0000
  C   C54       1.0  0.51735  0.04889  0.74660  1.0000
  C   C55       1.0  0.54561  0.00731  0.70846  1.0000
  C   C56       1.0  0.47417  0.00726  0.80009  1.0000
  C   C57       1.0  0.45257  0.52037  0.82510  1.0000
  C   C58       1.0  0.58702  0.48899  0.73102  1.0000
  C   C59       1.0  0.48707  0.51165  0.79965  1.0000
  C   C60       1.0  0.55164  0.49699  0.74678  1.0000
  C   C61       1.0  0.47581  0.46481  0.86770  1.0000
  C   C62       1.0  0.56317  0.54421  0.68039  1.0000
  C   C63       1.0  0.52642  0.92658  0.65015  1.0000
  C   C64       1.0  0.49482  0.10483  0.67012  1.0000
  C   C65       1.0  0.50788  0.45800  0.84054  1.0000
  C   C66       1.0  0.53115  0.55096  0.70863  1.0000
  C   C67       1.0  0.62210  0.62695  0.57485  1.0000
  C   C68       1.0  0.41136  0.39394  0.89237  1.0000
  C   C69       1.0  0.37384  0.70407  0.84688  1.0000
  C   C70       1.0  0.66435  0.30529  0.70097  1.0000
  C   C71       1.0  0.10814  0.57428  0.76769  1.0000
  C   C72       1.0  0.92784  0.42189  0.84088  1.0000
  C   C73       1.0  0.06173  0.53479  0.78399  1.0000
  C   C74       1.0  0.97515  0.46074  0.82330  1.0000
  C   C75       1.0  0.41084  0.48681  0.80029  1.0000
  C   C76       1.0  0.61657  0.52067  0.54039  1.0000
  C   C77       1.0  0.02721  0.53913  0.80019  1.0000
  C   C78       1.0  0.00969  0.45611  0.81075  1.0000
  C   C79       1.0  0.55230  0.04796  0.70250  1.0000
  C   C80       1.0  0.46738  0.96772  0.79500  1.0000
  C   C81       1.0  0.39737  0.96513  0.94334  1.0000
  C   C82       1.0  0.61969  0.03367  0.71263  1.0000
  C   C83       1.0  0.13179  0.61025  0.56891  1.0000
  C   C84       1.0  0.92546  0.39494  0.75158  1.0000
  C   C85       1.0  0.37629  0.64146  0.84349  1.0000
  C   C86       1.0  0.66330  0.36454  0.74132  1.0000
  C   C87       1.0  0.39774  0.68582  0.83949  1.0000
  C   C88       1.0  0.64311  0.32616  0.70649  1.0000
  C   C89       1.0  0.98448  0.50213  0.82008  1.0000
  C   C90       1.0  0.05254  0.49371  0.78568  1.0000
  C   C91       1.0  0.03197  0.41525  0.73647  1.0000
  C   C92       1.0  0.00425  0.58579  0.81833  1.0000
  N   N1        1.0  0.43936  0.89083  0.22907  1.0000
  N   N2        1.0  0.55302  0.12458  0.18936  1.0000
  N   N3        1.0  0.42570  0.55417  0.27292  1.0000
  N   N4        1.0  0.52167  0.42423  0.31401  1.0000
  N   N5        1.0  0.53928  0.91690  0.11078  1.0000
  N   N6        1.0  0.46392  0.11615  0.03381  1.0000
  N   N7        1.0  0.29760  0.68006  0.32912  1.0000
  N   N8        1.0  0.66880  0.32080  0.21115  1.0000
  N   N9        1.0  0.09884  0.53934  0.26996  1.0000
  N   N10       1.0  0.87420  0.44926  0.15138  1.0000
  N   N11       1.0  0.34964  0.47804  0.13123  1.0000
  N   N12       1.0  0.60557  0.54053  0.99488  1.0000
  N   N13       1.0  0.10108  0.64079  0.98259  1.0000
  N   N14       1.0  0.85180  0.33740  0.37985  1.0000
  N   N15       1.0  0.44951  0.89092  0.75701  1.0000
  N   N16       1.0  0.57225  0.13420  0.64741  1.0000
  N   N17       1.0  0.46837  0.57132  0.69683  1.0000
  N   N18       1.0  0.56703  0.43805  0.79373  1.0000
  N   N19       1.0  0.54777  0.92390  0.56383  1.0000
  N   N20       1.0  0.47126  0.11562  0.61005  1.0000
  N   N21       1.0  0.33074  0.68075  0.85429  1.0000
  N   N22       1.0  0.70625  0.32375  0.71057  1.0000
  N   N23       1.0  0.12842  0.55125  0.88097  1.0000
  N   N24       1.0  0.90589  0.44591  0.76609  1.0000
  N   N25       1.0  0.37897  0.46476  0.76204  1.0000
  N   N26       1.0  0.63972  0.54166  0.39287  1.0000
  N   N27       1.0  0.14803  0.64081  0.41250  1.0000
  N   N28       1.0  0.91945  0.37175  0.68438  1.0000
  O   O1        1.0  0.56589  0.00162  0.18523  1.0000
  O   O2        1.0  0.42034  0.00007  0.30401  1.0000
  O   O3        1.0  0.38309  0.41374  0.40716  1.0000
  O   O4        1.0  0.55949  0.55543  0.26452  1.0000
  O   O5        1.0  0.00835  0.56893  0.33378  1.0000
  O   O6        1.0  0.95229  0.41169  0.24890  1.0000
  O   O7        1.0  0.57975  0.00531  0.67189  1.0000
  O   O8        1.0  0.44129  0.00861  0.85740  1.0000
  O   O9        1.0  0.43298  0.42519  0.96974  1.0000
  O   O10       1.0  0.60636  0.58139  0.59050  1.0000
  O   O11       1.0  0.03857  0.58058  0.79340  1.0000
  O   O12       1.0  0.99918  0.41338  0.83146  1.0000
  C   C93       1.0  0.42661  0.63059  0.24117  1.0000
  C   C94       1.0  0.40929  0.58235  0.29976  1.0000
  C  Sn1       1.0  0.36412  0.54655  0.37731  1.0000
  C  Sn2       1.0  0.33584  0.55938  0.39633  1.0000
  C   C95       1.0  0.35348  0.60775  0.33716  1.0000
  C   C96       1.0  0.39873  0.64329  0.25980  1.0000
  H   H81       1.0  0.46162  0.65810  0.18122  1.0000
  O  Te1       1.0  0.34737  0.49852  0.43520  1.0000
  O  Te2       1.0  0.29056  0.52432  0.47330  1.0000
  H   H82       1.0  0.41212  0.68064  0.21434  1.0000
  Mg  Mg1       1.0  0.28340  0.46378  0.53162  1.0000
  C   C97       1.0  0.61424  0.42084  0.31961  1.0000
  C   C98       1.0  0.60016  0.37934  0.31228  1.0000
  C  Sn3       1.0  0.55796  0.35173  0.29533  1.0000
  C  Sn4       1.0  0.52940  0.36603  0.28552  1.0000
  C   C99       1.0  0.54381  0.40763  0.29284  1.0000
  C   C100      1.0  0.58610  0.43499  0.30987  1.0000
  H   H83       1.0  0.64697  0.44203  0.33269  1.0000
  O  Te3       1.0  0.54442  0.31036  0.28828  1.0000
  O  Te4       1.0  0.48707  0.33911  0.26848  1.0000
  H   H84       1.0  0.59700  0.46714  0.31542  1.0000
  Mg  Mg2       1.0  0.48369  0.28557  0.26462  1.0000
  C   C101      1.0  0.16012  0.54144  0.48061  1.0000
  C   C102      1.0  0.14336  0.55991  0.33857  1.0000
  C  Sn5       1.0  0.17096  0.60704  0.18666  1.0000
  C  Sn6       1.0  0.21616  0.63614  0.17714  1.0000
  C   C103      1.0  0.23260  0.61732  0.31988  1.0000
  C   C104      1.0  0.20470  0.57011  0.47129  1.0000
  H   H85       1.0  0.13853  0.50491  0.59771  1.0000
  O  Te5       1.0  0.15368  0.62493  0.04599  1.0000
  O  Te6       1.0  0.24447  0.68337  0.02686  1.0000
  H   H86       1.0  0.21768  0.55581  0.58118  1.0000
  Mg  Mg3       1.0  0.14205  0.55882  0.86962  1.0000
  C   C105      1.0  0.76716  0.36792  0.14791  1.0000
  C   C106      1.0  0.74079  0.37706  0.21203  1.0000
  C  Sn7       1.0  0.75950  0.41377  0.25560  1.0000
  C  Sn8       1.0  0.80548  0.44180  0.23440  1.0000
  C   C107      1.0  0.83159  0.43239  0.17003  1.0000
  C   C108      1.0  0.81252  0.39556  0.12689  1.0000
  H   H87       1.0  0.75242  0.33944  0.11443  1.0000
  O  Te7       1.0  0.73267  0.42242  0.31956  1.0000
  O  Te8       1.0  0.82504  0.47873  0.27687  1.0000
  H   H88       1.0  0.83295  0.38851  0.07714  1.0000
  Mg  Mg4       1.0  0.77468  0.47669  0.35928  1.0000
  C   C109      1.0  0.42600  0.79930  0.37771  1.0000
  C   C110      1.0  0.42163  0.83721  0.27628  1.0000
  C  Sn9       1.0  0.38618  0.82950  0.19857  1.0000
  C  Sn10      1.0  0.35456  0.78293  0.22315  1.0000
  C   C111      1.0  0.35921  0.74523  0.32497  1.0000
  C   C112      1.0  0.39482  0.75335  0.40207  1.0000
  H   H89       1.0  0.45354  0.80557  0.43746  1.0000
  O  Te9       1.0  0.38232  0.86778  0.09758  1.0000
  O  Te10      1.0  0.31880  0.77422  0.14704  1.0000
  H   H90       1.0  0.39818  0.72399  0.48070  1.0000
  Mg  Mg5       1.0  0.32785  0.83795  0.02072  1.0000
  C   C113      1.0  0.63400  0.23387  0.15438  1.0000
  C   C114      1.0  0.61303  0.25238  0.18653  1.0000
  C  Sn11      1.0  0.56719  0.22569  0.23253  1.0000
  C  Sn12      1.0  0.54196  0.17962  0.24655  1.0000
  C   C115      1.0  0.56325  0.16141  0.21425  1.0000
  C   C116      1.0  0.60913  0.18843  0.16824  1.0000
  H   H91       1.0  0.66950  0.25476  0.11888  1.0000
  O  Te11      1.0  0.54678  0.24472  0.26415  1.0000
  O  Te12      1.0  0.49610  0.15217  0.29238  1.0000
  H   H92       1.0  0.62535  0.17407  0.14347  1.0000
  Mg  Mg6       1.0  0.48344  0.19363  0.32262  1.0000
  C   C117      1.0  0.46518  0.63040  0.80785  1.0000
  C   C118      1.0  0.44946  0.59374  0.76551  1.0000
  C  Sn13      1.0  0.40751  0.57171  0.73798  1.0000
  C  Sn14      1.0  0.38089  0.58675  0.75316  1.0000
  C   C119      1.0  0.39693  0.62348  0.79544  1.0000
  C   C120      1.0  0.43895  0.64527  0.82277  1.0000
  H   H93       1.0  0.49770  0.64728  0.82889  1.0000
  O  Te13      1.0  0.39230  0.53513  0.69585  1.0000
  O  Te14      1.0  0.33884  0.56535  0.72627  1.0000
  H   H94       1.0  0.45113  0.67367  0.85543  1.0000
  Mg  Mg7       1.0  0.33273  0.51699  0.67152  1.0000
  C   C121      1.0  0.58278  0.35655  0.78972  1.0000
  C   C122      1.0  0.62768  0.37682  0.76476  1.0000
  C  Sn15      1.0  0.65618  0.42063  0.76075  1.0000
  C  Sn16      1.0  0.63933  0.44451  0.78222  1.0000
  C   C123      1.0  0.59435  0.42392  0.80725  1.0000
  C   C124      1.0  0.56612  0.38007  0.81098  1.0000
  H   H95       1.0  0.56093  0.32262  0.79271  1.0000
  O  Te15      1.0  0.70095  0.44039  0.73561  1.0000
  O  Te16      1.0  0.66709  0.48832  0.77884  1.0000
  H   H96       1.0  0.53136  0.36437  0.83044  1.0000
  Mg  Mg8       1.0  0.72561  0.50081  0.74082  1.0000
  C   C125      1.0  0.21618  0.63586  0.75207  1.0000
  C   C126      1.0  0.18084  0.58715  0.82897  1.0000
  C  Sn17      1.0  0.18639  0.55046  0.93640  1.0000
  C  Sn18      1.0  0.22813  0.56289  0.96720  1.0000
  C   C127      1.0  0.26327  0.61174  0.88977  1.0000
  C   C128      1.0  0.25736  0.64816  0.78244  1.0000
  H   H97       1.0  0.21161  0.66404  0.66911  1.0000
  O  Te17      1.0  0.21409  0.63464  0.01214  1.0000
  O  Te18      1.0  0.29793  0.65963  0.07407  1.0000
  H   H98       1.0  0.28472  0.68587  0.72302  1.0000
  Mg  Mg9       1.0  0.23927  0.59872  0.14778  1.0000
  C   C129      1.0  0.83927  0.45535  0.65756  1.0000
  C   C130      1.0  0.85888  0.43123  0.73862  1.0000
  C  Sn19      1.0  0.83532  0.38130  0.81025  1.0000
  C  Sn20      1.0  0.79131  0.35512  0.80029  1.0000
  C   C131      1.0  0.77200  0.37959  0.71881  1.0000
  C   C132      1.0  0.79587  0.42956  0.64762  1.0000
  H   H99       1.0  0.85774  0.49402  0.60239  1.0000
  O  Te19      1.0  0.85541  0.35777  0.89083  1.0000
  O  Te20      1.0  0.76702  0.30519  0.87073  1.0000
  H   H100      1.0  0.78069  0.44823  0.58476  1.0000
  Mg  Mg10      1.0  0.80879  0.28936  0.96743  1.0000
  C   C133      1.0  0.37490  0.78766  0.73869  1.0000
  C   C134      1.0  0.38976  0.75811  0.80555  1.0000
  C  Sn21      1.0  0.42663  0.77162  0.87533  1.0000
  C  Sn22      1.0  0.44896  0.81553  0.87810  1.0000
  C   C135      1.0  0.43382  0.84482  0.81102  1.0000
  C   C136      1.0  0.39690  0.83097  0.74144  1.0000
  H   H101      1.0  0.34632  0.77693  0.68495  1.0000
  O  Te21      1.0  0.44104  0.74169  0.94152  1.0000
  O  Te22      1.0  0.48589  0.82989  0.94715  1.0000
  H   H102      1.0  0.38539  0.85383  0.68980  1.0000
  Mg  Mg11      1.0  0.55625  0.90954  0.02183  1.0000
  C   C137      1.0  0.57080  0.19362  0.76383  1.0000
  C   C138      1.0  0.58627  0.17909  0.67363  1.0000
  C  Sn23      1.0  0.63133  0.20512  0.59784  1.0000
  C  Sn24      1.0  0.66139  0.24645  0.61290  1.0000
  C   C139      1.0  0.64559  0.26066  0.70352  1.0000
  C   C140      1.0  0.60043  0.23436  0.77881  1.0000
  H   H103      1.0  0.53587  0.17326  0.82217  1.0000
  O  Te23      1.0  0.64621  0.19012  0.50811  1.0000
  O  Te24      1.0  0.70659  0.27311  0.53846  1.0000
  H   H104      1.0  0.58847  0.24560  0.84874  1.0000
  Mg  Mg12      1.0  0.71086  0.23831  0.42912  1.0000
