data_image0
_chemical_formula_structural       H68C98N28C2Sn2C2HTe2HMgC2Sn2C2HTe2HMgC2Sn2C2HTe2HMgC2Sn2C2HTe2HMgC2Sn2C2HTe2HMgC2Sn2C2HTe2HMgC2Sn2C2HTe2HMgC2Sn2C2HTe2HMgC2Sn2C2HTe2HMg
_chemical_formula_sum              "H86 C134 N28 Sn18 Te18 Mg9"
_cell_length_a       37.29
_cell_length_b       37.1705
_cell_length_c       8.11249
_cell_angle_alpha    87.8567
_cell_angle_beta     92.204
_cell_angle_gamma    121.205

_symmetry_space_group_name_H-M    'P1'
_space_group_IT_number       1

loop_
  _space_group_symop_operation_xyz
  'x, y, z'

loop_
  _atom_site_type_symbol
  _atom_site_label
  _atom_site_symmetry_multiplicity
  _atom_site_fract_x
  _atom_site_fract_y
  _atom_site_fract_z
  _atom_site_occupancy
  H   H1        1.0  0.40560  0.69742  0.18308  1.0000
  H   H2        1.0  0.58782  0.28913  0.24548  1.0000
  H   H3        1.0  0.42790  0.75871  0.36831  1.0000
  H   H4        1.0  0.46391  0.83508  0.32893  1.0000
  H   H5        1.0  0.35740  0.82116  0.04295  1.0000
  H   H6        1.0  0.32126  0.74380  0.08665  1.0000
  H   H7        1.0  0.42447  0.88468  0.03920  1.0000
  H   H8        1.0  0.57360  0.10781  0.02518  1.0000
  H   H9        1.0  0.48053  0.89872  0.32847  1.0000
  H   H10       1.0  0.52030  0.08879  0.31477  1.0000
  H   H11       1.0  0.29109  0.57921  0.27426  1.0000
  H   H12       1.0  0.70297  0.40728  0.31250  1.0000
  H   H13       1.0  0.31829  0.55326  0.12840  1.0000
  H   H14       1.0  0.35467  0.51548  0.08680  1.0000
  H   H15       1.0  0.47288  0.62789  0.19885  1.0000
  H   H16       1.0  0.43588  0.66496  0.24889  1.0000
  H   H17       1.0  0.47335  0.41241  0.07598  1.0000
  H   H18       1.0  0.50456  0.55380  0.23045  1.0000
  H   H19       1.0  0.45238  0.57384  0.44207  1.0000
  H   H20       1.0  0.52912  0.43329  0.58820  1.0000
  H   H21       1.0  0.40244  0.49082  0.23881  1.0000
  H   H22       1.0  0.56585  0.46364  0.28406  1.0000
  H   H23       1.0  0.24001  0.66673  0.20682  1.0000
  H   H24       1.0  0.16333  0.63279  0.23585  1.0000
  H   H25       1.0  0.56809  0.04832  0.06288  1.0000
  H   H26       1.0  0.43244  0.93960  0.30160  1.0000
  H   H27       1.0  0.15983  0.52508  0.46984  1.0000
  H   H28       1.0  0.23613  0.55862  0.43460  1.0000
  H   H29       1.0  0.09988  0.52358  0.39089  1.0000
  H   H30       1.0  0.89303  0.45821  0.17993  1.0000
  H   H31       1.0  0.10182  0.56912  0.09733  1.0000
  H   H32       1.0  0.90415  0.41687  0.02157  1.0000
  H   H33       1.0  0.41657  0.42899  0.06142  1.0000
  H   H34       1.0  0.56097  0.53822  0.23171  1.0000
  H   H35       1.0  0.54733  0.97373  0.06412  1.0000
  H   H36       1.0  0.45315  0.01467  0.30031  1.0000
  H   H37       1.0  0.41130  0.70902  0.73172  1.0000
  H   H38       1.0  0.59102  0.30076  0.70525  1.0000
  H   H39       1.0  0.42700  0.89509  0.54523  1.0000
  H   H40       1.0  0.57625  0.11786  0.53773  1.0000
  H   H41       1.0  0.48309  0.90900  0.83363  1.0000
  H   H42       1.0  0.51738  0.09811  0.80812  1.0000
  H   H43       1.0  0.29660  0.58939  0.78737  1.0000
  H   H44       1.0  0.70599  0.41776  0.79510  1.0000
  H   H45       1.0  0.67892  0.44276  0.62557  1.0000
  H   H46       1.0  0.64354  0.48172  0.55877  1.0000
  H   H47       1.0  0.52634  0.37432  0.71348  1.0000
  H   H48       1.0  0.56235  0.33611  0.78787  1.0000
  H   H49       1.0  0.46586  0.56553  0.05483  1.0000
  H   H50       1.0  0.54795  0.42972  0.95301  1.0000
  H   H51       1.0  0.43495  0.53485  0.77024  1.0000
  H   H52       1.0  0.59460  0.50394  0.73988  1.0000
  H   H53       1.0  0.23935  0.66954  0.68758  1.0000
  H   H54       1.0  0.75751  0.32918  0.76659  1.0000
  H   H55       1.0  0.16208  0.63123  0.71391  1.0000
  H   H56       1.0  0.83488  0.36554  0.77884  1.0000
  H   H57       1.0  0.56889  0.05830  0.56138  1.0000
  H   H58       1.0  0.43534  0.94925  0.81215  1.0000
  H   H59       1.0  0.16725  0.53353  0.99733  1.0000
  H   H60       1.0  0.84086  0.47850  0.92713  1.0000
  H   H61       1.0  0.24393  0.57113  0.96462  1.0000
  H   H62       1.0  0.76352  0.44202  0.91449  1.0000
  H   H63       1.0  0.10489  0.52451  0.89302  1.0000
  H   H64       1.0  0.89891  0.46976  0.75257  1.0000
  H   H65       1.0  0.09933  0.57032  0.59186  1.0000
  H   H66       1.0  0.89844  0.42926  0.51714  1.0000
  H   H67       1.0  0.54881  0.98400  0.56205  1.0000
  H   H68       1.0  0.45452  0.02381  0.80637  1.0000
  C   C1        1.0  0.28905  0.63608  0.28540  1.0000
  C   C2        1.0  0.70666  0.35099  0.31861  1.0000
  C   C3        1.0  0.52654  0.98251  0.11622  1.0000
  C   C4        1.0  0.47372  0.00563  0.24780  1.0000
  C   C5        1.0  0.30911  0.61338  0.26444  1.0000
  C   C6        1.0  0.68548  0.37311  0.30810  1.0000
  C   C7        1.0  0.24359  0.61513  0.31573  1.0000
  C   C8        1.0  0.35216  0.56989  0.14746  1.0000
  C   C9        1.0  0.37282  0.54819  0.12282  1.0000
  C   C10       1.0  0.41662  0.56876  0.14088  1.0000
  C   C11       1.0  0.43888  0.61154  0.18259  1.0000
  C   C12       1.0  0.41782  0.63248  0.20957  1.0000
  C   C13       1.0  0.50542  0.89794  0.10703  1.0000
  C   C14       1.0  0.49201  0.08783  0.08869  1.0000
  C   C15       1.0  0.42199  0.50366  0.12719  1.0000
  C   C16       1.0  0.55698  0.46567  0.15416  1.0000
  C   C17       1.0  0.45665  0.49298  0.14056  1.0000
  C   C18       1.0  0.52105  0.47432  0.15095  1.0000
  C   C19       1.0  0.35098  0.69939  0.24259  1.0000
  C   C20       1.0  0.64476  0.28731  0.27960  1.0000
  C   C21       1.0  0.44817  0.45292  0.10045  1.0000
  C   C22       1.0  0.52930  0.51394  0.19558  1.0000
  C   C23       1.0  0.48001  0.44353  0.10688  1.0000
  C   C24       1.0  0.49738  0.52301  0.19251  1.0000
  C   C25       1.0  0.37220  0.74571  0.22797  1.0000
  C   C26       1.0  0.22217  0.63572  0.26490  1.0000
  C   C27       1.0  0.17909  0.61661  0.28204  1.0000
  C   C28       1.0  0.15604  0.57623  0.35429  1.0000
  C   C29       1.0  0.17730  0.55590  0.40947  1.0000
  C   C30       1.0  0.22041  0.57494  0.38896  1.0000
  C   C31       1.0  0.08953  0.56937  0.46049  1.0000
  C   C32       1.0  0.91171  0.43966  0.39333  1.0000
  C   C33       1.0  0.39300  0.48131  0.98818  1.0000
  C   C34       1.0  0.59355  0.50092  0.07145  1.0000
  C   C35       1.0  0.53817  0.02487  0.11456  1.0000
  C   C36       1.0  0.46219  0.96349  0.24975  1.0000
  C   C37       1.0  0.35189  0.63475  0.22663  1.0000
  C   C38       1.0  0.64203  0.35100  0.28101  1.0000
  C   C39       1.0  0.37294  0.67882  0.21808  1.0000
  C   C40       1.0  0.62136  0.30717  0.27234  1.0000
  C   C41       1.0  0.37383  0.61223  0.19342  1.0000
  C   C42       1.0  0.09933  0.61168  0.41222  1.0000
  C   C43       1.0  0.91032  0.40309  0.31941  1.0000
  C   C44       1.0  0.41233  0.77211  0.29568  1.0000
  C   C45       1.0  0.43279  0.81576  0.27415  1.0000
  C   C46       1.0  0.41331  0.83373  0.18136  1.0000
  C   C47       1.0  0.37262  0.80744  0.11602  1.0000
  C   C48       1.0  0.35231  0.76417  0.14051  1.0000
  C   C49       1.0  0.47649  0.90557  0.19776  1.0000
  C   C50       1.0  0.52338  0.08246  0.18601  1.0000
  C   C51       1.0  0.48872  0.95159  0.18442  1.0000
  C   C52       1.0  0.51194  0.03668  0.18090  1.0000
  C   C53       1.0  0.29280  0.64550  0.79656  1.0000
  C   C54       1.0  0.70869  0.36102  0.80866  1.0000
  C   C55       1.0  0.52820  0.99262  0.61704  1.0000
  C   C56       1.0  0.47524  0.01512  0.75283  1.0000
  C   C57       1.0  0.31398  0.62362  0.78341  1.0000
  C   C58       1.0  0.68822  0.38369  0.78742  1.0000
  C   C59       1.0  0.24700  0.62279  0.82085  1.0000
  C   C60       1.0  0.75479  0.38291  0.83401  1.0000
  C   C61       1.0  0.64559  0.42770  0.64939  1.0000
  C   C62       1.0  0.62566  0.45001  0.61062  1.0000
  C   C63       1.0  0.58225  0.43097  0.63131  1.0000
  C   C64       1.0  0.55989  0.38941  0.69380  1.0000
  C   C65       1.0  0.58027  0.36766  0.73406  1.0000
  C   C66       1.0  0.50777  0.90769  0.61262  1.0000
  C   C67       1.0  0.49327  0.09615  0.57317  1.0000
  C   C68       1.0  0.44293  0.53463  0.64104  1.0000
  C   C69       1.0  0.57687  0.49576  0.62028  1.0000
  C   C70       1.0  0.35442  0.70972  0.76325  1.0000
  C   C71       1.0  0.64633  0.29799  0.76558  1.0000
  C   C72       1.0  0.22323  0.63968  0.75520  1.0000
  C   C73       1.0  0.77599  0.36191  0.80228  1.0000
  C   C74       1.0  0.17987  0.61813  0.77059  1.0000
  C   C75       1.0  0.81963  0.38253  0.80976  1.0000
  C   C76       1.0  0.15917  0.57921  0.85545  1.0000
  C   C77       1.0  0.84327  0.42511  0.85017  1.0000
  C   C78       1.0  0.18282  0.56281  0.92547  1.0000
  C   C79       1.0  0.82237  0.44597  0.88856  1.0000
  C   C80       1.0  0.22611  0.58407  0.90670  1.0000
  C   C81       1.0  0.77880  0.42521  0.88064  1.0000
  C   C82       1.0  0.09136  0.56766  0.96639  1.0000
  C   C83       1.0  0.91469  0.43327  0.90104  1.0000
  C   C84       1.0  0.40508  0.50069  0.55839  1.0000
  C   C85       1.0  0.60742  0.52397  0.49687  1.0000
  C   C86       1.0  0.53930  0.03483  0.61520  1.0000
  C   C87       1.0  0.46447  0.97321  0.75655  1.0000
  C   C88       1.0  0.35734  0.64618  0.75974  1.0000
  C   C89       1.0  0.64510  0.36270  0.74997  1.0000
  C   C90       1.0  0.37790  0.69013  0.75515  1.0000
  C   C91       1.0  0.62399  0.31876  0.74156  1.0000
  C   C92       1.0  0.62360  0.38611  0.71168  1.0000
  C   C93       1.0  0.09875  0.60925  0.91921  1.0000
  C   C94       1.0  0.91214  0.40085  0.79241  1.0000
  C   C95       1.0  0.47908  0.91577  0.70276  1.0000
  C   C96       1.0  0.52346  0.09192  0.68360  1.0000
  C   C97       1.0  0.49097  0.96165  0.68869  1.0000
  C   C98       1.0  0.51297  0.04635  0.68310  1.0000
  N   N1        1.0  0.43995  0.54901  0.12491  1.0000
  N   N2        1.0  0.54594  0.42569  0.07860  1.0000
  N   N3        1.0  0.52714  0.89125  0.03028  1.0000
  N   N4        1.0  0.46914  0.09289  0.00223  1.0000
  N   N5        1.0  0.30971  0.67846  0.27307  1.0000
  N   N6        1.0  0.68684  0.30894  0.30159  1.0000
  N   N7        1.0  0.11141  0.55432  0.35721  1.0000
  N   N8        1.0  0.88555  0.45263  0.30203  1.0000
  N   N9        1.0  0.36839  0.46242  0.88406  1.0000
  N   N10       1.0  0.62003  0.52550  0.98546  1.0000
  N   N11       1.0  0.10601  0.64532  0.37776  1.0000
  N   N12       1.0  0.90935  0.37621  0.24532  1.0000
  N   N13       1.0  0.43258  0.87754  0.15178  1.0000
  N   N14       1.0  0.56604  0.11251  0.13861  1.0000
  N   N15       1.0  0.45431  0.57587  0.56814  1.0000
  N   N16       1.0  0.56075  0.45159  0.58304  1.0000
  N   N17       1.0  0.52836  0.89961  0.53526  1.0000
  N   N18       1.0  0.46998  0.09928  0.48182  1.0000
  N   N19       1.0  0.31258  0.68784  0.78260  1.0000
  N   N20       1.0  0.68800  0.31876  0.79714  1.0000
  N   N21       1.0  0.11436  0.55479  0.85843  1.0000
  N   N22       1.0  0.88805  0.44991  0.85239  1.0000
  N   N23       1.0  0.37732  0.47674  0.47423  1.0000
  N   N24       1.0  0.63263  0.54657  0.40252  1.0000
  N   N25       1.0  0.10343  0.64217  0.88524  1.0000
  N   N26       1.0  0.90854  0.37439  0.70760  1.0000
  N   N27       1.0  0.43522  0.88745  0.65653  1.0000
  N   N28       1.0  0.56700  0.12212  0.64828  1.0000
  C   C99       1.0  0.63351  0.41296  0.09507  1.0000
  C   C100      1.0  0.62502  0.38311  0.22111  1.0000
  C  Sn1       1.0  0.58723  0.36471  0.30453  1.0000
  C  Sn2       1.0  0.55743  0.37646  0.26063  1.0000
  C   C101      1.0  0.56621  0.40633  0.13428  1.0000
  C   C102      1.0  0.60413  0.42456  0.05165  1.0000
  H   H69       1.0  0.66284  0.42705  0.03107  1.0000
  O  Te1       1.0  0.57926  0.33495  0.43019  1.0000
  O  Te2       1.0  0.51940  0.35855  0.34194  1.0000
  H   H70       1.0  0.61636  0.44243  0.95400  1.0000
  Mg  Mg1       1.0  0.52296  0.31942  0.50478  1.0000
  C   C103      1.0  0.01804  0.48825  0.54223  1.0000
  C   C104      1.0  0.04004  0.52795  0.46563  1.0000
  C  Sn3       1.0  0.01911  0.54186  0.35944  1.0000
  C  Sn4       1.0  0.97534  0.51547  0.32965  1.0000
  C   C105      1.0  0.95360  0.47582  0.40697  1.0000
  C   C106      1.0  0.97486  0.46221  0.51297  1.0000
  H   H71       1.0  0.03448  0.47772  0.62432  1.0000
  O  Te3       1.0  0.04157  0.58161  0.28388  1.0000
  O  Te4       1.0  0.95364  0.52860  0.22412  1.0000
  H   H72       1.0  0.95781  0.43148  0.57234  1.0000
  Mg  Mg2       1.0  0.99804  0.58542  0.15013  1.0000
  C   C107      1.0  0.63423  0.19504  0.11636  1.0000
  C   C108      1.0  0.59542  0.16152  0.16675  1.0000
  C  Sn5       1.0  0.56887  0.16893  0.25745  1.0000
  C  Sn6       1.0  0.58148  0.21072  0.29823  1.0000
  C   C109      1.0  0.62035  0.24405  0.24713  1.0000
  C   C110      1.0  0.64668  0.23627  0.15647  1.0000
  H   H73       1.0  0.65460  0.18903  0.04613  1.0000
  O  Te5       1.0  0.53021  0.13507  0.30687  1.0000
  O  Te6       1.0  0.55554  0.21903  0.38870  1.0000
  H   H74       1.0  0.67672  0.26224  0.11738  1.0000
  Mg  Mg3       1.0  0.50584  0.16240  0.42804  1.0000
  C   C111      1.0  0.98258  0.52028  0.84445  1.0000
  C   C112      1.0  0.96299  0.47823  0.89748  1.0000
  C  Sn7       1.0  0.98538  0.46381  0.99162  1.0000
  C  Sn8       1.0  0.02251  0.49730  0.03328  1.0000
  C   C113      1.0  0.04749  0.53411  0.97972  1.0000
  C   C114      1.0  0.02479  0.54820  0.88553  1.0000
  H   H75       1.0  0.96502  0.53120  0.77165  1.0000
  O  Te7       1.0  0.95965  0.42690  0.04355  1.0000
  O  Te8       1.0  0.04562  0.48373  0.12727  1.0000
  H   H76       1.0  0.03997  0.58077  0.84458  1.0000
  Mg  Mg4       1.0  0.00439  0.42338  0.16905  1.0000
  C   C115      1.0  0.35488  0.78290  0.63220  1.0000
  C   C116      1.0  0.36988  0.75903  0.71090  1.0000
  C  Sn9       1.0  0.40958  0.77887  0.78737  1.0000
  C  Sn10      1.0  0.43463  0.82345  0.78484  1.0000
  C   C117      1.0  0.41932  0.84705  0.70588  1.0000
  C   C118      1.0  0.37956  0.82687  0.62970  1.0000
  H   H77       1.0  0.32411  0.76730  0.57333  1.0000
  O  Te9       1.0  0.42409  0.75455  0.86539  1.0000
  O  Te10      1.0  0.47441  0.84408  0.86036  1.0000
  H   H78       1.0  0.36794  0.84536  0.56886  1.0000
  Mg  Mg5       1.0  0.48039  0.79720  0.95088  1.0000
  C   C119      1.0  0.78536  0.36318  0.22523  1.0000
  C   C120      1.0  0.75807  0.36872  0.31959  1.0000
  C  Sn11      1.0  0.77334  0.40465  0.41418  1.0000
  C  Sn12      1.0  0.81674  0.43556  0.41402  1.0000
  C   C121      1.0  0.84378  0.42974  0.31911  1.0000
  C   C122      1.0  0.82818  0.39366  0.22495  1.0000
  H   H79       1.0  0.77328  0.33527  0.15231  1.0000
  O  Te11      1.0  0.74564  0.40968  0.50780  1.0000
  O  Te12      1.0  0.83284  0.47178  0.50738  1.0000
  H   H80       1.0  0.84931  0.38939  0.15182  1.0000
  Mg  Mg6       1.0  0.78259  0.46438  0.61484  1.0000
  C   C123      1.0  0.56388  0.18988  0.78679  1.0000
  C   C124      1.0  0.57765  0.16822  0.69629  1.0000
  C  Sn13      1.0  0.61809  0.18931  0.63354  1.0000
  C  Sn14      1.0  0.64517  0.23289  0.66217  1.0000
  C   C125      1.0  0.63111  0.25427  0.75296  1.0000
  C   C126      1.0  0.59057  0.23286  0.81514  1.0000
  H   H81       1.0  0.53252  0.17331  0.83498  1.0000
  O  Te13      1.0  0.63135  0.16719  0.54334  1.0000
  O  Te14      1.0  0.68575  0.25474  0.60092  1.0000
  H   H82       1.0  0.57993  0.24964  0.88529  1.0000
  Mg  Mg7       1.0  0.68942  0.21082  0.48525  1.0000
  C   C127      1.0  0.37770  0.57618  0.55472  1.0000
  C   C128      1.0  0.41900  0.58806  0.59743  1.0000
  C  Sn15      1.0  0.44139  0.61872  0.71579  1.0000
  C  Sn16      1.0  0.42198  0.63777  0.79264  1.0000
  C   C129      1.0  0.38063  0.62564  0.74914  1.0000
  C   C130      1.0  0.35852  0.59494  0.63051  1.0000
  H   H83       1.0  0.36058  0.55241  0.46300  1.0000
  O  Te15      1.0  0.48264  0.63023  0.75696  1.0000
  O  Te16      1.0  0.44362  0.66849  0.91137  1.0000
  H   H84       1.0  0.32653  0.58573  0.59754  1.0000
  Mg  Mg8       1.0  0.49920  0.67358  0.92583  1.0000
  C   C131      1.0  0.54842  0.55541  0.61272  1.0000
  C   C132      1.0  0.54564  0.51664  0.63748  1.0000
  C  Sn17      1.0  0.50663  0.47995  0.65892  1.0000
  C  Sn18      1.0  0.46978  0.48222  0.65541  1.0000
  C   C133      1.0  0.47289  0.52115  0.63045  1.0000
  C   C134      1.0  0.51208  0.55767  0.60918  1.0000
  H   H85       1.0  0.57874  0.58366  0.59617  1.0000
  O  Te17      1.0  0.50441  0.44148  0.68358  1.0000
  O  Te18      1.0  0.43039  0.44604  0.67645  1.0000
  H   H86       1.0  0.51423  0.58768  0.58990  1.0000
  Mg  Mg9       1.0  0.44354  0.40095  0.70626  1.0000
