data_image0
_chemical_formula_structural       H32C44N28SnCSn2CSnTe4Mg2SnCSn2CSnTe4Mg2SnCSn2CSnTe4Mg2SnCSn2CSnTe4Mg2SnCSn2CSnTe4Mg2SnCSn2CSnTe4Mg2SnCSn2CSnTe4Mg2SnCSn2CSnTe4Mg2SnCSn2CSnTe4Mg2SnCSn2CSnTe4Mg2SnCSn2CSnTe4Mg2SnCSn2CSnTe4Mg2SnCSn2CSnTe4Mg2SnCSn2CSnTe4Mg2SnCSn2CSnTe4Mg2SnCSn2CSnTe4Mg2SnCSn2CSnTe4Mg2SnCSn2CSnTe4Mg2
_chemical_formula_sum              "H32 C80 N28 Sn72 Te72 Mg36"
_cell_length_a       37.29
_cell_length_b       37.1705
_cell_length_c       8.11249
_cell_angle_alpha    87.8567
_cell_angle_beta     92.204
_cell_angle_gamma    121.205

_symmetry_space_group_name_H-M    'P1'
_space_group_IT_number       1

loop_
  _space_group_symop_operation_xyz
  'x, y, z'

loop_
  _atom_site_type_symbol
  _atom_site_label
  _atom_site_symmetry_multiplicity
  _atom_site_fract_x
  _atom_site_fract_y
  _atom_site_fract_z
  _atom_site_occupancy
  H   H1        1.0  0.40560  0.69742  0.18308  1.0000
  H   H2        1.0  0.58782  0.28913  0.24548  1.0000
  H   H3        1.0  0.42447  0.88468  0.03920  1.0000
  H   H4        1.0  0.57360  0.10781  0.02518  1.0000
  H   H5        1.0  0.48053  0.89872  0.32847  1.0000
  H   H6        1.0  0.52030  0.08879  0.31477  1.0000
  H   H7        1.0  0.29109  0.57921  0.27426  1.0000
  H   H8        1.0  0.70297  0.40728  0.31250  1.0000
  H   H9        1.0  0.45238  0.57384  0.44207  1.0000
  H   H10       1.0  0.52912  0.43329  0.58820  1.0000
  H   H11       1.0  0.40244  0.49082  0.23881  1.0000
  H   H12       1.0  0.56585  0.46364  0.28406  1.0000
  H   H13       1.0  0.09988  0.52358  0.39089  1.0000
  H   H14       1.0  0.89303  0.45821  0.17993  1.0000
  H   H15       1.0  0.10182  0.56912  0.09733  1.0000
  H   H16       1.0  0.90415  0.41687  0.02157  1.0000
  H   H17       1.0  0.41130  0.70902  0.73172  1.0000
  H   H18       1.0  0.59102  0.30076  0.70525  1.0000
  H   H19       1.0  0.42700  0.89509  0.54523  1.0000
  H   H20       1.0  0.57625  0.11786  0.53773  1.0000
  H   H21       1.0  0.48309  0.90900  0.83363  1.0000
  H   H22       1.0  0.51738  0.09811  0.80812  1.0000
  H   H23       1.0  0.29660  0.58939  0.78737  1.0000
  H   H24       1.0  0.70599  0.41776  0.79510  1.0000
  H   H25       1.0  0.46586  0.56553  0.05483  1.0000
  H   H26       1.0  0.54795  0.42972  0.95301  1.0000
  H   H27       1.0  0.43495  0.53485  0.77024  1.0000
  H   H28       1.0  0.59460  0.50394  0.73988  1.0000
  H   H29       1.0  0.10489  0.52451  0.89302  1.0000
  H   H30       1.0  0.89891  0.46976  0.75257  1.0000
  H   H31       1.0  0.09933  0.57032  0.59186  1.0000
  H   H32       1.0  0.89844  0.42926  0.51714  1.0000
  C   C1        1.0  0.28905  0.63608  0.28540  1.0000
  C   C2        1.0  0.70666  0.35099  0.31861  1.0000
  C   C3        1.0  0.30911  0.61338  0.26444  1.0000
  C   C4        1.0  0.68548  0.37311  0.30810  1.0000
  C   C5        1.0  0.50542  0.89794  0.10703  1.0000
  C   C6        1.0  0.49201  0.08783  0.08869  1.0000
  C   C7        1.0  0.42199  0.50366  0.12719  1.0000
  C   C8        1.0  0.55698  0.46567  0.15416  1.0000
  C   C9        1.0  0.35098  0.69939  0.24259  1.0000
  C   C10       1.0  0.64476  0.28731  0.27960  1.0000
  C   C11       1.0  0.08953  0.56937  0.46049  1.0000
  C   C12       1.0  0.91171  0.43966  0.39333  1.0000
  C   C13       1.0  0.39300  0.48131  0.98818  1.0000
  C   C14       1.0  0.59355  0.50092  0.07145  1.0000
  C   C15       1.0  0.35189  0.63475  0.22663  1.0000
  C   C16       1.0  0.64203  0.35100  0.28101  1.0000
  C   C17       1.0  0.37294  0.67882  0.21808  1.0000
  C   C18       1.0  0.62136  0.30717  0.27234  1.0000
  C   C19       1.0  0.09933  0.61168  0.41222  1.0000
  C   C20       1.0  0.91032  0.40309  0.31941  1.0000
  C   C21       1.0  0.47649  0.90557  0.19776  1.0000
  C   C22       1.0  0.52338  0.08246  0.18601  1.0000
  C   C23       1.0  0.29280  0.64550  0.79656  1.0000
  C   C24       1.0  0.70869  0.36102  0.80866  1.0000
  C   C25       1.0  0.31398  0.62362  0.78341  1.0000
  C   C26       1.0  0.68822  0.38369  0.78742  1.0000
  C   C27       1.0  0.50777  0.90769  0.61262  1.0000
  C   C28       1.0  0.49327  0.09615  0.57317  1.0000
  C   C29       1.0  0.44293  0.53463  0.64104  1.0000
  C   C30       1.0  0.57687  0.49576  0.62028  1.0000
  C   C31       1.0  0.35442  0.70972  0.76325  1.0000
  C   C32       1.0  0.64633  0.29799  0.76558  1.0000
  C   C33       1.0  0.09136  0.56766  0.96639  1.0000
  C   C34       1.0  0.91469  0.43327  0.90104  1.0000
  C   C35       1.0  0.40508  0.50069  0.55839  1.0000
  C   C36       1.0  0.60742  0.52397  0.49687  1.0000
  C   C37       1.0  0.35734  0.64618  0.75974  1.0000
  C   C38       1.0  0.64510  0.36270  0.74997  1.0000
  C   C39       1.0  0.37790  0.69013  0.75515  1.0000
  C   C40       1.0  0.62399  0.31876  0.74156  1.0000
  C   C41       1.0  0.09875  0.60925  0.91921  1.0000
  C   C42       1.0  0.91214  0.40085  0.79241  1.0000
  C   C43       1.0  0.47908  0.91577  0.70276  1.0000
  C   C44       1.0  0.52346  0.09192  0.68360  1.0000
  N   N1        1.0  0.43995  0.54901  0.12491  1.0000
  N   N2        1.0  0.54594  0.42569  0.07860  1.0000
  N   N3        1.0  0.52714  0.89125  0.03028  1.0000
  N   N4        1.0  0.46914  0.09289  0.00223  1.0000
  N   N5        1.0  0.30971  0.67846  0.27307  1.0000
  N   N6        1.0  0.68684  0.30894  0.30159  1.0000
  N   N7        1.0  0.11141  0.55432  0.35721  1.0000
  N   N8        1.0  0.88555  0.45263  0.30203  1.0000
  N   N9        1.0  0.36839  0.46242  0.88406  1.0000
  N   N10       1.0  0.62003  0.52550  0.98546  1.0000
  N   N11       1.0  0.10601  0.64532  0.37776  1.0000
  N   N12       1.0  0.90935  0.37621  0.24532  1.0000
  N   N13       1.0  0.43258  0.87754  0.15178  1.0000
  N   N14       1.0  0.56604  0.11251  0.13861  1.0000
  N   N15       1.0  0.45431  0.57587  0.56814  1.0000
  N   N16       1.0  0.56075  0.45159  0.58304  1.0000
  N   N17       1.0  0.52836  0.89961  0.53526  1.0000
  N   N18       1.0  0.46998  0.09928  0.48182  1.0000
  N   N19       1.0  0.31258  0.68784  0.78260  1.0000
  N   N20       1.0  0.68800  0.31876  0.79714  1.0000
  N   N21       1.0  0.11436  0.55479  0.85843  1.0000
  N   N22       1.0  0.88805  0.44991  0.85239  1.0000
  N   N23       1.0  0.37732  0.47674  0.47423  1.0000
  N   N24       1.0  0.63263  0.54657  0.40252  1.0000
  N   N25       1.0  0.10343  0.64217  0.88524  1.0000
  N   N26       1.0  0.90854  0.37439  0.70760  1.0000
  N   N27       1.0  0.43522  0.88745  0.65653  1.0000
  N   N28       1.0  0.56700  0.12212  0.64828  1.0000
  C  Sn1       1.0  0.53252  0.01534  0.06464  1.0000
  C   C45       1.0  0.51100  0.03304  0.12886  1.0000
  C  Sn2       1.0  0.47819  0.00980  0.23756  1.0000
  C  Sn3       1.0  0.98312  0.96801  0.28311  1.0000
  C   C46       1.0  0.00464  0.95034  0.21893  1.0000
  C  Sn4       1.0  0.03745  0.97356  0.11020  1.0000
  O  Te1       1.0  0.57089  0.03394  0.95618  1.0000
  O  Te2       1.0  0.45712  0.02816  0.30010  1.0000
  O  Te3       1.0  0.95039  0.94420  0.39167  1.0000
  O  Te4       1.0  0.05852  0.95522  0.04770  1.0000
  Mg  Mg1       1.0  0.93119  0.98305  0.44392  1.0000
  Mg  Mg2       1.0  0.10659  0.99509  0.90394  1.0000
  C  Sn5       1.0  0.42595  0.63411  0.15782  1.0000
  C   C47       1.0  0.38283  0.61846  0.15146  1.0000
  C  Sn6       1.0  0.35428  0.57513  0.15051  1.0000
  C  Sn7       1.0  0.36913  0.54685  0.15615  1.0000
  C   C48       1.0  0.41222  0.56250  0.16254  1.0000
  C  Sn8       1.0  0.44080  0.60583  0.16346  1.0000
  O  Te5       1.0  0.45393  0.67755  0.15865  1.0000
  O  Te6       1.0  0.31132  0.56023  0.14405  1.0000
  O  Te7       1.0  0.34111  0.50338  0.15531  1.0000
  O  Te8       1.0  0.48374  0.62074  0.16995  1.0000
  Mg  Mg3       1.0  0.28558  0.49837  0.14557  1.0000
  Mg  Mg4       1.0  0.50950  0.68258  0.16852  1.0000
  C  Sn9       1.0  0.56458  0.38014  0.31172  1.0000
  C   C49       1.0  0.57488  0.41177  0.19171  1.0000
  C  Sn10      1.0  0.60692  0.42228  0.08151  1.0000
  C  Sn11      1.0  0.62910  0.40070  0.09138  1.0000
  C   C50       1.0  0.61880  0.36909  0.21132  1.0000
  C  Sn12      1.0  0.58677  0.35856  0.32160  1.0000
  O  Te9       1.0  0.53244  0.37015  0.42061  1.0000
  O  Te10      1.0  0.62233  0.44881  0.96262  1.0000
  O  Te11      1.0  0.66694  0.40551  0.98237  1.0000
  O  Te12      1.0  0.57702  0.32683  0.44041  1.0000
  Mg  Mg5       1.0  0.66862  0.45105  0.84196  1.0000
  Mg  Mg6       1.0  0.53073  0.32456  0.56106  1.0000
  C  Sn13      1.0  0.50846  0.52789  0.14838  1.0000
  C   C51       1.0  0.46584  0.50084  0.11231  1.0000
  C  Sn14      1.0  0.44892  0.45742  0.10802  1.0000
  C  Sn15      1.0  0.47515  0.44068  0.14057  1.0000
  C   C52       1.0  0.51774  0.46772  0.17665  1.0000
  C  Sn16      1.0  0.53468  0.51115  0.18093  1.0000
  O  Te13      1.0  0.52470  0.57119  0.15201  1.0000
  O  Te14      1.0  0.40622  0.43101  0.07160  1.0000
  O  Te15      1.0  0.45887  0.39734  0.13691  1.0000
  O  Te16      1.0  0.57736  0.53755  0.21735  1.0000
  Mg  Mg7       1.0  0.39879  0.37424  0.08140  1.0000
  Mg  Mg8       1.0  0.58482  0.59432  0.20767  1.0000
  C  Sn17      1.0  0.18844  0.56280  0.45515  1.0000
  C   C53       1.0  0.16251  0.57820  0.40530  1.0000
  C  Sn18      1.0  0.17660  0.61194  0.29270  1.0000
  C  Sn19      1.0  0.21745  0.63065  0.22849  1.0000
  C   C54       1.0  0.24335  0.61524  0.27832  1.0000
  C  Sn20      1.0  0.22929  0.58151  0.39094  1.0000
  O  Te17      1.0  0.17371  0.52904  0.56784  1.0000
  O  Te18      1.0  0.15010  0.62680  0.24476  1.0000
  O  Te19      1.0  0.23217  0.66443  0.11572  1.0000
  O  Te20      1.0  0.25576  0.56664  0.43886  1.0000
  Mg  Mg9       1.0  0.18441  0.67346  0.08814  1.0000
  Mg  Mg10      1.0  0.22148  0.51998  0.59540  1.0000
  C  Sn21      1.0  0.78327  0.42538  0.38631  1.0000
  C   C55       1.0  0.75644  0.38642  0.31470  1.0000
  C  Sn22      1.0  0.77245  0.36304  0.25348  1.0000
  C  Sn23      1.0  0.81620  0.37893  0.26414  1.0000
  C   C56       1.0  0.84300  0.41787  0.33573  1.0000
  C  Sn24      1.0  0.82701  0.44127  0.39697  1.0000
  O  Te21      1.0  0.76657  0.44822  0.44672  1.0000
  O  Te22      1.0  0.74501  0.32417  0.18237  1.0000
  O  Te23      1.0  0.83288  0.35606  0.20365  1.0000
  O  Te24      1.0  0.85442  0.48012  0.46806  1.0000
  Mg  Mg11      1.0  0.78281  0.30477  0.11774  1.0000
  Mg  Mg12      1.0  0.81666  0.49954  0.53281  1.0000
  C  Sn25      1.0  0.00365  0.54473  0.37512  1.0000
  C   C57       1.0  0.03539  0.54231  0.46262  1.0000
  C  Sn26      1.0  0.02906  0.50340  0.51728  1.0000
  C  Sn27      1.0  0.99020  0.46610  0.48369  1.0000
  C   C58       1.0  0.95850  0.46853  0.39621  1.0000
  C  Sn28      1.0  0.96480  0.50744  0.34153  1.0000
  O  Te25      1.0  0.01067  0.58397  0.32166  1.0000
  O  Te26      1.0  0.06125  0.50178  0.60458  1.0000
  O  Te27      1.0  0.98321  0.42684  0.53723  1.0000
  O  Te28      1.0  0.93264  0.50906  0.25426  1.0000
  Mg  Mg13      1.0  0.03664  0.44089  0.65146  1.0000
  Mg  Mg14      1.0  0.95722  0.56993  0.20724  1.0000
  C  Sn29      1.0  0.36087  0.79887  0.15662  1.0000
  C   C59       1.0  0.40115  0.82948  0.20977  1.0000
  C  Sn30      1.0  0.42990  0.81805  0.26503  1.0000
  C  Sn31      1.0  0.41815  0.77513  0.26713  1.0000
  C   C60       1.0  0.37789  0.74455  0.21398  1.0000
  C  Sn32      1.0  0.34912  0.75595  0.15872  1.0000
  O  Te29      1.0  0.33264  0.81101  0.10187  1.0000
  O  Te30      1.0  0.46999  0.84922  0.31762  1.0000
  O  Te31      1.0  0.44642  0.76300  0.32195  1.0000
  O  Te32      1.0  0.30905  0.72481  0.10613  1.0000
  Mg  Mg15      1.0  0.49734  0.81700  0.38120  1.0000
  Mg  Mg16      1.0  0.28168  0.75699  0.04244  1.0000
  C  Sn33      1.0  0.58071  0.20130  0.33849  1.0000
  C   C61       1.0  0.62091  0.23384  0.29704  1.0000
  C  Sn34      1.0  0.64284  0.22844  0.17407  1.0000
  C  Sn35      1.0  0.62418  0.18973  0.09069  1.0000
  C   C62       1.0  0.58399  0.15722  0.13212  1.0000
  C  Sn36      1.0  0.56205  0.16258  0.25511  1.0000
  O  Te33      1.0  0.55937  0.20739  0.46182  1.0000
  O  Te34      1.0  0.68300  0.26143  0.13483  1.0000
  O  Te35      1.0  0.65123  0.17845  0.96729  1.0000
  O  Te36      1.0  0.52191  0.12963  0.29433  1.0000
  Mg  Mg17      1.0  0.70517  0.23273  0.95785  1.0000
  Mg  Mg18      1.0  0.50537  0.15309  0.47122  1.0000
  C  Sn37      1.0  0.47651  0.00718  0.80323  1.0000
  C   C63       1.0  0.51164  0.04190  0.73342  1.0000
  C  Sn38      1.0  0.53602  0.03621  0.62288  1.0000
  C  Sn39      1.0  0.04149  0.99496  0.58116  1.0000
  C   C64       1.0  0.00638  0.96026  0.65093  1.0000
  C  Sn40      1.0  0.98199  0.96592  0.76151  1.0000
  O  Te37      1.0  0.45259  0.01360  0.91344  1.0000
  O  Te38      1.0  0.57100  0.07142  0.55472  1.0000
  O  Te39      1.0  0.06545  0.98855  0.47085  1.0000
  O  Te40      1.0  0.94702  0.93075  0.82962  1.0000
  Mg  Mg19      1.0  0.59373  0.04646  0.41053  1.0000
  Mg  Mg20      1.0  0.92426  0.95567  0.97375  1.0000
  C  Sn41      1.0  0.36199  0.57892  0.62471  1.0000
  C   C65       1.0  0.37351  0.61059  0.73880  1.0000
  C  Sn42      1.0  0.41543  0.63607  0.78893  1.0000
  C  Sn43      1.0  0.44647  0.62980  0.72361  1.0000
  C   C66       1.0  0.43494  0.59816  0.60957  1.0000
  C  Sn44      1.0  0.39304  0.57265  0.55938  1.0000
  O  Te41      1.0  0.31990  0.55382  0.57634  1.0000
  O  Te42      1.0  0.42619  0.66751  0.90318  1.0000
  O  Te43      1.0  0.48859  0.65494  0.77209  1.0000
  O  Te44      1.0  0.38227  0.54124  0.44519  1.0000
  Mg  Mg21      1.0  0.48767  0.69363  0.93071  1.0000
  Mg  Mg22      1.0  0.32080  0.51512  0.41751  1.0000
  C  Sn45      1.0  0.57115  0.36532  0.68229  1.0000
  C   C67       1.0  0.61383  0.37947  0.67343  1.0000
  C  Sn46      1.0  0.64323  0.42234  0.65361  1.0000
  C  Sn47      1.0  0.62970  0.45168  0.64250  1.0000
  C   C68       1.0  0.58705  0.43753  0.65138  1.0000
  C  Sn48      1.0  0.55762  0.39466  0.67118  1.0000
  O  Te45      1.0  0.54231  0.32231  0.70214  1.0000
  O  Te46      1.0  0.68573  0.43574  0.64502  1.0000
  O  Te47      1.0  0.65859  0.49471  0.62263  1.0000
  O  Te48      1.0  0.51515  0.38126  0.67979  1.0000
  Mg  Mg23      1.0  0.71302  0.49755  0.61761  1.0000
  Mg  Mg24      1.0  0.48784  0.31946  0.70729  1.0000
  C  Sn49      1.0  0.52712  0.55664  0.57095  1.0000
  C   C69       1.0  0.48425  0.52942  0.59574  1.0000
  C  Sn50      1.0  0.46918  0.48857  0.65729  1.0000
  C  Sn51      1.0  0.49755  0.47464  0.69495  1.0000
  C   C70       1.0  0.54039  0.50185  0.67018  1.0000
  C  Sn52      1.0  0.55549  0.54270  0.60861  1.0000
  O  Te49      1.0  0.54149  0.59734  0.50931  1.0000
  O  Te50      1.0  0.42619  0.46193  0.68099  1.0000
  O  Te51      1.0  0.48314  0.43390  0.75663  1.0000
  O  Te52      1.0  0.59845  0.56934  0.58494  1.0000
  Mg  Mg25      1.0  0.42181  0.40934  0.76778  1.0000
  Mg  Mg26      1.0  0.60286  0.62194  0.49824  1.0000
  C  Sn53      1.0  0.21530  0.64346  0.79416  1.0000
  C   C71       1.0  0.24336  0.63145  0.85316  1.0000
  C  Sn54      1.0  0.22872  0.58996  0.90522  1.0000
  C  Sn55      1.0  0.18512  0.55983  0.89806  1.0000
  C   C72       1.0  0.15709  0.57185  0.83907  1.0000
  C  Sn56      1.0  0.17170  0.61333  0.78701  1.0000
  O  Te53      1.0  0.23064  0.68511  0.74276  1.0000
  O  Te54      1.0  0.25738  0.57870  0.96378  1.0000
  O  Te55      1.0  0.16980  0.51816  0.94953  1.0000
  O  Te56      1.0  0.14307  0.62459  0.72845  1.0000
  Mg  Mg27      1.0  0.21554  0.52332  0.01958  1.0000
  Mg  Mg28      1.0  0.17920  0.68517  0.67255  1.0000
  C  Sn57      1.0  0.81067  0.37926  0.75697  1.0000
  C   C73       1.0  0.83927  0.42057  0.80341  1.0000
  C  Sn58      1.0  0.82575  0.44359  0.88599  1.0000
  C  Sn59      1.0  0.78275  0.42492  0.92303  1.0000
  C   C74       1.0  0.75417  0.38363  0.87662  1.0000
  C  Sn60      1.0  0.76767  0.36058  0.79400  1.0000
  O  Te57      1.0  0.82489  0.35683  0.67452  1.0000
  O  Te58      1.0  0.85493  0.48485  0.93111  1.0000
  O  Te59      1.0  0.76287  0.45260  0.00554  1.0000
  O  Te60      1.0  0.73852  0.31935  0.74892  1.0000
  Mg  Mg29      1.0  0.81462  0.50781  0.04149  1.0000
  Mg  Mg30      1.0  0.77312  0.30157  0.63862  1.0000
  C  Sn61      1.0  0.03137  0.47699  0.98918  1.0000
  C   C75       1.0  0.05041  0.51869  0.93202  1.0000
  C  Sn62      1.0  0.02600  0.53541  0.87651  1.0000
  C  Sn63      1.0  0.98163  0.50993  0.87827  1.0000
  C   C76       1.0  0.96261  0.46826  0.93543  1.0000
  C  Sn64      1.0  0.98700  0.45151  0.99094  1.0000
  O  Te61      1.0  0.05071  0.46615  0.04410  1.0000
  O  Te62      1.0  0.04575  0.57719  0.81988  1.0000
  O  Te63      1.0  0.95661  0.52603  0.82328  1.0000
  O  Te64      1.0  0.96160  0.41498  0.04757  1.0000
  Mg  Mg31      1.0  0.99815  0.58473  0.75775  1.0000
  Mg  Mg32      1.0  0.00916  0.40741  0.10981  1.0000
  C  Sn65      1.0  0.36249  0.78129  0.59424  1.0000
  C   C77       1.0  0.37652  0.75848  0.68806  1.0000
  C  Sn66      1.0  0.41046  0.77895  0.79863  1.0000
  C  Sn67      1.0  0.43078  0.82315  0.81588  1.0000
  C   C78       1.0  0.41675  0.84594  0.72212  1.0000
  C  Sn68      1.0  0.38281  0.82549  0.61149  1.0000
  O  Te65      1.0  0.32849  0.76017  0.48447  1.0000
  O  Te66      1.0  0.42392  0.75547  0.89104  1.0000
  O  Te67      1.0  0.46480  0.84425  0.92576  1.0000
  O  Te68      1.0  0.36934  0.84894  0.51915  1.0000
  Mg  Mg33      1.0  0.46587  0.80373  0.02428  1.0000
  Mg  Mg34      1.0  0.32171  0.80592  0.38593  1.0000
  C  Sn69      1.0  0.64005  0.22884  0.60910  1.0000
  C   C79       1.0  0.62476  0.25015  0.69292  1.0000
  C  Sn70      1.0  0.58927  0.22791  0.78991  1.0000
  C  Sn71      1.0  0.56865  0.18344  0.80349  1.0000
  C   C80       1.0  0.58394  0.16215  0.71972  1.0000
  C  Sn72      1.0  0.61942  0.18437  0.62267  1.0000
  O  Te69      1.0  0.67557  0.25172  0.51284  1.0000
  O  Te70      1.0  0.57457  0.24991  0.87251  1.0000
  O  Te71      1.0  0.53310  0.16057  0.89984  1.0000
  O  Te72      1.0  0.63413  0.16239  0.54013  1.0000
  Mg  Mg35      1.0  0.52506  0.20472  0.98870  1.0000
  Mg  Mg36      1.0  0.68364  0.20755  0.42398  1.0000
