data_image0
_chemical_formula_structural       H140C212N16O12C2Sn2C2HTe2HMgC2Sn2C2HTe2HMgC2Sn2C2HTe2HMgC2Sn2C2HTe2HMgC2Sn2C2HTe2HMgC2Sn2C2HTe2HMg
_chemical_formula_sum              "H152 C236 N16 O12 Sn12 Te12 Mg6"
_cell_length_a       36.6242
_cell_length_b       36.8278
_cell_length_c       7.9931
_cell_angle_alpha    89.8586
_cell_angle_beta     92.5667
_cell_angle_gamma    120.787

_symmetry_space_group_name_H-M    'P1'
_space_group_IT_number       1

loop_
  _space_group_symop_operation_xyz
  'x, y, z'

loop_
  _atom_site_type_symbol
  _atom_site_label
  _atom_site_symmetry_multiplicity
  _atom_site_fract_x
  _atom_site_fract_y
  _atom_site_fract_z
  _atom_site_occupancy
  H   H1        1.0  0.35927  0.83780  0.39232  1.0000
  H   H2        1.0  0.64468  0.16205  0.41845  1.0000
  H   H3        1.0  0.32447  0.75956  0.43039  1.0000
  H   H4        1.0  0.67956  0.24062  0.46028  1.0000
  H   H5        1.0  0.57926  0.98388  0.42186  1.0000
  H   H6        1.0  0.38223  0.97118  0.20821  1.0000
  H   H7        1.0  0.61313  0.02723  0.29293  1.0000
  H   H8        1.0  0.38845  0.01453  0.33362  1.0000
  H   H9        1.0  0.61379  0.97899  0.28257  1.0000
  H   H10       1.0  0.40806  0.98173  0.41386  1.0000
  H   H11       1.0  0.52360  0.90920  0.09701  1.0000
  H   H12       1.0  0.47609  0.08701  0.09114  1.0000
  H   H13       1.0  0.41337  0.70817  0.33510  1.0000
  H   H14       1.0  0.58789  0.28895  0.36139  1.0000
  H   H15       1.0  0.58041  0.78676  0.05032  1.0000
  H   H16       1.0  0.41878  0.20996  0.03024  1.0000
  H   H17       1.0  0.33345  0.56988  0.22639  1.0000
  H   H18       1.0  0.66636  0.42714  0.23933  1.0000
  H   H19       1.0  0.39451  0.14376  0.18906  1.0000
  H   H20       1.0  0.44357  0.11719  0.24842  1.0000
  H   H21       1.0  0.48277  0.63953  0.45824  1.0000
  H   H22       1.0  0.51973  0.36094  0.43586  1.0000
  H   H23       1.0  0.44041  0.67447  0.48898  1.0000
  H   H24       1.0  0.56089  0.32456  0.47598  1.0000
  H   H25       1.0  0.47928  0.42579  0.20445  1.0000
  H   H26       1.0  0.52398  0.57611  0.25856  1.0000
  H   H27       1.0  0.42567  0.40005  0.36647  1.0000
  H   H28       1.0  0.58643  0.59708  0.45307  1.0000
  H   H29       1.0  0.37244  0.38026  0.28246  1.0000
  H   H30       1.0  0.59160  0.61943  0.24950  1.0000
  H   H31       1.0  0.39517  0.42129  0.44261  1.0000
  H   H32       1.0  0.63560  0.61784  0.34875  1.0000
  H   H33       1.0  0.38665  0.47544  0.12148  1.0000
  H   H34       1.0  0.61544  0.52414  0.12797  1.0000
  H   H35       1.0  0.31935  0.54482  0.49328  1.0000
  H   H36       1.0  0.67672  0.45591  0.51563  1.0000
  H   H37       1.0  0.29825  0.58916  0.39274  1.0000
  H   H38       1.0  0.70314  0.41031  0.38521  1.0000
  H   H39       1.0  0.24289  0.49844  0.41280  1.0000
  H   H40       1.0  0.75210  0.50365  0.45620  1.0000
  H   H41       1.0  0.24226  0.67090  0.26194  1.0000
  H   H42       1.0  0.75856  0.33060  0.24454  1.0000
  H   H43       1.0  0.20565  0.41634  0.01653  1.0000
  H   H44       1.0  0.79411  0.57634  0.04921  1.0000
  H   H45       1.0  0.16079  0.52516  0.47641  1.0000
  H   H46       1.0  0.84214  0.47907  0.46114  1.0000
  H   H47       1.0  0.23971  0.56652  0.51130  1.0000
  H   H48       1.0  0.76445  0.43591  0.50003  1.0000
  H   H49       1.0  0.57627  0.05261  0.16867  1.0000
  H   H50       1.0  0.42516  0.94501  0.22025  1.0000
  H   H51       1.0  0.99231  0.58418  0.45964  1.0000
  H   H52       1.0  0.01535  0.42105  0.42347  1.0000
  H   H53       1.0  0.96980  0.58983  0.26373  1.0000
  H   H54       1.0  0.03075  0.41499  0.21969  1.0000
  H   H55       1.0  0.01821  0.63336  0.35226  1.0000
  H   H56       1.0  0.98576  0.37139  0.31009  1.0000
  H   H57       1.0  0.09036  0.61623  0.13565  1.0000
  H   H58       1.0  0.90760  0.38650  0.12510  1.0000
  H   H59       1.0  0.22514  0.68555  0.03233  1.0000
  H   H60       1.0  0.25219  0.75796  0.47672  1.0000
  H   H61       1.0  0.74191  0.24018  0.43312  1.0000
  H   H62       1.0  0.21404  0.79589  0.06537  1.0000
  H   H63       1.0  0.78401  0.20641  0.03341  1.0000
  H   H64       1.0  0.14831  0.75516  0.22408  1.0000
  H   H65       1.0  0.12182  0.68026  0.28937  1.0000
  H   H66       1.0  0.42915  0.76081  0.20474  1.0000
  H   H67       1.0  0.57109  0.23653  0.21409  1.0000
  H   H68       1.0  0.94536  0.52212  0.24709  1.0000
  H   H69       1.0  0.05429  0.48197  0.23384  1.0000
  H   H70       1.0  0.35808  0.83887  0.89806  1.0000
  H   H71       1.0  0.64505  0.16313  0.93313  1.0000
  H   H72       1.0  0.32309  0.76064  0.93969  1.0000
  H   H73       1.0  0.68016  0.24191  0.96951  1.0000
  H   H74       1.0  0.60174  0.01797  0.89554  1.0000
  H   H75       1.0  0.41057  0.98943  0.92129  1.0000
  H   H76       1.0  0.61884  0.02811  0.68388  1.0000
  H   H77       1.0  0.38250  0.97073  0.72103  1.0000
  H   H78       1.0  0.61844  0.98566  0.79563  1.0000
  H   H79       1.0  0.38836  0.01751  0.81620  1.0000
  H   H80       1.0  0.52269  0.90940  0.60769  1.0000
  H   H81       1.0  0.47797  0.08829  0.58948  1.0000
  H   H82       1.0  0.53996  0.21985  0.97710  1.0000
  H   H83       1.0  0.49175  0.24761  0.92264  1.0000
  H   H84       1.0  0.41299  0.71019  0.84949  1.0000
  H   H85       1.0  0.58813  0.28927  0.86626  1.0000
  H   H86       1.0  0.57569  0.78409  0.54046  1.0000
  H   H87       1.0  0.42495  0.21547  0.51265  1.0000
  H   H88       1.0  0.33322  0.57224  0.73106  1.0000
  H   H89       1.0  0.66432  0.42763  0.74057  1.0000
  H   H90       1.0  0.48292  0.64014  0.95558  1.0000
  H   H91       1.0  0.51820  0.35833  0.94437  1.0000
  H   H92       1.0  0.44153  0.67599  0.99136  1.0000
  H   H93       1.0  0.56113  0.32379  0.98144  1.0000
  H   H94       1.0  0.47417  0.42286  0.73818  1.0000
  H   H95       1.0  0.52170  0.57443  0.74619  1.0000
  H   H96       1.0  0.41435  0.40007  0.91969  1.0000
  H   H97       1.0  0.58289  0.59349  0.94813  1.0000
  H   H98       1.0  0.40559  0.38118  0.70533  1.0000
  H   H99       1.0  0.59016  0.61741  0.74665  1.0000
  H   H100      1.0  0.36403  0.38262  0.80964  1.0000
  H   H101      1.0  0.63256  0.61365  0.84849  1.0000
  H   H102      1.0  0.38417  0.47650  0.61797  1.0000
  H   H103      1.0  0.61007  0.52162  0.63249  1.0000
  H   H104      1.0  0.29855  0.59005  0.89592  1.0000
  H   H105      1.0  0.70288  0.41117  0.87687  1.0000
  H   H106      1.0  0.24089  0.67013  0.76988  1.0000
  H   H107      1.0  0.75738  0.33022  0.74390  1.0000
  H   H108      1.0  0.20424  0.42348  0.50103  1.0000
  H   H109      1.0  0.79019  0.57852  0.55902  1.0000
  H   H110      1.0  0.24318  0.39582  0.67109  1.0000
  H   H111      1.0  0.75141  0.60494  0.72068  1.0000
  H   H112      1.0  0.16116  0.52357  0.97707  1.0000
  H   H113      1.0  0.84335  0.47893  0.95571  1.0000
  H   H114      1.0  0.31931  0.44306  0.75588  1.0000
  H   H115      1.0  0.67613  0.55647  0.78439  1.0000
  H   H116      1.0  0.23998  0.56597  0.01397  1.0000
  H   H117      1.0  0.76538  0.43711  0.99414  1.0000
  H   H118      1.0  0.57723  0.05339  0.70898  1.0000
  H   H119      1.0  0.42477  0.94603  0.71423  1.0000
  H   H120      1.0  0.98628  0.58007  0.95530  1.0000
  H   H121      1.0  0.00731  0.41544  0.92777  1.0000
  H   H122      1.0  0.96888  0.58597  0.74808  1.0000
  H   H123      1.0  0.02964  0.41168  0.73737  1.0000
  H   H124      1.0  0.01456  0.62976  0.85190  1.0000
  H   H125      1.0  0.98134  0.36736  0.80348  1.0000
  H   H126      1.0  0.08921  0.61376  0.63767  1.0000
  H   H127      1.0  0.90623  0.38396  0.62254  1.0000
  H   H128      1.0  0.22440  0.68308  0.53865  1.0000
  H   H129      1.0  0.76954  0.31476  0.50898  1.0000
  H   H130      1.0  0.25185  0.76013  0.96916  1.0000
  H   H131      1.0  0.21405  0.79393  0.56631  1.0000
  H   H132      1.0  0.78119  0.20454  0.52833  1.0000
  H   H133      1.0  0.14753  0.75351  0.72060  1.0000
  H   H134      1.0  0.84926  0.24530  0.70020  1.0000
  H   H135      1.0  0.12039  0.67855  0.78745  1.0000
  H   H136      1.0  0.87714  0.32051  0.77550  1.0000
  H   H137      1.0  0.42715  0.76102  0.71257  1.0000
  H   H138      1.0  0.57192  0.23732  0.71925  1.0000
  H   H139      1.0  0.94504  0.51961  0.75353  1.0000
  H   H140      1.0  0.05345  0.47917  0.72025  1.0000
  C   C1        1.0  0.35938  0.64586  0.36540  1.0000
  C   C2        1.0  0.64181  0.35258  0.37192  1.0000
  C   C3        1.0  0.37925  0.68969  0.34959  1.0000
  C   C4        1.0  0.62238  0.30855  0.36658  1.0000
  C   C5        1.0  0.38401  0.62445  0.35551  1.0000
  C   C6        1.0  0.61676  0.37365  0.35687  1.0000
  C   C7        1.0  0.49273  0.88966  0.14859  1.0000
  C   C8        1.0  0.50769  0.10727  0.14844  1.0000
  C   C9        1.0  0.36600  0.58492  0.27773  1.0000
  C   C10       1.0  0.63437  0.41284  0.28283  1.0000
  C   C11       1.0  0.38906  0.56400  0.26038  1.0000
  C   C12       1.0  0.61208  0.43462  0.26103  1.0000
  C   C13       1.0  0.43265  0.58499  0.32351  1.0000
  C   C14       1.0  0.56938  0.41471  0.31572  1.0000
  C   C15       1.0  0.45031  0.62513  0.40572  1.0000
  C   C16       1.0  0.55167  0.37454  0.39143  1.0000
  C   C17       1.0  0.49561  0.16707  0.11930  1.0000
  C   C18       1.0  0.42678  0.64430  0.42162  1.0000
  C   C19       1.0  0.57460  0.35457  0.41228  1.0000
  C   C20       1.0  0.50857  0.20396  0.02785  1.0000
  C   C21       1.0  0.48114  0.21925  0.99571  1.0000
  C   C22       1.0  0.44160  0.52998  0.24023  1.0000
  C   C23       1.0  0.56157  0.47101  0.23795  1.0000
  C   C24       1.0  0.44001  0.19781  0.05398  1.0000
  C   C25       1.0  0.47096  0.51363  0.23038  1.0000
  C   C26       1.0  0.53280  0.48819  0.22832  1.0000
  C   C27       1.0  0.42633  0.16056  0.14189  1.0000
  C   C28       1.0  0.45844  0.47057  0.21510  1.0000
  C   C29       1.0  0.54555  0.53148  0.24275  1.0000
  C   C30       1.0  0.45381  0.14538  0.17458  1.0000
  C   C31       1.0  0.48908  0.45901  0.21364  1.0000
  C   C32       1.0  0.51501  0.54325  0.24348  1.0000
  C   C33       1.0  0.40167  0.40848  0.33101  1.0000
  C   C34       1.0  0.60084  0.60110  0.33154  1.0000
  C   C35       1.0  0.37163  0.52236  0.18903  1.0000
  C   C36       1.0  0.62967  0.47613  0.19400  1.0000
  C   C37       1.0  0.29287  0.64487  0.37872  1.0000
  C   C38       1.0  0.70955  0.35539  0.37553  1.0000
  C   C39       1.0  0.31529  0.62334  0.38186  1.0000
  C   C40       1.0  0.68635  0.37600  0.38030  1.0000
  C   C41       1.0  0.39850  0.50639  0.17858  1.0000
  C   C42       1.0  0.60366  0.49332  0.18231  1.0000
  C   C43       1.0  0.24589  0.62112  0.37906  1.0000
  C   C44       1.0  0.75635  0.38047  0.36724  1.0000
  C   C45       1.0  0.22370  0.63880  0.30556  1.0000
  C   C46       1.0  0.77735  0.36312  0.29035  1.0000
  C   C47       1.0  0.17878  0.61601  0.28506  1.0000
  C   C48       1.0  0.82172  0.38676  0.26955  1.0000
  C   C49       1.0  0.15602  0.57337  0.34318  1.0000
  C   C50       1.0  0.84514  0.43008  0.32813  1.0000
  C   C51       1.0  0.17920  0.55661  0.42589  1.0000
  C   C52       1.0  0.82325  0.44690  0.41092  1.0000
  C   C53       1.0  0.22286  0.57971  0.44366  1.0000
  C   C54       1.0  0.78019  0.42284  0.43072  1.0000
  C   C55       1.0  0.09048  0.56329  0.25353  1.0000
  C   C56       1.0  0.90922  0.44043  0.24162  1.0000
  C   C57       1.0  0.04393  0.53347  0.23794  1.0000
  C   C58       1.0  0.95550  0.47050  0.23135  1.0000
  C   C59       1.0  0.01265  0.54505  0.24093  1.0000
  C   C60       1.0  0.98687  0.45900  0.22731  1.0000
  C   C61       1.0  0.99960  0.59888  0.33628  1.0000
  C   C62       1.0  0.00364  0.40584  0.29881  1.0000
  C   C63       1.0  0.15378  0.63245  0.21243  1.0000
  C   C64       1.0  0.84562  0.37027  0.19781  1.0000
  C   C65       1.0  0.54290  0.02872  0.17783  1.0000
  C   C66       1.0  0.45813  0.96928  0.20564  1.0000
  C   C67       1.0  0.11003  0.60530  0.19556  1.0000
  C   C68       1.0  0.88892  0.39774  0.18320  1.0000
  C   C69       1.0  0.35485  0.70924  0.34562  1.0000
  C   C70       1.0  0.64750  0.28985  0.36033  1.0000
  C   C71       1.0  0.37489  0.75523  0.31987  1.0000
  C   C72       1.0  0.62723  0.24350  0.33882  1.0000
  C   C73       1.0  0.17150  0.67725  0.16650  1.0000
  C   C74       1.0  0.41392  0.77754  0.24718  1.0000
  C   C75       1.0  0.58707  0.22026  0.26001  1.0000
  C   C76       1.0  0.20859  0.70070  0.07803  1.0000
  C   C77       1.0  0.43480  0.82171  0.22592  1.0000
  C   C78       1.0  0.56630  0.17599  0.23524  1.0000
  C   C79       1.0  0.22362  0.74300  0.04140  1.0000
  C   C80       1.0  0.41408  0.84376  0.27745  1.0000
  C   C81       1.0  0.58821  0.15480  0.29183  1.0000
  C   C82       1.0  0.20215  0.76290  0.09373  1.0000
  C   C83       1.0  0.37384  0.82029  0.35037  1.0000
  C   C84       1.0  0.62936  0.17910  0.37284  1.0000
  C   C85       1.0  0.16509  0.73996  0.18087  1.0000
  C   C86       1.0  0.35477  0.77738  0.37151  1.0000
  C   C87       1.0  0.64843  0.22217  0.39602  1.0000
  C   C88       1.0  0.14994  0.69766  0.21678  1.0000
  C   C89       1.0  0.46972  0.90879  0.20036  1.0000
  C   C90       1.0  0.53183  0.08911  0.20634  1.0000
  C   C91       1.0  0.48692  0.95495  0.19086  1.0000
  C   C92       1.0  0.51449  0.04301  0.19452  1.0000
  C   C93       1.0  0.53022  0.98607  0.17748  1.0000
  C   C94       1.0  0.47104  0.01194  0.20957  1.0000
  C   C95       1.0  0.59364  0.99260  0.29933  1.0000
  C   C96       1.0  0.40310  0.99613  0.30099  1.0000
  C   C97       1.0  0.96978  0.51393  0.23830  1.0000
  C   C98       1.0  0.02973  0.49016  0.23093  1.0000
  C   C99       1.0  0.47645  0.84664  0.16350  1.0000
  C   C100      1.0  0.52390  0.15036  0.16346  1.0000
  C   C101      1.0  0.35943  0.64732  0.87339  1.0000
  C   C102      1.0  0.64168  0.35316  0.87236  1.0000
  C   C103      1.0  0.37880  0.69117  0.86121  1.0000
  C   C104      1.0  0.62258  0.30916  0.86986  1.0000
  C   C105      1.0  0.38428  0.62621  0.86038  1.0000
  C   C106      1.0  0.61593  0.37353  0.85960  1.0000
  C   C107      1.0  0.49165  0.88997  0.65807  1.0000
  C   C108      1.0  0.50907  0.10832  0.65110  1.0000
  C   C109      1.0  0.36583  0.58681  0.78117  1.0000
  C   C110      1.0  0.63249  0.41268  0.78611  1.0000
  C   C111      1.0  0.38839  0.56557  0.76018  1.0000
  C   C112      1.0  0.60925  0.43354  0.76650  1.0000
  C   C113      1.0  0.43196  0.58597  0.82279  1.0000
  C   C114      1.0  0.56652  0.41266  0.82173  1.0000
  C   C115      1.0  0.45032  0.62617  0.90505  1.0000
  C   C116      1.0  0.55004  0.37268  0.89819  1.0000
  C   C117      1.0  0.42728  0.64580  0.92369  1.0000
  C   C118      1.0  0.57394  0.35368  0.91737  1.0000
  C   C119      1.0  0.43942  0.52991  0.74177  1.0000
  C   C120      1.0  0.55687  0.46786  0.74388  1.0000
  C   C121      1.0  0.46787  0.51245  0.73598  1.0000
  C   C122      1.0  0.52798  0.48493  0.73593  1.0000
  C   C123      1.0  0.45416  0.46887  0.73667  1.0000
  C   C124      1.0  0.54166  0.52850  0.74062  1.0000
  C   C125      1.0  0.48394  0.45608  0.73518  1.0000
  C   C126      1.0  0.51184  0.54120  0.73975  1.0000
  C   C127      1.0  0.39852  0.39861  0.79751  1.0000
  C   C128      1.0  0.59792  0.59784  0.82784  1.0000
  C   C129      1.0  0.37038  0.52416  0.68572  1.0000
  C   C130      1.0  0.62588  0.47494  0.69963  1.0000
  C   C131      1.0  0.29233  0.64523  0.88649  1.0000
  C   C132      1.0  0.70962  0.35636  0.87401  1.0000
  C   C133      1.0  0.31528  0.62427  0.88793  1.0000
  C   C134      1.0  0.68625  0.37685  0.87649  1.0000
  C   C135      1.0  0.39660  0.50740  0.67650  1.0000
  C   C136      1.0  0.59892  0.49096  0.68728  1.0000
  C   C137      1.0  0.24534  0.62069  0.88562  1.0000
  C   C138      1.0  0.75636  0.38100  0.86420  1.0000
  C   C139      1.0  0.22270  0.63793  0.81270  1.0000
  C   C140      1.0  0.77672  0.36280  0.78841  1.0000
  C   C141      1.0  0.17786  0.61449  0.79015  1.0000
  C   C142      1.0  0.82106  0.38567  0.76709  1.0000
  C   C143      1.0  0.15554  0.57167  0.84627  1.0000
  C   C144      1.0  0.84506  0.42904  0.82487  1.0000
  C   C145      1.0  0.17913  0.55530  0.92866  1.0000
  C   C146      1.0  0.82384  0.44671  0.90667  1.0000
  C   C147      1.0  0.32486  0.49744  0.63075  1.0000
  C   C148      1.0  0.67084  0.50242  0.65600  1.0000
  C   C149      1.0  0.22278  0.57898  0.94768  1.0000
  C   C150      1.0  0.78074  0.42344  0.92618  1.0000
  C   C151      1.0  0.30239  0.51251  0.53575  1.0000
  C   C152      1.0  0.69325  0.48815  0.56520  1.0000
  C   C153      1.0  0.25937  0.48617  0.48912  1.0000
  C   C154      1.0  0.73579  0.51527  0.53027  1.0000
  C   C155      1.0  0.08990  0.56095  0.75463  1.0000
  C   C156      1.0  0.90869  0.43837  0.73794  1.0000
  C   C157      1.0  0.23777  0.44401  0.53743  1.0000
  C   C158      1.0  0.75704  0.55742  0.58634  1.0000
  C   C159      1.0  0.04346  0.53094  0.73727  1.0000
  C   C160      1.0  0.95501  0.46817  0.72705  1.0000
  C   C161      1.0  0.25970  0.42844  0.63105  1.0000
  C   C162      1.0  0.73517  0.57226  0.67543  1.0000
  C   C163      1.0  0.01229  0.54260  0.74624  1.0000
  C   C164      1.0  0.98619  0.45659  0.71799  1.0000
  C   C165      1.0  0.30269  0.45484  0.67771  1.0000
  C   C166      1.0  0.69263  0.54511  0.71024  1.0000
  C   C167      1.0  0.99675  0.59531  0.83415  1.0000
  C   C168      1.0  0.99990  0.40195  0.79962  1.0000
  C   C169      1.0  0.15269  0.63055  0.71598  1.0000
  C   C170      1.0  0.84446  0.36858  0.69546  1.0000
  C   C171      1.0  0.54373  0.02922  0.70535  1.0000
  C   C172      1.0  0.45811  0.97017  0.70804  1.0000
  C   C173      1.0  0.10906  0.60307  0.69804  1.0000
  C   C174      1.0  0.88785  0.39559  0.68041  1.0000
  C   C175      1.0  0.35381  0.71011  0.85653  1.0000
  C   C176      1.0  0.64789  0.29069  0.86458  1.0000
  C   C177      1.0  0.37348  0.75600  0.82977  1.0000
  C   C178      1.0  0.62784  0.24437  0.84586  1.0000
  C   C179      1.0  0.17042  0.67524  0.66899  1.0000
  C   C180      1.0  0.82561  0.32335  0.64744  1.0000
  C   C181      1.0  0.41231  0.77807  0.75559  1.0000
  C   C182      1.0  0.58778  0.22107  0.76678  1.0000
  C   C183      1.0  0.20791  0.69846  0.58261  1.0000
  C   C184      1.0  0.78695  0.29974  0.55353  1.0000
  C   C185      1.0  0.43330  0.82216  0.73296  1.0000
  C   C186      1.0  0.56723  0.17684  0.74236  1.0000
  C   C187      1.0  0.22346  0.74085  0.54616  1.0000
  C   C188      1.0  0.77130  0.25741  0.51017  1.0000
  C   C189      1.0  0.41273  0.84434  0.78467  1.0000
  C   C190      1.0  0.58879  0.15560  0.80262  1.0000
  C   C191      1.0  0.20189  0.76092  0.59517  1.0000
  C   C192      1.0  0.79354  0.23754  0.56227  1.0000
  C   C193      1.0  0.37244  0.82106  0.85727  1.0000
  C   C194      1.0  0.62983  0.18005  0.88471  1.0000
  C   C195      1.0  0.16436  0.73815  0.67965  1.0000
  C   C196      1.0  0.83186  0.26049  0.65681  1.0000
  C   C197      1.0  0.35334  0.77821  0.88029  1.0000
  C   C198      1.0  0.64903  0.22322  0.90521  1.0000
  C   C199      1.0  0.14884  0.69583  0.71652  1.0000
  C   C200      1.0  0.84776  0.30291  0.69866  1.0000
  C   C201      1.0  0.46899  0.90932  0.71164  1.0000
  C   C202      1.0  0.53253  0.08988  0.71528  1.0000
  C   C203      1.0  0.48675  0.95555  0.70509  1.0000
  C   C204      1.0  0.51498  0.04368  0.70603  1.0000
  C   C205      1.0  0.53066  0.98646  0.70695  1.0000
  C   C206      1.0  0.47120  0.01289  0.70942  1.0000
  C   C207      1.0  0.60216  0.00345  0.77614  1.0000
  C   C208      1.0  0.40376  0.99903  0.79891  1.0000
  C   C209      1.0  0.96943  0.51158  0.74041  1.0000
  C   C210      1.0  0.02914  0.48769  0.72292  1.0000
  C   C211      1.0  0.47486  0.84679  0.66924  1.0000
  C   C212      1.0  0.52540  0.15144  0.66571  1.0000
  N   N1        1.0  0.45805  0.56831  0.31194  1.0000
  N   N2        1.0  0.54491  0.43258  0.30296  1.0000
  N   N3        1.0  0.11308  0.54790  0.32684  1.0000
  N   N4        1.0  0.88760  0.45603  0.31273  1.0000
  N   N5        1.0  0.31243  0.68717  0.36178  1.0000
  N   N6        1.0  0.69040  0.31282  0.36589  1.0000
  N   N7        1.0  0.43136  0.88617  0.26388  1.0000
  N   N8        1.0  0.57117  0.11229  0.27597  1.0000
  N   N9        1.0  0.45665  0.56847  0.81213  1.0000
  N   N10       1.0  0.54109  0.42951  0.80910  1.0000
  N   N11       1.0  0.11267  0.54568  0.82744  1.0000
  N   N12       1.0  0.88752  0.45445  0.80901  1.0000
  N   N13       1.0  0.31135  0.68756  0.87139  1.0000
  N   N14       1.0  0.69071  0.31380  0.86886  1.0000
  N   N15       1.0  0.43028  0.88681  0.77236  1.0000
  N   N16       1.0  0.57150  0.11302  0.78851  1.0000
  O   O1        1.0  0.41573  0.43869  0.19855  1.0000
  O   O2        1.0  0.58873  0.56074  0.25827  1.0000
  O   O3        1.0  0.02614  0.58774  0.25018  1.0000
  O   O4        1.0  0.97400  0.41647  0.22494  1.0000
  O   O5        1.0  0.56109  0.97486  0.16594  1.0000
  O   O6        1.0  0.44299  0.02588  0.23366  1.0000
  O   O7        1.0  0.41096  0.44040  0.74309  1.0000
  O   O8        1.0  0.58501  0.55766  0.75048  1.0000
  O   O9        1.0  0.02608  0.58514  0.76613  1.0000
  O   O10       1.0  0.97328  0.41401  0.70824  1.0000
  O   O11       1.0  0.55967  0.97294  0.71637  1.0000
  O   O12       1.0  0.44241  0.02658  0.71827  1.0000
  C   C213      1.0  0.51109  0.21387  0.49967  1.0000
  C   C214      1.0  0.50348  0.17968  0.59931  1.0000
  C  Sn1       1.0  0.46391  0.15485  0.66814  1.0000
  C  Sn2       1.0  0.43140  0.16449  0.63638  1.0000
  C   C215      1.0  0.43931  0.19874  0.53644  1.0000
  C   C216      1.0  0.47904  0.22339  0.46822  1.0000
  H   H141      1.0  0.54181  0.23293  0.44681  1.0000
  O  Te1       1.0  0.45685  0.12082  0.76746  1.0000
  O  Te2       1.0  0.39155  0.14018  0.70356  1.0000
  H   H142      1.0  0.48491  0.24984  0.39099  1.0000
  Mg  Mg1       1.0  0.39730  0.09705  0.83102  1.0000
  C   C217      1.0  0.70558  0.48891  0.03593  1.0000
  C   C218      1.0  0.67996  0.49730  0.13387  1.0000
  C  Sn3       1.0  0.69561  0.53776  0.20258  1.0000
  C  Sn4       1.0  0.73770  0.57036  0.17242  1.0000
  C   C219      1.0  0.76307  0.56165  0.07417  1.0000
  C   C220      1.0  0.74709  0.52105  0.00607  1.0000
  H   H143      1.0  0.70608  0.46352  0.98315  1.0000
  O  Te3       1.0  0.66959  0.54560  0.30019  1.0000
  O  Te4       1.0  0.75414  0.61109  0.23952  1.0000
  H   H144      1.0  0.77980  0.52058  0.93015  1.0000
  Mg  Mg2       1.0  0.70638  0.60619  0.36434  1.0000
  C   C221      1.0  0.29280  0.50500  0.01102  1.0000
  C   C222      1.0  0.32023  0.49928  0.12025  1.0000
  C  Sn5       1.0  0.30636  0.46021  0.19416  1.0000
  C  Sn6       1.0  0.26425  0.42629  0.15775  1.0000
  C   C223      1.0  0.23707  0.43233  0.04822  1.0000
  C   C224      1.0  0.26413  0.47758  0.97500  1.0000
  H   H145      1.0  0.31666  0.54136  0.95429  1.0000
  O  Te5       1.0  0.33417  0.45504  0.30305  1.0000
  O  Te6       1.0  0.24958  0.38691  0.22984  1.0000
  H   H146      1.0  0.24290  0.48199  0.89034  1.0000
  Mg  Mg3       1.0  0.29940  0.39542  0.37025  1.0000
  C   C225      1.0  0.55488  0.85054  0.69997  1.0000
  C   C226      1.0  0.51339  0.83645  0.63765  1.0000
  C  Sn7       1.0  0.49147  0.79967  0.53771  1.0000
  C  Sn8       1.0  0.51154  0.77663  0.49971  1.0000
  C   C227      1.0  0.55305  0.79096  0.56276  1.0000
  C   C228      1.0  0.57469  0.82781  0.66260  1.0000
  H   H147      1.0  0.57162  0.87903  0.77729  1.0000
  O  Te7       1.0  0.45004  0.78606  0.47643  1.0000
  O  Te8       1.0  0.49036  0.73976  0.40017  1.0000
  H   H148      1.0  0.60681  0.83869  0.71092  1.0000
  Mg  Mg4       1.0  0.43430  0.73396  0.34605  1.0000
  C   C229      1.0  0.51938  0.78148  0.99912  1.0000
  C   C230      1.0  0.54955  0.79327  0.04741  1.0000
  C  Sn9       1.0  0.57040  0.83009  0.14745  1.0000
  C  Sn10      1.0  0.54765  0.84937  0.19995  1.0000
  C   C231      1.0  0.50459  0.83130  0.15106  1.0000
  C   C232      1.0  0.48404  0.79446  0.05090  1.0000
  H   H149      1.0  0.50347  0.75297  0.92170  1.0000
  O  Te9       1.0  0.61343  0.84746  0.19451  1.0000
  O  Te10      1.0  0.56771  0.88618  0.30002  1.0000
  H   H150      1.0  0.45070  0.78067  0.01362  1.0000
  Mg  Mg5       1.0  0.62674  0.89790  0.33160  1.0000
  C   C233      1.0  0.77185  0.26804  0.01211  1.0000
  C   C234      1.0  0.79057  0.24368  0.04409  1.0000
  C  Sn11      1.0  0.82852  0.26034  0.14194  1.0000
  C  Sn12      1.0  0.84801  0.30217  0.20889  1.0000
  C   C235      1.0  0.82901  0.32627  0.17628  1.0000
  C   C236      1.0  0.79104  0.30929  0.07816  1.0000
  H   H151      1.0  0.75533  0.26091  0.93627  1.0000
  O  Te11      1.0  0.84680  0.23557  0.17260  1.0000
  O  Te12      1.0  0.88593  0.31960  0.30715  1.0000
  H   H152      1.0  0.77654  0.32815  0.05352  1.0000
  Mg  Mg6       1.0  0.89861  0.27338  0.31377  1.0000
