data_image0
_chemical_formula_structural       H36C48N24SnCSn2CSnTe4Mg2SnCSn2CSnTe4Mg2SnCSn2CSnTe4Mg2SnCSn2CSnTe4Mg2SnCSn2CSnTe4Mg2SnCSn2CSnTe4Mg2SnCSn2CSnTe4Mg2SnCSn2CSnTe4Mg2SnCSn2CSnTe4Mg2SnCSn2CSnTe4Mg2SnCSn2CSnTe4Mg2SnCSn2CSnTe4Mg2SnCSn2CSnTe4Mg2SnCSn2CSnTe4Mg2SnCSn2CSnTe4Mg2SnCSn2CSnTe4Mg2SnCSn2CSnTe4Mg2SnCSn2CSnTe4Mg2
_chemical_formula_sum              "H36 C84 N24 Sn72 Te72 Mg36"
_cell_length_a       37.8786
_cell_length_b       37.0106
_cell_length_c       9.03777
_cell_angle_alpha    81.9181
_cell_angle_beta     124.843
_cell_angle_gamma    120.225

_symmetry_space_group_name_H-M    'P1'
_space_group_IT_number       1

loop_
  _space_group_symop_operation_xyz
  'x, y, z'

loop_
  _atom_site_type_symbol
  _atom_site_label
  _atom_site_symmetry_multiplicity
  _atom_site_fract_x
  _atom_site_fract_y
  _atom_site_fract_z
  _atom_site_occupancy
  H   H1        1.0  0.30347  0.59354  0.31778  1.0000
  H   H2        1.0  0.41885  0.70789  0.31841  1.0000
  H   H3        1.0  0.30274  0.71033  0.28581  1.0000
  H   H4        1.0  0.70825  0.41778  0.24473  1.0000
  H   H5        1.0  0.60529  0.30509  0.30909  1.0000
  H   H6        1.0  0.71772  0.30479  0.30769  1.0000
  H   H7        1.0  0.45250  0.58249  0.12604  1.0000
  H   H8        1.0  0.42504  0.87971  0.01373  1.0000
  H   H9        1.0  0.08267  0.53083  0.08921  1.0000
  H   H10       1.0  0.52640  0.44366  0.06733  1.0000
  H   H11       1.0  0.56971  0.11076  0.07117  1.0000
  H   H12       1.0  0.85988  0.44060  0.03234  1.0000
  H   H13       1.0  0.43619  0.51681  0.34429  1.0000
  H   H14       1.0  0.49709  0.91344  0.41077  1.0000
  H   H15       1.0  0.11469  0.59027  0.38321  1.0000
  H   H16       1.0  0.61134  0.50266  0.42884  1.0000
  H   H17       1.0  0.53165  0.10548  0.28349  1.0000
  H   H18       1.0  0.93438  0.44415  0.41832  1.0000
  H   H19       1.0  0.30018  0.58482  0.82565  1.0000
  H   H20       1.0  0.40215  0.69488  0.75134  1.0000
  H   H21       1.0  0.29669  0.70051  0.78501  1.0000
  H   H22       1.0  0.70341  0.40763  0.76826  1.0000
  H   H23       1.0  0.58811  0.29067  0.75612  1.0000
  H   H24       1.0  0.70181  0.29087  0.75969  1.0000
  H   H25       1.0  0.45343  0.57519  0.64515  1.0000
  H   H26       1.0  0.41078  0.88480  0.60073  1.0000
  H   H27       1.0  0.07609  0.52159  0.59379  1.0000
  H   H28       1.0  0.52141  0.43808  0.52563  1.0000
  H   H29       1.0  0.57878  0.09670  0.80155  1.0000
  H   H30       1.0  0.85844  0.44515  0.56084  1.0000
  H   H31       1.0  0.41759  0.50160  0.80339  1.0000
  H   H32       1.0  0.51050  0.91266  0.94486  1.0000
  H   H33       1.0  0.10909  0.58499  0.87582  1.0000
  H   H34       1.0  0.58588  0.46872  0.92473  1.0000
  H   H35       1.0  0.48120  0.07950  0.68089  1.0000
  H   H36       1.0  0.92744  0.43124  0.91586  1.0000
  C   C1        1.0  0.29788  0.64933  0.30379  1.0000
  C   C2        1.0  0.36467  0.64822  0.32445  1.0000
  C   C3        1.0  0.36335  0.71449  0.30023  1.0000
  C   C4        1.0  0.71963  0.36483  0.27774  1.0000
  C   C5        1.0  0.65592  0.36510  0.28471  1.0000
  C   C6        1.0  0.65853  0.30018  0.30188  1.0000
  C   C7        1.0  0.32063  0.62743  0.31639  1.0000
  C   C8        1.0  0.38556  0.69174  0.31751  1.0000
  C   C9        1.0  0.32001  0.69294  0.29724  1.0000
  C   C10       1.0  0.69615  0.38545  0.26915  1.0000
  C   C11       1.0  0.63665  0.32185  0.29787  1.0000
  C   C12       1.0  0.70084  0.32224  0.29939  1.0000
  C   C13       1.0  0.38715  0.49627  0.05823  1.0000
  C   C14       1.0  0.51979  0.90798  0.25808  1.0000
  C   C15       1.0  0.07285  0.59961  0.11978  1.0000
  C   C16       1.0  0.61193  0.52896  0.21276  1.0000
  C   C17       1.0  0.48467  0.08766  0.99634  1.0000
  C   C18       1.0  0.90616  0.39515  0.22353  1.0000
  C   C19       1.0  0.43734  0.52657  0.22519  1.0000
  C   C20       1.0  0.48723  0.91622  0.27083  1.0000
  C   C21       1.0  0.08610  0.57066  0.24157  1.0000
  C   C22       1.0  0.58305  0.49733  0.27877  1.0000
  C   C23       1.0  0.52855  0.09068  0.17598  1.0000
  C   C24       1.0  0.91887  0.43876  0.27108  1.0000
  C   C25       1.0  0.29075  0.63904  0.79654  1.0000
  C   C26       1.0  0.35550  0.63794  0.79986  1.0000
  C   C27       1.0  0.35262  0.70327  0.77124  1.0000
  C   C28       1.0  0.70870  0.35242  0.76321  1.0000
  C   C29       1.0  0.64290  0.35170  0.75873  1.0000
  C   C30       1.0  0.64360  0.28605  0.76322  1.0000
  C   C31       1.0  0.31416  0.61777  0.80912  1.0000
  C   C32       1.0  0.37339  0.68032  0.77609  1.0000
  C   C33       1.0  0.31184  0.68233  0.78382  1.0000
  C   C34       1.0  0.68647  0.37345  0.76291  1.0000
  C   C35       1.0  0.62187  0.30794  0.75950  1.0000
  C   C36       1.0  0.68671  0.30860  0.76503  1.0000
  C   C37       1.0  0.37722  0.49086  0.51610  1.0000
  C   C38       1.0  0.50930  0.89908  0.72819  1.0000
  C   C39       1.0  0.06476  0.59055  0.60792  1.0000
  C   C40       1.0  0.60400  0.50764  0.75987  1.0000
  C   C41       1.0  0.47916  0.07628  0.44961  1.0000
  C   C42       1.0  0.89345  0.38845  0.68462  1.0000
  C   C43       1.0  0.42525  0.51477  0.70088  1.0000
  C   C44       1.0  0.48776  0.91060  0.79426  1.0000
  C   C45       1.0  0.07963  0.56344  0.73834  1.0000
  C   C46       1.0  0.56556  0.47352  0.78263  1.0000
  C   C47       1.0  0.50273  0.07503  0.64715  1.0000
  C   C48       1.0  0.91164  0.43120  0.76852  1.0000
  N   N1        1.0  0.45151  0.57108  0.23431  1.0000
  N   N2        1.0  0.43352  0.88328  0.14251  1.0000
  N   N3        1.0  0.10843  0.55304  0.20970  1.0000
  N   N4        1.0  0.55889  0.45332  0.19651  1.0000
  N   N5        1.0  0.57532  0.11879  0.19005  1.0000
  N   N6        1.0  0.87674  0.44555  0.17121  1.0000
  N   N7        1.0  0.34863  0.47261  0.92342  1.0000
  N   N8        1.0  0.54269  0.90043  0.23301  1.0000
  N   N9        1.0  0.06382  0.62297  0.02368  1.0000
  N   N10       1.0  0.63630  0.55263  0.16354  1.0000
  N   N11       1.0  0.45291  0.08533  0.84664  1.0000
  N   N12       1.0  0.89602  0.36091  0.18354  1.0000
  N   N13       1.0  0.44487  0.56024  0.73362  1.0000
  N   N14       1.0  0.43509  0.87949  0.71966  1.0000
  N   N15       1.0  0.10186  0.54503  0.71028  1.0000
  N   N16       1.0  0.53719  0.43271  0.65676  1.0000
  N   N17       1.0  0.55617  0.10784  0.77159  1.0000
  N   N18       1.0  0.87247  0.44078  0.69338  1.0000
  N   N19       1.0  0.34037  0.47294  0.36873  1.0000
  N   N20       1.0  0.52772  0.89040  0.68213  1.0000
  N   N21       1.0  0.05473  0.61272  0.50639  1.0000
  N   N22       1.0  0.63235  0.53163  0.72647  1.0000
  N   N23       1.0  0.45844  0.07718  0.29344  1.0000
  N   N24       1.0  0.87810  0.35443  0.61795  1.0000
  C  Sn1       1.0  0.55480  0.55300  0.31111  1.0000
  C   C49       1.0  0.55219  0.51418  0.30421  1.0000
  C  Sn2       1.0  0.50748  0.47551  0.24704  1.0000
  C  Sn3       1.0  0.46447  0.47563  0.19557  1.0000
  C   C50       1.0  0.46709  0.51443  0.20245  1.0000
  C  Sn4       1.0  0.51179  0.55313  0.25964  1.0000
  O  Te1       1.0  0.59989  0.59128  0.36869  1.0000
  O  Te2       1.0  0.50579  0.43710  0.24133  1.0000
  O  Te3       1.0  0.41937  0.43731  0.13796  1.0000
  O  Te4       1.0  0.51349  0.59151  0.26533  1.0000
  Mg  Mg1       1.0  0.43576  0.39327  0.15330  1.0000
  Mg  Mg2       1.0  0.58349  0.63535  0.35325  1.0000
  C  Sn5       1.0  0.96093  0.00550  0.20015  1.0000
  C   C51       1.0  0.51375  0.04161  0.23865  1.0000
  C  Sn6       1.0  0.55182  0.03742  0.26792  1.0000
  C  Sn7       1.0  0.03694  0.99627  0.25839  1.0000
  C   C52       1.0  0.99226  0.96019  0.21988  1.0000
  C  Sn8       1.0  0.95418  0.96435  0.19063  1.0000
  O  Te5       1.0  0.43151  0.01044  0.17135  1.0000
  O  Te6       1.0  0.59618  0.07399  0.30626  1.0000
  O  Te7       1.0  0.07454  0.99135  0.28723  1.0000
  O  Te8       1.0  0.90984  0.92781  0.15228  1.0000
  Mg  Mg3       1.0  0.63634  0.05078  0.33512  1.0000
  Mg  Mg4       1.0  0.86965  0.95098  0.12329  1.0000
  C  Sn9       1.0  0.96084  0.51196  0.13547  1.0000
  C   C53       1.0  0.95410  0.47316  0.19089  1.0000
  C  Sn10      1.0  0.99385  0.46578  0.28452  1.0000
  C  Sn11      1.0  0.04135  0.49786  0.32368  1.0000
  C   C54       1.0  0.04807  0.53664  0.26831  1.0000
  C  Sn12      1.0  0.00834  0.54404  0.17463  1.0000
  O  Te9       1.0  0.92057  0.51865  0.04204  1.0000
  O  Te10      1.0  0.98620  0.42673  0.33848  1.0000
  O  Te11      1.0  0.08163  0.49114  0.41719  1.0000
  O  Te12      1.0  0.01597  0.58307  0.12071  1.0000
  Mg  Mg5       1.0  0.05262  0.43275  0.46235  1.0000
  Mg  Mg6       1.0  0.10956  0.62517  0.99693  1.0000
  C  Sn13      1.0  0.36378  0.57150  0.28023  1.0000
  C   C55       1.0  0.38741  0.61382  0.36128  1.0000
  C  Sn14      1.0  0.43327  0.64504  0.39165  1.0000
  C  Sn15      1.0  0.45597  0.63373  0.33981  1.0000
  C   C56       1.0  0.43234  0.59144  0.25878  1.0000
  C  Sn16      1.0  0.38648  0.56019  0.22839  1.0000
  O  Te13      1.0  0.31795  0.54081  0.25116  1.0000
  O  Te14      1.0  0.45618  0.68713  0.47295  1.0000
  O  Te15      1.0  0.50184  0.66446  0.36895  1.0000
  O  Te16      1.0  0.36357  0.51812  0.14710  1.0000
  Mg  Mg7       1.0  0.51839  0.71749  0.48409  1.0000
  Mg  Mg8       1.0  0.30136  0.48774  0.13582  1.0000
  C  Sn17      1.0  0.42791  0.78460  0.22981  1.0000
  C   C57       1.0  0.39970  0.76604  0.30114  1.0000
  C  Sn18      1.0  0.37666  0.78497  0.30845  1.0000
  C  Sn19      1.0  0.38190  0.82325  0.24299  1.0000
  C   C58       1.0  0.41009  0.84179  0.17168  1.0000
  C  Sn20      1.0  0.43315  0.82288  0.16435  1.0000
  O  Te17      1.0  0.45061  0.76512  0.22382  1.0000
  O  Te18      1.0  0.34866  0.76582  0.38042  1.0000
  O  Te19      1.0  0.35918  0.84272  0.24903  1.0000
  O  Te20      1.0  0.46113  0.84200  0.09240  1.0000
  Mg  Mg9       1.0  0.32486  0.80447  0.35929  1.0000
  Mg  Mg10      1.0  0.48493  0.80338  0.11338  1.0000
  C  Sn21      1.0  0.17481  0.62127  0.14729  1.0000
  C   C59       1.0  0.15453  0.58250  0.19687  1.0000
  C  Sn22      1.0  0.18470  0.56580  0.31372  1.0000
  C  Sn23      1.0  0.23623  0.58835  0.38256  1.0000
  C   C60       1.0  0.25649  0.62710  0.33302  1.0000
  C  Sn24      1.0  0.22634  0.64382  0.21613  1.0000
  O  Te21      1.0  0.14396  0.63736  0.03030  1.0000
  O  Te22      1.0  0.16356  0.52698  0.36129  1.0000
  O  Te23      1.0  0.26708  0.57222  0.49963  1.0000
  O  Te24      1.0  0.24745  0.68263  0.16859  1.0000
  Mg  Mg11      1.0  0.22091  0.51815  0.52482  1.0000
  Mg  Mg12      1.0  0.19015  0.69149  0.00516  1.0000
  C  Sn25      1.0  0.66097  0.43843  0.38954  1.0000
  C   C61       1.0  0.63875  0.39477  0.33271  1.0000
  C  Sn26      1.0  0.58666  0.36896  0.20385  1.0000
  C  Sn27      1.0  0.55615  0.38716  0.13017  1.0000
  C   C62       1.0  0.57837  0.43080  0.18698  1.0000
  C  Sn28      1.0  0.63046  0.45663  0.31586  1.0000
  O  Te25      1.0  0.71312  0.46363  0.51850  1.0000
  O  Te26      1.0  0.56530  0.32539  0.14920  1.0000
  O  Te27      1.0  0.50396  0.36192  0.00112  1.0000
  O  Te28      1.0  0.65182  0.50017  0.37049  1.0000
  Mg  Mg13      1.0  0.65248  0.35236  0.96989  1.0000
  Mg  Mg14      1.0  0.72460  0.52132  0.54971  1.0000
  C  Sn29      1.0  0.58167  0.19377  0.06036  1.0000
  C   C63       1.0  0.59794  0.16929  0.18512  1.0000
  C  Sn30      1.0  0.63168  0.18636  0.37438  1.0000
  C  Sn31      1.0  0.64951  0.22877  0.44034  1.0000
  C   C64       1.0  0.63323  0.25323  0.31562  1.0000
  C  Sn32      1.0  0.59949  0.23618  0.12632  1.0000
  O  Te29      1.0  0.70789  0.22413  0.87174  1.0000
  O  Te30      1.0  0.64743  0.16127  0.49643  1.0000
  O  Te31      1.0  0.68329  0.24648  0.62912  1.0000
  O  Te32      1.0  0.58374  0.26124  0.00431  1.0000
  Mg  Mg15      1.0  0.69370  0.19966  0.74077  1.0000
  Mg  Mg16      1.0  0.69743  0.27096  0.75996  1.0000
  C  Sn33      1.0  0.79638  0.36641  0.28412  1.0000
  C   C65       1.0  0.77479  0.38517  0.30360  1.0000
  C  Sn34      1.0  0.78315  0.42520  0.26085  1.0000
  C  Sn35      1.0  0.81371  0.44693  0.19718  1.0000
  C   C66       1.0  0.83528  0.42817  0.17769  1.0000
  C  Sn36      1.0  0.82694  0.38814  0.22045  1.0000
  O  Te33      1.0  0.78751  0.32636  0.32766  1.0000
  O  Te34      1.0  0.76117  0.44331  0.28149  1.0000
  O  Te35      1.0  0.82257  0.48701  0.15364  1.0000
  O  Te36      1.0  0.84890  0.37002  0.19980  1.0000
  Mg  Mg17      1.0  0.78435  0.49848  0.20435  1.0000
  Mg  Mg18      1.0  0.82572  0.31485  0.27681  1.0000
  C  Sn37      1.0  0.54105  0.53467  0.79399  1.0000
  C   C67       1.0  0.53743  0.49506  0.80057  1.0000
  C  Sn38      1.0  0.49236  0.45762  0.75049  1.0000
  C  Sn39      1.0  0.45001  0.45980  0.69250  1.0000
  C   C68       1.0  0.45364  0.49938  0.68591  1.0000
  C  Sn40      1.0  0.49870  0.53685  0.73600  1.0000
  O  Te37      1.0  0.58648  0.57169  0.84468  1.0000
  O  Te38      1.0  0.48965  0.41840  0.75825  1.0000
  O  Te39      1.0  0.40456  0.42273  0.64180  1.0000
  O  Te40      1.0  0.50142  0.57605  0.72823  1.0000
  Mg  Mg19      1.0  0.41951  0.37689  0.67534  1.0000
  Mg  Mg20      1.0  0.57153  0.61757  0.81101  1.0000
  C  Sn41      1.0  0.45526  0.96909  0.73780  1.0000
  C   C69       1.0  0.47677  0.95088  0.71430  1.0000
  C  Sn42      1.0  0.51396  0.97547  0.68495  1.0000
  C  Sn43      1.0  0.53001  0.01918  0.67909  1.0000
  C   C70       1.0  0.01665  0.03736  0.70261  1.0000
  C  Sn44      1.0  0.47132  0.01279  0.73194  1.0000
  O  Te41      1.0  0.41814  0.94390  0.76698  1.0000
  O  Te42      1.0  0.53489  0.95656  0.66177  1.0000
  O  Te43      1.0  0.07529  0.04436  0.64988  1.0000
  O  Te44      1.0  0.45040  0.03169  0.75515  1.0000
  Mg  Mg21      1.0  0.58430  0.00408  0.62590  1.0000
  Mg  Mg22      1.0  0.40101  0.98421  0.79111  1.0000
  C  Sn45      1.0  0.00909  0.46776  0.84572  1.0000
  C   C71       1.0  0.96878  0.46912  0.81055  1.0000
  C  Sn46      1.0  0.95831  0.50017  0.72273  1.0000
  C  Sn47      1.0  0.98875  0.53050  0.66884  1.0000
  C   C72       1.0  0.02903  0.52914  0.70398  1.0000
  C  Sn48      1.0  0.03953  0.49809  0.79182  1.0000
  O  Te45      1.0  0.01886  0.43643  0.93368  1.0000
  O  Te46      1.0  0.91781  0.50089  0.68911  1.0000
  O  Te47      1.0  0.97894  0.56185  0.58082  1.0000
  O  Te48      1.0  0.07999  0.49736  0.82542  1.0000
  Mg  Mg23      1.0  0.91958  0.54973  0.56522  1.0000
  Mg  Mg24      1.0  0.07825  0.44853  0.94920  1.0000
  C  Sn49      1.0  0.43264  0.64013  0.81541  1.0000
  C   C73       1.0  0.38423  0.62140  0.77014  1.0000
  C  Sn50      1.0  0.35377  0.57700  0.73487  1.0000
  C  Sn51      1.0  0.37210  0.55077  0.74516  1.0000
  C   C74       1.0  0.42048  0.56951  0.79044  1.0000
  C  Sn52      1.0  0.45096  0.61391  0.82571  1.0000
  O  Te49      1.0  0.46243  0.68459  0.85014  1.0000
  O  Te50      1.0  0.30550  0.55901  0.68981  1.0000
  O  Te51      1.0  0.34226  0.50628  0.71038  1.0000
  O  Te52      1.0  0.49921  0.63190  0.87077  1.0000
  Mg  Mg25      1.0  0.27917  0.49686  0.65448  1.0000
  Mg  Mg26      1.0  0.52558  0.69404  0.90622  1.0000
  C  Sn53      1.0  0.44127  0.80555  0.76955  1.0000
  C   C75       1.0  0.41807  0.82953  0.69856  1.0000
  C  Sn54      1.0  0.37165  0.81421  0.66599  1.0000
  C  Sn55      1.0  0.34794  0.77408  0.70530  1.0000
  C   C76       1.0  0.37115  0.75013  0.77627  1.0000
  C  Sn56      1.0  0.41756  0.76543  0.80886  1.0000
  O  Te53      1.0  0.48768  0.82150  0.80104  1.0000
  O  Te54      1.0  0.34918  0.83875  0.59489  1.0000
  O  Te55      1.0  0.30150  0.75814  0.67374  1.0000
  O  Te56      1.0  0.44004  0.74091  0.87994  1.0000
  Mg  Mg27      1.0  0.28588  0.80337  0.57564  1.0000
  Mg  Mg28      1.0  0.50334  0.77627  0.89934  1.0000
  C  Sn57      1.0  0.21431  0.63733  0.79975  1.0000
  C   C77       1.0  0.24505  0.62229  0.83395  1.0000
  C  Sn58      1.0  0.22650  0.57845  0.80985  1.0000
  C  Sn59      1.0  0.17618  0.54900  0.75020  1.0000
  C   C78       1.0  0.14547  0.56404  0.71600  1.0000
  C  Sn60      1.0  0.16398  0.60788  0.74010  1.0000
  O  Te57      1.0  0.23364  0.68130  0.82475  1.0000
  O  Te58      1.0  0.25795  0.56418  0.84497  1.0000
  O  Te59      1.0  0.15686  0.50500  0.72522  1.0000
  O  Te60      1.0  0.13256  0.62214  0.70498  1.0000
  Mg  Mg29      1.0  0.21433  0.50122  0.79080  1.0000
  Mg  Mg30      1.0  0.17614  0.68509  0.75902  1.0000
  C  Sn61      1.0  0.62765  0.42154  0.67888  1.0000
  C   C79       1.0  0.62906  0.38794  0.76971  1.0000
  C  Sn62      1.0  0.59457  0.36392  0.81214  1.0000
  C  Sn63      1.0  0.55788  0.37368  0.76266  1.0000
  C   C80       1.0  0.55647  0.40726  0.67187  1.0000
  C  Sn64      1.0  0.59095  0.43129  0.62941  1.0000
  O  Te61      1.0  0.66249  0.44512  0.63783  1.0000
  O  Te62      1.0  0.59674  0.33049  0.90306  1.0000
  O  Te63      1.0  0.52302  0.35007  0.80381  1.0000
  O  Te64      1.0  0.58879  0.46470  0.53851  1.0000
  Mg  Mg31      1.0  0.54113  0.30761  0.92895  1.0000
  Mg  Mg32      1.0  0.64436  0.48759  0.51248  1.0000
  C  Sn65      1.0  0.54676  0.17528  0.60227  1.0000
  C   C81       1.0  0.57056  0.15250  0.70092  1.0000
  C  Sn66      1.0  0.62162  0.17406  0.84796  1.0000
  C  Sn67      1.0  0.64949  0.21932  0.89752  1.0000
  C   C82       1.0  0.62570  0.24207  0.79892  1.0000
  C  Sn68      1.0  0.57463  0.22054  0.65183  1.0000
  O  Te65      1.0  0.49568  0.15307  0.45577  1.0000
  O  Te66      1.0  0.64459  0.15059  0.94449  1.0000
  O  Te67      1.0  0.54065  0.19343  0.04415  1.0000
  O  Te68      1.0  0.55167  0.24398  0.55536  1.0000
  Mg  Mg33      1.0  0.55506  0.14727  0.13360  1.0000
  Mg  Mg34      1.0  0.48123  0.19925  0.36629  1.0000
  C  Sn69      1.0  0.80397  0.36579  0.72848  1.0000
  C   C83       1.0  0.82240  0.40534  0.68087  1.0000
  C  Sn70      1.0  0.80945  0.43415  0.68665  1.0000
  C  Sn71      1.0  0.77744  0.42320  0.74127  1.0000
  C   C84       1.0  0.75903  0.38367  0.78887  1.0000
  C  Sn72      1.0  0.77196  0.35484  0.78310  1.0000
  O  Te69      1.0  0.81741  0.33749  0.72171  1.0000
  O  Te70      1.0  0.82833  0.47350  0.63837  1.0000
  O  Te71      1.0  0.76401  0.45154  0.74800  1.0000
  O  Te72      1.0  0.75310  0.31551  0.83138  1.0000
  Mg  Mg35      1.0  0.79929  0.50128  0.66950  1.0000
  Mg  Mg36      1.0  0.78214  0.28772  0.80039  1.0000
