data_image0
_chemical_formula_structural       H104C182N16C2Sn2C2HTe2HMgC2Sn2C2HTe2HMgC2Sn2C2HTe2HMgC2Sn2C2HTe2HMgC2Sn2C2HTe2HMgC2Sn2C2HTe2HMgC2Sn2C2HTe2HMgC2Sn2C2HTe2HMgC2Sn2C2HTe2HMg
_chemical_formula_sum              "H122 C218 N16 Sn18 Te18 Mg9"
_cell_length_a       36.3327
_cell_length_b       36.7241
_cell_length_c       8.05127
_cell_angle_alpha    89.3097
_cell_angle_beta     90.6819
_cell_angle_gamma    120.268

_symmetry_space_group_name_H-M    'P1'
_space_group_IT_number       1

loop_
  _space_group_symop_operation_xyz
  'x, y, z'

loop_
  _atom_site_type_symbol
  _atom_site_label
  _atom_site_symmetry_multiplicity
  _atom_site_fract_x
  _atom_site_fract_y
  _atom_site_fract_z
  _atom_site_occupancy
  H   H1        1.0  0.31893  0.76047  0.39813  1.0000
  H   H2        1.0  0.68434  0.24068  0.38554  1.0000
  H   H3        1.0  0.52225  0.90976  0.06417  1.0000
  H   H4        1.0  0.47960  0.08858  0.06659  1.0000
  H   H5        1.0  0.57969  0.78795  0.99645  1.0000
  H   H6        1.0  0.42147  0.21199  0.01874  1.0000
  H   H7        1.0  0.39722  0.14651  0.18799  1.0000
  H   H8        1.0  0.41369  0.71214  0.33338  1.0000
  H   H9        1.0  0.58726  0.28728  0.32312  1.0000
  H   H10       1.0  0.44607  0.11898  0.24059  1.0000
  H   H11       1.0  0.33572  0.57397  0.24587  1.0000
  H   H12       1.0  0.66522  0.42555  0.25634  1.0000
  H   H13       1.0  0.48675  0.64420  0.43152  1.0000
  H   H14       1.0  0.51375  0.35404  0.42863  1.0000
  H   H15       1.0  0.44379  0.67874  0.47732  1.0000
  H   H16       1.0  0.55660  0.31892  0.47413  1.0000
  H   H17       1.0  0.47146  0.42312  0.17750  1.0000
  H   H18       1.0  0.53023  0.57699  0.23854  1.0000
  H   H19       1.0  0.38914  0.48076  0.11687  1.0000
  H   H20       1.0  0.61145  0.51916  0.11786  1.0000
  H   H21       1.0  0.30064  0.59223  0.40764  1.0000
  H   H22       1.0  0.69917  0.40621  0.42418  1.0000
  H   H23       1.0  0.31925  0.54296  0.00821  1.0000
  H   H24       1.0  0.24043  0.67210  0.28358  1.0000
  H   H25       1.0  0.76088  0.33028  0.27625  1.0000
  H   H26       1.0  0.24119  0.49413  0.45837  1.0000
  H   H27       1.0  0.75762  0.50328  0.47245  1.0000
  H   H28       1.0  0.20562  0.42387  0.10121  1.0000
  H   H29       1.0  0.79517  0.57604  0.11111  1.0000
  H   H30       1.0  0.16255  0.52285  0.47627  1.0000
  H   H31       1.0  0.83740  0.47866  0.47025  1.0000
  H   H32       1.0  0.24870  0.40026  0.26423  1.0000
  H   H33       1.0  0.24102  0.56621  0.51102  1.0000
  H   H34       1.0  0.75976  0.43316  0.51777  1.0000
  H   H35       1.0  0.32612  0.44874  0.30517  1.0000
  H   H36       1.0  0.08898  0.61590  0.17160  1.0000
  H   H37       1.0  0.91113  0.39152  0.13867  1.0000
  H   H38       1.0  0.22254  0.68576  0.04749  1.0000
  H   H39       1.0  0.77612  0.31587  0.04313  1.0000
  H   H40       1.0  0.24740  0.76015  0.97778  1.0000
  H   H41       1.0  0.75082  0.24062  0.99962  1.0000
  H   H42       1.0  0.20899  0.79514  0.08525  1.0000
  H   H43       1.0  0.79244  0.20863  0.11176  1.0000
  H   H44       1.0  0.14581  0.75469  0.26759  1.0000
  H   H45       1.0  0.85985  0.25332  0.26851  1.0000
  H   H46       1.0  0.12127  0.68019  0.33860  1.0000
  H   H47       1.0  0.88458  0.32880  0.31520  1.0000
  H   H48       1.0  0.42890  0.76271  0.19780  1.0000
  H   H49       1.0  0.57037  0.23515  0.20209  1.0000
  H   H50       1.0  0.42304  0.45213  0.17637  1.0000
  H   H51       1.0  0.57879  0.54790  0.23782  1.0000
  H   H52       1.0  0.35252  0.83814  0.34155  1.0000
  H   H53       1.0  0.65200  0.16321  0.33179  1.0000
  H   H54       1.0  0.31570  0.75912  0.91328  1.0000
  H   H55       1.0  0.68108  0.23905  0.87601  1.0000
  H   H56       1.0  0.51679  0.91012  0.56763  1.0000
  H   H57       1.0  0.47563  0.08921  0.55551  1.0000
  H   H58       1.0  0.54305  0.22058  0.95351  1.0000
  H   H59       1.0  0.49459  0.24890  0.90157  1.0000
  H   H60       1.0  0.57758  0.79214  0.49356  1.0000
  H   H61       1.0  0.41988  0.21562  0.53509  1.0000
  H   H62       1.0  0.41177  0.71223  0.83245  1.0000
  H   H63       1.0  0.58582  0.28790  0.81894  1.0000
  H   H64       1.0  0.33412  0.57328  0.75285  1.0000
  H   H65       1.0  0.66643  0.42804  0.75714  1.0000
  H   H66       1.0  0.48741  0.64667  0.91002  1.0000
  H   H67       1.0  0.51503  0.35782  0.92762  1.0000
  H   H68       1.0  0.44401  0.68027  0.96531  1.0000
  H   H69       1.0  0.55611  0.32062  0.96307  1.0000
  H   H70       1.0  0.47436  0.42628  0.72600  1.0000
  H   H71       1.0  0.52962  0.58014  0.68776  1.0000
  H   H72       1.0  0.38858  0.48123  0.61284  1.0000
  H   H73       1.0  0.61655  0.52594  0.64774  1.0000
  H   H74       1.0  0.30030  0.59168  0.92038  1.0000
  H   H75       1.0  0.69994  0.40650  0.90274  1.0000
  H   H76       1.0  0.31853  0.54288  0.50497  1.0000
  H   H77       1.0  0.68002  0.45864  0.52026  1.0000
  H   H78       1.0  0.23860  0.66870  0.79043  1.0000
  H   H79       1.0  0.75915  0.32718  0.76660  1.0000
  H   H80       1.0  0.24147  0.49534  0.97095  1.0000
  H   H81       1.0  0.20527  0.42292  0.58839  1.0000
  H   H82       1.0  0.79797  0.57462  0.59757  1.0000
  H   H83       1.0  0.16224  0.52026  0.99041  1.0000
  H   H84       1.0  0.83831  0.47437  0.97226  1.0000
  H   H85       1.0  0.24760  0.40048  0.76381  1.0000
  H   H86       1.0  0.75977  0.60087  0.77142  1.0000
  H   H87       1.0  0.24029  0.56525  0.03501  1.0000
  H   H88       1.0  0.76008  0.43122  0.00545  1.0000
  H   H89       1.0  0.32477  0.44932  0.80865  1.0000
  H   H90       1.0  0.68276  0.55522  0.82523  1.0000
  H   H91       1.0  0.08841  0.60868  0.64802  1.0000
  H   H92       1.0  0.91028  0.38338  0.65549  1.0000
  H   H93       1.0  0.77664  0.31481  0.53498  1.0000
  H   H94       1.0  0.74738  0.23910  0.48140  1.0000
  H   H95       1.0  0.20816  0.79075  0.59693  1.0000
  H   H96       1.0  0.78365  0.20207  0.59626  1.0000
  H   H97       1.0  0.85052  0.24232  0.76300  1.0000
  H   H98       1.0  0.87839  0.31768  0.82383  1.0000
  H   H99       1.0  0.42595  0.76323  0.70573  1.0000
  H   H100      1.0  0.56831  0.23582  0.69100  1.0000
  H   H101      1.0  0.42407  0.45324  0.71153  1.0000
  H   H102      1.0  0.57986  0.55329  0.69466  1.0000
  H   H103      1.0  0.34807  0.83662  0.85594  1.0000
  H   H104      1.0  0.64733  0.16144  0.82399  1.0000
  C   C1        1.0  0.36100  0.64951  0.37263  1.0000
  C   C2        1.0  0.63950  0.34915  0.37605  1.0000
  C   C3        1.0  0.37951  0.69305  0.35090  1.0000
  C   C4        1.0  0.62131  0.30605  0.34675  1.0000
  C   C5        1.0  0.49080  0.89036  0.11750  1.0000
  C   C6        1.0  0.51140  0.10824  0.11772  1.0000
  C   C7        1.0  0.38664  0.62875  0.35966  1.0000
  C   C8        1.0  0.61386  0.36993  0.36313  1.0000
  C   C9        1.0  0.49820  0.16805  0.10104  1.0000
  C   C10       1.0  0.36865  0.58923  0.28746  1.0000
  C   C11       1.0  0.63212  0.41005  0.29404  1.0000
  C   C12       1.0  0.51140  0.20505  0.00737  1.0000
  C   C13       1.0  0.39210  0.56868  0.26189  1.0000
  C   C14       1.0  0.60867  0.43070  0.26614  1.0000
  C   C15       1.0  0.43620  0.58977  0.31084  1.0000
  C   C16       1.0  0.56445  0.40923  0.31136  1.0000
  C   C17       1.0  0.44273  0.19968  0.04216  1.0000
  C   C18       1.0  0.45385  0.62972  0.38900  1.0000
  C   C19       1.0  0.54666  0.36877  0.38794  1.0000
  C   C20       1.0  0.42903  0.16275  0.13506  1.0000
  C   C21       1.0  0.42992  0.64870  0.41304  1.0000
  C   C22       1.0  0.57051  0.34953  0.41256  1.0000
  C   C23       1.0  0.45649  0.14709  0.16421  1.0000
  C   C24       1.0  0.44507  0.53495  0.22253  1.0000
  C   C25       1.0  0.55598  0.46466  0.22278  1.0000
  C   C26       1.0  0.47334  0.51701  0.20781  1.0000
  C   C27       1.0  0.52824  0.48318  0.20758  1.0000
  C   C28       1.0  0.45718  0.47350  0.18762  1.0000
  C   C29       1.0  0.54468  0.52688  0.22098  1.0000
  C   C30       1.0  0.48405  0.45683  0.18876  1.0000
  C   C31       1.0  0.51771  0.54344  0.22219  1.0000
  C   C32       1.0  0.29289  0.64664  0.38733  1.0000
  C   C33       1.0  0.70798  0.35293  0.39017  1.0000
  C   C34       1.0  0.37434  0.52720  0.19424  1.0000
  C   C35       1.0  0.62657  0.47248  0.19851  1.0000
  C   C36       1.0  0.31674  0.62625  0.39284  1.0000
  C   C37       1.0  0.68358  0.37254  0.40217  1.0000
  C   C38       1.0  0.24581  0.62186  0.39071  1.0000
  C   C39       1.0  0.75505  0.37879  0.39053  1.0000
  C   C40       1.0  0.22280  0.63940  0.32396  1.0000
  C   C41       1.0  0.77827  0.36274  0.31780  1.0000
  C   C42       1.0  0.40153  0.51154  0.17322  1.0000
  C   C43       1.0  0.59943  0.48830  0.17543  1.0000
  C   C44       1.0  0.17803  0.61565  0.30519  1.0000
  C   C45       1.0  0.82264  0.38781  0.29265  1.0000
  C   C46       1.0  0.15615  0.57202  0.35535  1.0000
  C   C47       1.0  0.84390  0.43113  0.34331  1.0000
  C   C48       1.0  0.32814  0.49948  0.16094  1.0000
  C   C49       1.0  0.18002  0.55527  0.43155  1.0000
  C   C50       1.0  0.82003  0.44636  0.42609  1.0000
  C   C51       1.0  0.30355  0.51216  0.06796  1.0000
  C   C52       1.0  0.22354  0.57952  0.44994  1.0000
  C   C53       1.0  0.77696  0.42092  0.45039  1.0000
  C   C54       1.0  0.25981  0.48511  0.04574  1.0000
  C   C55       1.0  0.23979  0.44475  0.11652  1.0000
  C   C56       1.0  0.09062  0.56163  0.27125  1.0000
  C   C57       1.0  0.90941  0.44448  0.24873  1.0000
  C   C58       1.0  0.26395  0.43139  0.20672  1.0000
  C   C59       1.0  0.30764  0.45849  0.22890  1.0000
  C   C60       1.0  0.15259  0.63239  0.24040  1.0000
  C   C61       1.0  0.84846  0.37290  0.22053  1.0000
  C   C62       1.0  0.10915  0.60473  0.22508  1.0000
  C   C63       1.0  0.89129  0.40186  0.19791  1.0000
  C   C64       1.0  0.16974  0.67740  0.19680  1.0000
  C   C65       1.0  0.83219  0.32787  0.18325  1.0000
  C   C66       1.0  0.20595  0.70083  0.09784  1.0000
  C   C67       1.0  0.79420  0.30225  0.09556  1.0000
  C   C68       1.0  0.35369  0.71145  0.34275  1.0000
  C   C69       1.0  0.64747  0.28809  0.33878  1.0000
  C   C70       1.0  0.21990  0.74290  0.05794  1.0000
  C   C71       1.0  0.78011  0.25969  0.06963  1.0000
  C   C72       1.0  0.19823  0.76246  0.11751  1.0000
  C   C73       1.0  0.80359  0.24184  0.13148  1.0000
  C   C74       1.0  0.37248  0.75686  0.30484  1.0000
  C   C75       1.0  0.62903  0.24283  0.29994  1.0000
  C   C76       1.0  0.16235  0.73960  0.21682  1.0000
  C   C77       1.0  0.84160  0.26698  0.21776  1.0000
  C   C78       1.0  0.41230  0.77911  0.23159  1.0000
  C   C79       1.0  0.58840  0.21971  0.23197  1.0000
  C   C80       1.0  0.14830  0.69755  0.25635  1.0000
  C   C81       1.0  0.85574  0.30954  0.24320  1.0000
  C   C82       1.0  0.43242  0.82282  0.19981  1.0000
  C   C83       1.0  0.56928  0.17619  0.19906  1.0000
  C   C84       1.0  0.41013  0.84450  0.24165  1.0000
  C   C85       1.0  0.59284  0.15527  0.23686  1.0000
  C   C86       1.0  0.36866  0.82095  0.31118  1.0000
  C   C87       1.0  0.63479  0.17965  0.30312  1.0000
  C   C88       1.0  0.35034  0.77843  0.34272  1.0000
  C   C89       1.0  0.65244  0.22207  0.33348  1.0000
  C   C90       1.0  0.46657  0.90927  0.16313  1.0000
  C   C91       1.0  0.53662  0.08998  0.16149  1.0000
  C   C92       1.0  0.47477  0.84743  0.13597  1.0000
  C   C93       1.0  0.52668  0.15089  0.13661  1.0000
  C   C94       1.0  0.35999  0.64935  0.87809  1.0000
  C   C95       1.0  0.63915  0.35002  0.86325  1.0000
  C   C96       1.0  0.37785  0.69283  0.85579  1.0000
  C   C97       1.0  0.62011  0.30664  0.83665  1.0000
  C   C98       1.0  0.48573  0.89057  0.62359  1.0000
  C   C99       1.0  0.50743  0.10863  0.60714  1.0000
  C   C100      1.0  0.38578  0.62892  0.85941  1.0000
  C   C101      1.0  0.61427  0.37179  0.85683  1.0000
  C   C102      1.0  0.36745  0.58909  0.78953  1.0000
  C   C103      1.0  0.63333  0.41267  0.79444  1.0000
  C   C104      1.0  0.39113  0.56894  0.75965  1.0000
  C   C105      1.0  0.61091  0.43457  0.77338  1.0000
  C   C106      1.0  0.48399  0.22071  0.97786  1.0000
  C   C107      1.0  0.43570  0.59088  0.80151  1.0000
  C   C108      1.0  0.56673  0.41352  0.81811  1.0000
  C   C109      1.0  0.45385  0.63130  0.87576  1.0000
  C   C110      1.0  0.54803  0.37232  0.88843  1.0000
  C   C111      1.0  0.42967  0.64975  0.90468  1.0000
  C   C112      1.0  0.57091  0.35189  0.90656  1.0000
  C   C113      1.0  0.44460  0.53612  0.71389  1.0000
  C   C114      1.0  0.55920  0.47006  0.73602  1.0000
  C   C115      1.0  0.47350  0.51892  0.69980  1.0000
  C   C116      1.0  0.53050  0.48745  0.71337  1.0000
  C   C117      1.0  0.45819  0.47530  0.70609  1.0000
  C   C118      1.0  0.54576  0.53100  0.69817  1.0000
  C   C119      1.0  0.48613  0.45989  0.71422  1.0000
  C   C120      1.0  0.51782  0.54645  0.69339  1.0000
  C   C121      1.0  0.29171  0.64554  0.90275  1.0000
  C   C122      1.0  0.70708  0.35212  0.87261  1.0000
  C   C123      1.0  0.37334  0.52738  0.69274  1.0000
  C   C124      1.0  0.62967  0.47714  0.71338  1.0000
  C   C125      1.0  0.31603  0.62568  0.90513  1.0000
  C   C126      1.0  0.68353  0.37267  0.88362  1.0000
  C   C127      1.0  0.24470  0.61978  0.90534  1.0000
  C   C128      1.0  0.75425  0.37666  0.87685  1.0000
  C   C129      1.0  0.22135  0.63614  0.83221  1.0000
  C   C130      1.0  0.77706  0.35953  0.80888  1.0000
  C   C131      1.0  0.40075  0.51201  0.66909  1.0000
  C   C132      1.0  0.60327  0.49403  0.69623  1.0000
  C   C133      1.0  0.17695  0.61132  0.80626  1.0000
  C   C134      1.0  0.82184  0.38314  0.79127  1.0000
  C   C135      1.0  0.15565  0.56785  0.85772  1.0000
  C   C136      1.0  0.84406  0.42630  0.84463  1.0000
  C   C137      1.0  0.32709  0.49959  0.66008  1.0000
  C   C138      1.0  0.67580  0.50355  0.67704  1.0000
  C   C139      1.0  0.17960  0.55243  0.94301  1.0000
  C   C140      1.0  0.82054  0.44251  0.92360  1.0000
  C   C141      1.0  0.30272  0.51199  0.56401  1.0000
  C   C142      1.0  0.69771  0.48931  0.57896  1.0000
  C   C143      1.0  0.22288  0.57758  0.96635  1.0000
  C   C144      1.0  0.77703  0.41842  0.94008  1.0000
  C   C145      1.0  0.25924  0.48448  0.53782  1.0000
  C   C146      1.0  0.74136  0.51467  0.55074  1.0000
  C   C147      1.0  0.23917  0.44417  0.60893  1.0000
  C   C148      1.0  0.76394  0.55497  0.61941  1.0000
  C   C149      1.0  0.09043  0.55564  0.76034  1.0000
  C   C150      1.0  0.90953  0.43732  0.75957  1.0000
  C   C151      1.0  0.26296  0.43146  0.70518  1.0000
  C   C152      1.0  0.74252  0.56980  0.71524  1.0000
  C   C153      1.0  0.30650  0.45884  0.73003  1.0000
  C   C154      1.0  0.69892  0.54429  0.74430  1.0000
  C   C155      1.0  0.15143  0.62694  0.73250  1.0000
  C   C156      1.0  0.84722  0.36682  0.72595  1.0000
  C   C157      1.0  0.10846  0.59840  0.70960  1.0000
  C   C158      1.0  0.89062  0.39453  0.71048  1.0000
  C   C159      1.0  0.82950  0.32178  0.68433  1.0000
  C   C160      1.0  0.79236  0.29887  0.58834  1.0000
  C   C161      1.0  0.35160  0.71082  0.85398  1.0000
  C   C162      1.0  0.64557  0.28789  0.82596  1.0000
  C   C163      1.0  0.77609  0.25615  0.55676  1.0000
  C   C164      1.0  0.79670  0.23547  0.62000  1.0000
  C   C165      1.0  0.36947  0.75624  0.81697  1.0000
  C   C166      1.0  0.62639  0.24242  0.78941  1.0000
  C   C167      1.0  0.83419  0.25803  0.71250  1.0000
  C   C168      1.0  0.40907  0.77912  0.74250  1.0000
  C   C169      1.0  0.58578  0.21985  0.72114  1.0000
  C   C170      1.0  0.85030  0.30069  0.74520  1.0000
  C   C171      1.0  0.42844  0.82278  0.71035  1.0000
  C   C172      1.0  0.56597  0.17627  0.68859  1.0000
  C   C173      1.0  0.40581  0.84403  0.75310  1.0000
  C   C174      1.0  0.58875  0.15470  0.72822  1.0000
  C   C175      1.0  0.36462  0.81988  0.82462  1.0000
  C   C176      1.0  0.63074  0.17846  0.79467  1.0000
  C   C177      1.0  0.34688  0.77734  0.85602  1.0000
  C   C178      1.0  0.64913  0.22098  0.82392  1.0000
  C   C179      1.0  0.46116  0.90901  0.66929  1.0000
  C   C180      1.0  0.53192  0.08974  0.65339  1.0000
  C   C181      1.0  0.47042  0.84787  0.64381  1.0000
  C   C182      1.0  0.52339  0.15147  0.62549  1.0000
  N   N1        1.0  0.46184  0.57310  0.29042  1.0000
  N   N2        1.0  0.53881  0.42604  0.28896  1.0000
  N   N3        1.0  0.11345  0.54560  0.33596  1.0000
  N   N4        1.0  0.88608  0.45856  0.32050  1.0000
  N   N5        1.0  0.31118  0.68868  0.36358  1.0000
  N   N6        1.0  0.69006  0.31123  0.36060  1.0000
  N   N7        1.0  0.42705  0.88678  0.22225  1.0000
  N   N8        1.0  0.57657  0.11308  0.21769  1.0000
  N   N9        1.0  0.46156  0.57463  0.77821  1.0000
  N   N10       1.0  0.54168  0.43097  0.79787  1.0000
  N   N11       1.0  0.11334  0.54064  0.83291  1.0000
  N   N12       1.0  0.88668  0.45256  0.82692  1.0000
  N   N13       1.0  0.30927  0.68751  0.87887  1.0000
  N   N14       1.0  0.68826  0.31028  0.84455  1.0000
  N   N15       1.0  0.42198  0.88621  0.73140  1.0000
  N   N16       1.0  0.57183  0.11244  0.71028  1.0000
  C   C183      1.0  0.00341  0.53744  0.75477  1.0000
  C   C184      1.0  0.03780  0.53044  0.75081  1.0000
  C  Sn1       1.0  0.03074  0.48959  0.73375  1.0000
  C  Sn2       1.0  0.98844  0.45516  0.72039  1.0000
  C   C185      1.0  0.95425  0.46249  0.72436  1.0000
  C   C186      1.0  0.96167  0.50350  0.74153  1.0000
  H   H105      1.0  0.00916  0.56917  0.76796  1.0000
  O  Te1       1.0  0.06547  0.48316  0.73008  1.0000
  O  Te2       1.0  0.98047  0.41401  0.70316  1.0000
  H   H106      1.0  0.93504  0.50891  0.74449  1.0000
  Mg  Mg1       1.0  0.03831  0.42129  0.70468  1.0000
  C   C187      1.0  0.56812  0.84787  0.63782  1.0000
  C   C188      1.0  0.56012  0.81141  0.55440  1.0000
  C  Sn3       1.0  0.51981  0.78450  0.48690  1.0000
  C  Sn4       1.0  0.48696  0.79435  0.50337  1.0000
  C   C189      1.0  0.49530  0.83092  0.58695  1.0000
  C   C190      1.0  0.53574  0.85762  0.65407  1.0000
  H   H107      1.0  0.59942  0.86854  0.68968  1.0000
  O  Te3       1.0  0.51236  0.74819  0.40399  1.0000
  O  Te4       1.0  0.44639  0.76802  0.43703  1.0000
  H   H108      1.0  0.54193  0.88586  0.71856  1.0000
  Mg  Mg2       1.0  0.45183  0.72218  0.33497  1.0000
  C   C191      1.0  0.50636  0.21466  0.48195  1.0000
  C   C192      1.0  0.50044  0.18014  0.57767  1.0000
  C  Sn5       1.0  0.46186  0.15483  0.65904  1.0000
  C  Sn6       1.0  0.42864  0.16433  0.64403  1.0000
  C   C193      1.0  0.43486  0.19891  0.54788  1.0000
  C   C194      1.0  0.47360  0.22404  0.46703  1.0000
  H   H109      1.0  0.53632  0.23409  0.41932  1.0000
  O  Te5       1.0  0.45649  0.12047  0.75422  1.0000
  O  Te6       1.0  0.38975  0.13954  0.72398  1.0000
  H   H110      1.0  0.47816  0.25075  0.39284  1.0000
  Mg  Mg3       1.0  0.39774  0.09610  0.83956  1.0000
  C   C195      1.0  0.53868  0.99446  0.14801  1.0000
  C   C196      1.0  0.49638  0.96171  0.15804  1.0000
  C  Sn7       1.0  0.46319  0.97053  0.15634  1.0000
  C  Sn8       1.0  0.96316  0.01296  0.14431  1.0000
  C   C197      1.0  0.00559  0.04550  0.13421  1.0000
  C   C198      1.0  0.03855  0.03632  0.13607  1.0000
  H   H111      1.0  0.56419  0.98736  0.14935  1.0000
  O  Te7       1.0  0.42110  0.93742  0.16653  1.0000
  O  Te8       1.0  0.93061  0.02266  0.14228  1.0000
  H   H112      1.0  0.07131  0.06168  0.12819  1.0000
  Mg  Mg4       1.0  0.38779  0.96663  0.15913  1.0000
  C   C199      1.0  0.14424  0.70053  0.75427  1.0000
  C   C200      1.0  0.16038  0.67539  0.69936  1.0000
  C  Sn9       1.0  0.19765  0.69307  0.60556  1.0000
  C  Sn10      1.0  0.21911  0.73674  0.56625  1.0000
  C   C201      1.0  0.20272  0.76163  0.62187  1.0000
  C   C202      1.0  0.16539  0.74361  0.71560  1.0000
  H   H113      1.0  0.11537  0.68660  0.82687  1.0000
  O  Te9       1.0  0.21332  0.66750  0.55164  1.0000
  O  Te10      1.0  0.25643  0.75523  0.47275  1.0000
  H   H114      1.0  0.15293  0.76309  0.75819  1.0000
  Mg  Mg5       1.0  0.26526  0.70730  0.42763  1.0000
  C   C203      1.0  0.45024  0.98114  0.65131  1.0000
  C   C204      1.0  0.47176  0.95860  0.64552  1.0000
  C  Sn11      1.0  0.51627  0.97988  0.64707  1.0000
  C  Sn12      1.0  0.03011  0.02455  0.65461  1.0000
  C   C205      1.0  0.00829  0.04681  0.66048  1.0000
  C   C206      1.0  0.96374  0.02521  0.65881  1.0000
  H   H115      1.0  0.41578  0.96443  0.65010  1.0000
  O  Te11      1.0  0.53726  0.95687  0.64116  1.0000
  O  Te12      1.0  0.07462  0.04661  0.65639  1.0000
  H   H116      1.0  0.94709  0.04267  0.66340  1.0000
  Mg  Mg6       1.0  0.08876  0.00120  0.64636  1.0000
  C   C207      1.0  0.70288  0.55155  0.24255  1.0000
  C   C208      1.0  0.67669  0.51127  0.17779  1.0000
  C  Sn13      1.0  0.69425  0.49169  0.08645  1.0000
  C  Sn14      1.0  0.73888  0.51289  0.05970  1.0000
  C   C209      1.0  0.76481  0.55317  0.12511  1.0000
  C   C210      1.0  0.74690  0.57248  0.21627  1.0000
  H   H117      1.0  0.68902  0.56648  0.31316  1.0000
  O  Te13      1.0  0.66763  0.45145  0.02258  1.0000
  O  Te14      1.0  0.75901  0.49227  0.96893  1.0000
  H   H118      1.0  0.76718  0.60365  0.26649  1.0000
  Mg  Mg7       1.0  0.70947  0.43709  0.90704  1.0000
  C   C211      1.0  0.99640  0.46407  0.19620  1.0000
  C   C212      1.0  0.96229  0.47026  0.22956  1.0000
  C  Sn15      1.0  0.96971  0.51041  0.26815  1.0000
  C  Sn16      1.0  0.01210  0.54495  0.27328  1.0000
  C   C213      1.0  0.04601  0.53844  0.23959  1.0000
  C   C214      1.0  0.03822  0.49812  0.20117  1.0000
  H   H119      1.0  0.99038  0.43288  0.16638  1.0000
  O  Te15      1.0  0.93527  0.51603  0.30121  1.0000
  O  Te16      1.0  0.02043  0.58542  0.31144  1.0000
  H   H120      1.0  0.06464  0.49335  0.17524  1.0000
  Mg  Mg8       1.0  0.96287  0.57716  0.34721  1.0000
  C   C215      1.0  0.57090  0.84425  0.13877  1.0000
  C   C216      1.0  0.56248  0.80769  0.05510  1.0000
  C  Sn17      1.0  0.52417  0.77998  0.98351  1.0000
  C  Sn18      1.0  0.49204  0.79095  0.99608  1.0000
  C   C217      1.0  0.49906  0.82939  0.07993  1.0000
  C   C218      1.0  0.53923  0.85510  0.15116  1.0000
  H   H121      1.0  0.60199  0.86416  0.19380  1.0000
  O  Te17      1.0  0.51629  0.74356  0.90042  1.0000
  O  Te18      1.0  0.45175  0.76561  0.92561  1.0000
  H   H122      1.0  0.54575  0.88342  0.21584  1.0000
  Mg  Mg9       1.0  0.45639  0.71916  0.82501  1.0000
