data_image0
_chemical_formula_structural       H108C186N12SnCSn2CSnTe4Mg2SnCSn2CSnTe4Mg2SnCSn2CSnTe4Mg2SnCSn2CSnTe4Mg2SnCSn2CSnTe4Mg2SnCSn2CSnTe4Mg2SnCSn2CSnTe4Mg2SnCSn2CSnTe4Mg2SnCSn2CSnTe4Mg2
_chemical_formula_sum              "H108 C204 N12 Sn36 Te36 Mg18"
_cell_length_a       36.6727
_cell_length_b       36.5832
_cell_length_c       8.0567
_cell_angle_alpha    89.7715
_cell_angle_beta     88.819
_cell_angle_gamma    120.386

_symmetry_space_group_name_H-M    'P1'
_space_group_IT_number       1

loop_
  _space_group_symop_operation_xyz
  'x, y, z'

loop_
  _atom_site_type_symbol
  _atom_site_label
  _atom_site_symmetry_multiplicity
  _atom_site_fract_x
  _atom_site_fract_y
  _atom_site_fract_z
  _atom_site_occupancy
  H   H1        1.0  0.48389  0.64060  0.42811  1.0000
  H   H2        1.0  0.35853  0.83974  0.42643  1.0000
  H   H3        1.0  0.15911  0.51561  0.42415  1.0000
  H   H4        1.0  0.51909  0.35941  0.45390  1.0000
  H   H5        1.0  0.63944  0.15742  0.41871  1.0000
  H   H6        1.0  0.84121  0.48225  0.42361  1.0000
  H   H7        1.0  0.44053  0.67410  0.48268  1.0000
  H   H8        1.0  0.32554  0.76273  0.48826  1.0000
  H   H9        1.0  0.23619  0.55798  0.47381  1.0000
  H   H10       1.0  0.56224  0.32555  0.49981  1.0000
  H   H11       1.0  0.67254  0.23425  0.47978  1.0000
  H   H12       1.0  0.76386  0.43743  0.47874  1.0000
  H   H13       1.0  0.95271  0.52921  0.24109  1.0000
  H   H14       1.0  0.05215  0.47640  0.14835  1.0000
  H   H15       1.0  0.38936  0.47717  0.11388  1.0000
  H   H16       1.0  0.52234  0.91038  0.08927  1.0000
  H   H17       1.0  0.09371  0.61471  0.12530  1.0000
  H   H18       1.0  0.61435  0.52288  0.11551  1.0000
  H   H19       1.0  0.47768  0.09057  0.10263  1.0000
  H   H20       1.0  0.91245  0.39104  0.09418  1.0000
  H   H21       1.0  0.46036  0.77781  0.49830  1.0000
  H   H22       1.0  0.53879  0.22452  0.50409  1.0000
  H   H23       1.0  0.50747  0.74844  0.45227  1.0000
  H   H24       1.0  0.49064  0.25308  0.47592  1.0000
  H   H25       1.0  0.41331  0.70872  0.38228  1.0000
  H   H26       1.0  0.29260  0.70103  0.38538  1.0000
  H   H27       1.0  0.29936  0.58737  0.37560  1.0000
  H   H28       1.0  0.58858  0.29067  0.38210  1.0000
  H   H29       1.0  0.70852  0.29660  0.36202  1.0000
  H   H30       1.0  0.70354  0.41127  0.37239  1.0000
  H   H31       1.0  0.20768  0.41986  0.08987  1.0000
  H   H32       1.0  0.57759  0.78258  0.07016  1.0000
  H   H33       1.0  0.22368  0.79542  0.04853  1.0000
  H   H34       1.0  0.79626  0.57967  0.07071  1.0000
  H   H35       1.0  0.41903  0.21304  0.09001  1.0000
  H   H36       1.0  0.78926  0.20834  0.06275  1.0000
  H   H37       1.0  0.33568  0.57062  0.24340  1.0000
  H   H38       1.0  0.43107  0.76263  0.24719  1.0000
  H   H39       1.0  0.24061  0.66688  0.24789  1.0000
  H   H40       1.0  0.66766  0.42937  0.24118  1.0000
  H   H41       1.0  0.57038  0.23761  0.24295  1.0000
  H   H42       1.0  0.76360  0.33476  0.22084  1.0000
  H   H43       1.0  0.24811  0.39576  0.25817  1.0000
  H   H44       1.0  0.60376  0.85044  0.22038  1.0000
  H   H45       1.0  0.15767  0.75712  0.22313  1.0000
  H   H46       1.0  0.39524  0.14627  0.25285  1.0000
  H   H47       1.0  0.85390  0.25045  0.22823  1.0000
  H   H48       1.0  0.32443  0.44414  0.30325  1.0000
  H   H49       1.0  0.55684  0.88012  0.26642  1.0000
  H   H50       1.0  0.12733  0.68096  0.29167  1.0000
  H   H51       1.0  0.44417  0.11920  0.29444  1.0000
  H   H52       1.0  0.88083  0.32656  0.27600  1.0000
  H   H53       1.0  0.97504  0.42715  0.13208  1.0000
  H   H54       1.0  0.03021  0.57878  0.25231  1.0000
  H   H55       1.0  0.48141  0.64313  0.93184  1.0000
  H   H56       1.0  0.36141  0.84430  0.92293  1.0000
  H   H57       1.0  0.15866  0.51630  0.93258  1.0000
  H   H58       1.0  0.51637  0.36090  0.95456  1.0000
  H   H59       1.0  0.63934  0.15951  0.91381  1.0000
  H   H60       1.0  0.84028  0.48194  0.91426  1.0000
  H   H61       1.0  0.43733  0.67573  0.98620  1.0000
  H   H62       1.0  0.32643  0.76691  0.98557  1.0000
  H   H63       1.0  0.23526  0.56177  0.98310  1.0000
  H   H64       1.0  0.55933  0.32698  0.00437  1.0000
  H   H65       1.0  0.67145  0.23599  0.97526  1.0000
  H   H66       1.0  0.76273  0.43999  0.97174  1.0000
  H   H67       1.0  0.57794  0.05232  0.70654  1.0000
  H   H68       1.0  0.42594  0.95033  0.62217  1.0000
  H   H69       1.0  0.38923  0.48025  0.61330  1.0000
  H   H70       1.0  0.52443  0.91073  0.58490  1.0000
  H   H71       1.0  0.08776  0.60769  0.61197  1.0000
  H   H72       1.0  0.61242  0.52434  0.61776  1.0000
  H   H73       1.0  0.47795  0.09112  0.59244  1.0000
  H   H74       1.0  0.90600  0.38316  0.60687  1.0000
  H   H75       1.0  0.32121  0.54053  0.00880  1.0000
  H   H76       1.0  0.45861  0.77662  0.00238  1.0000
  H   H77       1.0  0.22707  0.67992  0.00723  1.0000
  H   H78       1.0  0.54052  0.22396  0.00779  1.0000
  H   H79       1.0  0.78009  0.31991  0.99029  1.0000
  H   H80       1.0  0.24478  0.49264  0.96559  1.0000
  H   H81       1.0  0.50490  0.74617  0.95836  1.0000
  H   H82       1.0  0.25825  0.75635  0.94030  1.0000
  H   H83       1.0  0.49201  0.25152  0.96652  1.0000
  H   H84       1.0  0.75262  0.24382  0.94411  1.0000
  H   H85       1.0  0.41074  0.71042  0.88549  1.0000
  H   H86       1.0  0.29083  0.70408  0.86783  1.0000
  H   H87       1.0  0.29633  0.58958  0.87251  1.0000
  H   H88       1.0  0.58547  0.29178  0.87446  1.0000
  H   H89       1.0  0.70517  0.29730  0.87325  1.0000
  H   H90       1.0  0.70053  0.41213  0.88230  1.0000
  H   H91       1.0  0.20725  0.41684  0.60443  1.0000
  H   H92       1.0  0.57920  0.78391  0.57222  1.0000
  H   H93       1.0  0.20524  0.79075  0.58773  1.0000
  H   H94       1.0  0.79371  0.58276  0.57321  1.0000
  H   H95       1.0  0.41808  0.21415  0.60339  1.0000
  H   H96       1.0  0.77461  0.20437  0.52769  1.0000
  H   H97       1.0  0.33341  0.57208  0.74352  1.0000
  H   H98       1.0  0.42953  0.76321  0.73861  1.0000
  H   H99       1.0  0.23590  0.66578  0.73000  1.0000
  H   H100      1.0  0.66480  0.42983  0.74222  1.0000
  H   H101      1.0  0.56794  0.23769  0.74176  1.0000
  H   H102      1.0  0.75825  0.33215  0.74085  1.0000
  H   H103      1.0  0.60395  0.85043  0.73119  1.0000
  H   H104      1.0  0.39464  0.14679  0.76106  1.0000
  H   H105      1.0  0.55661  0.87954  0.77609  1.0000
  H   H106      1.0  0.44371  0.11961  0.79492  1.0000
  H   H107      1.0  0.45212  0.02717  0.61795  1.0000
  H   H108      1.0  0.55189  0.97514  0.70176  1.0000
  C   C1        1.0  0.35935  0.64564  0.38095  1.0000
  C   C2        1.0  0.35532  0.71042  0.38550  1.0000
  C   C3        1.0  0.29037  0.64108  0.38120  1.0000
  C   C4        1.0  0.64301  0.35344  0.37918  1.0000
  C   C5        1.0  0.64605  0.28815  0.37433  1.0000
  C   C6        1.0  0.71154  0.35704  0.36880  1.0000
  C   C7        1.0  0.37898  0.68992  0.38525  1.0000
  C   C8        1.0  0.31114  0.68546  0.38681  1.0000
  C   C9        1.0  0.31496  0.62170  0.38125  1.0000
  C   C10       1.0  0.62292  0.30913  0.38115  1.0000
  C   C11       1.0  0.69035  0.31256  0.37002  1.0000
  C   C12       1.0  0.68737  0.37687  0.37560  1.0000
  C   C13       1.0  0.38484  0.62489  0.36204  1.0000
  C   C14       1.0  0.37596  0.75696  0.36683  1.0000
  C   C15       1.0  0.24407  0.61585  0.36223  1.0000
  C   C16       1.0  0.61801  0.37474  0.36753  1.0000
  C   C17       1.0  0.62439  0.24168  0.35741  1.0000
  C   C18       1.0  0.75802  0.38283  0.34892  1.0000
  C   C19       1.0  0.40124  0.50809  0.16918  1.0000
  C   C20       1.0  0.49161  0.89082  0.15034  1.0000
  C   C21       1.0  0.11246  0.60254  0.17955  1.0000
  C   C22       1.0  0.60226  0.49194  0.17440  1.0000
  C   C23       1.0  0.50857  0.10931  0.15684  1.0000
  C   C24       1.0  0.89299  0.40247  0.15057  1.0000
  C   C25       1.0  0.36782  0.58574  0.28649  1.0000
  C   C26       1.0  0.41535  0.77952  0.28769  1.0000
  C   C27       1.0  0.22285  0.63404  0.28966  1.0000
  C   C28       1.0  0.63537  0.41417  0.28957  1.0000
  C   C29       1.0  0.58536  0.22009  0.28273  1.0000
  C   C30       1.0  0.78054  0.36672  0.26794  1.0000
  C   C31       1.0  0.39118  0.56519  0.25920  1.0000
  C   C32       1.0  0.43520  0.82346  0.25306  1.0000
  C   C33       1.0  0.17889  0.61104  0.26313  1.0000
  C   C34       1.0  0.61203  0.43478  0.26609  1.0000
  C   C35       1.0  0.56502  0.17619  0.25208  1.0000
  C   C36       1.0  0.82486  0.39081  0.24190  1.0000
  C   C37       1.0  0.32835  0.49586  0.15942  1.0000
  C   C38       1.0  0.50407  0.83006  0.14003  1.0000
  C   C39       1.0  0.17488  0.67491  0.15282  1.0000
  C   C40       1.0  0.49593  0.16971  0.15434  1.0000
  C   C41       1.0  0.83243  0.32891  0.13704  1.0000
  C   C42       1.0  0.43463  0.58649  0.30612  1.0000
  C   C43       1.0  0.41320  0.84524  0.29904  1.0000
  C   C44       1.0  0.15565  0.56691  0.30986  1.0000
  C   C45       1.0  0.56847  0.41353  0.32071  1.0000
  C   C46       1.0  0.58620  0.15367  0.29583  1.0000
  C   C47       1.0  0.84687  0.43406  0.29443  1.0000
  C   C48       1.0  0.30503  0.50918  0.06663  1.0000
  C   C49       1.0  0.49006  0.79219  0.05333  1.0000
  C   C50       1.0  0.21231  0.69706  0.05618  1.0000
  C   C51       1.0  0.50900  0.20747  0.06438  1.0000
  C   C52       1.0  0.79575  0.30461  0.04609  1.0000
  C   C53       1.0  0.45150  0.62608  0.38681  1.0000
  C   C54       1.0  0.37357  0.82213  0.38546  1.0000
  C   C55       1.0  0.17761  0.54873  0.38558  1.0000
  C   C56       1.0  0.55148  0.37388  0.40593  1.0000
  C   C57       1.0  0.62527  0.17575  0.37855  1.0000
  C   C58       1.0  0.82357  0.44997  0.37926  1.0000
  C   C59       1.0  0.26201  0.48202  0.04127  1.0000
  C   C60       1.0  0.51632  0.77529  0.02771  1.0000
  C   C61       1.0  0.22962  0.74004  0.01791  1.0000
  C   C62       1.0  0.48152  0.22283  0.04071  1.0000
  C   C63       1.0  0.78040  0.26162  0.01921  1.0000
  C   C64       1.0  0.42734  0.64456  0.41525  1.0000
  C   C65       1.0  0.35551  0.77942  0.41898  1.0000
  C   C66       1.0  0.22035  0.57240  0.41174  1.0000
  C   C67       1.0  0.57553  0.35523  0.42967  1.0000
  C   C68       1.0  0.64358  0.21831  0.41011  1.0000
  C   C69       1.0  0.78068  0.42505  0.40775  1.0000
  C   C70       1.0  0.24123  0.44102  0.10950  1.0000
  C   C71       1.0  0.55730  0.79603  0.08839  1.0000
  C   C72       1.0  0.21001  0.76186  0.07728  1.0000
  C   C73       1.0  0.44040  0.20097  0.10810  1.0000
  C   C74       1.0  0.80118  0.24181  0.08412  1.0000
  C   C75       1.0  0.26399  0.42732  0.20186  1.0000
  C   C76       1.0  0.57204  0.83421  0.17145  1.0000
  C   C77       1.0  0.17277  0.74029  0.17350  1.0000
  C   C78       1.0  0.42698  0.16342  0.19812  1.0000
  C   C79       1.0  0.83769  0.26551  0.17481  1.0000
  C   C80       1.0  0.44430  0.53214  0.21430  1.0000
  C   C81       1.0  0.46705  0.90946  0.19623  1.0000
  C   C82       1.0  0.09242  0.55885  0.22376  1.0000
  C   C83       1.0  0.55895  0.46774  0.22530  1.0000
  C   C84       1.0  0.53257  0.09000  0.19772  1.0000
  C   C85       1.0  0.91192  0.44534  0.20143  1.0000
  C   C86       1.0  0.30706  0.45442  0.22675  1.0000
  C   C87       1.0  0.54575  0.85111  0.19674  1.0000
  C   C88       1.0  0.15540  0.69726  0.21115  1.0000
  C   C89       1.0  0.45440  0.14793  0.22087  1.0000
  C   C90       1.0  0.85312  0.30853  0.20112  1.0000
  C   C91       1.0  0.04652  0.53070  0.20313  1.0000
  C   C92       1.0  0.95817  0.47468  0.18871  1.0000
  C   C93       1.0  0.01814  0.54560  0.22413  1.0000
  C   C94       1.0  0.98675  0.46031  0.15901  1.0000
  C   C95       1.0  0.97476  0.51807  0.21854  1.0000
  C   C96       1.0  0.03013  0.48771  0.16785  1.0000
  C   C97       1.0  0.37399  0.52358  0.19197  1.0000
  C   C98       1.0  0.47656  0.84805  0.17745  1.0000
  C   C99       1.0  0.15555  0.62925  0.19618  1.0000
  C   C100      1.0  0.62937  0.47639  0.19425  1.0000
  C   C101      1.0  0.52380  0.15196  0.18375  1.0000
  C   C102      1.0  0.84995  0.37454  0.17173  1.0000
  C   C103      1.0  0.35665  0.64739  0.87996  1.0000
  C   C104      1.0  0.35319  0.71254  0.87881  1.0000
  C   C105      1.0  0.28790  0.64350  0.87303  1.0000
  C   C106      1.0  0.63996  0.35432  0.88347  1.0000
  C   C107      1.0  0.64290  0.28897  0.87746  1.0000
  C   C108      1.0  0.70841  0.35779  0.87813  1.0000
  C   C109      1.0  0.37644  0.69167  0.88443  1.0000
  C   C110      1.0  0.30890  0.68802  0.87512  1.0000
  C   C111      1.0  0.31232  0.62393  0.87730  1.0000
  C   C112      1.0  0.61973  0.30998  0.88097  1.0000
  C   C113      1.0  0.68709  0.31336  0.87902  1.0000
  C   C114      1.0  0.68434  0.37773  0.88404  1.0000
  C   C115      1.0  0.38207  0.62649  0.86338  1.0000
  C   C116      1.0  0.37523  0.75924  0.86045  1.0000
  C   C117      1.0  0.24152  0.61722  0.85486  1.0000
  C   C118      1.0  0.61511  0.37579  0.87073  1.0000
  C   C119      1.0  0.62219  0.24263  0.85714  1.0000
  C   C120      1.0  0.75488  0.38283  0.85649  1.0000
  C   C121      1.0  0.40063  0.51108  0.66875  1.0000
  C   C122      1.0  0.49344  0.89184  0.64510  1.0000
  C   C123      1.0  0.10717  0.59638  0.66679  1.0000
  C   C124      1.0  0.60020  0.49335  0.67618  1.0000
  C   C125      1.0  0.50850  0.11004  0.64902  1.0000
  C   C126      1.0  0.88737  0.39563  0.66281  1.0000
  C   C127      1.0  0.36555  0.58746  0.78704  1.0000
  C   C128      1.0  0.41480  0.78087  0.78153  1.0000
  C   C129      1.0  0.21908  0.63331  0.77656  1.0000
  C   C130      1.0  0.63260  0.41505  0.79137  1.0000
  C   C131      1.0  0.58344  0.22065  0.78111  1.0000
  C   C132      1.0  0.77619  0.36477  0.78037  1.0000
  C   C133      1.0  0.38944  0.56741  0.75951  1.0000
  C   C134      1.0  0.43594  0.82499  0.74858  1.0000
  C   C135      1.0  0.17496  0.60860  0.75302  1.0000
  C   C136      1.0  0.60958  0.43599  0.76784  1.0000
  C   C137      1.0  0.56392  0.17691  0.74836  1.0000
  C   C138      1.0  0.82036  0.38741  0.75024  1.0000
  C   C139      1.0  0.50491  0.83057  0.64157  1.0000
  C   C140      1.0  0.49479  0.17002  0.65144  1.0000
  C   C141      1.0  0.43289  0.58905  0.80714  1.0000
  C   C142      1.0  0.41493  0.84774  0.79416  1.0000
  C   C143      1.0  0.15306  0.56478  0.80462  1.0000
  C   C144      1.0  0.56599  0.41494  0.82214  1.0000
  C   C145      1.0  0.58558  0.15486  0.79179  1.0000
  C   C146      1.0  0.84366  0.43102  0.79762  1.0000
  C   C147      1.0  0.49147  0.79320  0.55220  1.0000
  C   C148      1.0  0.50755  0.20800  0.56328  1.0000
  C   C149      1.0  0.44909  0.62836  0.88955  1.0000
  C   C150      1.0  0.37538  0.82570  0.88163  1.0000
  C   C151      1.0  0.17624  0.54894  0.88729  1.0000
  C   C152      1.0  0.54880  0.37531  0.90755  1.0000
  C   C153      1.0  0.62456  0.17737  0.87487  1.0000
  C   C154      1.0  0.82159  0.44920  0.87591  1.0000
  C   C155      1.0  0.51811  0.77674  0.52611  1.0000
  C   C156      1.0  0.48019  0.22378  0.54603  1.0000
  C   C157      1.0  0.42447  0.64632  0.91810  1.0000
  C   C158      1.0  0.35621  0.78288  0.91483  1.0000
  C   C159      1.0  0.21881  0.57439  0.91353  1.0000
  C   C160      1.0  0.57266  0.35650  0.93290  1.0000
  C   C161      1.0  0.64218  0.21980  0.90749  1.0000
  C   C162      1.0  0.77861  0.42582  0.90583  1.0000
  C   C163      1.0  0.55867  0.79708  0.59073  1.0000
  C   C164      1.0  0.43935  0.20179  0.61635  1.0000
  C   C165      1.0  0.57261  0.83443  0.67885  1.0000
  C   C166      1.0  0.42611  0.16388  0.70347  1.0000
  C   C167      1.0  0.44351  0.53533  0.71480  1.0000
  C   C168      1.0  0.46947  0.91128  0.68831  1.0000
  C   C169      1.0  0.08850  0.55306  0.71557  1.0000
  C   C170      1.0  0.55692  0.46943  0.72690  1.0000
  C   C171      1.0  0.53299  0.09119  0.68959  1.0000
  C   C172      1.0  0.90765  0.43878  0.71017  1.0000
  C   C173      1.0  0.54608  0.85107  0.70355  1.0000
  C   C174      1.0  0.45358  0.14827  0.72139  1.0000
  C   C175      1.0  0.48675  0.95727  0.66392  1.0000
  C   C176      1.0  0.51719  0.04551  0.66535  1.0000
  C   C177      1.0  0.53003  0.98652  0.68150  1.0000
  C   C178      1.0  0.47441  0.01626  0.63577  1.0000
  C   C179      1.0  0.54489  0.02980  0.68419  1.0000
  C   C180      1.0  0.45934  0.97290  0.63733  1.0000
  C   C181      1.0  0.37289  0.52595  0.69143  1.0000
  C   C182      1.0  0.47761  0.84902  0.67485  1.0000
  C   C183      1.0  0.14978  0.62476  0.68688  1.0000
  C   C184      1.0  0.62721  0.47770  0.69673  1.0000
  C   C185      1.0  0.52297  0.15246  0.67823  1.0000
  C   C186      1.0  0.84394  0.36935  0.68075  1.0000
  N   N1        1.0  0.46044  0.57031  0.28195  1.0000
  N   N2        1.0  0.42869  0.88724  0.26799  1.0000
  N   N3        1.0  0.11344  0.54135  0.28714  1.0000
  N   N4        1.0  0.54265  0.42965  0.29831  1.0000
  N   N5        1.0  0.57034  0.11185  0.26676  1.0000
  N   N6        1.0  0.88921  0.46048  0.27276  1.0000
  N   N7        1.0  0.45923  0.57342  0.78288  1.0000
  N   N8        1.0  0.43126  0.88978  0.76175  1.0000
  N   N9        1.0  0.11093  0.53776  0.78464  1.0000
  N   N10       1.0  0.54034  0.43128  0.79969  1.0000
  N   N11       1.0  0.57047  0.11324  0.76066  1.0000
  N   N12       1.0  0.88615  0.45598  0.77533  1.0000
  C  Sn1       1.0  0.71027  0.48992  0.08532  1.0000
  C   C187      1.0  0.68223  0.49814  0.17488  1.0000
  C  Sn2       1.0  0.69382  0.53963  0.21596  1.0000
  C  Sn3       1.0  0.73427  0.57362  0.16641  1.0000
  C   C188      1.0  0.76229  0.56538  0.07688  1.0000
  C  Sn4       1.0  0.75073  0.52390  0.03577  1.0000
  O  Te1       1.0  0.69802  0.44819  0.04561  1.0000
  O  Te2       1.0  0.66525  0.54707  0.30562  1.0000
  O  Te3       1.0  0.74651  0.61537  0.20621  1.0000
  O  Te4       1.0  0.77259  0.51219  0.94614  1.0000
  Mg  Mg1       1.0  0.69654  0.60940  0.32994  1.0000
  Mg  Mg2       1.0  0.74132  0.44989  0.92168  1.0000
  C  Sn5       1.0  0.27197  0.43490  0.75902  1.0000
  C   C189      1.0  0.24297  0.44061  0.66927  1.0000
  C  Sn6       1.0  0.25703  0.47440  0.55616  1.0000
  C  Sn7       1.0  0.30099  0.50307  0.53217  1.0000
  C   C190      1.0  0.32997  0.49735  0.62187  1.0000
  C  Sn8       1.0  0.31594  0.46357  0.73503  1.0000
  O  Te5       1.0  0.25721  0.40090  0.87144  1.0000
  O  Te6       1.0  0.22743  0.47947  0.46791  1.0000
  O  Te7       1.0  0.31574  0.53709  0.41964  1.0000
  O  Te8       1.0  0.34551  0.45849  0.82323  1.0000
  Mg  Mg3       1.0  0.26311  0.53066  0.32876  1.0000
  Mg  Mg4       1.0  0.30987  0.40730  0.96234  1.0000
  C  Sn9       1.0  0.77835  0.27282  0.46521  1.0000
  C   C191      1.0  0.79163  0.24475  0.51342  1.0000
  C  Sn10      1.0  0.82026  0.25515  0.64123  1.0000
  C  Sn11      1.0  0.83593  0.29441  0.72263  1.0000
  C   C192      1.0  0.82265  0.32245  0.67444  1.0000
  C  Sn12      1.0  0.79402  0.31208  0.54662  1.0000
  O  Te9       1.0  0.74970  0.26176  0.33714  1.0000
  O  Te10      1.0  0.83309  0.22658  0.68720  1.0000
  O  Te11      1.0  0.86460  0.30545  0.85080  1.0000
  O  Te12      1.0  0.78119  0.34062  0.50067  1.0000
  Mg  Mg5       1.0  0.87259  0.25599  0.86878  1.0000
  Mg  Mg6       1.0  0.74167  0.31124  0.31917  1.0000
  C  Sn13      1.0  0.52992  0.99315  0.25640  1.0000
  C   C193      1.0  0.48943  0.96047  0.21841  1.0000
  C  Sn14      1.0  0.46123  0.96945  0.13943  1.0000
  C  Sn15      1.0  0.96917  0.01197  0.09743  1.0000
  C   C194      1.0  0.00964  0.04461  0.13538  1.0000
  C  Sn16      1.0  0.03786  0.03567  0.21440  1.0000
  O  Te13      1.0  0.55759  0.98344  0.33538  1.0000
  O  Te14      1.0  0.42092  0.93624  0.10276  1.0000
  O  Te15      1.0  0.94146  0.02165  0.01839  1.0000
  O  Te16      1.0  0.07815  0.06884  0.25103  1.0000
  Mg  Mg7       1.0  0.38787  0.96124  0.99424  1.0000
  Mg  Mg8       1.0  0.10455  0.03962  0.35946  1.0000
  C  Sn17      1.0  0.47853  0.45672  0.14884  1.0000
  C   C195      1.0  0.52256  0.48030  0.15777  1.0000
  C  Sn18      1.0  0.54284  0.52298  0.20087  1.0000
  C  Sn19      1.0  0.51860  0.54248  0.23587  1.0000
  C   C196      1.0  0.47459  0.51890  0.22696  1.0000
  C  Sn20      1.0  0.45429  0.47622  0.18384  1.0000
  O  Te17      1.0  0.45893  0.41410  0.10551  1.0000
  O  Te18      1.0  0.58690  0.54591  0.20893  1.0000
  O  Te19      1.0  0.53824  0.58513  0.27921  1.0000
  O  Te20      1.0  0.41026  0.45329  0.17580  1.0000
  Mg  Mg9       1.0  0.59903  0.60308  0.27359  1.0000
  Mg  Mg10      1.0  0.39809  0.39612  0.11124  1.0000
  C  Sn21      1.0  0.52468  0.54537  0.64407  1.0000
  C   C197      1.0  0.48050  0.52210  0.65078  1.0000
  C  Sn22      1.0  0.45913  0.47950  0.70067  1.0000
  C  Sn23      1.0  0.48240  0.45974  0.74488  1.0000
  C   C198      1.0  0.52655  0.48301  0.73819  1.0000
  C  Sn24      1.0  0.54795  0.52561  0.68828  1.0000
  O  Te21      1.0  0.54539  0.58793  0.59384  1.0000
  O  Te22      1.0  0.41495  0.45688  0.70635  1.0000
  O  Te23      1.0  0.46165  0.41715  0.79513  1.0000
  O  Te24      1.0  0.59210  0.54823  0.68262  1.0000
  Mg  Mg11      1.0  0.40114  0.39968  0.78285  1.0000
  Mg  Mg12      1.0  0.60594  0.60543  0.60623  1.0000
  C  Sn25      1.0  0.69938  0.55929  0.67558  1.0000
  C   C199      1.0  0.67483  0.51698  0.62955  1.0000
  C  Sn26      1.0  0.69410  0.49450  0.57438  1.0000
  C  Sn27      1.0  0.73885  0.51473  0.56512  1.0000
  C   C200      1.0  0.76337  0.55701  0.61116  1.0000
  C  Sn28      1.0  0.74412  0.57952  0.66632  1.0000
  O  Te25      1.0  0.67944  0.58115  0.73038  1.0000
  O  Te26      1.0  0.66890  0.45222  0.52898  1.0000
  O  Te27      1.0  0.75878  0.49283  0.51026  1.0000
  O  Te28      1.0  0.76930  0.62177  0.71173  1.0000
  Mg  Mg13      1.0  0.71084  0.43579  0.46228  1.0000
  Mg  Mg14      1.0  0.72740  0.63823  0.77852  1.0000
  C  Sn29      1.0  0.15935  0.72506  0.75281  1.0000
  C   C201      1.0  0.19389  0.75490  0.65637  1.0000
  C  Sn30      1.0  0.21376  0.74181  0.54114  1.0000
  C  Sn31      1.0  0.19879  0.69798  0.52180  1.0000
  C   C202      1.0  0.16428  0.66817  0.61817  1.0000
  C  Sn32      1.0  0.14439  0.68123  0.73347  1.0000
  O  Te29      1.0  0.13997  0.73887  0.86724  1.0000
  O  Te30      1.0  0.24824  0.77222  0.44618  1.0000
  O  Te31      1.0  0.21821  0.68419  0.40725  1.0000
  O  Te32      1.0  0.10992  0.65084  0.82837  1.0000
  Mg  Mg15      1.0  0.26406  0.73771  0.30671  1.0000
  Mg  Mg16      1.0  0.09406  0.68532  0.96781  1.0000
  C  Sn33      1.0  0.00402  0.53507  0.74197  1.0000
  C   C203      1.0  0.03649  0.52562  0.73946  1.0000
  C  Sn34      1.0  0.02823  0.48519  0.69702  1.0000
  C  Sn35      1.0  0.98665  0.45355  0.65613  1.0000
  C   C204      1.0  0.95421  0.46300  0.65863  1.0000
  C  Sn36      1.0  0.96245  0.50343  0.70108  1.0000
  O  Te33      1.0  0.01301  0.57570  0.78476  1.0000
  O  Te34      1.0  0.06121  0.47650  0.69543  1.0000
  O  Te35      1.0  0.97769  0.41289  0.61333  1.0000
  O  Te36      1.0  0.92950  0.51213  0.70265  1.0000
  Mg  Mg17      1.0  0.03318  0.41643  0.62888  1.0000
  Mg  Mg18      1.0  0.95749  0.57219  0.76910  1.0000
