data_image0
_chemical_formula_structural       H96C120N36O12SnCSn2CSnTe4Mg2SnCSn2CSnTe4Mg2SnCSn2CSnTe4Mg2SnCSn2CSnTe4Mg2SnCSn2CSnTe4Mg2SnCSn2CSnTe4Mg2
_chemical_formula_sum              "H96 C132 N36 O12 Sn24 Te24 Mg12"
_cell_length_a       37.2942
_cell_length_b       36.7645
_cell_length_c       8.13676
_cell_angle_alpha    99.8347
_cell_angle_beta     66.3799
_cell_angle_gamma    120.415

_symmetry_space_group_name_H-M    'P1'
_space_group_IT_number       1

loop_
  _space_group_symop_operation_xyz
  'x, y, z'

loop_
  _atom_site_type_symbol
  _atom_site_label
  _atom_site_symmetry_multiplicity
  _atom_site_fract_x
  _atom_site_fract_y
  _atom_site_fract_z
  _atom_site_occupancy
  H   H1        1.0  0.44422  0.76360  0.31050  1.0000
  H   H2        1.0  0.68156  0.44270  0.34772  1.0000
  H   H3        1.0  0.76306  0.33161  0.39222  1.0000
  H   H4        1.0  0.47888  0.84152  0.32519  1.0000
  H   H5        1.0  0.64479  0.47981  0.31686  1.0000
  H   H6        1.0  0.84132  0.37051  0.37591  1.0000
  H   H7        1.0  0.36893  0.83596  0.24170  1.0000
  H   H8        1.0  0.54909  0.36320  0.17177  1.0000
  H   H9        1.0  0.85682  0.48238  0.18642  1.0000
  H   H10       1.0  0.33432  0.75785  0.23325  1.0000
  H   H11       1.0  0.58634  0.32649  0.20724  1.0000
  H   H12       1.0  0.77752  0.44250  0.20782  1.0000
  H   H13       1.0  0.49656  0.42926  0.29011  1.0000
  H   H14       1.0  0.57349  0.06357  0.31131  1.0000
  H   H15       1.0  0.94426  0.50895  0.40114  1.0000
  H   H16       1.0  0.52520  0.57479  0.25441  1.0000
  H   H17       1.0  0.43993  0.95018  0.19786  1.0000
  H   H18       1.0  0.07909  0.49186  0.14650  1.0000
  H   H19       1.0  0.57944  0.60883  0.41899  1.0000
  H   H20       1.0  0.38579  0.98083  0.40059  1.0000
  H   H21       1.0  0.02078  0.40364  0.27760  1.0000
  H   H22       1.0  0.43508  0.38231  0.23507  1.0000
  H   H23       1.0  0.62635  0.03878  0.22299  1.0000
  H   H24       1.0  0.98412  0.58664  0.33913  1.0000
  H   H25       1.0  0.63699  0.62099  0.31810  1.0000
  H   H26       1.0  0.38871  0.02601  0.32719  1.0000
  H   H27       1.0  0.99789  0.36833  0.12023  1.0000
  H   H28       1.0  0.37976  0.37441  0.36843  1.0000
  H   H29       1.0  0.61675  0.99828  0.35740  1.0000
  H   H30       1.0  0.99934  0.61890  0.51750  1.0000
  H   H31       1.0  0.55252  0.60717  0.96273  1.0000
  H   H32       1.0  0.36241  0.95714  0.93459  1.0000
  H   H33       1.0  0.01059  0.40999  0.78842  1.0000
  H   H34       1.0  0.39320  0.40128  0.00860  1.0000
  H   H35       1.0  0.57891  0.02141  0.93538  1.0000
  H   H36       1.0  0.93203  0.56174  0.09998  1.0000
  H   H37       1.0  0.48123  0.56242  0.08361  1.0000
  H   H38       1.0  0.42538  0.89713  0.26223  1.0000
  H   H39       1.0  0.13804  0.55467  0.07380  1.0000
  H   H40       1.0  0.56013  0.42978  0.11887  1.0000
  H   H41       1.0  0.57603  0.11752  0.03825  1.0000
  H   H42       1.0  0.91805  0.47679  0.16187  1.0000
  H   H43       1.0  0.41961  0.51923  0.43648  1.0000
  H   H44       1.0  0.50294  0.91562  0.34247  1.0000
  H   H45       1.0  0.09316  0.57527  0.43933  1.0000
  H   H46       1.0  0.59091  0.49698  0.36606  1.0000
  H   H47       1.0  0.52353  0.10216  0.42673  1.0000
  H   H48       1.0  0.90773  0.41417  0.38307  1.0000
  H   H49       1.0  0.41570  0.75402  0.83895  1.0000
  H   H50       1.0  0.21827  0.66045  0.89157  1.0000
  H   H51       1.0  0.73800  0.32671  0.89999  1.0000
  H   H52       1.0  0.45519  0.83193  0.81929  1.0000
  H   H53       1.0  0.14339  0.62398  0.87678  1.0000
  H   H54       1.0  0.81446  0.36668  0.90190  1.0000
  H   H55       1.0  0.35288  0.82800  0.68133  1.0000
  H   H56       1.0  0.16902  0.52451  0.58704  1.0000
  H   H57       1.0  0.83452  0.47513  0.66362  1.0000
  H   H58       1.0  0.31362  0.74949  0.70357  1.0000
  H   H59       1.0  0.24462  0.56195  0.60470  1.0000
  H   H60       1.0  0.75580  0.43521  0.67927  1.0000
  H   H61       1.0  0.47777  0.42483  0.77153  1.0000
  H   H62       1.0  0.55718  0.05294  0.80400  1.0000
  H   H63       1.0  0.92181  0.50725  0.90566  1.0000
  H   H64       1.0  0.50469  0.57137  0.79422  1.0000
  H   H65       1.0  0.41440  0.93683  0.77353  1.0000
  H   H66       1.0  0.05021  0.48108  0.69792  1.0000
  H   H67       1.0  0.58059  0.61654  0.72400  1.0000
  H   H68       1.0  0.38055  0.96329  0.69573  1.0000
  H   H69       1.0  0.03994  0.42094  0.54892  1.0000
  H   H70       1.0  0.40813  0.37532  0.80274  1.0000
  H   H71       1.0  0.61166  0.03025  0.69871  1.0000
  H   H72       1.0  0.95589  0.58131  0.87264  1.0000
  H   H73       1.0  0.61067  0.62187  0.86033  1.0000
  H   H74       1.0  0.35703  0.99440  0.84264  1.0000
  H   H75       1.0  0.99129  0.37064  0.63526  1.0000
  H   H76       1.0  0.35632  0.37643  0.88696  1.0000
  H   H77       1.0  0.60362  0.98860  0.81999  1.0000
  H   H78       1.0  0.97663  0.61498  0.03631  1.0000
  H   H79       1.0  0.59734  0.57699  0.47527  1.0000
  H   H80       1.0  0.41516  0.03233  0.47947  1.0000
  H   H81       1.0  0.96302  0.38301  0.31275  1.0000
  H   H82       1.0  0.42030  0.39311  0.47096  1.0000
  H   H83       1.0  0.59270  0.03214  0.45886  1.0000
  H   H84       1.0  0.95278  0.56637  0.56823  1.0000
  H   H85       1.0  0.46851  0.56541  0.60384  1.0000
  H   H86       1.0  0.42741  0.88812  0.61058  1.0000
  H   H87       1.0  0.10824  0.53686  0.59973  1.0000
  H   H88       1.0  0.54238  0.42995  0.60398  1.0000
  H   H89       1.0  0.56702  0.10312  0.63950  1.0000
  H   H90       1.0  0.89477  0.46904  0.66019  1.0000
  H   H91       1.0  0.40249  0.51499  0.94007  1.0000
  H   H92       1.0  0.46661  0.89772  0.87906  1.0000
  H   H93       1.0  0.07040  0.56637  0.95597  1.0000
  H   H94       1.0  0.56301  0.48374  0.90443  1.0000
  H   H95       1.0  0.48861  0.08684  0.97256  1.0000
  H   H96       1.0  0.87973  0.41357  0.93007  1.0000
  C   C1        1.0  0.30224  0.64678  0.28120  1.0000
  C   C2        1.0  0.36518  0.64704  0.25906  1.0000
  C   C3        1.0  0.36472  0.70915  0.27103  1.0000
  C   C4        1.0  0.71968  0.36065  0.29897  1.0000
  C   C5        1.0  0.65851  0.35986  0.29501  1.0000
  C   C6        1.0  0.65930  0.29817  0.29149  1.0000
  C   C7        1.0  0.60227  0.59542  0.36765  1.0000
  C   C8        1.0  0.40670  0.01483  0.36485  1.0000
  C   C9        1.0  0.99694  0.39382  0.21098  1.0000
  C   C10       1.0  0.41530  0.39392  0.34768  1.0000
  C   C11       1.0  0.60221  0.01576  0.33652  1.0000
  C   C12       1.0  0.98618  0.58668  0.47016  1.0000
  C   C13       1.0  0.38673  0.75559  0.27359  1.0000
  C   C14       1.0  0.76530  0.38440  0.30001  1.0000
  C   C15       1.0  0.63631  0.38213  0.28060  1.0000
  C   C16       1.0  0.42796  0.77975  0.29576  1.0000
  C   C17       1.0  0.65230  0.42538  0.31066  1.0000
  C   C18       1.0  0.78384  0.36467  0.34740  1.0000
  C   C19       1.0  0.44747  0.82362  0.30335  1.0000
  C   C20       1.0  0.63128  0.44623  0.29369  1.0000
  C   C21       1.0  0.82804  0.38663  0.33717  1.0000
  C   C22       1.0  0.42574  0.84400  0.28738  1.0000
  C   C23       1.0  0.59369  0.42389  0.24482  1.0000
  C   C24       1.0  0.85491  0.42916  0.27596  1.0000
  C   C25       1.0  0.38512  0.82007  0.26000  1.0000
  C   C26       1.0  0.57781  0.38047  0.21264  1.0000
  C   C27       1.0  0.83615  0.44931  0.23184  1.0000
  C   C28       1.0  0.36573  0.77650  0.25448  1.0000
  C   C29       1.0  0.59860  0.35996  0.23150  1.0000
  C   C30       1.0  0.79198  0.42732  0.24443  1.0000
  C   C31       1.0  0.43919  0.51871  0.29344  1.0000
  C   C32       1.0  0.48952  0.91823  0.24895  1.0000
  C   C33       1.0  0.09681  0.57018  0.29719  1.0000
  C   C34       1.0  0.58351  0.48661  0.24246  1.0000
  C   C35       1.0  0.52514  0.09422  0.28795  1.0000
  C   C36       1.0  0.92560  0.43377  0.25804  1.0000
  C   C37       1.0  0.47582  0.50928  0.28085  1.0000
  C   C38       1.0  0.49764  0.96336  0.25319  1.0000
  C   C39       1.0  0.05276  0.53345  0.28853  1.0000
  C   C40       1.0  0.54580  0.49480  0.25792  1.0000
  C   C41       1.0  0.51392  0.04795  0.27092  1.0000
  C   C42       1.0  0.97112  0.46795  0.26121  1.0000
  C   C43       1.0  0.40544  0.48626  0.22129  1.0000
  C   C44       1.0  0.51555  0.90858  0.07332  1.0000
  C   C45       1.0  0.10496  0.61003  0.23227  1.0000
  C   C46       1.0  0.62575  0.51220  0.09436  1.0000
  C   C47       1.0  0.49303  0.10405  0.27055  1.0000
  C   C48       1.0  0.92567  0.40286  0.11595  1.0000
  C   C49       1.0  0.46823  0.46782  0.29088  1.0000
  C   C50       1.0  0.53587  0.99642  0.28383  1.0000
  C   C51       1.0  0.01363  0.53725  0.36478  1.0000
  C   C52       1.0  0.55320  0.53597  0.25036  1.0000
  C   C53       1.0  0.47627  0.01524  0.23930  1.0000
  C   C54       1.0  0.00964  0.46351  0.19084  1.0000
  C   C55       1.0  0.50290  0.46116  0.27999  1.0000
  C   C56       1.0  0.54358  0.03794  0.29234  1.0000
  C   C57       1.0  0.97388  0.50522  0.34775  1.0000
  C   C58       1.0  0.51838  0.54258  0.26320  1.0000
  C   C59       1.0  0.46897  0.97371  0.22932  1.0000
  C   C60       1.0  0.04981  0.49622  0.20436  1.0000
  C   C61       1.0  0.28148  0.63700  0.75844  1.0000
  C   C62       1.0  0.34356  0.63944  0.75954  1.0000
  C   C63       1.0  0.34080  0.70034  0.77036  1.0000
  C   C64       1.0  0.69663  0.35363  0.78552  1.0000
  C   C65       1.0  0.63531  0.35142  0.77609  1.0000
  C   C66       1.0  0.63545  0.29038  0.79307  1.0000
  C   C67       1.0  0.57842  0.60409  0.84325  1.0000
  C   C68       1.0  0.37772  0.97981  0.82270  1.0000
  C   C69       1.0  0.00706  0.40455  0.65738  1.0000
  C   C70       1.0  0.39143  0.39409  0.87442  1.0000
  C   C71       1.0  0.58811  0.00615  0.80883  1.0000
  C   C72       1.0  0.96310  0.58248  0.99225  1.0000
  C   C73       1.0  0.23632  0.61351  0.75105  1.0000
  C   C74       1.0  0.36243  0.74666  0.77085  1.0000
  C   C75       1.0  0.74197  0.37814  0.78885  1.0000
  C   C76       1.0  0.40206  0.77050  0.80524  1.0000
  C   C77       1.0  0.20719  0.63045  0.82642  1.0000
  C   C78       1.0  0.75920  0.35943  0.85061  1.0000
  C   C79       1.0  0.42416  0.81451  0.79445  1.0000
  C   C80       1.0  0.16462  0.60950  0.81890  1.0000
  C   C81       1.0  0.80254  0.38205  0.85023  1.0000
  C   C82       1.0  0.40702  0.83547  0.74556  1.0000
  C   C83       1.0  0.15035  0.57108  0.73324  1.0000
  C   C84       1.0  0.83044  0.42373  0.77876  1.0000
  C   C85       1.0  0.36643  0.81165  0.71669  1.0000
  C   C86       1.0  0.17964  0.55405  0.65586  1.0000
  C   C87       1.0  0.81303  0.44280  0.71865  1.0000
  C   C88       1.0  0.34448  0.76798  0.72910  1.0000
  C   C89       1.0  0.22188  0.57489  0.66570  1.0000
  C   C90       1.0  0.76926  0.42063  0.72623  1.0000
  C   C91       1.0  0.42228  0.51627  0.79503  1.0000
  C   C92       1.0  0.46966  0.90745  0.75077  1.0000
  C   C93       1.0  0.07346  0.56102  0.81418  1.0000
  C   C94       1.0  0.56086  0.48015  0.77045  1.0000
  C   C95       1.0  0.50290  0.08286  0.82673  1.0000
  C   C96       1.0  0.89861  0.42875  0.79382  1.0000
  C   C97       1.0  0.45849  0.50630  0.78005  1.0000
  C   C98       1.0  0.47889  0.95321  0.76321  1.0000
  C   C99       1.0  0.02805  0.52646  0.80957  1.0000
  C   C100      1.0  0.52457  0.48967  0.78137  1.0000
  C   C101      1.0  0.49389  0.03727  0.79987  1.0000
  C   C102      1.0  0.94523  0.46295  0.78657  1.0000
  C   C103      1.0  0.38928  0.48491  0.71663  1.0000
  C   C104      1.0  0.50732  0.90289  0.61046  1.0000
  C   C105      1.0  0.08607  0.60160  0.73805  1.0000
  C   C106      1.0  0.60517  0.51106  0.64639  1.0000
  C   C107      1.0  0.48071  0.09452  0.74672  1.0000
  C   C108      1.0  0.89743  0.39414  0.66955  1.0000
  C   C109      1.0  0.45064  0.46470  0.77772  1.0000
  C   C110      1.0  0.51922  0.98623  0.77535  1.0000
  C   C111      1.0  0.99100  0.53348  0.87299  1.0000
  C   C112      1.0  0.53133  0.53126  0.79723  1.0000
  C   C113      1.0  0.45285  0.00396  0.79550  1.0000
  C   C114      1.0  0.98202  0.45580  0.72642  1.0000
  C   C115      1.0  0.48398  0.45708  0.77498  1.0000
  C   C116      1.0  0.52635  0.02763  0.79163  1.0000
  C   C117      1.0  0.95051  0.50212  0.85875  1.0000
  C   C118      1.0  0.49914  0.53926  0.78948  1.0000
  C   C119      1.0  0.44619  0.96267  0.77465  1.0000
  C   C120      1.0  0.02257  0.48753  0.73970  1.0000
  N   N1        1.0  0.32207  0.62401  0.27379  1.0000
  N   N2        1.0  0.38853  0.68965  0.25216  1.0000
  N   N3        1.0  0.32155  0.68908  0.28666  1.0000
  N   N4        1.0  0.70012  0.38290  0.29762  1.0000
  N   N5        1.0  0.63597  0.31722  0.29891  1.0000
  N   N6        1.0  0.70117  0.31811  0.29110  1.0000
  N   N7        1.0  0.45956  0.56036  0.21212  1.0000
  N   N8        1.0  0.44140  0.88795  0.30798  1.0000
  N   N9        1.0  0.13303  0.56042  0.20651  1.0000
  N   N10       1.0  0.56937  0.44158  0.22745  1.0000
  N   N11       1.0  0.57105  0.12191  0.17144  1.0000
  N   N12       1.0  0.89984  0.45344  0.25989  1.0000
  N   N13       1.0  0.37726  0.46482  0.16479  1.0000
  N   N14       1.0  0.53549  0.89866  0.93952  1.0000
  N   N15       1.0  0.11204  0.64135  0.17822  1.0000
  N   N16       1.0  0.65957  0.52959  0.97447  1.0000
  N   N17       1.0  0.47161  0.11670  0.25318  1.0000
  N   N18       1.0  0.91814  0.37509  0.01842  1.0000
  N   N19       1.0  0.30226  0.61532  0.75290  1.0000
  N   N20       1.0  0.36436  0.68178  0.76697  1.0000
  N   N21       1.0  0.29903  0.67920  0.76871  1.0000
  N   N22       1.0  0.67728  0.37516  0.77406  1.0000
  N   N23       1.0  0.61232  0.30885  0.79017  1.0000
  N   N24       1.0  0.67749  0.31106  0.79086  1.0000
  N   N25       1.0  0.44269  0.55902  0.72450  1.0000
  N   N26       1.0  0.42790  0.87969  0.72326  1.0000
  N   N27       1.0  0.10740  0.54802  0.72410  1.0000
  N   N28       1.0  0.54917  0.43691  0.71869  1.0000
  N   N29       1.0  0.55132  0.11131  0.76231  1.0000
  N   N30       1.0  0.87513  0.44796  0.76721  1.0000
  N   N31       1.0  0.36168  0.46432  0.65626  1.0000
  N   N32       1.0  0.53396  0.89674  0.49090  1.0000
  N   N33       1.0  0.09877  0.63364  0.67045  1.0000
  N   N34       1.0  0.63967  0.53319  0.53917  1.0000
  N   N35       1.0  0.46582  0.10813  0.68789  1.0000
  N   N36       1.0  0.89073  0.36658  0.57070  1.0000
  O   O1        1.0  0.42638  0.43578  0.30896  1.0000
  O   O2        1.0  0.56347  0.98431  0.29953  1.0000
  O   O3        1.0  0.01762  0.57344  0.45363  1.0000
  O   O4        1.0  0.59582  0.56986  0.21627  1.0000
  O   O5        1.0  0.44672  0.02288  0.20884  1.0000
  O   O6        1.0  0.00990  0.42830  0.09836  1.0000
  O   O7        1.0  0.41032  0.43254  0.77490  1.0000
  O   O8        1.0  0.54910  0.97493  0.77321  1.0000
  O   O9        1.0  0.99728  0.57130  0.95170  1.0000
  O   O10       1.0  0.56975  0.56123  0.82349  1.0000
  O   O11       1.0  0.42039  0.01389  0.81753  1.0000
  O   O12       1.0  0.97675  0.41775  0.65724  1.0000
  C  Sn1       1.0  0.35075  0.57789  0.89009  1.0000
  C   C121      1.0  0.36669  0.61596  0.80477  1.0000
  C  Sn2       1.0  0.40929  0.63498  0.67054  1.0000
  C  Sn3       1.0  0.43651  0.61553  0.62044  1.0000
  C   C122      1.0  0.42056  0.57748  0.70571  1.0000
  C  Sn4       1.0  0.37796  0.55844  0.83999  1.0000
  O  Te1       1.0  0.40023  0.56897  0.02393  1.0000
  O  Te2       1.0  0.42451  0.67305  0.58722  1.0000
  O  Te3       1.0  0.47923  0.63402  0.48649  1.0000
  O  Te4       1.0  0.36274  0.52039  0.92327  1.0000
  Mg  Mg1       1.0  0.48504  0.68590  0.41238  1.0000
  Mg  Mg2       1.0  0.39438  0.51703  0.09805  1.0000
  C  Sn5       1.0  0.63345  0.21573  0.63740  1.0000
  C   C123      1.0  0.61515  0.24089  0.74238  1.0000
  C  Sn6       1.0  0.57334  0.22268  0.88179  1.0000
  C  Sn7       1.0  0.54933  0.17840  0.91709  1.0000
  C   C124      1.0  0.56764  0.15328  0.81217  1.0000
  C  Sn8       1.0  0.60945  0.17146  0.67270  1.0000
  O  Te5       1.0  0.67530  0.23462  0.49873  1.0000
  O  Te6       1.0  0.55572  0.24847  0.98487  1.0000
  O  Te7       1.0  0.59963  0.16907  0.05590  1.0000
  O  Te8       1.0  0.62707  0.14569  0.56968  1.0000
  Mg  Mg3       1.0  0.58969  0.21748  0.15894  1.0000
  Mg  Mg4       1.0  0.68527  0.18618  0.39565  1.0000
  C  Sn9       1.0  0.45786  0.63048  0.15732  1.0000
  C   C125      1.0  0.44059  0.59200  0.24261  1.0000
  C  Sn10      1.0  0.39439  0.56622  0.32367  1.0000
  C  Sn11      1.0  0.36483  0.57916  0.31931  1.0000
  C   C126      1.0  0.38209  0.61762  0.23404  1.0000
  C  Sn12      1.0  0.42829  0.64342  0.15297  1.0000
  O  Te9       1.0  0.50416  0.65575  0.07716  1.0000
  O  Te10      1.0  0.37793  0.52789  0.40817  1.0000
  O  Te11      1.0  0.31850  0.55385  0.39958  1.0000
  O  Te12      1.0  0.44476  0.68173  0.06848  1.0000
  Mg  Mg5       1.0  0.31225  0.50443  0.49814  1.0000
  Mg  Mg6       1.0  0.41825  0.69566  0.97839  1.0000
  C  Sn13      1.0  0.20664  0.56143  0.20635  1.0000
  C   C127      1.0  0.17461  0.57471  0.26130  1.0000
  C  Sn14      1.0  0.18533  0.61597  0.31496  1.0000
  C  Sn15      1.0  0.22898  0.64457  0.31356  1.0000
  C   C128      1.0  0.26098  0.63129  0.25861  1.0000
  C  Sn16      1.0  0.25029  0.59003  0.20495  1.0000
  O  Te13      1.0  0.19519  0.52004  0.15325  1.0000
  O  Te14      1.0  0.15274  0.62852  0.36940  1.0000
  O  Te15      1.0  0.24040  0.68599  0.36673  1.0000
  O  Te16      1.0  0.28285  0.57749  0.15051  1.0000
  Mg  Mg7       1.0  0.18448  0.68817  0.42959  1.0000
  Mg  Mg8       1.0  0.25115  0.51785  0.09020  1.0000
  C  Sn17      1.0  0.54916  0.36360  0.74814  1.0000
  C   C129      1.0  0.56154  0.40629  0.77468  1.0000
  C  Sn18      1.0  0.60380  0.43499  0.77960  1.0000
  C  Sn19      1.0  0.63434  0.42073  0.75742  1.0000
  C   C130      1.0  0.62196  0.37807  0.73088  1.0000
  C  Sn20      1.0  0.57970  0.34935  0.72597  1.0000
  O  Te17      1.0  0.50674  0.33547  0.74369  1.0000
  O  Te18      1.0  0.61541  0.47750  0.80636  1.0000
  O  Te19      1.0  0.67679  0.44891  0.76190  1.0000
  O  Te20      1.0  0.56809  0.30685  0.69919  1.0000
  Mg  Mg9       1.0  0.67707  0.50368  0.80193  1.0000
  Mg  Mg10      1.0  0.50645  0.28066  0.70351  1.0000
  C  Sn21      1.0  0.64825  0.19767  0.12817  1.0000
  C   C131      1.0  0.60380  0.16798  0.22036  1.0000
  C  Sn22      1.0  0.57334  0.18108  0.33618  1.0000
  C  Sn23      1.0  0.58760  0.22476  0.36029  1.0000
  C   C132      1.0  0.63202  0.25442  0.26812  1.0000
  C  Sn24      1.0  0.66250  0.24135  0.15229  1.0000
  O  Te21      1.0  0.67812  0.18386  0.01305  1.0000
  O  Te22      1.0  0.52908  0.15081  0.42692  1.0000
  O  Te23      1.0  0.55768  0.23855  0.47554  1.0000
  O  Te24      1.0  0.70674  0.27159  0.06156  1.0000
  Mg  Mg11      1.0  0.50091  0.18527  0.56910  1.0000
  Mg  Mg12      1.0  0.64275  0.22764  0.91928  1.0000
