data_image0
_chemical_formula_structural       H68C128N16SnCSn2CSnTe4Mg2SnCSn2CSnTe4Mg2SnCSn2CSnTe4Mg2SnCSn2CSnTe4Mg2SnCSn2CSnTe4Mg2SnCSn2CSnTe4Mg2SnCSn2CSnTe4Mg2SnCSn2CSnTe4Mg2SnCSn2CSnTe4Mg2SnCSn2CSnTe4Mg2SnCSn2CSnTe4Mg2SnCSn2CSnTe4Mg2SnCSn2CSnTe4Mg2SnCSn2CSnTe4Mg2SnCSn2CSnTe4Mg2SnCSn2CSnTe4Mg2SnCSn2CSnTe4Mg2SnCSn2CSnTe4Mg2
_chemical_formula_sum              "H68 C164 N16 Sn72 Te72 Mg36"
_cell_length_a       36.3327
_cell_length_b       36.7241
_cell_length_c       8.05127
_cell_angle_alpha    89.3097
_cell_angle_beta     90.6819
_cell_angle_gamma    120.268

_symmetry_space_group_name_H-M    'P1'
_space_group_IT_number       1

loop_
  _space_group_symop_operation_xyz
  'x, y, z'

loop_
  _atom_site_type_symbol
  _atom_site_label
  _atom_site_symmetry_multiplicity
  _atom_site_fract_x
  _atom_site_fract_y
  _atom_site_fract_z
  _atom_site_occupancy
  H   H1        1.0  0.31893  0.76047  0.39813  1.0000
  H   H2        1.0  0.68434  0.24068  0.38554  1.0000
  H   H3        1.0  0.52225  0.90976  0.06417  1.0000
  H   H4        1.0  0.47960  0.08858  0.06659  1.0000
  H   H5        1.0  0.57969  0.78795  0.99645  1.0000
  H   H6        1.0  0.42147  0.21199  0.01874  1.0000
  H   H7        1.0  0.41369  0.71214  0.33338  1.0000
  H   H8        1.0  0.58726  0.28728  0.32312  1.0000
  H   H9        1.0  0.33572  0.57397  0.24587  1.0000
  H   H10       1.0  0.66522  0.42555  0.25634  1.0000
  H   H11       1.0  0.48675  0.64420  0.43152  1.0000
  H   H12       1.0  0.51375  0.35404  0.42863  1.0000
  H   H13       1.0  0.44379  0.67874  0.47732  1.0000
  H   H14       1.0  0.55660  0.31892  0.47413  1.0000
  H   H15       1.0  0.38914  0.48076  0.11687  1.0000
  H   H16       1.0  0.61145  0.51916  0.11786  1.0000
  H   H17       1.0  0.30064  0.59223  0.40764  1.0000
  H   H18       1.0  0.69917  0.40621  0.42418  1.0000
  H   H19       1.0  0.24043  0.67210  0.28358  1.0000
  H   H20       1.0  0.76088  0.33028  0.27625  1.0000
  H   H21       1.0  0.20562  0.42387  0.10121  1.0000
  H   H22       1.0  0.79517  0.57604  0.11111  1.0000
  H   H23       1.0  0.16255  0.52285  0.47627  1.0000
  H   H24       1.0  0.83740  0.47866  0.47025  1.0000
  H   H25       1.0  0.24102  0.56621  0.51102  1.0000
  H   H26       1.0  0.75976  0.43316  0.51777  1.0000
  H   H27       1.0  0.08898  0.61590  0.17160  1.0000
  H   H28       1.0  0.91113  0.39152  0.13867  1.0000
  H   H29       1.0  0.20899  0.79514  0.08525  1.0000
  H   H30       1.0  0.79244  0.20863  0.11176  1.0000
  H   H31       1.0  0.42890  0.76271  0.19780  1.0000
  H   H32       1.0  0.57037  0.23515  0.20209  1.0000
  H   H33       1.0  0.35252  0.83814  0.34155  1.0000
  H   H34       1.0  0.65200  0.16321  0.33179  1.0000
  H   H35       1.0  0.31570  0.75912  0.91328  1.0000
  H   H36       1.0  0.68108  0.23905  0.87601  1.0000
  H   H37       1.0  0.51679  0.91012  0.56763  1.0000
  H   H38       1.0  0.47563  0.08921  0.55551  1.0000
  H   H39       1.0  0.57758  0.79214  0.49356  1.0000
  H   H40       1.0  0.41988  0.21562  0.53509  1.0000
  H   H41       1.0  0.41177  0.71223  0.83245  1.0000
  H   H42       1.0  0.58582  0.28790  0.81894  1.0000
  H   H43       1.0  0.33412  0.57328  0.75285  1.0000
  H   H44       1.0  0.66643  0.42804  0.75714  1.0000
  H   H45       1.0  0.48741  0.64667  0.91002  1.0000
  H   H46       1.0  0.51503  0.35782  0.92762  1.0000
  H   H47       1.0  0.44401  0.68027  0.96531  1.0000
  H   H48       1.0  0.55611  0.32062  0.96307  1.0000
  H   H49       1.0  0.38858  0.48123  0.61284  1.0000
  H   H50       1.0  0.61655  0.52594  0.64774  1.0000
  H   H51       1.0  0.30030  0.59168  0.92038  1.0000
  H   H52       1.0  0.69994  0.40650  0.90274  1.0000
  H   H53       1.0  0.23860  0.66870  0.79043  1.0000
  H   H54       1.0  0.75915  0.32718  0.76660  1.0000
  H   H55       1.0  0.20527  0.42292  0.58839  1.0000
  H   H56       1.0  0.79797  0.57462  0.59757  1.0000
  H   H57       1.0  0.16224  0.52026  0.99041  1.0000
  H   H58       1.0  0.83831  0.47437  0.97226  1.0000
  H   H59       1.0  0.24029  0.56525  0.03501  1.0000
  H   H60       1.0  0.76008  0.43122  0.00545  1.0000
  H   H61       1.0  0.08841  0.60868  0.64802  1.0000
  H   H62       1.0  0.91028  0.38338  0.65549  1.0000
  H   H63       1.0  0.20816  0.79075  0.59693  1.0000
  H   H64       1.0  0.78365  0.20207  0.59626  1.0000
  H   H65       1.0  0.42595  0.76323  0.70573  1.0000
  H   H66       1.0  0.56831  0.23582  0.69100  1.0000
  H   H67       1.0  0.34807  0.83662  0.85594  1.0000
  H   H68       1.0  0.64733  0.16144  0.82399  1.0000
  C   C1        1.0  0.36100  0.64951  0.37263  1.0000
  C   C2        1.0  0.63950  0.34915  0.37605  1.0000
  C   C3        1.0  0.37951  0.69305  0.35090  1.0000
  C   C4        1.0  0.62131  0.30605  0.34675  1.0000
  C   C5        1.0  0.49080  0.89036  0.11750  1.0000
  C   C6        1.0  0.51140  0.10824  0.11772  1.0000
  C   C7        1.0  0.38664  0.62875  0.35966  1.0000
  C   C8        1.0  0.61386  0.36993  0.36313  1.0000
  C   C9        1.0  0.36865  0.58923  0.28746  1.0000
  C   C10       1.0  0.63212  0.41005  0.29404  1.0000
  C   C11       1.0  0.39210  0.56868  0.26189  1.0000
  C   C12       1.0  0.60867  0.43070  0.26614  1.0000
  C   C13       1.0  0.43620  0.58977  0.31084  1.0000
  C   C14       1.0  0.56445  0.40923  0.31136  1.0000
  C   C15       1.0  0.45385  0.62972  0.38900  1.0000
  C   C16       1.0  0.54666  0.36877  0.38794  1.0000
  C   C17       1.0  0.42992  0.64870  0.41304  1.0000
  C   C18       1.0  0.57051  0.34953  0.41256  1.0000
  C   C19       1.0  0.44507  0.53495  0.22253  1.0000
  C   C20       1.0  0.55598  0.46466  0.22278  1.0000
  C   C21       1.0  0.29289  0.64664  0.38733  1.0000
  C   C22       1.0  0.70798  0.35293  0.39017  1.0000
  C   C23       1.0  0.37434  0.52720  0.19424  1.0000
  C   C24       1.0  0.62657  0.47248  0.19851  1.0000
  C   C25       1.0  0.31674  0.62625  0.39284  1.0000
  C   C26       1.0  0.68358  0.37254  0.40217  1.0000
  C   C27       1.0  0.24581  0.62186  0.39071  1.0000
  C   C28       1.0  0.75505  0.37879  0.39053  1.0000
  C   C29       1.0  0.22280  0.63940  0.32396  1.0000
  C   C30       1.0  0.77827  0.36274  0.31780  1.0000
  C   C31       1.0  0.40153  0.51154  0.17322  1.0000
  C   C32       1.0  0.59943  0.48830  0.17543  1.0000
  C   C33       1.0  0.17803  0.61565  0.30519  1.0000
  C   C34       1.0  0.82264  0.38781  0.29265  1.0000
  C   C35       1.0  0.15615  0.57202  0.35535  1.0000
  C   C36       1.0  0.84390  0.43113  0.34331  1.0000
  C   C37       1.0  0.18002  0.55527  0.43155  1.0000
  C   C38       1.0  0.82003  0.44636  0.42609  1.0000
  C   C39       1.0  0.22354  0.57952  0.44994  1.0000
  C   C40       1.0  0.77696  0.42092  0.45039  1.0000
  C   C41       1.0  0.09062  0.56163  0.27125  1.0000
  C   C42       1.0  0.90941  0.44448  0.24873  1.0000
  C   C43       1.0  0.15259  0.63239  0.24040  1.0000
  C   C44       1.0  0.84846  0.37290  0.22053  1.0000
  C   C45       1.0  0.10915  0.60473  0.22508  1.0000
  C   C46       1.0  0.89129  0.40186  0.19791  1.0000
  C   C47       1.0  0.35369  0.71145  0.34275  1.0000
  C   C48       1.0  0.64747  0.28809  0.33878  1.0000
  C   C49       1.0  0.37248  0.75686  0.30484  1.0000
  C   C50       1.0  0.62903  0.24283  0.29994  1.0000
  C   C51       1.0  0.41230  0.77911  0.23159  1.0000
  C   C52       1.0  0.58840  0.21971  0.23197  1.0000
  C   C53       1.0  0.43242  0.82282  0.19981  1.0000
  C   C54       1.0  0.56928  0.17619  0.19906  1.0000
  C   C55       1.0  0.41013  0.84450  0.24165  1.0000
  C   C56       1.0  0.59284  0.15527  0.23686  1.0000
  C   C57       1.0  0.36866  0.82095  0.31118  1.0000
  C   C58       1.0  0.63479  0.17965  0.30312  1.0000
  C   C59       1.0  0.35034  0.77843  0.34272  1.0000
  C   C60       1.0  0.65244  0.22207  0.33348  1.0000
  C   C61       1.0  0.46657  0.90927  0.16313  1.0000
  C   C62       1.0  0.53662  0.08998  0.16149  1.0000
  C   C63       1.0  0.47477  0.84743  0.13597  1.0000
  C   C64       1.0  0.52668  0.15089  0.13661  1.0000
  C   C65       1.0  0.35999  0.64935  0.87809  1.0000
  C   C66       1.0  0.63915  0.35002  0.86325  1.0000
  C   C67       1.0  0.37785  0.69283  0.85579  1.0000
  C   C68       1.0  0.62011  0.30664  0.83665  1.0000
  C   C69       1.0  0.48573  0.89057  0.62359  1.0000
  C   C70       1.0  0.50743  0.10863  0.60714  1.0000
  C   C71       1.0  0.38578  0.62892  0.85941  1.0000
  C   C72       1.0  0.61427  0.37179  0.85683  1.0000
  C   C73       1.0  0.36745  0.58909  0.78953  1.0000
  C   C74       1.0  0.63333  0.41267  0.79444  1.0000
  C   C75       1.0  0.39113  0.56894  0.75965  1.0000
  C   C76       1.0  0.61091  0.43457  0.77338  1.0000
  C   C77       1.0  0.43570  0.59088  0.80151  1.0000
  C   C78       1.0  0.56673  0.41352  0.81811  1.0000
  C   C79       1.0  0.45385  0.63130  0.87576  1.0000
  C   C80       1.0  0.54803  0.37232  0.88843  1.0000
  C   C81       1.0  0.42967  0.64975  0.90468  1.0000
  C   C82       1.0  0.57091  0.35189  0.90656  1.0000
  C   C83       1.0  0.44460  0.53612  0.71389  1.0000
  C   C84       1.0  0.55920  0.47006  0.73602  1.0000
  C   C85       1.0  0.29171  0.64554  0.90275  1.0000
  C   C86       1.0  0.70708  0.35212  0.87261  1.0000
  C   C87       1.0  0.37334  0.52738  0.69274  1.0000
  C   C88       1.0  0.62967  0.47714  0.71338  1.0000
  C   C89       1.0  0.31603  0.62568  0.90513  1.0000
  C   C90       1.0  0.68353  0.37267  0.88362  1.0000
  C   C91       1.0  0.24470  0.61978  0.90534  1.0000
  C   C92       1.0  0.75425  0.37666  0.87685  1.0000
  C   C93       1.0  0.22135  0.63614  0.83221  1.0000
  C   C94       1.0  0.77706  0.35953  0.80888  1.0000
  C   C95       1.0  0.40075  0.51201  0.66909  1.0000
  C   C96       1.0  0.60327  0.49403  0.69623  1.0000
  C   C97       1.0  0.17695  0.61132  0.80626  1.0000
  C   C98       1.0  0.82184  0.38314  0.79127  1.0000
  C   C99       1.0  0.15565  0.56785  0.85772  1.0000
  C   C100      1.0  0.84406  0.42630  0.84463  1.0000
  C   C101      1.0  0.17960  0.55243  0.94301  1.0000
  C   C102      1.0  0.82054  0.44251  0.92360  1.0000
  C   C103      1.0  0.22288  0.57758  0.96635  1.0000
  C   C104      1.0  0.77703  0.41842  0.94008  1.0000
  C   C105      1.0  0.09043  0.55564  0.76034  1.0000
  C   C106      1.0  0.90953  0.43732  0.75957  1.0000
  C   C107      1.0  0.15143  0.62694  0.73250  1.0000
  C   C108      1.0  0.84722  0.36682  0.72595  1.0000
  C   C109      1.0  0.10846  0.59840  0.70960  1.0000
  C   C110      1.0  0.89062  0.39453  0.71048  1.0000
  C   C111      1.0  0.35160  0.71082  0.85398  1.0000
  C   C112      1.0  0.64557  0.28789  0.82596  1.0000
  C   C113      1.0  0.36947  0.75624  0.81697  1.0000
  C   C114      1.0  0.62639  0.24242  0.78941  1.0000
  C   C115      1.0  0.40907  0.77912  0.74250  1.0000
  C   C116      1.0  0.58578  0.21985  0.72114  1.0000
  C   C117      1.0  0.42844  0.82278  0.71035  1.0000
  C   C118      1.0  0.56597  0.17627  0.68859  1.0000
  C   C119      1.0  0.40581  0.84403  0.75310  1.0000
  C   C120      1.0  0.58875  0.15470  0.72822  1.0000
  C   C121      1.0  0.36462  0.81988  0.82462  1.0000
  C   C122      1.0  0.63074  0.17846  0.79467  1.0000
  C   C123      1.0  0.34688  0.77734  0.85602  1.0000
  C   C124      1.0  0.64913  0.22098  0.82392  1.0000
  C   C125      1.0  0.46116  0.90901  0.66929  1.0000
  C   C126      1.0  0.53192  0.08974  0.65339  1.0000
  C   C127      1.0  0.47042  0.84787  0.64381  1.0000
  C   C128      1.0  0.52339  0.15147  0.62549  1.0000
  N   N1        1.0  0.46184  0.57310  0.29042  1.0000
  N   N2        1.0  0.53881  0.42604  0.28896  1.0000
  N   N3        1.0  0.11345  0.54560  0.33596  1.0000
  N   N4        1.0  0.88608  0.45856  0.32050  1.0000
  N   N5        1.0  0.31118  0.68868  0.36358  1.0000
  N   N6        1.0  0.69006  0.31123  0.36060  1.0000
  N   N7        1.0  0.42705  0.88678  0.22225  1.0000
  N   N8        1.0  0.57657  0.11308  0.21769  1.0000
  N   N9        1.0  0.46156  0.57463  0.77821  1.0000
  N   N10       1.0  0.54168  0.43097  0.79787  1.0000
  N   N11       1.0  0.11334  0.54064  0.83291  1.0000
  N   N12       1.0  0.88668  0.45256  0.82692  1.0000
  N   N13       1.0  0.30927  0.68751  0.87887  1.0000
  N   N14       1.0  0.68826  0.31028  0.84455  1.0000
  N   N15       1.0  0.42198  0.88621  0.73140  1.0000
  N   N16       1.0  0.57183  0.11244  0.71028  1.0000
  C  Sn1       1.0  0.56493  0.83370  0.17674  1.0000
  C   C129      1.0  0.55699  0.79940  0.07809  1.0000
  C  Sn2       1.0  0.52328  0.77924  0.97225  1.0000
  C  Sn3       1.0  0.49521  0.79549  0.96475  1.0000
  C   C130      1.0  0.50142  0.83155  0.06332  1.0000
  C  Sn4       1.0  0.53685  0.84995  0.16924  1.0000
  O  Te1       1.0  0.60055  0.85159  0.28165  1.0000
  O  Te2       1.0  0.51600  0.74496  0.87486  1.0000
  O  Te3       1.0  0.45956  0.77757  0.85972  1.0000
  O  Te4       1.0  0.54414  0.88421  0.26655  1.0000
  Mg  Mg1       1.0  0.46320  0.73140  0.75135  1.0000
  Mg  Mg2       1.0  0.59694  0.89781  0.39004  1.0000
  C  Sn5       1.0  0.51225  0.21772  0.03653  1.0000
  C   C131      1.0  0.50389  0.18123  0.12371  1.0000
  C  Sn6       1.0  0.46204  0.15054  0.16179  1.0000
  C  Sn7       1.0  0.42784  0.15643  0.11161  1.0000
  C   C132      1.0  0.43621  0.19291  0.02447  1.0000
  C  Sn8       1.0  0.47978  0.22184  0.98635  1.0000
  O  Te5       1.0  0.55607  0.24621  0.99979  1.0000
  O  Te6       1.0  0.45447  0.11432  0.24911  1.0000
  O  Te7       1.0  0.38573  0.12613  0.14844  1.0000
  O  Te8       1.0  0.48736  0.25804  0.89907  1.0000
  Mg  Mg3       1.0  0.39164  0.08213  0.26976  1.0000
  Mg  Mg4       1.0  0.55017  0.29023  0.87828  1.0000
  C  Sn9       1.0  0.50867  0.78825  0.43234  1.0000
  C   C133      1.0  0.55116  0.80530  0.48214  1.0000
  C  Sn10      1.0  0.56777  0.83438  0.61150  1.0000
  C  Sn11      1.0  0.54135  0.84665  0.69286  1.0000
  C   C134      1.0  0.49888  0.82959  0.64308  1.0000
  C  Sn12      1.0  0.48225  0.80052  0.51370  1.0000
  O  Te9       1.0  0.49274  0.75923  0.30272  1.0000
  O  Te10      1.0  0.61035  0.85100  0.65905  1.0000
  O  Te11      1.0  0.55732  0.87569  0.82256  1.0000
  O  Te12      1.0  0.43969  0.78389  0.46617  1.0000
  Mg  Mg5       1.0  0.61734  0.88948  0.84237  1.0000
  Mg  Mg6       1.0  0.43267  0.74539  0.28293  1.0000
  C  Sn13      1.0  0.50984  0.21945  0.53459  1.0000
  C   C135      1.0  0.50147  0.18235  0.61690  1.0000
  C  Sn14      1.0  0.45973  0.15193  0.65781  1.0000
  C  Sn15      1.0  0.42564  0.15872  0.61547  1.0000
  C   C136      1.0  0.43402  0.19580  0.53319  1.0000
  C  Sn16      1.0  0.47575  0.22624  0.49225  1.0000
  O  Te13      1.0  0.55181  0.24942  0.49491  1.0000
  O  Te14      1.0  0.45215  0.11510  0.74015  1.0000
  O  Te15      1.0  0.38364  0.12871  0.65523  1.0000
  O  Te16      1.0  0.48333  0.26304  0.40994  1.0000
  Mg  Mg7       1.0  0.38950  0.08363  0.76752  1.0000
  Mg  Mg8       1.0  0.54597  0.29453  0.38243  1.0000
  C  Sn17      1.0  0.52696  0.54425  0.17345  1.0000
  C   C137      1.0  0.48249  0.52227  0.16269  1.0000
  C  Sn18      1.0  0.45941  0.47867  0.18804  1.0000
  C  Sn19      1.0  0.48122  0.45657  0.22501  1.0000
  C   C138      1.0  0.52566  0.47855  0.23578  1.0000
  C  Sn20      1.0  0.54877  0.52216  0.21042  1.0000
  O  Te17      1.0  0.54939  0.58783  0.14766  1.0000
  O  Te18      1.0  0.41497  0.45738  0.17658  1.0000
  O  Te19      1.0  0.45875  0.41295  0.25080  1.0000
  O  Te20      1.0  0.59318  0.54344  0.22189  1.0000
  Mg  Mg9       1.0  0.39856  0.39800  0.22199  1.0000
  Mg  Mg10      1.0  0.60962  0.60282  0.17659  1.0000
  C  Sn21      1.0  0.30099  0.44606  0.18899  1.0000
  C   C139      1.0  0.32593  0.48756  0.13233  1.0000
  C  Sn22      1.0  0.30675  0.51005  0.07414  1.0000
  C  Sn23      1.0  0.26169  0.49068  0.07263  1.0000
  C   C140      1.0  0.23678  0.44920  0.12928  1.0000
  C  Sn24      1.0  0.25594  0.42668  0.18748  1.0000
  O  Te21      1.0  0.32085  0.42416  0.24664  1.0000
  O  Te22      1.0  0.33235  0.55151  0.01807  1.0000
  O  Te23      1.0  0.24185  0.51261  0.01491  1.0000
  O  Te24      1.0  0.23036  0.38525  0.24354  1.0000
  Mg  Mg11      1.0  0.29211  0.56657  0.95142  1.0000
  Mg  Mg12      1.0  0.27230  0.36840  0.31030  1.0000
  C  Sn25      1.0  0.69969  0.55357  0.19001  1.0000
  C   C141      1.0  0.67497  0.51176  0.13846  1.0000
  C  Sn26      1.0  0.69439  0.48919  0.08845  1.0000
  C  Sn27      1.0  0.73947  0.50882  0.09010  1.0000
  C   C142      1.0  0.76417  0.55060  0.14165  1.0000
  C  Sn28      1.0  0.74477  0.57320  0.19165  1.0000
  O  Te25      1.0  0.67960  0.57553  0.23948  1.0000
  O  Te26      1.0  0.66901  0.44743  0.03738  1.0000
  O  Te27      1.0  0.75956  0.48682  0.04056  1.0000
  O  Te28      1.0  0.77013  0.61493  0.24273  1.0000
  Mg  Mg13      1.0  0.71300  0.42884  0.98144  1.0000
  Mg  Mg14      1.0  0.72791  0.63176  0.29878  1.0000
  C  Sn29      1.0  0.97986  0.52849  0.22194  1.0000
  C   C143      1.0  0.95943  0.48509  0.19440  1.0000
  C  Sn30      1.0  0.98211  0.46374  0.20681  1.0000
  C  Sn31      1.0  0.02614  0.48625  0.24771  1.0000
  C   C144      1.0  0.04655  0.52963  0.27526  1.0000
  C  Sn32      1.0  0.02389  0.55100  0.26284  1.0000
  O  Te29      1.0  0.95655  0.54918  0.20888  1.0000
  O  Te30      1.0  0.96099  0.42034  0.17867  1.0000
  O  Te31      1.0  0.04945  0.46551  0.26076  1.0000
  O  Te32      1.0  0.04499  0.59437  0.29099  1.0000
  Mg  Mg15      1.0  0.00648  0.40622  0.21116  1.0000
  Mg  Mg16      1.0  0.99953  0.60852  0.25862  1.0000
  C  Sn33      1.0  0.54529  0.01838  0.10224  1.0000
  C   C145      1.0  0.52272  0.03992  0.10485  1.0000
  C  Sn34      1.0  0.47955  0.01872  0.14604  1.0000
  C  Sn35      1.0  0.96798  0.97509  0.18556  1.0000
  C   C146      1.0  0.99055  0.95358  0.18298  1.0000
  C  Sn36      1.0  0.03372  0.97475  0.14176  1.0000
  O  Te33      1.0  0.58843  0.04021  0.06071  1.0000
  O  Te34      1.0  0.45766  0.04093  0.14775  1.0000
  O  Te35      1.0  0.92481  0.95328  0.22711  1.0000
  O  Te36      1.0  0.05561  0.95257  0.14007  1.0000
  Mg  Mg17      1.0  0.90871  0.99731  0.21228  1.0000
  Mg  Mg18      1.0  0.11403  0.99616  0.07565  1.0000
  C  Sn37      1.0  0.21885  0.71354  0.12377  1.0000
  C   C147      1.0  0.18357  0.68568  0.21842  1.0000
  C  Sn38      1.0  0.15190  0.69523  0.25491  1.0000
  C  Sn39      1.0  0.15555  0.73342  0.19546  1.0000
  C   C148      1.0  0.19081  0.76126  0.10085  1.0000
  C  Sn40      1.0  0.22250  0.75173  0.06432  1.0000
  O  Te37      1.0  0.25013  0.70334  0.08879  1.0000
  O  Te38      1.0  0.11693  0.66689  0.34981  1.0000
  O  Te39      1.0  0.12423  0.74361  0.23053  1.0000
  O  Te40      1.0  0.25918  0.77827  0.96946  1.0000
  Mg  Mg19      1.0  0.08263  0.69486  0.36449  1.0000
  Mg  Mg20      1.0  0.29349  0.75032  0.95463  1.0000
  C  Sn41      1.0  0.84021  0.27320  0.27208  1.0000
  C   C149      1.0  0.80448  0.24386  0.18249  1.0000
  C  Sn42      1.0  0.78322  0.25730  0.07467  1.0000
  C  Sn43      1.0  0.79801  0.30097  0.05591  1.0000
  C   C150      1.0  0.83372  0.33029  0.14544  1.0000
  C  Sn44      1.0  0.85500  0.31688  0.25332  1.0000
  O  Te41      1.0  0.86097  0.25906  0.37917  1.0000
  O  Te42      1.0  0.74929  0.22559  0.98648  1.0000
  O  Te43      1.0  0.77895  0.31332  0.94871  1.0000
  O  Te44      1.0  0.89064  0.34678  0.34145  1.0000
  Mg  Mg21      1.0  0.73182  0.26043  0.85567  1.0000
  Mg  Mg22      1.0  0.90815  0.31198  0.47223  1.0000
  C  Sn45      1.0  0.54250  0.53761  0.74709  1.0000
  C   C151      1.0  0.53300  0.49570  0.75112  1.0000
  C  Sn46      1.0  0.49191  0.46307  0.71332  1.0000
  C  Sn47      1.0  0.45965  0.47254  0.67050  1.0000
  C   C152      1.0  0.46916  0.51443  0.66646  1.0000
  C  Sn48      1.0  0.51024  0.54708  0.70427  1.0000
  O  Te45      1.0  0.58379  0.56972  0.78532  1.0000
  O  Te46      1.0  0.48318  0.42141  0.71824  1.0000
  O  Te47      1.0  0.41834  0.44038  0.63226  1.0000
  O  Te48      1.0  0.51898  0.58871  0.69934  1.0000
  Mg  Mg23      1.0  0.42210  0.38864  0.65608  1.0000
  Mg  Mg24      1.0  0.58005  0.62151  0.76139  1.0000
  C  Sn49      1.0  0.30007  0.44625  0.69085  1.0000
  C   C153      1.0  0.32512  0.48756  0.63229  1.0000
  C  Sn50      1.0  0.30603  0.50969  0.56892  1.0000
  C  Sn51      1.0  0.26097  0.49014  0.56408  1.0000
  C   C154      1.0  0.23595  0.44886  0.62264  1.0000
  C  Sn52      1.0  0.25501  0.42670  0.68600  1.0000
  O  Te49      1.0  0.31983  0.42473  0.75368  1.0000
  O  Te50      1.0  0.33174  0.55096  0.51105  1.0000
  O  Te51      1.0  0.24122  0.51171  0.50118  1.0000
  O  Te52      1.0  0.22932  0.38547  0.74388  1.0000
  Mg  Mg25      1.0  0.28988  0.56730  0.43703  1.0000
  Mg  Mg26      1.0  0.27115  0.36910  0.81800  1.0000
  C  Sn53      1.0  0.70926  0.48744  0.60767  1.0000
  C   C155      1.0  0.68255  0.49713  0.69668  1.0000
  C  Sn54      1.0  0.69615  0.53878  0.73982  1.0000
  C  Sn55      1.0  0.73731  0.57144  0.69293  1.0000
  C   C156      1.0  0.76400  0.56175  0.60396  1.0000
  C  Sn56      1.0  0.75042  0.52010  0.56079  1.0000
  O  Te53      1.0  0.69500  0.44558  0.56587  1.0000
  O  Te54      1.0  0.66888  0.54769  0.82888  1.0000
  O  Te55      1.0  0.75156  0.61333  0.73482  1.0000
  O  Te56      1.0  0.77766  0.51119  0.47176  1.0000
  Mg  Mg27      1.0  0.70277  0.60960  0.85674  1.0000
  Mg  Mg28      1.0  0.74379  0.44929  0.44376  1.0000
  C  Sn57      1.0  0.02017  0.47539  0.67196  1.0000
  C   C157      1.0  0.04025  0.51903  0.69253  1.0000
  C  Sn58      1.0  0.01765  0.53739  0.75409  1.0000
  C  Sn59      1.0  0.97407  0.51160  0.79607  1.0000
  C   C158      1.0  0.95401  0.46799  0.77553  1.0000
  C  Sn60      1.0  0.97659  0.44960  0.71394  1.0000
  O  Te57      1.0  0.04339  0.45770  0.61023  1.0000
  O  Te58      1.0  0.03841  0.58110  0.77352  1.0000
  O  Te59      1.0  0.95086  0.52932  0.85784  1.0000
  O  Te60      1.0  0.95586  0.40592  0.69454  1.0000
  Mg  Mg29      1.0  0.99322  0.59037  0.86226  1.0000
  Mg  Mg30      1.0  0.00102  0.39662  0.60589  1.0000
  C  Sn61      1.0  0.52972  0.99267  0.70486  1.0000
  C   C159      1.0  0.48704  0.96061  0.69803  1.0000
  C  Sn62      1.0  0.45544  0.96962  0.64906  1.0000
  C  Sn63      1.0  0.95728  0.01153  0.60591  1.0000
  C   C160      1.0  0.99994  0.04355  0.61273  1.0000
  C  Sn64      1.0  0.03156  0.03458  0.66172  1.0000
  O  Te61      1.0  0.56078  0.98294  0.75416  1.0000
  O  Te62      1.0  0.41298  0.93705  0.64324  1.0000
  O  Te63      1.0  0.92618  0.02124  0.55659  1.0000
  O  Te64      1.0  0.07399  0.06712  0.66752  1.0000
  Mg  Mg31      1.0  0.38221  0.96607  0.56826  1.0000
  Mg  Mg32      1.0  0.10479  0.03813  0.74240  1.0000
  C  Sn65      1.0  0.16117  0.72764  0.76871  1.0000
  C   C161      1.0  0.19644  0.75613  0.67542  1.0000
  C  Sn66      1.0  0.21695  0.74168  0.57221  1.0000
  C  Sn67      1.0  0.20189  0.69785  0.56195  1.0000
  C   C162      1.0  0.16664  0.66939  0.65517  1.0000
  C  Sn68      1.0  0.14610  0.68381  0.75844  1.0000
  O  Te65      1.0  0.14115  0.74279  0.87106  1.0000
  O  Te66      1.0  0.25216  0.77077  0.48018  1.0000
  O  Te67      1.0  0.22194  0.68272  0.45949  1.0000
  O  Te68      1.0  0.11092  0.65475  0.85041  1.0000
  Mg  Mg33      1.0  0.26866  0.73471  0.35842  1.0000
  Mg  Mg34      1.0  0.09437  0.69077  0.97213  1.0000
  C  Sn69      1.0  0.83245  0.26380  0.76740  1.0000
  C   C163      1.0  0.79739  0.23703  0.66873  1.0000
  C  Sn70      1.0  0.77920  0.25359  0.55998  1.0000
  C  Sn71      1.0  0.79645  0.29783  0.54955  1.0000
  C   C164      1.0  0.83150  0.32458  0.64816  1.0000
  C  Sn72      1.0  0.84970  0.30805  0.75697  1.0000
  O  Te69      1.0  0.85012  0.24655  0.87524  1.0000
  O  Te70      1.0  0.74415  0.22619  0.46263  1.0000
  O  Te71      1.0  0.77875  0.31507  0.44160  1.0000
  O  Te72      1.0  0.88473  0.33542  0.85426  1.0000
  Mg  Mg35      1.0  0.73126  0.26483  0.33451  1.0000
  Mg  Mg36      1.0  0.89766  0.29682  0.98235  1.0000
