data_image0
_chemical_formula_structural       H120C180N12O12SnCSn2CSnTe4Mg2SnCSn2CSnTe4Mg2SnCSn2CSnTe4Mg2SnCSn2CSnTe4Mg2SnCSn2CSnTe4Mg2SnCSn2CSnTe4Mg2SnCSn2CSnTe4Mg2SnCSn2CSnTe4Mg2SnCSn2CSnTe4Mg2SnCSn2CSnTe4Mg2SnCSn2CSnTe4Mg2SnCSn2CSnTe4Mg2
_chemical_formula_sum              "H120 C204 N12 O12 Sn48 Te48 Mg24"
_cell_length_a       36.615
_cell_length_b       36.7605
_cell_length_c       8.02369
_cell_angle_alpha    87.8158
_cell_angle_beta     90.8167
_cell_angle_gamma    120.006

_symmetry_space_group_name_H-M    'P1'
_space_group_IT_number       1

loop_
  _space_group_symop_operation_xyz
  'x, y, z'

loop_
  _atom_site_type_symbol
  _atom_site_label
  _atom_site_symmetry_multiplicity
  _atom_site_fract_x
  _atom_site_fract_y
  _atom_site_fract_z
  _atom_site_occupancy
  H   H1        1.0  0.43738  0.67111  0.49180  1.0000
  H   H2        1.0  0.32635  0.76185  0.48695  1.0000
  H   H3        1.0  0.23585  0.56161  0.49726  1.0000
  H   H4        1.0  0.56342  0.32627  0.50531  1.0000
  H   H5        1.0  0.67179  0.23313  0.49909  1.0000
  H   H6        1.0  0.76413  0.43514  0.48194  1.0000
  H   H7        1.0  0.47886  0.42588  0.19137  1.0000
  H   H8        1.0  0.57472  0.05383  0.23705  1.0000
  H   H9        1.0  0.94638  0.52082  0.21533  1.0000
  H   H10       1.0  0.52252  0.57494  0.25149  1.0000
  H   H11       1.0  0.42435  0.94690  0.20684  1.0000
  H   H12       1.0  0.05420  0.47834  0.20979  1.0000
  H   H13       1.0  0.40334  0.42588  0.44783  1.0000
  H   H14       1.0  0.60110  0.01723  0.40010  1.0000
  H   H15       1.0  0.98762  0.57595  0.42310  1.0000
  H   H16       1.0  0.57924  0.59164  0.44076  1.0000
  H   H17       1.0  0.38487  0.97032  0.29225  1.0000
  H   H18       1.0  0.01871  0.41637  0.37948  1.0000
  H   H19       1.0  0.41803  0.39297  0.34200  1.0000
  H   H20       1.0  0.61634  0.02917  0.18329  1.0000
  H   H21       1.0  0.97058  0.58879  0.22993  1.0000
  H   H22       1.0  0.59133  0.61810  0.23905  1.0000
  H   H23       1.0  0.38616  0.01938  0.30702  1.0000
  H   H24       1.0  0.02894  0.41102  0.16530  1.0000
  H   H25       1.0  0.36734  0.38800  0.30504  1.0000
  H   H26       1.0  0.61778  0.98625  0.29075  1.0000
  H   H27       1.0  0.01680  0.62810  0.33063  1.0000
  H   H28       1.0  0.63096  0.61251  0.35213  1.0000
  H   H29       1.0  0.41741  0.00676  0.44628  1.0000
  H   H30       1.0  0.98633  0.36790  0.27741  1.0000
  H   H31       1.0  0.38746  0.47786  0.12351  1.0000
  H   H32       1.0  0.52349  0.91147  0.11421  1.0000
  H   H33       1.0  0.09050  0.61396  0.10953  1.0000
  H   H34       1.0  0.61451  0.52394  0.11279  1.0000
  H   H35       1.0  0.47618  0.09136  0.11861  1.0000
  H   H36       1.0  0.90980  0.38663  0.10910  1.0000
  H   H37       1.0  0.41182  0.70773  0.37029  1.0000
  H   H38       1.0  0.29178  0.70192  0.37320  1.0000
  H   H39       1.0  0.29741  0.58817  0.37062  1.0000
  H   H40       1.0  0.58828  0.29036  0.38037  1.0000
  H   H41       1.0  0.70797  0.29549  0.36938  1.0000
  H   H42       1.0  0.70284  0.40959  0.37474  1.0000
  H   H43       1.0  0.33459  0.57261  0.22884  1.0000
  H   H44       1.0  0.42872  0.76248  0.22962  1.0000
  H   H45       1.0  0.23824  0.66672  0.23365  1.0000
  H   H46       1.0  0.66648  0.42726  0.23176  1.0000
  H   H47       1.0  0.57178  0.23820  0.23218  1.0000
  H   H48       1.0  0.76150  0.33307  0.22816  1.0000
  H   H49       1.0  0.47988  0.63645  0.45314  1.0000
  H   H50       1.0  0.36075  0.83929  0.44242  1.0000
  H   H51       1.0  0.15840  0.51934  0.45445  1.0000
  H   H52       1.0  0.52116  0.36170  0.46043  1.0000
  H   H53       1.0  0.63672  0.15628  0.45758  1.0000
  H   H54       1.0  0.84139  0.47809  0.43279  1.0000
  H   H55       1.0  0.20811  0.42291  0.04631  1.0000
  H   H56       1.0  0.57915  0.78897  0.02864  1.0000
  H   H57       1.0  0.21294  0.79443  0.06161  1.0000
  H   H58       1.0  0.79337  0.57618  0.02138  1.0000
  H   H59       1.0  0.42365  0.21823  0.03403  1.0000
  H   H60       1.0  0.78654  0.20856  0.03740  1.0000
  H   H61       1.0  0.43817  0.67263  0.98406  1.0000
  H   H62       1.0  0.32738  0.76376  0.98606  1.0000
  H   H63       1.0  0.23621  0.56272  0.00288  1.0000
  H   H64       1.0  0.56437  0.32465  0.01263  1.0000
  H   H65       1.0  0.67286  0.23338  0.99470  1.0000
  H   H66       1.0  0.76594  0.43497  0.98222  1.0000
  H   H67       1.0  0.47455  0.42195  0.74710  1.0000
  H   H68       1.0  0.57565  0.05535  0.69020  1.0000
  H   H69       1.0  0.94710  0.51956  0.73213  1.0000
  H   H70       1.0  0.52011  0.57273  0.73704  1.0000
  H   H71       1.0  0.42575  0.94720  0.74082  1.0000
  H   H72       1.0  0.05527  0.47888  0.66767  1.0000
  H   H73       1.0  0.36406  0.38113  0.81412  1.0000
  H   H74       1.0  0.57450  0.97077  0.93341  1.0000
  H   H75       1.0  0.98086  0.57339  0.91487  1.0000
  H   H76       1.0  0.57902  0.58906  0.93225  1.0000
  H   H77       1.0  0.40137  0.98047  0.91910  1.0000
  H   H78       1.0  0.98152  0.40350  0.91473  1.0000
  H   H79       1.0  0.41212  0.39668  0.92649  1.0000
  H   H80       1.0  0.60369  0.02356  0.85018  1.0000
  H   H81       1.0  0.97372  0.59012  0.70964  1.0000
  H   H82       1.0  0.58897  0.61580  0.73168  1.0000
  H   H83       1.0  0.38324  0.97211  0.70692  1.0000
  H   H84       1.0  0.02726  0.41477  0.79522  1.0000
  H   H85       1.0  0.40749  0.38141  0.71279  1.0000
  H   H86       1.0  0.61637  0.98500  0.78524  1.0000
  H   H87       1.0  0.01521  0.62649  0.83947  1.0000
  H   H88       1.0  0.62952  0.60955  0.83257  1.0000
  H   H89       1.0  0.38291  0.01297  0.82108  1.0000
  H   H90       1.0  0.97937  0.36558  0.77389  1.0000
  H   H91       1.0  0.38447  0.47654  0.63293  1.0000
  H   H92       1.0  0.52481  0.91265  0.61149  1.0000
  H   H93       1.0  0.09134  0.61396  0.60259  1.0000
  H   H94       1.0  0.60869  0.51984  0.61669  1.0000
  H   H95       1.0  0.47648  0.09237  0.61748  1.0000
  H   H96       1.0  0.91059  0.38589  0.60198  1.0000
  H   H97       1.0  0.41204  0.70888  0.86212  1.0000
  H   H98       1.0  0.29210  0.70320  0.87807  1.0000
  H   H99       1.0  0.29768  0.58937  0.87793  1.0000
  H   H100      1.0  0.58941  0.29045  0.88461  1.0000
  H   H101      1.0  0.70899  0.29584  0.86381  1.0000
  H   H102      1.0  0.70376  0.40994  0.87458  1.0000
  H   H103      1.0  0.33357  0.57317  0.73214  1.0000
  H   H104      1.0  0.42895  0.76346  0.72575  1.0000
  H   H105      1.0  0.23873  0.66757  0.73653  1.0000
  H   H106      1.0  0.66500  0.42713  0.73505  1.0000
  H   H107      1.0  0.57279  0.23925  0.73197  1.0000
  H   H108      1.0  0.76239  0.33299  0.72441  1.0000
  H   H109      1.0  0.47970  0.63683  0.94766  1.0000
  H   H110      1.0  0.36240  0.84122  0.94232  1.0000
  H   H111      1.0  0.15906  0.51980  0.95323  1.0000
  H   H112      1.0  0.52040  0.35822  0.97333  1.0000
  H   H113      1.0  0.63732  0.15642  0.95130  1.0000
  H   H114      1.0  0.84327  0.47729  0.93526  1.0000
  H   H115      1.0  0.20645  0.42552  0.53722  1.0000
  H   H116      1.0  0.57985  0.78935  0.53078  1.0000
  H   H117      1.0  0.21736  0.79505  0.54803  1.0000
  H   H118      1.0  0.78867  0.57768  0.52880  1.0000
  H   H119      1.0  0.42246  0.21745  0.53608  1.0000
  H   H120      1.0  0.78535  0.20729  0.54170  1.0000
  C   C1        1.0  0.35771  0.64552  0.37178  1.0000
  C   C2        1.0  0.35418  0.71029  0.37235  1.0000
  C   C3        1.0  0.28913  0.64199  0.37484  1.0000
  C   C4        1.0  0.64260  0.35243  0.37932  1.0000
  C   C5        1.0  0.64572  0.28745  0.37733  1.0000
  C   C6        1.0  0.71095  0.35562  0.37279  1.0000
  C   C7        1.0  0.37756  0.68947  0.37330  1.0000
  C   C8        1.0  0.31009  0.68604  0.37551  1.0000
  C   C9        1.0  0.31342  0.62225  0.37406  1.0000
  C   C10       1.0  0.62253  0.30844  0.38124  1.0000
  C   C11       1.0  0.68986  0.31150  0.37503  1.0000
  C   C12       1.0  0.68683  0.37547  0.37773  1.0000
  C   C13       1.0  0.38290  0.62446  0.35779  1.0000
  C   C14       1.0  0.37516  0.75660  0.35673  1.0000
  C   C15       1.0  0.24268  0.61721  0.36291  1.0000
  C   C16       1.0  0.61789  0.37417  0.36596  1.0000
  C   C17       1.0  0.62431  0.24130  0.36355  1.0000
  C   C18       1.0  0.75724  0.38091  0.35395  1.0000
  C   C19       1.0  0.36620  0.58642  0.27929  1.0000
  C   C20       1.0  0.41405  0.77932  0.27742  1.0000
  C   C21       1.0  0.22078  0.63468  0.28384  1.0000
  C   C22       1.0  0.63486  0.41313  0.28318  1.0000
  C   C23       1.0  0.58574  0.22024  0.28331  1.0000
  C   C24       1.0  0.77905  0.36456  0.27484  1.0000
  C   C25       1.0  0.38901  0.56510  0.26112  1.0000
  C   C26       1.0  0.43507  0.82356  0.25487  1.0000
  C   C27       1.0  0.17661  0.61180  0.26177  1.0000
  C   C28       1.0  0.61223  0.43478  0.26088  1.0000
  C   C29       1.0  0.56434  0.17631  0.26271  1.0000
  C   C30       1.0  0.82323  0.38759  0.25098  1.0000
  C   C31       1.0  0.43164  0.58459  0.32048  1.0000
  C   C32       1.0  0.41452  0.84539  0.31212  1.0000
  C   C33       1.0  0.15395  0.56859  0.31956  1.0000
  C   C34       1.0  0.56958  0.41477  0.32164  1.0000
  C   C35       1.0  0.58417  0.15309  0.32224  1.0000
  C   C36       1.0  0.84589  0.43008  0.30528  1.0000
  C   C37       1.0  0.44825  0.62333  0.40246  1.0000
  C   C38       1.0  0.37480  0.82180  0.39434  1.0000
  C   C39       1.0  0.17657  0.55146  0.40479  1.0000
  C   C40       1.0  0.55282  0.37523  0.40911  1.0000
  C   C41       1.0  0.62334  0.17490  0.40679  1.0000
  C   C42       1.0  0.82323  0.44645  0.38690  1.0000
  C   C43       1.0  0.42459  0.64249  0.42204  1.0000
  C   C44       1.0  0.35587  0.77889  0.41749  1.0000
  C   C45       1.0  0.21949  0.57502  0.42692  1.0000
  C   C46       1.0  0.57630  0.35568  0.43220  1.0000
  C   C47       1.0  0.64268  0.21753  0.42819  1.0000
  C   C48       1.0  0.78039  0.42256  0.41237  1.0000
  C   C49       1.0  0.44111  0.53035  0.23558  1.0000
  C   C50       1.0  0.46971  0.91054  0.22778  1.0000
  C   C51       1.0  0.08994  0.55942  0.22558  1.0000
  C   C52       1.0  0.56071  0.47026  0.23071  1.0000
  C   C53       1.0  0.52931  0.08976  0.23341  1.0000
  C   C54       1.0  0.91031  0.43976  0.21907  1.0000
  C   C55       1.0  0.47033  0.51367  0.22193  1.0000
  C   C56       1.0  0.48653  0.95653  0.21677  1.0000
  C   C57       1.0  0.04409  0.53030  0.20869  1.0000
  C   C58       1.0  0.53171  0.48731  0.21715  1.0000
  C   C59       1.0  0.51262  0.04402  0.21893  1.0000
  C   C60       1.0  0.95637  0.46893  0.20615  1.0000
  C   C61       1.0  0.45818  0.47103  0.20466  1.0000
  C   C62       1.0  0.52985  0.98745  0.22341  1.0000
  C   C63       1.0  0.01312  0.54252  0.20942  1.0000
  C   C64       1.0  0.54406  0.53020  0.23253  1.0000
  C   C65       1.0  0.46951  0.01320  0.20909  1.0000
  C   C66       1.0  0.98742  0.45672  0.20464  1.0000
  C   C67       1.0  0.48855  0.45887  0.20193  1.0000
  C   C68       1.0  0.54188  0.02980  0.22513  1.0000
  C   C69       1.0  0.97060  0.51214  0.20817  1.0000
  C   C70       1.0  0.51380  0.54245  0.23444  1.0000
  C   C71       1.0  0.45750  0.97080  0.20932  1.0000
  C   C72       1.0  0.02998  0.48712  0.20516  1.0000
  C   C73       1.0  0.39882  0.50809  0.17882  1.0000
  C   C74       1.0  0.49266  0.89171  0.17038  1.0000
  C   C75       1.0  0.10949  0.60215  0.16898  1.0000
  C   C76       1.0  0.60296  0.49303  0.17160  1.0000
  C   C77       1.0  0.50675  0.10993  0.17586  1.0000
  C   C78       1.0  0.89064  0.39782  0.16488  1.0000
  C   C79       1.0  0.40062  0.41015  0.33051  1.0000
  C   C80       1.0  0.60098  0.00389  0.27953  1.0000
  C   C81       1.0  0.99822  0.59456  0.30516  1.0000
  C   C82       1.0  0.59720  0.59747  0.32457  1.0000
  C   C83       1.0  0.40497  0.00378  0.31888  1.0000
  C   C84       1.0  0.00430  0.40220  0.26053  1.0000
  C   C85       1.0  0.37212  0.52438  0.19255  1.0000
  C   C86       1.0  0.47642  0.84862  0.18378  1.0000
  C   C87       1.0  0.15236  0.62899  0.18853  1.0000
  C   C88       1.0  0.62938  0.47621  0.18615  1.0000
  C   C89       1.0  0.52328  0.15278  0.19082  1.0000
  C   C90       1.0  0.84750  0.37104  0.18113  1.0000
  C   C91       1.0  0.35793  0.64672  0.87150  1.0000
  C   C92       1.0  0.35458  0.71163  0.87125  1.0000
  C   C93       1.0  0.28950  0.64329  0.87978  1.0000
  C   C94       1.0  0.64352  0.35261  0.88156  1.0000
  C   C95       1.0  0.64684  0.28781  0.87608  1.0000
  C   C96       1.0  0.71204  0.35600  0.87013  1.0000
  C   C97       1.0  0.37783  0.69070  0.86966  1.0000
  C   C98       1.0  0.31047  0.68739  0.87856  1.0000
  C   C99       1.0  0.31370  0.62349  0.87861  1.0000
  C   C100      1.0  0.62364  0.30866  0.88323  1.0000
  C   C101      1.0  0.69095  0.31188  0.87160  1.0000
  C   C102      1.0  0.68781  0.37580  0.87722  1.0000
  C   C103      1.0  0.38277  0.62535  0.85648  1.0000
  C   C104      1.0  0.37577  0.75799  0.85466  1.0000
  C   C105      1.0  0.24308  0.61826  0.86758  1.0000
  C   C106      1.0  0.61791  0.37347  0.87155  1.0000
  C   C107      1.0  0.62526  0.24175  0.86142  1.0000
  C   C108      1.0  0.75844  0.38098  0.85100  1.0000
  C   C109      1.0  0.36538  0.58691  0.78063  1.0000
  C   C110      1.0  0.41462  0.78050  0.77468  1.0000
  C   C111      1.0  0.22126  0.63549  0.78629  1.0000
  C   C112      1.0  0.63357  0.41226  0.78873  1.0000
  C   C113      1.0  0.58658  0.22101  0.78178  1.0000
  C   C114      1.0  0.78006  0.36441  0.77161  1.0000
  C   C115      1.0  0.38771  0.56510  0.76275  1.0000
  C   C116      1.0  0.43608  0.82478  0.75324  1.0000
  C   C117      1.0  0.17724  0.61228  0.76064  1.0000
  C   C118      1.0  0.60975  0.43277  0.76865  1.0000
  C   C119      1.0  0.56494  0.17712  0.76024  1.0000
  C   C120      1.0  0.82431  0.38713  0.74821  1.0000
  C   C121      1.0  0.43045  0.58440  0.82106  1.0000
  C   C122      1.0  0.41592  0.84687  0.81159  1.0000
  C   C123      1.0  0.15468  0.56901  0.81752  1.0000
  C   C124      1.0  0.56734  0.41201  0.83248  1.0000
  C   C125      1.0  0.58482  0.15383  0.81822  1.0000
  C   C126      1.0  0.84730  0.42948  0.80375  1.0000
  C   C127      1.0  0.44789  0.62375  0.89893  1.0000
  C   C128      1.0  0.37620  0.82352  0.89400  1.0000
  C   C129      1.0  0.17719  0.55208  0.90503  1.0000
  C   C130      1.0  0.55189  0.37255  0.91950  1.0000
  C   C131      1.0  0.62407  0.17530  0.90229  1.0000
  C   C132      1.0  0.82492  0.44591  0.88716  1.0000
  C   C133      1.0  0.42475  0.64347  0.91747  1.0000
  C   C134      1.0  0.35689  0.78056  0.91646  1.0000
  C   C135      1.0  0.21995  0.57596  0.93071  1.0000
  C   C136      1.0  0.57640  0.35402  0.93989  1.0000
  C   C137      1.0  0.64362  0.21788  0.92455  1.0000
  C   C138      1.0  0.78200  0.42236  0.91157  1.0000
  C   C139      1.0  0.43859  0.52878  0.74475  1.0000
  C   C140      1.0  0.47122  0.91190  0.72548  1.0000
  C   C141      1.0  0.09097  0.55968  0.71971  1.0000
  C   C142      1.0  0.55646  0.46648  0.74367  1.0000
  C   C143      1.0  0.52989  0.09078  0.72964  1.0000
  C   C144      1.0  0.91147  0.43914  0.71271  1.0000
  C   C145      1.0  0.46713  0.51122  0.73671  1.0000
  C   C146      1.0  0.48788  0.95790  0.71293  1.0000
  C   C147      1.0  0.04525  0.53041  0.70074  1.0000
  C   C148      1.0  0.52743  0.48357  0.73474  1.0000
  C   C149      1.0  0.51335  0.04520  0.71480  1.0000
  C   C150      1.0  0.95756  0.46862  0.69659  1.0000
  C   C151      1.0  0.45397  0.46784  0.74065  1.0000
  C   C152      1.0  0.53076  0.98915  0.69776  1.0000
  C   C153      1.0  0.01399  0.54204  0.71682  1.0000
  C   C154      1.0  0.54055  0.52690  0.73300  1.0000
  C   C155      1.0  0.47019  0.01391  0.72679  1.0000
  C   C156      1.0  0.98879  0.45728  0.67706  1.0000
  C   C157      1.0  0.48386  0.45500  0.73935  1.0000
  C   C158      1.0  0.54249  0.03146  0.69892  1.0000
  C   C159      1.0  0.97155  0.51163  0.71351  1.0000
  C   C160      1.0  0.51067  0.53968  0.73405  1.0000
  C   C161      1.0  0.45845  0.97167  0.72604  1.0000
  C   C162      1.0  0.03133  0.48788  0.67892  1.0000
  C   C163      1.0  0.39639  0.50704  0.68650  1.0000
  C   C164      1.0  0.49401  0.89289  0.66804  1.0000
  C   C165      1.0  0.11042  0.60244  0.66349  1.0000
  C   C166      1.0  0.59812  0.48945  0.67846  1.0000
  C   C167      1.0  0.50720  0.11088  0.67386  1.0000
  C   C168      1.0  0.89157  0.39712  0.65899  1.0000
  C   C169      1.0  0.39851  0.39722  0.80393  1.0000
  C   C170      1.0  0.59070  0.99029  0.82167  1.0000
  C   C171      1.0  0.99712  0.59356  0.80475  1.0000
  C   C172      1.0  0.59545  0.59477  0.81213  1.0000
  C   C173      1.0  0.39977  0.99588  0.80119  1.0000
  C   C174      1.0  0.99262  0.39919  0.79428  1.0000
  C   C175      1.0  0.37027  0.52412  0.69562  1.0000
  C   C176      1.0  0.47751  0.84973  0.68243  1.0000
  C   C177      1.0  0.15323  0.62937  0.68401  1.0000
  C   C178      1.0  0.62548  0.47379  0.69234  1.0000
  C   C179      1.0  0.52377  0.15373  0.68897  1.0000
  C   C180      1.0  0.84843  0.37050  0.67758  1.0000
  N   N1        1.0  0.45691  0.56760  0.30612  1.0000
  N   N2        1.0  0.43142  0.88774  0.29680  1.0000
  N   N3        1.0  0.11172  0.54320  0.30048  1.0000
  N   N4        1.0  0.54446  0.43208  0.30430  1.0000
  N   N5        1.0  0.56705  0.11101  0.30583  1.0000
  N   N6        1.0  0.88822  0.45539  0.28754  1.0000
  N   N7        1.0  0.45512  0.56668  0.81020  1.0000
  N   N8        1.0  0.43312  0.88921  0.79630  1.0000
  N   N9        1.0  0.11254  0.54337  0.79551  1.0000
  N   N10       1.0  0.54144  0.42857  0.81889  1.0000
  N   N11       1.0  0.56775  0.11182  0.80070  1.0000
  N   N12       1.0  0.88962  0.45459  0.78471  1.0000
  O   O1        1.0  0.41580  0.44017  0.19152  1.0000
  O   O2        1.0  0.55876  0.97374  0.23347  1.0000
  O   O3        1.0  0.02603  0.58490  0.21743  1.0000
  O   O4        1.0  0.58661  0.55853  0.25047  1.0000
  O   O5        1.0  0.43901  0.02526  0.20054  1.0000
  O   O6        1.0  0.97404  0.41421  0.20850  1.0000
  O   O7        1.0  0.41114  0.43952  0.75007  1.0000
  O   O8        1.0  0.56231  0.97870  0.68207  1.0000
  O   O9        1.0  0.02760  0.58389  0.74168  1.0000
  O   O10       1.0  0.58341  0.55582  0.73458  1.0000
  O   O11       1.0  0.44109  0.02704  0.74411  1.0000
  O   O12       1.0  0.97792  0.41542  0.65881  1.0000
  C  Sn1       1.0  0.26902  0.43566  0.22671  1.0000
  C   C181      1.0  0.24248  0.44449  0.12777  1.0000
  C  Sn2       1.0  0.25932  0.48010  0.02092  1.0000
  C  Sn3       1.0  0.30360  0.50746  0.01271  1.0000
  C   C182      1.0  0.33011  0.49862  0.11158  1.0000
  C  Sn4       1.0  0.31330  0.46302  0.21849  1.0000
  O  Te1       1.0  0.25150  0.39988  0.33262  1.0000
  O  Te2       1.0  0.23075  0.47926  0.92326  1.0000
  O  Te3       1.0  0.31970  0.53424  0.90668  1.0000
  O  Te4       1.0  0.34044  0.45483  0.31608  1.0000
  Mg  Mg1       1.0  0.26972  0.53193  0.79829  1.0000
  Mg  Mg2       1.0  0.30151  0.40216  0.44102  1.0000
  C  Sn5       1.0  0.51051  0.77887  0.96623  1.0000
  C   C183      1.0  0.55387  0.80359  0.01394  1.0000
  C  Sn6       1.0  0.57111  0.83236  0.14091  1.0000
  C  Sn7       1.0  0.54588  0.84571  0.22196  1.0000
  C   C184      1.0  0.50395  0.83001  0.17427  1.0000
  C  Sn8       1.0  0.48669  0.80124  0.04728  1.0000
  O  Te5       1.0  0.49393  0.75013  0.83899  1.0000
  O  Te6       1.0  0.61314  0.84762  0.18640  1.0000
  O  Te7       1.0  0.56250  0.87448  0.34928  1.0000
  O  Te8       1.0  0.44468  0.78597  0.00181  1.0000
  Mg  Mg3       1.0  0.62138  0.88625  0.36687  1.0000
  Mg  Mg4       1.0  0.43500  0.73831  0.82142  1.0000
  C  Sn9       1.0  0.14242  0.70024  0.16519  1.0000
  C   C185      1.0  0.16020  0.67625  0.11769  1.0000
  C  Sn10      1.0  0.20195  0.69585  0.06170  1.0000
  C  Sn11      1.0  0.22646  0.74036  0.05311  1.0000
  C   C186      1.0  0.20869  0.76432  0.10061  1.0000
  C  Sn12      1.0  0.16694  0.74475  0.15659  1.0000
  O  Te9       1.0  0.10062  0.67998  0.22078  1.0000
  O  Te10      1.0  0.21902  0.67120  0.01484  1.0000
  O  Te11      1.0  0.26689  0.75159  0.99745  1.0000
  O  Te12      1.0  0.14987  0.76937  0.20346  1.0000
  Mg  Mg5       1.0  0.27599  0.70439  0.94752  1.0000
  Mg  Mg6       1.0  0.09151  0.72720  0.27088  1.0000
  C  Sn13      1.0  0.70183  0.55633  0.14068  1.0000
  C   C187      1.0  0.67578  0.51408  0.10421  1.0000
  C  Sn14      1.0  0.69316  0.49034  0.04953  1.0000
  C  Sn15      1.0  0.73750  0.50922  0.03100  1.0000
  C   C188      1.0  0.76352  0.55145  0.06748  1.0000
  C  Sn16      1.0  0.74617  0.57521  0.12215  1.0000
  O  Te13      1.0  0.68378  0.57947  0.19518  1.0000
  O  Te14      1.0  0.66647  0.44815  0.01379  1.0000
  O  Te15      1.0  0.75414  0.47703  0.97645  1.0000
  O  Te16      1.0  0.77283  0.61737  0.15790  1.0000
  Mg  Mg7       1.0  0.70468  0.42066  0.94349  1.0000
  Mg  Mg8       1.0  0.73326  0.63587  0.22829  1.0000
  C  Sn17      1.0  0.48770  0.20804  0.96638  1.0000
  C   C189      1.0  0.44776  0.20246  0.02002  1.0000
  C  Sn18      1.0  0.43072  0.17318  0.15329  1.0000
  C  Sn19      1.0  0.45552  0.15818  0.23472  1.0000
  C   C190      1.0  0.49684  0.17278  0.18110  1.0000
  C  Sn20      1.0  0.51390  0.20207  0.04781  1.0000
  O  Te17      1.0  0.50409  0.23733  0.83289  1.0000
  O  Te18      1.0  0.38931  0.15904  0.20464  1.0000
  O  Te19      1.0  0.43909  0.12888  0.36830  1.0000
  O  Te20      1.0  0.55389  0.20719  0.99648  1.0000
  Mg  Mg9       1.0  0.38110  0.11909  0.39242  1.0000
  Mg  Mg10      1.0  0.56213  0.24715  0.80877  1.0000
  C  Sn21      1.0  0.85730  0.30036  0.14533  1.0000
  C   C191      1.0  0.83921  0.32527  0.10661  1.0000
  C  Sn22      1.0  0.79723  0.30685  0.05549  1.0000
  C  Sn23      1.0  0.77281  0.26259  0.04290  1.0000
  C   C192      1.0  0.79090  0.23770  0.08163  1.0000
  C  Sn24      1.0  0.83287  0.25610  0.13274  1.0000
  O  Te21      1.0  0.89932  0.31946  0.19619  1.0000
  O  Te22      1.0  0.77985  0.33241  0.01739  1.0000
  O  Te23      1.0  0.72936  0.23449  0.99199  1.0000
  O  Te24      1.0  0.85026  0.23056  0.17085  1.0000
  Mg  Mg11      1.0  0.71986  0.28262  0.95380  1.0000
  Mg  Mg12      1.0  0.90883  0.27129  0.23453  1.0000
  C  Sn25      1.0  0.27353  0.49180  0.47109  1.0000
  C   C193      1.0  0.24669  0.44992  0.52214  1.0000
  C  Sn26      1.0  0.25802  0.43168  0.65392  1.0000
  C  Sn27      1.0  0.29696  0.45579  0.73648  1.0000
  C   C194      1.0  0.32377  0.49764  0.68545  1.0000
  C  Sn28      1.0  0.31247  0.51591  0.55365  1.0000
  O  Te25      1.0  0.26156  0.50939  0.33906  1.0000
  O  Te26      1.0  0.23067  0.38976  0.70267  1.0000
  O  Te27      1.0  0.30891  0.43816  0.86859  1.0000
  O  Te28      1.0  0.33979  0.55780  0.50491  1.0000
  Mg  Mg13      1.0  0.26099  0.37988  0.88927  1.0000
  Mg  Mg14      1.0  0.30950  0.56772  0.31839  1.0000
  C  Sn29      1.0  0.56687  0.83606  0.70635  1.0000
  C   C195      1.0  0.55829  0.80167  0.61094  1.0000
  C  Sn30      1.0  0.52264  0.78351  0.50952  1.0000
  C  Sn31      1.0  0.49500  0.80010  0.50323  1.0000
  C   C196      1.0  0.50359  0.83447  0.59858  1.0000
  C  Sn32      1.0  0.53923  0.85265  0.70007  1.0000
  O  Te29      1.0  0.60269  0.85371  0.80685  1.0000
  O  Te30      1.0  0.51471  0.74914  0.41531  1.0000
  O  Te31      1.0  0.45915  0.78241  0.40262  1.0000
  O  Te32      1.0  0.54716  0.88700  0.79421  1.0000
  Mg  Mg15      1.0  0.46187  0.73599  0.29736  1.0000
  Mg  Mg16      1.0  0.60000  0.90019  0.91213  1.0000
  C  Sn33      1.0  0.14496  0.70173  0.65381  1.0000
  C   C197      1.0  0.16185  0.67676  0.60910  1.0000
  C  Sn34      1.0  0.20362  0.69529  0.55425  1.0000
  C  Sn35      1.0  0.22905  0.73971  0.54396  1.0000
  C   C198      1.0  0.21217  0.76466  0.58868  1.0000
  C  Sn36      1.0  0.17039  0.74615  0.64352  1.0000
  O  Te33      1.0  0.10312  0.68253  0.70831  1.0000
  O  Te34      1.0  0.21980  0.66967  0.51019  1.0000
  O  Te35      1.0  0.27092  0.75891  0.48940  1.0000
  O  Te36      1.0  0.15422  0.77175  0.68759  1.0000
  Mg  Mg17      1.0  0.27861  0.71063  0.44340  1.0000
  Mg  Mg18      1.0  0.09542  0.73083  0.75448  1.0000
  C  Sn37      1.0  0.72297  0.51108  0.46794  1.0000
  C   C199      1.0  0.74877  0.55254  0.51521  1.0000
  C  Sn38      1.0  0.73630  0.56866  0.64359  1.0000
  C  Sn39      1.0  0.69723  0.54279  0.72654  1.0000
  C   C200      1.0  0.67146  0.50135  0.67928  1.0000
  C  Sn40      1.0  0.68391  0.48521  0.55089  1.0000
  O  Te37      1.0  0.73608  0.49562  0.33927  1.0000
  O  Te38      1.0  0.76262  0.61021  0.68860  1.0000
  O  Te39      1.0  0.68414  0.55828  0.85529  1.0000
  O  Te40      1.0  0.65761  0.44368  0.50589  1.0000
  Mg  Mg19      1.0  0.73095  0.61689  0.87152  1.0000
  Mg  Mg20      1.0  0.68926  0.43697  0.32306  1.0000
  C  Sn41      1.0  0.43517  0.16838  0.71616  1.0000
  C   C201      1.0  0.44398  0.20399  0.61727  1.0000
  C  Sn42      1.0  0.47949  0.22300  0.51340  1.0000
  C  Sn43      1.0  0.50676  0.20606  0.50818  1.0000
  C   C202      1.0  0.49794  0.17047  0.60701  1.0000
  C  Sn44      1.0  0.46244  0.15143  0.71094  1.0000
  O  Te41      1.0  0.39949  0.14988  0.81907  1.0000
  O  Te42      1.0  0.48765  0.25858  0.41572  1.0000
  O  Te43      1.0  0.54246  0.22459  0.40516  1.0000
  O  Te44      1.0  0.45427  0.11587  0.80855  1.0000
  Mg  Mg21      1.0  0.54016  0.27255  0.29547  1.0000
  Mg  Mg22      1.0  0.40176  0.10187  0.92877  1.0000
  C  Sn45      1.0  0.85704  0.29886  0.64774  1.0000
  C   C203      1.0  0.83986  0.32437  0.60488  1.0000
  C  Sn46      1.0  0.79809  0.30654  0.55157  1.0000
  C  Sn47      1.0  0.77297  0.26228  0.54098  1.0000
  C   C204      1.0  0.79015  0.23680  0.58386  1.0000
  C  Sn48      1.0  0.83191  0.25460  0.63715  1.0000
  O  Te45      1.0  0.89887  0.31736  0.70072  1.0000
  O  Te46      1.0  0.78162  0.33269  0.50933  1.0000
  O  Te47      1.0  0.73111  0.24379  0.48794  1.0000
  O  Te48      1.0  0.84839  0.22848  0.67940  1.0000
  Mg  Mg23      1.0  0.72295  0.29260  0.44416  1.0000
  Mg  Mg24      1.0  0.90704  0.26853  0.74467  1.0000
