data_image0
_chemical_formula_structural       H72C102N24SnCSn2CSnTe4Mg2SnCSn2CSnTe4Mg2SnCSn2CSnTe4Mg2SnCSn2CSnTe4Mg2SnCSn2CSnTe4Mg2SnCSn2CSnTe4Mg2SnCSn2CSnTe4Mg2SnCSn2CSnTe4Mg2SnCSn2CSnTe4Mg2
_chemical_formula_sum              "H72 C120 N24 Sn36 Te36 Mg18"
_cell_length_a       37.8786
_cell_length_b       37.0106
_cell_length_c       9.03777
_cell_angle_alpha    81.9181
_cell_angle_beta     124.843
_cell_angle_gamma    120.225

_symmetry_space_group_name_H-M    'P1'
_space_group_IT_number       1

loop_
  _space_group_symop_operation_xyz
  'x, y, z'

loop_
  _atom_site_type_symbol
  _atom_site_label
  _atom_site_symmetry_multiplicity
  _atom_site_fract_x
  _atom_site_fract_y
  _atom_site_fract_z
  _atom_site_occupancy
  H   H1        1.0  0.30347  0.59354  0.31778  1.0000
  H   H2        1.0  0.41885  0.70789  0.31841  1.0000
  H   H3        1.0  0.30274  0.71033  0.28581  1.0000
  H   H4        1.0  0.70825  0.41778  0.24473  1.0000
  H   H5        1.0  0.60529  0.30509  0.30909  1.0000
  H   H6        1.0  0.71772  0.30479  0.30769  1.0000
  H   H7        1.0  0.31924  0.56309  0.19008  1.0000
  H   H8        1.0  0.41482  0.75016  0.15024  1.0000
  H   H9        1.0  0.70094  0.45050  0.40883  1.0000
  H   H10       1.0  0.76029  0.32833  0.22873  1.0000
  H   H11       1.0  0.35479  0.52907  0.14668  1.0000
  H   H12       1.0  0.44705  0.82232  0.09066  1.0000
  H   H13       1.0  0.66058  0.48971  0.36749  1.0000
  H   H14       1.0  0.82771  0.36172  0.19087  1.0000
  H   H15       1.0  0.49867  0.64675  0.42198  1.0000
  H   H16       1.0  0.38618  0.85161  0.30433  1.0000
  H   H17       1.0  0.51698  0.37138  0.10223  1.0000
  H   H18       1.0  0.84220  0.48330  0.23277  1.0000
  H   H19       1.0  0.46300  0.68076  0.46861  1.0000
  H   H20       1.0  0.35719  0.78000  0.38097  1.0000
  H   H21       1.0  0.55775  0.33247  0.14094  1.0000
  H   H22       1.0  0.77442  0.44994  0.27750  1.0000
  H   H23       1.0  0.49587  0.43947  0.24292  1.0000
  H   H24       1.0  0.59367  0.06185  0.31866  1.0000
  H   H25       1.0  0.52439  0.58568  0.25036  1.0000
  H   H26       1.0  0.42329  0.94548  0.13098  1.0000
  H   H27       1.0  0.45250  0.58249  0.12604  1.0000
  H   H28       1.0  0.42504  0.87971  0.01373  1.0000
  H   H29       1.0  0.08267  0.53083  0.08921  1.0000
  H   H30       1.0  0.52640  0.44366  0.06733  1.0000
  H   H31       1.0  0.56971  0.11076  0.07117  1.0000
  H   H32       1.0  0.85988  0.44060  0.03234  1.0000
  H   H33       1.0  0.43619  0.51681  0.34429  1.0000
  H   H34       1.0  0.49709  0.91344  0.41077  1.0000
  H   H35       1.0  0.11469  0.59027  0.38321  1.0000
  H   H36       1.0  0.61134  0.50266  0.42884  1.0000
  H   H37       1.0  0.53165  0.10548  0.28349  1.0000
  H   H38       1.0  0.93438  0.44415  0.41832  1.0000
  H   H39       1.0  0.43576  0.45232  0.22730  1.0000
  H   H40       1.0  0.57613  0.98802  0.35421  1.0000
  H   H41       1.0  0.58367  0.57263  0.26163  1.0000
  H   H42       1.0  0.44048  0.01901  0.09041  1.0000
  H   H43       1.0  0.30018  0.58482  0.82565  1.0000
  H   H44       1.0  0.40215  0.69488  0.75134  1.0000
  H   H45       1.0  0.29669  0.70051  0.78501  1.0000
  H   H46       1.0  0.70341  0.40763  0.76826  1.0000
  H   H47       1.0  0.58811  0.29067  0.75612  1.0000
  H   H48       1.0  0.70181  0.29087  0.75969  1.0000
  H   H49       1.0  0.63911  0.41581  0.58127  1.0000
  H   H50       1.0  0.77378  0.32749  0.83532  1.0000
  H   H51       1.0  0.59453  0.45128  0.53816  1.0000
  H   H52       1.0  0.84196  0.36306  0.80215  1.0000
  H   H53       1.0  0.54344  0.37233  0.84804  1.0000
  H   H54       1.0  0.81660  0.46786  0.65252  1.0000
  H   H55       1.0  0.59064  0.33789  0.90248  1.0000
  H   H56       1.0  0.74551  0.43041  0.67631  1.0000
  H   H57       1.0  0.93179  0.51175  0.69525  1.0000
  H   H58       1.0  0.05904  0.48321  0.80853  1.0000
  H   H59       1.0  0.45343  0.57519  0.64515  1.0000
  H   H60       1.0  0.41078  0.88480  0.60073  1.0000
  H   H61       1.0  0.07609  0.52159  0.59379  1.0000
  H   H62       1.0  0.52141  0.43808  0.52563  1.0000
  H   H63       1.0  0.57878  0.09670  0.80155  1.0000
  H   H64       1.0  0.85844  0.44515  0.56084  1.0000
  H   H65       1.0  0.41759  0.50160  0.80339  1.0000
  H   H66       1.0  0.51050  0.91266  0.94486  1.0000
  H   H67       1.0  0.10909  0.58499  0.87582  1.0000
  H   H68       1.0  0.58588  0.46872  0.92473  1.0000
  H   H69       1.0  0.48120  0.07950  0.68089  1.0000
  H   H70       1.0  0.92744  0.43124  0.91586  1.0000
  H   H71       1.0  0.00097  0.56636  0.67625  1.0000
  H   H72       1.0  0.98799  0.42753  0.81824  1.0000
  C   C1        1.0  0.29788  0.64933  0.30379  1.0000
  C   C2        1.0  0.36467  0.64822  0.32445  1.0000
  C   C3        1.0  0.36335  0.71449  0.30023  1.0000
  C   C4        1.0  0.71963  0.36483  0.27774  1.0000
  C   C5        1.0  0.65592  0.36510  0.28471  1.0000
  C   C6        1.0  0.65853  0.30018  0.30188  1.0000
  C   C7        1.0  0.50239  0.47162  0.24627  1.0000
  C   C8        1.0  0.55646  0.03633  0.27839  1.0000
  C   C9        1.0  0.51776  0.55353  0.24782  1.0000
  C   C10       1.0  0.46056  0.97102  0.17209  1.0000
  C   C11       1.0  0.32063  0.62743  0.31639  1.0000
  C   C12       1.0  0.38556  0.69174  0.31751  1.0000
  C   C13       1.0  0.32001  0.69294  0.29724  1.0000
  C   C14       1.0  0.69615  0.38545  0.26915  1.0000
  C   C15       1.0  0.63665  0.32185  0.29787  1.0000
  C   C16       1.0  0.70084  0.32224  0.29939  1.0000
  C   C17       1.0  0.38747  0.62539  0.32417  1.0000
  C   C18       1.0  0.38359  0.75901  0.27171  1.0000
  C   C19       1.0  0.76129  0.38610  0.25659  1.0000
  C   C20       1.0  0.63264  0.38840  0.27507  1.0000
  C   C21       1.0  0.35880  0.58184  0.24261  1.0000
  C   C22       1.0  0.40956  0.77236  0.19070  1.0000
  C   C23       1.0  0.66038  0.43280  0.33926  1.0000
  C   C24       1.0  0.77825  0.36253  0.23434  1.0000
  C   C25       1.0  0.37895  0.56238  0.21708  1.0000
  C   C26       1.0  0.42724  0.81315  0.15364  1.0000
  C   C27       1.0  0.63752  0.45531  0.31643  1.0000
  C   C28       1.0  0.81678  0.38149  0.21204  1.0000
  C   C29       1.0  0.42899  0.58619  0.27368  1.0000
  C   C30       1.0  0.41854  0.84189  0.19237  1.0000
  C   C31       1.0  0.58522  0.43355  0.22589  1.0000
  C   C32       1.0  0.83972  0.42500  0.20870  1.0000
  C   C33       1.0  0.45915  0.62871  0.36956  1.0000
  C   C34       1.0  0.39321  0.82936  0.27478  1.0000
  C   C35       1.0  0.55729  0.38884  0.16673  1.0000
  C   C36       1.0  0.82387  0.44929  0.23278  1.0000
  C   C37       1.0  0.43873  0.64779  0.39399  1.0000
  C   C38       1.0  0.37620  0.78863  0.31485  1.0000
  C   C39       1.0  0.58054  0.36692  0.19150  1.0000
  C   C40       1.0  0.78535  0.43008  0.25661  1.0000
  C   C41       1.0  0.38715  0.49627  0.05823  1.0000
  C   C42       1.0  0.51979  0.90798  0.25808  1.0000
  C   C43       1.0  0.07285  0.59961  0.11978  1.0000
  C   C44       1.0  0.61193  0.52896  0.21276  1.0000
  C   C45       1.0  0.48467  0.08766  0.99634  1.0000
  C   C46       1.0  0.90616  0.39515  0.22353  1.0000
  C   C47       1.0  0.43734  0.52657  0.22519  1.0000
  C   C48       1.0  0.48723  0.91622  0.27083  1.0000
  C   C49       1.0  0.08610  0.57066  0.24157  1.0000
  C   C50       1.0  0.58305  0.49733  0.27877  1.0000
  C   C51       1.0  0.52855  0.09068  0.17598  1.0000
  C   C52       1.0  0.91887  0.43876  0.27108  1.0000
  C   C53       1.0  0.47597  0.52002  0.23849  1.0000
  C   C54       1.0  0.49836  0.96167  0.24547  1.0000
  C   C55       1.0  0.54452  0.50532  0.25682  1.0000
  C   C56       1.0  0.51842  0.04542  0.20182  1.0000
  C   C57       1.0  0.46849  0.47890  0.23689  1.0000
  C   C58       1.0  0.54639  0.99474  0.29898  1.0000
  C   C59       1.0  0.55160  0.54618  0.25616  1.0000
  C   C60       1.0  0.47038  0.01235  0.14907  1.0000
  C   C61       1.0  0.29075  0.63904  0.79654  1.0000
  C   C62       1.0  0.35550  0.63794  0.79986  1.0000
  C   C63       1.0  0.35262  0.70327  0.77124  1.0000
  C   C64       1.0  0.70870  0.35242  0.76321  1.0000
  C   C65       1.0  0.64290  0.35170  0.75873  1.0000
  C   C66       1.0  0.64360  0.28605  0.76322  1.0000
  C   C67       1.0  0.95910  0.50503  0.71755  1.0000
  C   C68       1.0  0.03094  0.48936  0.78228  1.0000
  C   C69       1.0  0.31416  0.61777  0.80912  1.0000
  C   C70       1.0  0.37339  0.68032  0.77609  1.0000
  C   C71       1.0  0.31184  0.68233  0.78382  1.0000
  C   C72       1.0  0.68647  0.37345  0.76291  1.0000
  C   C73       1.0  0.62187  0.30794  0.75950  1.0000
  C   C74       1.0  0.68671  0.30860  0.76503  1.0000
  C   C75       1.0  0.75248  0.37517  0.75395  1.0000
  C   C76       1.0  0.61821  0.37403  0.74460  1.0000
  C   C77       1.0  0.61931  0.40669  0.64420  1.0000
  C   C78       1.0  0.78164  0.35784  0.79098  1.0000
  C   C79       1.0  0.59375  0.42650  0.61800  1.0000
  C   C80       1.0  0.82149  0.37855  0.77444  1.0000
  C   C81       1.0  0.56601  0.41414  0.69018  1.0000
  C   C82       1.0  0.83406  0.41810  0.72047  1.0000
  C   C83       1.0  0.56501  0.38194  0.79215  1.0000
  C   C84       1.0  0.80651  0.43670  0.69012  1.0000
  C   C85       1.0  0.59106  0.36234  0.82009  1.0000
  C   C86       1.0  0.76661  0.41545  0.70528  1.0000
  C   C87       1.0  0.37722  0.49086  0.51610  1.0000
  C   C88       1.0  0.50930  0.89908  0.72819  1.0000
  C   C89       1.0  0.06476  0.59055  0.60792  1.0000
  C   C90       1.0  0.60400  0.50764  0.75987  1.0000
  C   C91       1.0  0.47916  0.07628  0.44961  1.0000
  C   C92       1.0  0.89345  0.38845  0.68462  1.0000
  C   C93       1.0  0.42525  0.51477  0.70088  1.0000
  C   C94       1.0  0.48776  0.91060  0.79426  1.0000
  C   C95       1.0  0.07963  0.56344  0.73834  1.0000
  C   C96       1.0  0.56556  0.47352  0.78263  1.0000
  C   C97       1.0  0.50273  0.07503  0.64715  1.0000
  C   C98       1.0  0.91164  0.43120  0.76852  1.0000
  C   C99       1.0  0.03494  0.52863  0.74031  1.0000
  C   C100      1.0  0.95471  0.46567  0.75729  1.0000
  C   C101      1.0  0.99852  0.53603  0.70769  1.0000
  C   C102      1.0  0.99107  0.45817  0.78950  1.0000
  N   N1        1.0  0.45151  0.57108  0.23431  1.0000
  N   N2        1.0  0.43352  0.88328  0.14251  1.0000
  N   N3        1.0  0.10843  0.55304  0.20970  1.0000
  N   N4        1.0  0.55889  0.45332  0.19651  1.0000
  N   N5        1.0  0.57532  0.11879  0.19005  1.0000
  N   N6        1.0  0.87674  0.44555  0.17121  1.0000
  N   N7        1.0  0.34863  0.47261  0.92342  1.0000
  N   N8        1.0  0.54269  0.90043  0.23301  1.0000
  N   N9        1.0  0.06382  0.62297  0.02368  1.0000
  N   N10       1.0  0.63630  0.55263  0.16354  1.0000
  N   N11       1.0  0.45291  0.08533  0.84664  1.0000
  N   N12       1.0  0.89602  0.36091  0.18354  1.0000
  N   N13       1.0  0.44487  0.56024  0.73362  1.0000
  N   N14       1.0  0.43509  0.87949  0.71966  1.0000
  N   N15       1.0  0.10186  0.54503  0.71028  1.0000
  N   N16       1.0  0.53719  0.43271  0.65676  1.0000
  N   N17       1.0  0.55617  0.10784  0.77159  1.0000
  N   N18       1.0  0.87247  0.44078  0.69338  1.0000
  N   N19       1.0  0.34037  0.47294  0.36873  1.0000
  N   N20       1.0  0.52772  0.89040  0.68213  1.0000
  N   N21       1.0  0.05473  0.61272  0.50639  1.0000
  N   N22       1.0  0.63235  0.53163  0.72647  1.0000
  N   N23       1.0  0.45844  0.07718  0.29344  1.0000
  N   N24       1.0  0.87810  0.35443  0.61795  1.0000
  C  Sn1       1.0  0.43264  0.64013  0.81541  1.0000
  C   C103      1.0  0.38423  0.62140  0.77014  1.0000
  C  Sn2       1.0  0.35377  0.57700  0.73487  1.0000
  C  Sn3       1.0  0.37210  0.55077  0.74516  1.0000
  C   C104      1.0  0.42048  0.56951  0.79044  1.0000
  C  Sn4       1.0  0.45096  0.61391  0.82571  1.0000
  O  Te1       1.0  0.46243  0.68459  0.85014  1.0000
  O  Te2       1.0  0.30550  0.55901  0.68981  1.0000
  O  Te3       1.0  0.34226  0.50628  0.71038  1.0000
  O  Te4       1.0  0.49921  0.63190  0.87077  1.0000
  Mg  Mg1       1.0  0.27917  0.49686  0.65448  1.0000
  Mg  Mg2       1.0  0.52558  0.69404  0.90622  1.0000
  C  Sn5       1.0  0.21842  0.57351  0.28718  1.0000
  C   C105      1.0  0.24083  0.61408  0.25332  1.0000
  C  Sn6       1.0  0.22282  0.64107  0.22660  1.0000
  C  Sn7       1.0  0.18157  0.62724  0.23400  1.0000
  C   C106      1.0  0.15920  0.58669  0.26787  1.0000
  C  Sn8       1.0  0.17718  0.55968  0.29458  1.0000
  O  Te5       1.0  0.23705  0.54707  0.31349  1.0000
  O  Te6       1.0  0.24582  0.68149  0.19289  1.0000
  O  Te7       1.0  0.16296  0.65372  0.20764  1.0000
  O  Te8       1.0  0.15420  0.51929  0.32830  1.0000
  Mg  Mg3       1.0  0.20690  0.70591  0.16596  1.0000
  Mg  Mg4       1.0  0.19311  0.49485  0.35534  1.0000
  C  Sn9       1.0  0.17289  0.61692  0.67738  1.0000
  C   C107      1.0  0.14797  0.57512  0.69622  1.0000
  C  Sn10      1.0  0.17327  0.55300  0.78188  1.0000
  C  Sn11      1.0  0.22455  0.57309  0.85025  1.0000
  C   C108      1.0  0.24945  0.61488  0.83143  1.0000
  C  Sn12      1.0  0.22418  0.63702  0.74575  1.0000
  O  Te9       1.0  0.14686  0.63843  0.59127  1.0000
  O  Te10      1.0  0.14755  0.51123  0.79906  1.0000
  O  Te11      1.0  0.25057  0.55155  0.93640  1.0000
  O  Te12      1.0  0.24987  0.67877  0.72859  1.0000
  Mg  Mg5       1.0  0.19927  0.49515  0.92699  1.0000
  Mg  Mg6       1.0  0.19820  0.69488  0.60077  1.0000
  C  Sn13      1.0  0.57561  0.21573  0.10944  1.0000
  C   C109      1.0  0.61859  0.24595  0.27181  1.0000
  C  Sn14      1.0  0.65307  0.23548  0.41314  1.0000
  C  Sn15      1.0  0.64443  0.19396  0.39170  1.0000
  C   C110      1.0  0.60148  0.16377  0.22941  1.0000
  C  Sn16      1.0  0.56697  0.17421  0.08800  1.0000
  O  Te13      1.0  0.70162  0.27499  0.96996  1.0000
  O  Te14      1.0  0.69575  0.26623  0.57423  1.0000
  O  Te15      1.0  0.67843  0.18281  0.53137  1.0000
  O  Te16      1.0  0.68428  0.19158  0.92699  1.0000
  Mg  Mg7       1.0  0.73101  0.23573  0.72495  1.0000
  Mg  Mg8       1.0  0.64902  0.22205  0.77615  1.0000
  C  Sn17      1.0  0.99986  0.54101  0.23718  1.0000
  C   C111      1.0  0.03984  0.53970  0.26884  1.0000
  C  Sn18      1.0  0.03826  0.50101  0.27520  1.0000
  C  Sn19      1.0  0.99581  0.46283  0.24927  1.0000
  C   C112      1.0  0.95586  0.46416  0.21760  1.0000
  C  Sn20      1.0  0.95741  0.50283  0.21125  1.0000
  O  Te17      1.0  0.00225  0.58004  0.23137  1.0000
  O  Te18      1.0  0.07869  0.50050  0.30712  1.0000
  O  Te19      1.0  0.99346  0.42378  0.25510  1.0000
  O  Te20      1.0  0.91701  0.50336  0.17932  1.0000
  Mg  Mg9       1.0  0.05785  0.43947  0.30263  1.0000
  Mg  Mg10      1.0  0.93780  0.56436  0.18369  1.0000
  C  Sn21      1.0  0.63668  0.18966  0.91108  1.0000
  C   C113      1.0  0.58553  0.15809  0.81131  1.0000
  C  Sn22      1.0  0.54946  0.16635  0.66489  1.0000
  C  Sn23      1.0  0.56485  0.20699  0.61710  1.0000
  C   C114      1.0  0.61597  0.23853  0.71682  1.0000
  C  Sn24      1.0  0.65206  0.23031  0.86329  1.0000
  O  Te21      1.0  0.51211  0.13262  0.05693  1.0000
  O  Te22      1.0  0.49855  0.13428  0.56722  1.0000
  O  Te23      1.0  0.52940  0.21593  0.47112  1.0000
  O  Te24      1.0  0.70295  0.26234  0.96091  1.0000
  Mg  Mg11      1.0  0.46453  0.16188  0.37960  1.0000
  Mg  Mg12      1.0  0.57703  0.18669  0.14848  1.0000
  C  Sn25      1.0  0.00130  0.00432  0.59444  1.0000
  C   C115      1.0  0.98131  0.02325  0.62394  1.0000
  C  Sn26      1.0  0.96631  0.00937  0.74122  1.0000
  C  Sn27      1.0  0.97143  0.97588  0.83100  1.0000
  C   C116      1.0  0.99142  0.95697  0.80152  1.0000
  C  Sn28      1.0  0.00642  0.97083  0.68423  1.0000
  O  Te25      1.0  0.01605  0.01871  0.47662  1.0000
  O  Te26      1.0  0.94641  0.02878  0.76850  1.0000
  O  Te27      1.0  0.95666  0.96150  0.94889  1.0000
  O  Te28      1.0  0.02632  0.95145  0.65696  1.0000
  Mg  Mg13      1.0  0.93171  0.99802  0.94191  1.0000
  Mg  Mg14      1.0  0.04106  0.98220  0.48367  1.0000
  C  Sn29      1.0  0.54105  0.53467  0.79399  1.0000
  C   C117      1.0  0.53743  0.49506  0.80057  1.0000
  C  Sn30      1.0  0.49236  0.45762  0.75049  1.0000
  C  Sn31      1.0  0.45001  0.45980  0.69250  1.0000
  C   C118      1.0  0.45364  0.49938  0.68591  1.0000
  C  Sn32      1.0  0.49870  0.53685  0.73600  1.0000
  O  Te29      1.0  0.58648  0.57169  0.84468  1.0000
  O  Te30      1.0  0.48965  0.41840  0.75825  1.0000
  O  Te31      1.0  0.40456  0.42273  0.64180  1.0000
  O  Te32      1.0  0.50142  0.57605  0.72823  1.0000
  Mg  Mg15      1.0  0.41951  0.37689  0.67534  1.0000
  Mg  Mg16      1.0  0.57153  0.61757  0.81101  1.0000
  C  Sn33      1.0  0.43589  0.78717  0.87357  1.0000
  C   C119      1.0  0.38605  0.75701  0.80892  1.0000
  C  Sn34      1.0  0.34764  0.76517  0.68399  1.0000
  C  Sn35      1.0  0.35930  0.80428  0.62230  1.0000
  C   C120      1.0  0.40911  0.83441  0.68691  1.0000
  C  Sn36      1.0  0.44754  0.82628  0.81187  1.0000
  O  Te33      1.0  0.47368  0.77834  0.99841  1.0000
  O  Te34      1.0  0.29810  0.73453  0.62136  1.0000
  O  Te35      1.0  0.32146  0.81309  0.49736  1.0000
  O  Te36      1.0  0.49706  0.85689  0.87447  1.0000
  Mg  Mg17      1.0  0.25975  0.76132  0.45189  1.0000
  Mg  Mg18      1.0  0.37546  0.78204  0.04386  1.0000
