data_image0
_chemical_formula_structural       H72C84N36O12SnCSn2CSnTe4Mg2SnCSn2CSnTe4Mg2SnCSn2CSnTe4Mg2SnCSn2CSnTe4Mg2SnCSn2CSnTe4Mg2SnCSn2CSnTe4Mg2SnCSn2CSnTe4Mg2SnCSn2CSnTe4Mg2SnCSn2CSnTe4Mg2SnCSn2CSnTe4Mg2SnCSn2CSnTe4Mg2SnCSn2CSnTe4Mg2
_chemical_formula_sum              "H72 C108 N36 O12 Sn48 Te48 Mg24"
_cell_length_a       37.2942
_cell_length_b       36.7645
_cell_length_c       8.13676
_cell_angle_alpha    99.8347
_cell_angle_beta     66.3799
_cell_angle_gamma    120.415

_symmetry_space_group_name_H-M    'P1'
_space_group_IT_number       1

loop_
  _space_group_symop_operation_xyz
  'x, y, z'

loop_
  _atom_site_type_symbol
  _atom_site_label
  _atom_site_symmetry_multiplicity
  _atom_site_fract_x
  _atom_site_fract_y
  _atom_site_fract_z
  _atom_site_occupancy
  H   H1        1.0  0.49656  0.42926  0.29011  1.0000
  H   H2        1.0  0.57349  0.06357  0.31131  1.0000
  H   H3        1.0  0.94426  0.50895  0.40114  1.0000
  H   H4        1.0  0.52520  0.57479  0.25441  1.0000
  H   H5        1.0  0.43993  0.95018  0.19786  1.0000
  H   H6        1.0  0.07909  0.49186  0.14650  1.0000
  H   H7        1.0  0.57944  0.60883  0.41899  1.0000
  H   H8        1.0  0.38579  0.98083  0.40059  1.0000
  H   H9        1.0  0.02078  0.40364  0.27760  1.0000
  H   H10       1.0  0.43508  0.38231  0.23507  1.0000
  H   H11       1.0  0.62635  0.03878  0.22299  1.0000
  H   H12       1.0  0.98412  0.58664  0.33913  1.0000
  H   H13       1.0  0.63699  0.62099  0.31810  1.0000
  H   H14       1.0  0.38871  0.02601  0.32719  1.0000
  H   H15       1.0  0.99789  0.36833  0.12023  1.0000
  H   H16       1.0  0.37976  0.37441  0.36843  1.0000
  H   H17       1.0  0.61675  0.99828  0.35740  1.0000
  H   H18       1.0  0.99934  0.61890  0.51750  1.0000
  H   H19       1.0  0.55252  0.60717  0.96273  1.0000
  H   H20       1.0  0.36241  0.95714  0.93459  1.0000
  H   H21       1.0  0.01059  0.40999  0.78842  1.0000
  H   H22       1.0  0.39320  0.40128  0.00860  1.0000
  H   H23       1.0  0.57891  0.02141  0.93538  1.0000
  H   H24       1.0  0.93203  0.56174  0.09998  1.0000
  H   H25       1.0  0.48123  0.56242  0.08361  1.0000
  H   H26       1.0  0.42538  0.89713  0.26223  1.0000
  H   H27       1.0  0.13804  0.55467  0.07380  1.0000
  H   H28       1.0  0.56013  0.42978  0.11887  1.0000
  H   H29       1.0  0.57603  0.11752  0.03825  1.0000
  H   H30       1.0  0.91805  0.47679  0.16187  1.0000
  H   H31       1.0  0.41961  0.51923  0.43648  1.0000
  H   H32       1.0  0.50294  0.91562  0.34247  1.0000
  H   H33       1.0  0.09316  0.57527  0.43933  1.0000
  H   H34       1.0  0.59091  0.49698  0.36606  1.0000
  H   H35       1.0  0.52353  0.10216  0.42673  1.0000
  H   H36       1.0  0.90773  0.41417  0.38307  1.0000
  H   H37       1.0  0.47777  0.42483  0.77153  1.0000
  H   H38       1.0  0.55718  0.05294  0.80400  1.0000
  H   H39       1.0  0.92181  0.50725  0.90566  1.0000
  H   H40       1.0  0.50469  0.57137  0.79422  1.0000
  H   H41       1.0  0.41440  0.93683  0.77353  1.0000
  H   H42       1.0  0.05021  0.48108  0.69792  1.0000
  H   H43       1.0  0.58059  0.61654  0.72400  1.0000
  H   H44       1.0  0.38055  0.96329  0.69573  1.0000
  H   H45       1.0  0.03994  0.42094  0.54892  1.0000
  H   H46       1.0  0.40813  0.37532  0.80274  1.0000
  H   H47       1.0  0.61166  0.03025  0.69871  1.0000
  H   H48       1.0  0.95589  0.58131  0.87264  1.0000
  H   H49       1.0  0.61067  0.62187  0.86033  1.0000
  H   H50       1.0  0.35703  0.99440  0.84264  1.0000
  H   H51       1.0  0.99129  0.37064  0.63526  1.0000
  H   H52       1.0  0.35632  0.37643  0.88696  1.0000
  H   H53       1.0  0.60362  0.98860  0.81999  1.0000
  H   H54       1.0  0.97663  0.61498  0.03631  1.0000
  H   H55       1.0  0.59734  0.57699  0.47527  1.0000
  H   H56       1.0  0.41516  0.03233  0.47947  1.0000
  H   H57       1.0  0.96302  0.38301  0.31275  1.0000
  H   H58       1.0  0.42030  0.39311  0.47096  1.0000
  H   H59       1.0  0.59270  0.03214  0.45886  1.0000
  H   H60       1.0  0.95278  0.56637  0.56823  1.0000
  H   H61       1.0  0.46851  0.56541  0.60384  1.0000
  H   H62       1.0  0.42741  0.88812  0.61058  1.0000
  H   H63       1.0  0.10824  0.53686  0.59973  1.0000
  H   H64       1.0  0.54238  0.42995  0.60398  1.0000
  H   H65       1.0  0.56702  0.10312  0.63950  1.0000
  H   H66       1.0  0.89477  0.46904  0.66019  1.0000
  H   H67       1.0  0.40249  0.51499  0.94007  1.0000
  H   H68       1.0  0.46661  0.89772  0.87906  1.0000
  H   H69       1.0  0.07040  0.56637  0.95597  1.0000
  H   H70       1.0  0.56301  0.48374  0.90443  1.0000
  H   H71       1.0  0.48861  0.08684  0.97256  1.0000
  H   H72       1.0  0.87973  0.41357  0.93007  1.0000
  C   C1        1.0  0.30224  0.64678  0.28120  1.0000
  C   C2        1.0  0.36518  0.64704  0.25906  1.0000
  C   C3        1.0  0.36472  0.70915  0.27103  1.0000
  C   C4        1.0  0.71968  0.36065  0.29897  1.0000
  C   C5        1.0  0.65851  0.35986  0.29501  1.0000
  C   C6        1.0  0.65930  0.29817  0.29149  1.0000
  C   C7        1.0  0.60227  0.59542  0.36765  1.0000
  C   C8        1.0  0.40670  0.01483  0.36485  1.0000
  C   C9        1.0  0.99694  0.39382  0.21098  1.0000
  C   C10       1.0  0.41530  0.39392  0.34768  1.0000
  C   C11       1.0  0.60221  0.01576  0.33652  1.0000
  C   C12       1.0  0.98618  0.58668  0.47016  1.0000
  C   C13       1.0  0.43919  0.51871  0.29344  1.0000
  C   C14       1.0  0.48952  0.91823  0.24895  1.0000
  C   C15       1.0  0.09681  0.57018  0.29719  1.0000
  C   C16       1.0  0.58351  0.48661  0.24246  1.0000
  C   C17       1.0  0.52514  0.09422  0.28795  1.0000
  C   C18       1.0  0.92560  0.43377  0.25804  1.0000
  C   C19       1.0  0.47582  0.50928  0.28085  1.0000
  C   C20       1.0  0.49764  0.96336  0.25319  1.0000
  C   C21       1.0  0.05276  0.53345  0.28853  1.0000
  C   C22       1.0  0.54580  0.49480  0.25792  1.0000
  C   C23       1.0  0.51392  0.04795  0.27092  1.0000
  C   C24       1.0  0.97112  0.46795  0.26121  1.0000
  C   C25       1.0  0.40544  0.48626  0.22129  1.0000
  C   C26       1.0  0.51555  0.90858  0.07332  1.0000
  C   C27       1.0  0.10496  0.61003  0.23227  1.0000
  C   C28       1.0  0.62575  0.51220  0.09436  1.0000
  C   C29       1.0  0.49303  0.10405  0.27055  1.0000
  C   C30       1.0  0.92567  0.40286  0.11595  1.0000
  C   C31       1.0  0.46823  0.46782  0.29088  1.0000
  C   C32       1.0  0.53587  0.99642  0.28383  1.0000
  C   C33       1.0  0.01363  0.53725  0.36478  1.0000
  C   C34       1.0  0.55320  0.53597  0.25036  1.0000
  C   C35       1.0  0.47627  0.01524  0.23930  1.0000
  C   C36       1.0  0.00964  0.46351  0.19084  1.0000
  C   C37       1.0  0.50290  0.46116  0.27999  1.0000
  C   C38       1.0  0.54358  0.03794  0.29234  1.0000
  C   C39       1.0  0.97388  0.50522  0.34775  1.0000
  C   C40       1.0  0.51838  0.54258  0.26320  1.0000
  C   C41       1.0  0.46897  0.97371  0.22932  1.0000
  C   C42       1.0  0.04981  0.49622  0.20436  1.0000
  C   C43       1.0  0.28148  0.63700  0.75844  1.0000
  C   C44       1.0  0.34356  0.63944  0.75954  1.0000
  C   C45       1.0  0.34080  0.70034  0.77036  1.0000
  C   C46       1.0  0.69663  0.35363  0.78552  1.0000
  C   C47       1.0  0.63531  0.35142  0.77609  1.0000
  C   C48       1.0  0.63545  0.29038  0.79307  1.0000
  C   C49       1.0  0.57842  0.60409  0.84325  1.0000
  C   C50       1.0  0.37772  0.97981  0.82270  1.0000
  C   C51       1.0  0.00706  0.40455  0.65738  1.0000
  C   C52       1.0  0.39143  0.39409  0.87442  1.0000
  C   C53       1.0  0.58811  0.00615  0.80883  1.0000
  C   C54       1.0  0.96310  0.58248  0.99225  1.0000
  C   C55       1.0  0.42228  0.51627  0.79503  1.0000
  C   C56       1.0  0.46966  0.90745  0.75077  1.0000
  C   C57       1.0  0.07346  0.56102  0.81418  1.0000
  C   C58       1.0  0.56086  0.48015  0.77045  1.0000
  C   C59       1.0  0.50290  0.08286  0.82673  1.0000
  C   C60       1.0  0.89861  0.42875  0.79382  1.0000
  C   C61       1.0  0.45849  0.50630  0.78005  1.0000
  C   C62       1.0  0.47889  0.95321  0.76321  1.0000
  C   C63       1.0  0.02805  0.52646  0.80957  1.0000
  C   C64       1.0  0.52457  0.48967  0.78137  1.0000
  C   C65       1.0  0.49389  0.03727  0.79987  1.0000
  C   C66       1.0  0.94523  0.46295  0.78657  1.0000
  C   C67       1.0  0.38928  0.48491  0.71663  1.0000
  C   C68       1.0  0.50732  0.90289  0.61046  1.0000
  C   C69       1.0  0.08607  0.60160  0.73805  1.0000
  C   C70       1.0  0.60517  0.51106  0.64639  1.0000
  C   C71       1.0  0.48071  0.09452  0.74672  1.0000
  C   C72       1.0  0.89743  0.39414  0.66955  1.0000
  C   C73       1.0  0.45064  0.46470  0.77772  1.0000
  C   C74       1.0  0.51922  0.98623  0.77535  1.0000
  C   C75       1.0  0.99100  0.53348  0.87299  1.0000
  C   C76       1.0  0.53133  0.53126  0.79723  1.0000
  C   C77       1.0  0.45285  0.00396  0.79550  1.0000
  C   C78       1.0  0.98202  0.45580  0.72642  1.0000
  C   C79       1.0  0.48398  0.45708  0.77498  1.0000
  C   C80       1.0  0.52635  0.02763  0.79163  1.0000
  C   C81       1.0  0.95051  0.50212  0.85875  1.0000
  C   C82       1.0  0.49914  0.53926  0.78948  1.0000
  C   C83       1.0  0.44619  0.96267  0.77465  1.0000
  C   C84       1.0  0.02257  0.48753  0.73970  1.0000
  N   N1        1.0  0.32207  0.62401  0.27379  1.0000
  N   N2        1.0  0.38853  0.68965  0.25216  1.0000
  N   N3        1.0  0.32155  0.68908  0.28666  1.0000
  N   N4        1.0  0.70012  0.38290  0.29762  1.0000
  N   N5        1.0  0.63597  0.31722  0.29891  1.0000
  N   N6        1.0  0.70117  0.31811  0.29110  1.0000
  N   N7        1.0  0.45956  0.56036  0.21212  1.0000
  N   N8        1.0  0.44140  0.88795  0.30798  1.0000
  N   N9        1.0  0.13303  0.56042  0.20651  1.0000
  N   N10       1.0  0.56937  0.44158  0.22745  1.0000
  N   N11       1.0  0.57105  0.12191  0.17144  1.0000
  N   N12       1.0  0.89984  0.45344  0.25989  1.0000
  N   N13       1.0  0.37726  0.46482  0.16479  1.0000
  N   N14       1.0  0.53549  0.89866  0.93952  1.0000
  N   N15       1.0  0.11204  0.64135  0.17822  1.0000
  N   N16       1.0  0.65957  0.52959  0.97447  1.0000
  N   N17       1.0  0.47161  0.11670  0.25318  1.0000
  N   N18       1.0  0.91814  0.37509  0.01842  1.0000
  N   N19       1.0  0.30226  0.61532  0.75290  1.0000
  N   N20       1.0  0.36436  0.68178  0.76697  1.0000
  N   N21       1.0  0.29903  0.67920  0.76871  1.0000
  N   N22       1.0  0.67728  0.37516  0.77406  1.0000
  N   N23       1.0  0.61232  0.30885  0.79017  1.0000
  N   N24       1.0  0.67749  0.31106  0.79086  1.0000
  N   N25       1.0  0.44269  0.55902  0.72450  1.0000
  N   N26       1.0  0.42790  0.87969  0.72326  1.0000
  N   N27       1.0  0.10740  0.54802  0.72410  1.0000
  N   N28       1.0  0.54917  0.43691  0.71869  1.0000
  N   N29       1.0  0.55132  0.11131  0.76231  1.0000
  N   N30       1.0  0.87513  0.44796  0.76721  1.0000
  N   N31       1.0  0.36168  0.46432  0.65626  1.0000
  N   N32       1.0  0.53396  0.89674  0.49090  1.0000
  N   N33       1.0  0.09877  0.63364  0.67045  1.0000
  N   N34       1.0  0.63967  0.53319  0.53917  1.0000
  N   N35       1.0  0.46582  0.10813  0.68789  1.0000
  N   N36       1.0  0.89073  0.36658  0.57070  1.0000
  O   O1        1.0  0.42638  0.43578  0.30896  1.0000
  O   O2        1.0  0.56347  0.98431  0.29953  1.0000
  O   O3        1.0  0.01762  0.57344  0.45363  1.0000
  O   O4        1.0  0.59582  0.56986  0.21627  1.0000
  O   O5        1.0  0.44672  0.02288  0.20884  1.0000
  O   O6        1.0  0.00990  0.42830  0.09836  1.0000
  O   O7        1.0  0.41032  0.43254  0.77490  1.0000
  O   O8        1.0  0.54910  0.97493  0.77321  1.0000
  O   O9        1.0  0.99728  0.57130  0.95170  1.0000
  O   O10       1.0  0.56975  0.56123  0.82349  1.0000
  O   O11       1.0  0.42039  0.01389  0.81753  1.0000
  O   O12       1.0  0.97675  0.41775  0.65724  1.0000
  C  Sn1       1.0  0.45786  0.63048  0.15732  1.0000
  C   C85       1.0  0.44059  0.59200  0.24261  1.0000
  C  Sn2       1.0  0.39439  0.56622  0.32367  1.0000
  C  Sn3       1.0  0.36483  0.57916  0.31931  1.0000
  C   C86       1.0  0.38209  0.61762  0.23404  1.0000
  C  Sn4       1.0  0.42829  0.64342  0.15297  1.0000
  O  Te1       1.0  0.50416  0.65575  0.07716  1.0000
  O  Te2       1.0  0.37793  0.52789  0.40817  1.0000
  O  Te3       1.0  0.31850  0.55385  0.39958  1.0000
  O  Te4       1.0  0.44476  0.68173  0.06848  1.0000
  Mg  Mg1       1.0  0.31225  0.50443  0.49814  1.0000
  Mg  Mg2       1.0  0.41825  0.69566  0.97839  1.0000
  C  Sn5       1.0  0.37188  0.80974  0.31113  1.0000
  C   C87       1.0  0.41273  0.83840  0.32913  1.0000
  C  Sn6       1.0  0.44410  0.82575  0.30365  1.0000
  C  Sn7       1.0  0.43446  0.78359  0.25914  1.0000
  C   C88       1.0  0.39364  0.75496  0.24114  1.0000
  C  Sn8       1.0  0.36224  0.76757  0.26662  1.0000
  O  Te5       1.0  0.34102  0.82307  0.33720  1.0000
  O  Te6       1.0  0.48470  0.85497  0.32243  1.0000
  O  Te7       1.0  0.46537  0.77028  0.23308  1.0000
  O  Te8       1.0  0.32167  0.73838  0.24784  1.0000
  Mg  Mg3       1.0  0.51598  0.82172  0.27349  1.0000
  Mg  Mg4       1.0  0.29038  0.77161  0.29665  1.0000
  C  Sn9       1.0  0.24211  0.58707  0.12643  1.0000
  C   C89       1.0  0.25886  0.62284  0.22354  1.0000
  C  Sn10      1.0  0.23063  0.63783  0.34429  1.0000
  C  Sn11      1.0  0.18468  0.61661  0.36859  1.0000
  C   C90       1.0  0.16795  0.58085  0.27154  1.0000
  C  Sn12      1.0  0.19616  0.56584  0.15073  1.0000
  O  Te9       1.0  0.27094  0.57264  0.00644  1.0000
  O  Te10      1.0  0.24816  0.67366  0.43980  1.0000
  O  Te11      1.0  0.15585  0.63107  0.48869  1.0000
  O  Te12      1.0  0.17865  0.53003  0.05528  1.0000
  Mg  Mg5       1.0  0.19551  0.68114  0.58777  1.0000
  Mg  Mg6       1.0  0.13909  0.51298  0.90736  1.0000
  C  Sn13      1.0  0.57191  0.37081  0.26609  1.0000
  C   C91       1.0  0.58420  0.41361  0.28524  1.0000
  C  Sn14      1.0  0.62650  0.44299  0.28814  1.0000
  C  Sn15      1.0  0.65715  0.42933  0.27143  1.0000
  C   C92       1.0  0.64485  0.38656  0.25226  1.0000
  C  Sn16      1.0  0.60256  0.35714  0.24938  1.0000
  O  Te13      1.0  0.52945  0.34198  0.26353  1.0000
  O  Te14      1.0  0.63802  0.48561  0.30749  1.0000
  O  Te15      1.0  0.69963  0.45820  0.27400  1.0000
  O  Te16      1.0  0.59104  0.31456  0.23001  1.0000
  Mg  Mg7       1.0  0.69977  0.51283  0.30321  1.0000
  Mg  Mg8       1.0  0.52931  0.28731  0.23418  1.0000
  C  Sn17      1.0  0.56850  0.19412  0.34025  1.0000
  C   C93       1.0  0.58499  0.17051  0.21058  1.0000
  C  Sn18      1.0  0.63098  0.18702  0.11561  1.0000
  C  Sn19      1.0  0.66112  0.22797  0.15107  1.0000
  C   C94       1.0  0.64462  0.25156  0.28069  1.0000
  C  Sn20      1.0  0.59863  0.23507  0.37571  1.0000
  O  Te17      1.0  0.52239  0.17698  0.43358  1.0000
  O  Te18      1.0  0.55450  0.15328  0.98656  1.0000
  O  Te19      1.0  0.70725  0.24510  0.05760  1.0000
  O  Te20      1.0  0.58294  0.25925  0.50471  1.0000
  Mg  Mg9       1.0  0.62020  0.19038  0.89476  1.0000
  Mg  Mg10      1.0  0.51725  0.22217  0.59665  1.0000
  C  Sn21      1.0  0.80567  0.43100  0.18640  1.0000
  C   C95       1.0  0.77398  0.38918  0.24637  1.0000
  C  Sn22      1.0  0.78133  0.36714  0.34212  1.0000
  C  Sn23      1.0  0.82118  0.38732  0.37880  1.0000
  C   C96       1.0  0.85284  0.42911  0.31887  1.0000
  C  Sn24      1.0  0.84552  0.45118  0.22308  1.0000
  O  Te21      1.0  0.79762  0.45244  0.09092  1.0000
  O  Te22      1.0  0.74917  0.32535  0.40064  1.0000
  O  Te23      1.0  0.82922  0.36584  0.47436  1.0000
  O  Te24      1.0  0.87765  0.49295  0.16461  1.0000
  Mg  Mg11      1.0  0.77538  0.30939  0.52579  1.0000
  Mg  Mg12      1.0  0.85146  0.50894  0.03952  1.0000
  C  Sn25      1.0  0.35075  0.57789  0.89009  1.0000
  C   C97       1.0  0.36669  0.61596  0.80477  1.0000
  C  Sn26      1.0  0.40929  0.63498  0.67054  1.0000
  C  Sn27      1.0  0.43651  0.61553  0.62044  1.0000
  C   C98       1.0  0.42056  0.57748  0.70571  1.0000
  C  Sn28      1.0  0.37796  0.55844  0.83999  1.0000
  O  Te25      1.0  0.40023  0.56897  0.02393  1.0000
  O  Te26      1.0  0.42451  0.67305  0.58722  1.0000
  O  Te27      1.0  0.47923  0.63402  0.48649  1.0000
  O  Te28      1.0  0.36274  0.52039  0.92327  1.0000
  Mg  Mg13      1.0  0.48504  0.68590  0.41238  1.0000
  Mg  Mg14      1.0  0.39438  0.51703  0.09805  1.0000
  C  Sn29      1.0  0.42890  0.80511  0.74716  1.0000
  C   C99       1.0  0.41581  0.83133  0.71002  1.0000
  C  Sn30      1.0  0.37208  0.81517  0.71964  1.0000
  C  Sn31      1.0  0.34077  0.77191  0.76748  1.0000
  C   C100      1.0  0.35386  0.74572  0.80462  1.0000
  C  Sn32      1.0  0.39759  0.76185  0.79501  1.0000
  O  Te29      1.0  0.47279  0.82194  0.73673  1.0000
  O  Te30      1.0  0.35979  0.84200  0.68186  1.0000
  O  Te31      1.0  0.29686  0.75509  0.77789  1.0000
  O  Te32      1.0  0.40989  0.73505  0.83279  1.0000
  Mg  Mg15      1.0  0.29612  0.80426  0.71430  1.0000
  Mg  Mg16      1.0  0.47354  0.77276  0.80048  1.0000
  C  Sn33      1.0  0.19256  0.62192  0.87804  1.0000
  C   C101      1.0  0.22597  0.61022  0.80579  1.0000
  C  Sn34      1.0  0.22345  0.57944  0.67717  1.0000
  C  Sn35      1.0  0.18678  0.55996  0.61945  1.0000
  C   C102      1.0  0.15340  0.57167  0.69166  1.0000
  C  Sn36      1.0  0.15589  0.60245  0.82032  1.0000
  O  Te33      1.0  0.28794  0.66230  0.00646  1.0000
  O  Te34      1.0  0.25725  0.56825  0.60693  1.0000
  O  Te35      1.0  0.18360  0.52909  0.49092  1.0000
  O  Te36      1.0  0.12212  0.61364  0.89051  1.0000
  Mg  Mg17      1.0  0.23795  0.52460  0.43504  1.0000
  Mg  Mg18      1.0  0.23357  0.66683  0.06233  1.0000
  C  Sn37      1.0  0.62366  0.43910  0.73849  1.0000
  C   C103      1.0  0.58616  0.42327  0.69274  1.0000
  C  Sn38      1.0  0.55772  0.37980  0.69837  1.0000
  C  Sn39      1.0  0.56695  0.35154  0.75092  1.0000
  C   C104      1.0  0.60443  0.36737  0.79666  1.0000
  C  Sn40      1.0  0.63289  0.41084  0.79104  1.0000
  O  Te37      1.0  0.65163  0.48268  0.73191  1.0000
  O  Te38      1.0  0.52043  0.36472  0.65198  1.0000
  O  Te39      1.0  0.53894  0.30793  0.75746  1.0000
  O  Te40      1.0  0.67015  0.42592  0.83743  1.0000
  Mg  Mg19      1.0  0.49230  0.30272  0.68200  1.0000
  Mg  Mg20      1.0  0.69830  0.48791  0.80754  1.0000
  C  Sn41      1.0  0.63345  0.21573  0.63740  1.0000
  C   C105      1.0  0.61515  0.24089  0.74238  1.0000
  C  Sn42      1.0  0.57334  0.22268  0.88179  1.0000
  C  Sn43      1.0  0.54933  0.17840  0.91709  1.0000
  C   C106      1.0  0.56764  0.15328  0.81217  1.0000
  C  Sn44      1.0  0.60945  0.17146  0.67270  1.0000
  O  Te41      1.0  0.67530  0.23462  0.49873  1.0000
  O  Te42      1.0  0.55572  0.24847  0.98487  1.0000
  O  Te43      1.0  0.59963  0.16907  0.05590  1.0000
  O  Te44      1.0  0.62707  0.14569  0.56968  1.0000
  Mg  Mg21      1.0  0.58969  0.21748  0.15894  1.0000
  Mg  Mg22      1.0  0.68527  0.18618  0.39565  1.0000
  C  Sn45      1.0  0.78307  0.42342  0.66958  1.0000
  C   C107      1.0  0.75035  0.38252  0.73973  1.0000
  C  Sn46      1.0  0.75620  0.36218  0.84939  1.0000
  C  Sn47      1.0  0.79555  0.38317  0.88988  1.0000
  C   C108      1.0  0.82823  0.42405  0.81978  1.0000
  C  Sn48      1.0  0.82242  0.44441  0.71007  1.0000
  O  Te45      1.0  0.77652  0.44314  0.56026  1.0000
  O  Te46      1.0  0.72303  0.32128  0.91789  1.0000
  O  Te47      1.0  0.80207  0.36341  0.99929  1.0000
  O  Te48      1.0  0.85555  0.48528  0.64161  1.0000
  Mg  Mg23      1.0  0.83948  0.31717  0.06054  1.0000
  Mg  Mg24      1.0  0.83130  0.49897  0.49903  1.0000
