data_image0
_chemical_formula_structural       H72C84N36O12C2Sn2C2HTe2HMgC2Sn2C2HTe2HMgC2Sn2C2HTe2HMgC2Sn2C2HTe2HMgC2Sn2C2HTe2HMgC2Sn2C2HTe2HMgC2Sn2C2HTe2HMgC2Sn2C2HTe2HMgC2Sn2C2HTe2HMgC2Sn2C2HTe2HMgC2Sn2C2HTe2HMgC2Sn2C2HTe2HMg
_chemical_formula_sum              "H96 C132 N36 O12 Sn24 Te24 Mg12"
_cell_length_a       37.2942
_cell_length_b       36.7645
_cell_length_c       8.13676
_cell_angle_alpha    99.8347
_cell_angle_beta     66.3799
_cell_angle_gamma    120.415

_symmetry_space_group_name_H-M    'P1'
_space_group_IT_number       1

loop_
  _space_group_symop_operation_xyz
  'x, y, z'

loop_
  _atom_site_type_symbol
  _atom_site_label
  _atom_site_symmetry_multiplicity
  _atom_site_fract_x
  _atom_site_fract_y
  _atom_site_fract_z
  _atom_site_occupancy
  H   H1        1.0  0.49656  0.42926  0.29011  1.0000
  H   H2        1.0  0.57349  0.06357  0.31131  1.0000
  H   H3        1.0  0.94426  0.50895  0.40114  1.0000
  H   H4        1.0  0.52520  0.57479  0.25441  1.0000
  H   H5        1.0  0.43993  0.95018  0.19786  1.0000
  H   H6        1.0  0.07909  0.49186  0.14650  1.0000
  H   H7        1.0  0.57944  0.60883  0.41899  1.0000
  H   H8        1.0  0.38579  0.98083  0.40059  1.0000
  H   H9        1.0  0.02078  0.40364  0.27760  1.0000
  H   H10       1.0  0.43508  0.38231  0.23507  1.0000
  H   H11       1.0  0.62635  0.03878  0.22299  1.0000
  H   H12       1.0  0.98412  0.58664  0.33913  1.0000
  H   H13       1.0  0.63699  0.62099  0.31810  1.0000
  H   H14       1.0  0.38871  0.02601  0.32719  1.0000
  H   H15       1.0  0.99789  0.36833  0.12023  1.0000
  H   H16       1.0  0.37976  0.37441  0.36843  1.0000
  H   H17       1.0  0.61675  0.99828  0.35740  1.0000
  H   H18       1.0  0.99934  0.61890  0.51750  1.0000
  H   H19       1.0  0.55252  0.60717  0.96273  1.0000
  H   H20       1.0  0.36241  0.95714  0.93459  1.0000
  H   H21       1.0  0.01059  0.40999  0.78842  1.0000
  H   H22       1.0  0.39320  0.40128  0.00860  1.0000
  H   H23       1.0  0.57891  0.02141  0.93538  1.0000
  H   H24       1.0  0.93203  0.56174  0.09998  1.0000
  H   H25       1.0  0.48123  0.56242  0.08361  1.0000
  H   H26       1.0  0.42538  0.89713  0.26223  1.0000
  H   H27       1.0  0.13804  0.55467  0.07380  1.0000
  H   H28       1.0  0.56013  0.42978  0.11887  1.0000
  H   H29       1.0  0.57603  0.11752  0.03825  1.0000
  H   H30       1.0  0.91805  0.47679  0.16187  1.0000
  H   H31       1.0  0.41961  0.51923  0.43648  1.0000
  H   H32       1.0  0.50294  0.91562  0.34247  1.0000
  H   H33       1.0  0.09316  0.57527  0.43933  1.0000
  H   H34       1.0  0.59091  0.49698  0.36606  1.0000
  H   H35       1.0  0.52353  0.10216  0.42673  1.0000
  H   H36       1.0  0.90773  0.41417  0.38307  1.0000
  H   H37       1.0  0.47777  0.42483  0.77153  1.0000
  H   H38       1.0  0.55718  0.05294  0.80400  1.0000
  H   H39       1.0  0.92181  0.50725  0.90566  1.0000
  H   H40       1.0  0.50469  0.57137  0.79422  1.0000
  H   H41       1.0  0.41440  0.93683  0.77353  1.0000
  H   H42       1.0  0.05021  0.48108  0.69792  1.0000
  H   H43       1.0  0.58059  0.61654  0.72400  1.0000
  H   H44       1.0  0.38055  0.96329  0.69573  1.0000
  H   H45       1.0  0.03994  0.42094  0.54892  1.0000
  H   H46       1.0  0.40813  0.37532  0.80274  1.0000
  H   H47       1.0  0.61166  0.03025  0.69871  1.0000
  H   H48       1.0  0.95589  0.58131  0.87264  1.0000
  H   H49       1.0  0.61067  0.62187  0.86033  1.0000
  H   H50       1.0  0.35703  0.99440  0.84264  1.0000
  H   H51       1.0  0.99129  0.37064  0.63526  1.0000
  H   H52       1.0  0.35632  0.37643  0.88696  1.0000
  H   H53       1.0  0.60362  0.98860  0.81999  1.0000
  H   H54       1.0  0.97663  0.61498  0.03631  1.0000
  H   H55       1.0  0.59734  0.57699  0.47527  1.0000
  H   H56       1.0  0.41516  0.03233  0.47947  1.0000
  H   H57       1.0  0.96302  0.38301  0.31275  1.0000
  H   H58       1.0  0.42030  0.39311  0.47096  1.0000
  H   H59       1.0  0.59270  0.03214  0.45886  1.0000
  H   H60       1.0  0.95278  0.56637  0.56823  1.0000
  H   H61       1.0  0.46851  0.56541  0.60384  1.0000
  H   H62       1.0  0.42741  0.88812  0.61058  1.0000
  H   H63       1.0  0.10824  0.53686  0.59973  1.0000
  H   H64       1.0  0.54238  0.42995  0.60398  1.0000
  H   H65       1.0  0.56702  0.10312  0.63950  1.0000
  H   H66       1.0  0.89477  0.46904  0.66019  1.0000
  H   H67       1.0  0.40249  0.51499  0.94007  1.0000
  H   H68       1.0  0.46661  0.89772  0.87906  1.0000
  H   H69       1.0  0.07040  0.56637  0.95597  1.0000
  H   H70       1.0  0.56301  0.48374  0.90443  1.0000
  H   H71       1.0  0.48861  0.08684  0.97256  1.0000
  H   H72       1.0  0.87973  0.41357  0.93007  1.0000
  C   C1        1.0  0.30224  0.64678  0.28120  1.0000
  C   C2        1.0  0.36518  0.64704  0.25906  1.0000
  C   C3        1.0  0.36472  0.70915  0.27103  1.0000
  C   C4        1.0  0.71968  0.36065  0.29897  1.0000
  C   C5        1.0  0.65851  0.35986  0.29501  1.0000
  C   C6        1.0  0.65930  0.29817  0.29149  1.0000
  C   C7        1.0  0.60227  0.59542  0.36765  1.0000
  C   C8        1.0  0.40670  0.01483  0.36485  1.0000
  C   C9        1.0  0.99694  0.39382  0.21098  1.0000
  C   C10       1.0  0.41530  0.39392  0.34768  1.0000
  C   C11       1.0  0.60221  0.01576  0.33652  1.0000
  C   C12       1.0  0.98618  0.58668  0.47016  1.0000
  C   C13       1.0  0.43919  0.51871  0.29344  1.0000
  C   C14       1.0  0.48952  0.91823  0.24895  1.0000
  C   C15       1.0  0.09681  0.57018  0.29719  1.0000
  C   C16       1.0  0.58351  0.48661  0.24246  1.0000
  C   C17       1.0  0.52514  0.09422  0.28795  1.0000
  C   C18       1.0  0.92560  0.43377  0.25804  1.0000
  C   C19       1.0  0.47582  0.50928  0.28085  1.0000
  C   C20       1.0  0.49764  0.96336  0.25319  1.0000
  C   C21       1.0  0.05276  0.53345  0.28853  1.0000
  C   C22       1.0  0.54580  0.49480  0.25792  1.0000
  C   C23       1.0  0.51392  0.04795  0.27092  1.0000
  C   C24       1.0  0.97112  0.46795  0.26121  1.0000
  C   C25       1.0  0.40544  0.48626  0.22129  1.0000
  C   C26       1.0  0.51555  0.90858  0.07332  1.0000
  C   C27       1.0  0.10496  0.61003  0.23227  1.0000
  C   C28       1.0  0.62575  0.51220  0.09436  1.0000
  C   C29       1.0  0.49303  0.10405  0.27055  1.0000
  C   C30       1.0  0.92567  0.40286  0.11595  1.0000
  C   C31       1.0  0.46823  0.46782  0.29088  1.0000
  C   C32       1.0  0.53587  0.99642  0.28383  1.0000
  C   C33       1.0  0.01363  0.53725  0.36478  1.0000
  C   C34       1.0  0.55320  0.53597  0.25036  1.0000
  C   C35       1.0  0.47627  0.01524  0.23930  1.0000
  C   C36       1.0  0.00964  0.46351  0.19084  1.0000
  C   C37       1.0  0.50290  0.46116  0.27999  1.0000
  C   C38       1.0  0.54358  0.03794  0.29234  1.0000
  C   C39       1.0  0.97388  0.50522  0.34775  1.0000
  C   C40       1.0  0.51838  0.54258  0.26320  1.0000
  C   C41       1.0  0.46897  0.97371  0.22932  1.0000
  C   C42       1.0  0.04981  0.49622  0.20436  1.0000
  C   C43       1.0  0.28148  0.63700  0.75844  1.0000
  C   C44       1.0  0.34356  0.63944  0.75954  1.0000
  C   C45       1.0  0.34080  0.70034  0.77036  1.0000
  C   C46       1.0  0.69663  0.35363  0.78552  1.0000
  C   C47       1.0  0.63531  0.35142  0.77609  1.0000
  C   C48       1.0  0.63545  0.29038  0.79307  1.0000
  C   C49       1.0  0.57842  0.60409  0.84325  1.0000
  C   C50       1.0  0.37772  0.97981  0.82270  1.0000
  C   C51       1.0  0.00706  0.40455  0.65738  1.0000
  C   C52       1.0  0.39143  0.39409  0.87442  1.0000
  C   C53       1.0  0.58811  0.00615  0.80883  1.0000
  C   C54       1.0  0.96310  0.58248  0.99225  1.0000
  C   C55       1.0  0.42228  0.51627  0.79503  1.0000
  C   C56       1.0  0.46966  0.90745  0.75077  1.0000
  C   C57       1.0  0.07346  0.56102  0.81418  1.0000
  C   C58       1.0  0.56086  0.48015  0.77045  1.0000
  C   C59       1.0  0.50290  0.08286  0.82673  1.0000
  C   C60       1.0  0.89861  0.42875  0.79382  1.0000
  C   C61       1.0  0.45849  0.50630  0.78005  1.0000
  C   C62       1.0  0.47889  0.95321  0.76321  1.0000
  C   C63       1.0  0.02805  0.52646  0.80957  1.0000
  C   C64       1.0  0.52457  0.48967  0.78137  1.0000
  C   C65       1.0  0.49389  0.03727  0.79987  1.0000
  C   C66       1.0  0.94523  0.46295  0.78657  1.0000
  C   C67       1.0  0.38928  0.48491  0.71663  1.0000
  C   C68       1.0  0.50732  0.90289  0.61046  1.0000
  C   C69       1.0  0.08607  0.60160  0.73805  1.0000
  C   C70       1.0  0.60517  0.51106  0.64639  1.0000
  C   C71       1.0  0.48071  0.09452  0.74672  1.0000
  C   C72       1.0  0.89743  0.39414  0.66955  1.0000
  C   C73       1.0  0.45064  0.46470  0.77772  1.0000
  C   C74       1.0  0.51922  0.98623  0.77535  1.0000
  C   C75       1.0  0.99100  0.53348  0.87299  1.0000
  C   C76       1.0  0.53133  0.53126  0.79723  1.0000
  C   C77       1.0  0.45285  0.00396  0.79550  1.0000
  C   C78       1.0  0.98202  0.45580  0.72642  1.0000
  C   C79       1.0  0.48398  0.45708  0.77498  1.0000
  C   C80       1.0  0.52635  0.02763  0.79163  1.0000
  C   C81       1.0  0.95051  0.50212  0.85875  1.0000
  C   C82       1.0  0.49914  0.53926  0.78948  1.0000
  C   C83       1.0  0.44619  0.96267  0.77465  1.0000
  C   C84       1.0  0.02257  0.48753  0.73970  1.0000
  N   N1        1.0  0.32207  0.62401  0.27379  1.0000
  N   N2        1.0  0.38853  0.68965  0.25216  1.0000
  N   N3        1.0  0.32155  0.68908  0.28666  1.0000
  N   N4        1.0  0.70012  0.38290  0.29762  1.0000
  N   N5        1.0  0.63597  0.31722  0.29891  1.0000
  N   N6        1.0  0.70117  0.31811  0.29110  1.0000
  N   N7        1.0  0.45956  0.56036  0.21212  1.0000
  N   N8        1.0  0.44140  0.88795  0.30798  1.0000
  N   N9        1.0  0.13303  0.56042  0.20651  1.0000
  N   N10       1.0  0.56937  0.44158  0.22745  1.0000
  N   N11       1.0  0.57105  0.12191  0.17144  1.0000
  N   N12       1.0  0.89984  0.45344  0.25989  1.0000
  N   N13       1.0  0.37726  0.46482  0.16479  1.0000
  N   N14       1.0  0.53549  0.89866  0.93952  1.0000
  N   N15       1.0  0.11204  0.64135  0.17822  1.0000
  N   N16       1.0  0.65957  0.52959  0.97447  1.0000
  N   N17       1.0  0.47161  0.11670  0.25318  1.0000
  N   N18       1.0  0.91814  0.37509  0.01842  1.0000
  N   N19       1.0  0.30226  0.61532  0.75290  1.0000
  N   N20       1.0  0.36436  0.68178  0.76697  1.0000
  N   N21       1.0  0.29903  0.67920  0.76871  1.0000
  N   N22       1.0  0.67728  0.37516  0.77406  1.0000
  N   N23       1.0  0.61232  0.30885  0.79017  1.0000
  N   N24       1.0  0.67749  0.31106  0.79086  1.0000
  N   N25       1.0  0.44269  0.55902  0.72450  1.0000
  N   N26       1.0  0.42790  0.87969  0.72326  1.0000
  N   N27       1.0  0.10740  0.54802  0.72410  1.0000
  N   N28       1.0  0.54917  0.43691  0.71869  1.0000
  N   N29       1.0  0.55132  0.11131  0.76231  1.0000
  N   N30       1.0  0.87513  0.44796  0.76721  1.0000
  N   N31       1.0  0.36168  0.46432  0.65626  1.0000
  N   N32       1.0  0.53396  0.89674  0.49090  1.0000
  N   N33       1.0  0.09877  0.63364  0.67045  1.0000
  N   N34       1.0  0.63967  0.53319  0.53917  1.0000
  N   N35       1.0  0.46582  0.10813  0.68789  1.0000
  N   N36       1.0  0.89073  0.36658  0.57070  1.0000
  O   O1        1.0  0.42638  0.43578  0.30896  1.0000
  O   O2        1.0  0.56347  0.98431  0.29953  1.0000
  O   O3        1.0  0.01762  0.57344  0.45363  1.0000
  O   O4        1.0  0.59582  0.56986  0.21627  1.0000
  O   O5        1.0  0.44672  0.02288  0.20884  1.0000
  O   O6        1.0  0.00990  0.42830  0.09836  1.0000
  O   O7        1.0  0.41032  0.43254  0.77490  1.0000
  O   O8        1.0  0.54910  0.97493  0.77321  1.0000
  O   O9        1.0  0.99728  0.57130  0.95170  1.0000
  O   O10       1.0  0.56975  0.56123  0.82349  1.0000
  O   O11       1.0  0.42039  0.01389  0.81753  1.0000
  O   O12       1.0  0.97675  0.41775  0.65724  1.0000
  C   C85       1.0  0.45606  0.62591  0.10448  1.0000
  C   C86       1.0  0.44096  0.58979  0.20186  1.0000
  C  Sn1       1.0  0.39682  0.56898  0.32341  1.0000
  C  Sn2       1.0  0.36733  0.58469  0.34760  1.0000
  C   C87       1.0  0.38275  0.62083  0.24945  1.0000
  C   C88       1.0  0.42699  0.64142  0.12821  1.0000
  H   H73       1.0  0.49028  0.64183  0.01060  1.0000
  O  Te1       1.0  0.38229  0.53294  0.41966  1.0000
  O  Te2       1.0  0.32304  0.56450  0.46816  1.0000
  H   H74       1.0  0.43866  0.66936  0.05275  1.0000
  Mg  Mg1       1.0  0.31894  0.51648  0.56826  1.0000
  C   C89       1.0  0.37624  0.80991  0.25065  1.0000
  C   C90       1.0  0.41458  0.83882  0.28686  1.0000
  C  Sn3       1.0  0.44108  0.82516  0.31034  1.0000
  C  Sn4       1.0  0.42889  0.78173  0.29720  1.0000
  C   C91       1.0  0.39049  0.75306  0.26080  1.0000
  C   C92       1.0  0.36420  0.76707  0.23759  1.0000
  H   H75       1.0  0.35592  0.82075  0.23259  1.0000
  O  Te3       1.0  0.47927  0.85446  0.34651  1.0000
  O  Te4       1.0  0.45478  0.76722  0.32001  1.0000
  H   H76       1.0  0.33454  0.74468  0.20944  1.0000
  Mg  Mg2       1.0  0.50376  0.81932  0.36712  1.0000
  C   C93       1.0  0.21457  0.56701  0.14953  1.0000
  C   C94       1.0  0.18004  0.57722  0.21879  1.0000
  C  Sn5       1.0  0.18525  0.61346  0.31716  1.0000
  C  Sn6       1.0  0.22583  0.63991  0.34649  1.0000
  C   C95       1.0  0.26019  0.62944  0.27653  1.0000
  C   C96       1.0  0.25461  0.59309  0.17833  1.0000
  H   H77       1.0  0.21026  0.53889  0.07347  1.0000
  O  Te5       1.0  0.15041  0.62319  0.38546  1.0000
  O  Te6       1.0  0.23194  0.67634  0.44427  1.0000
  H   H78       1.0  0.28137  0.58520  0.12463  1.0000
  Mg  Mg3       1.0  0.17469  0.67622  0.51014  1.0000
  C   C97       1.0  0.65254  0.43560  0.30854  1.0000
  C   C98       1.0  0.63992  0.39268  0.29696  1.0000
  C  Sn7       1.0  0.60337  0.36442  0.24834  1.0000
  C  Sn8       1.0  0.57906  0.37951  0.21063  1.0000
  C   C99       1.0  0.59197  0.42251  0.22247  1.0000
  C   C100      1.0  0.62860  0.45051  0.27130  1.0000
  H   H79       1.0  0.68089  0.45726  0.34622  1.0000
  O  Te7       1.0  0.59120  0.32164  0.23748  1.0000
  O  Te8       1.0  0.54241  0.35197  0.16166  1.0000
  H   H80       1.0  0.63838  0.48374  0.28014  1.0000
  Mg  Mg4       1.0  0.53880  0.29648  0.16531  1.0000
  C   C101      1.0  0.58238  0.21578  0.39623  1.0000
  C   C102      1.0  0.62684  0.24597  0.30757  1.0000
  C  Sn9       1.0  0.65480  0.23519  0.15890  1.0000
  C  Sn10      1.0  0.63785  0.19339  0.09815  1.0000
  C   C103      1.0  0.59332  0.16342  0.18769  1.0000
  C   C104      1.0  0.56563  0.17455  0.33635  1.0000
  H   H81       1.0  0.56095  0.22439  0.51120  1.0000
  O  Te9       1.0  0.69914  0.26574  0.07193  1.0000
  O  Te10      1.0  0.57290  0.17224  0.94986  1.0000
  H   H82       1.0  0.53121  0.15117  0.40490  1.0000
  Mg  Mg5       1.0  0.63096  0.22507  0.87602  1.0000
  C   C105      1.0  0.79358  0.36440  0.34922  1.0000
  C   C106      1.0  0.76839  0.37908  0.32116  1.0000
  C  Sn11      1.0  0.78836  0.42084  0.26185  1.0000
  C  Sn12      1.0  0.83440  0.44833  0.23012  1.0000
  C   C107      1.0  0.85931  0.43333  0.25847  1.0000
  C   C108      1.0  0.83899  0.39148  0.31788  1.0000
  H   H83       1.0  0.77786  0.33202  0.39509  1.0000
  O  Te11      1.0  0.76271  0.43500  0.23456  1.0000
  O  Te12      1.0  0.85521  0.49021  0.17074  1.0000
  H   H84       1.0  0.85850  0.38011  0.33948  1.0000
  Mg  Mg6       1.0  0.80618  0.49475  0.15299  1.0000
  C   C109      1.0  0.34647  0.56871  0.84832  1.0000
  C   C110      1.0  0.36213  0.60861  0.77998  1.0000
  C  Sn13      1.0  0.40768  0.63393  0.68273  1.0000
  C  Sn14      1.0  0.43804  0.61894  0.65353  1.0000
  C   C111      1.0  0.42203  0.57897  0.72235  1.0000
  C   C112      1.0  0.37638  0.55389  0.81952  1.0000
  H   H85       1.0  0.31115  0.54930  0.92342  1.0000
  O  Te13      1.0  0.42277  0.67372  0.61545  1.0000
  O  Te14      1.0  0.48373  0.64359  0.55675  1.0000
  H   H86       1.0  0.36426  0.52299  0.87231  1.0000
  Mg  Mg7       1.0  0.48810  0.69561  0.49207  1.0000
  C   C113      1.0  0.41232  0.78069  0.80421  1.0000
  C   C114      1.0  0.37102  0.75187  0.79048  1.0000
  C  Sn15      1.0  0.34744  0.76599  0.74620  1.0000
  C  Sn16      1.0  0.36565  0.80980  0.71512  1.0000
  C   C115      1.0  0.40701  0.83837  0.72907  1.0000
  C   C116      1.0  0.43031  0.82390  0.77351  1.0000
  H   H87       1.0  0.43036  0.76950  0.83850  1.0000
  O  Te15      1.0  0.30621  0.73676  0.73311  1.0000
  O  Te16      1.0  0.34280  0.82477  0.67060  1.0000
  H   H88       1.0  0.46230  0.84623  0.78402  1.0000
  Mg  Mg8       1.0  0.28776  0.77259  0.66886  1.0000
  C   C117      1.0  0.21294  0.56511  0.65462  1.0000
  C   C118      1.0  0.23460  0.60470  0.72095  1.0000
  C  Sn17      1.0  0.21207  0.62775  0.80417  1.0000
  C  Sn18      1.0  0.16702  0.61077  0.82114  1.0000
  C   C119      1.0  0.14564  0.57112  0.75445  1.0000
  C   C120      1.0  0.16850  0.54833  0.67136  1.0000
  H   H89       1.0  0.23062  0.54746  0.59041  1.0000
  O  Te17      1.0  0.23421  0.66727  0.86964  1.0000
  O  Te18      1.0  0.14371  0.63313  0.90378  1.0000
  H   H90       1.0  0.15172  0.51766  0.62011  1.0000
  Mg  Mg9       1.0  0.18829  0.68568  0.97160  1.0000
  C   C121      1.0  0.55621  0.36398  0.68796  1.0000
  C   C122      1.0  0.56507  0.40539  0.73155  1.0000
  C  Sn19      1.0  0.60113  0.43242  0.78488  1.0000
  C  Sn20      1.0  0.62879  0.41763  0.79458  1.0000
  C   C123      1.0  0.61966  0.37616  0.75057  1.0000
  C   C124      1.0  0.58348  0.34937  0.69742  1.0000
  H   H91       1.0  0.52823  0.34326  0.64673  1.0000
  O  Te19      1.0  0.60950  0.47369  0.82803  1.0000
  O  Te20      1.0  0.66506  0.44398  0.84742  1.0000
  H   H92       1.0  0.57664  0.31732  0.66356  1.0000
  Mg  Mg10      1.0  0.66287  0.49761  0.89281  1.0000
  C   C125      1.0  0.62683  0.19043  0.66141  1.0000
  C   C126      1.0  0.58230  0.16070  0.75219  1.0000
  C  Sn21      1.0  0.55160  0.17384  0.86473  1.0000
  C  Sn22      1.0  0.56584  0.21759  0.88648  1.0000
  C   C127      1.0  0.61045  0.24708  0.79498  1.0000
  C   C128      1.0  0.64089  0.23358  0.68274  1.0000
  H   H93       1.0  0.65038  0.17999  0.57450  1.0000
  O  Te21      1.0  0.50725  0.14372  0.95446  1.0000
  O  Te22      1.0  0.53585  0.23160  0.99808  1.0000
  H   H94       1.0  0.67536  0.25661  0.61239  1.0000
  Mg  Mg11      1.0  0.57109  0.18795  0.09176  1.0000
  C   C129      1.0  0.79142  0.37221  0.86457  1.0000
  C   C130      1.0  0.82465  0.41314  0.79657  1.0000
  C  Sn23      1.0  0.81527  0.43824  0.72752  1.0000
  C  Sn24      1.0  0.77178  0.42199  0.72677  1.0000
  C   C131      1.0  0.73876  0.38102  0.79523  1.0000
  C   C132      1.0  0.74852  0.35616  0.86395  1.0000
  H   H95       1.0  0.79896  0.35298  0.91783  1.0000
  O  Te23      1.0  0.84886  0.47906  0.66004  1.0000
  O  Te24      1.0  0.76149  0.44641  0.65863  1.0000
  H   H96       1.0  0.72277  0.32448  0.91670  1.0000
  Mg  Mg12      1.0  0.81854  0.50014  0.58153  1.0000
