data_image0
_chemical_formula_structural       H132C216N12O12C2Sn2C2HTe2HMgC2Sn2C2HTe2HMgC2Sn2C2HTe2HMgC2Sn2C2HTe2HMgC2Sn2C2HTe2HMgC2Sn2C2HTe2HMg
_chemical_formula_sum              "H144 C240 N12 O12 Sn12 Te12 Mg6"
_cell_length_a       36.8471
_cell_length_b       36.9439
_cell_length_c       7.94349
_cell_angle_alpha    90.8113
_cell_angle_beta     90.7457
_cell_angle_gamma    120.422

_symmetry_space_group_name_H-M    'P1'
_space_group_IT_number       1

loop_
  _space_group_symop_operation_xyz
  'x, y, z'

loop_
  _atom_site_type_symbol
  _atom_site_label
  _atom_site_symmetry_multiplicity
  _atom_site_fract_x
  _atom_site_fract_y
  _atom_site_fract_z
  _atom_site_occupancy
  H   H1        1.0  0.44566  0.67958  0.45452  1.0000
  H   H2        1.0  0.32511  0.76257  0.44675  1.0000
  H   H3        1.0  0.24081  0.55964  0.43146  1.0000
  H   H4        1.0  0.56018  0.32467  0.46669  1.0000
  H   H5        1.0  0.68038  0.24133  0.44604  1.0000
  H   H6        1.0  0.76313  0.44520  0.40318  1.0000
  H   H7        1.0  0.48105  0.42610  0.23105  1.0000
  H   H8        1.0  0.57728  0.05388  0.23729  1.0000
  H   H9        1.0  0.94932  0.52437  0.22484  1.0000
  H   H10       1.0  0.52433  0.57553  0.20476  1.0000
  H   H11       1.0  0.42697  0.94606  0.21709  1.0000
  H   H12       1.0  0.05420  0.47949  0.21711  1.0000
  H   H13       1.0  0.42551  0.41083  0.43847  1.0000
  H   H14       1.0  0.60343  0.02108  0.41705  1.0000
  H   H15       1.0  0.99125  0.58085  0.44386  1.0000
  H   H16       1.0  0.58790  0.59000  0.42708  1.0000
  H   H17       1.0  0.38442  0.96932  0.26201  1.0000
  H   H18       1.0  0.01551  0.42339  0.42172  1.0000
  H   H19       1.0  0.41353  0.38246  0.24073  1.0000
  H   H20       1.0  0.61860  0.02891  0.19957  1.0000
  H   H21       1.0  0.97497  0.59234  0.24749  1.0000
  H   H22       1.0  0.59124  0.61889  0.24186  1.0000
  H   H23       1.0  0.38994  0.01875  0.32379  1.0000
  H   H24       1.0  0.02904  0.41197  0.21938  1.0000
  H   H25       1.0  0.37364  0.38786  0.34460  1.0000
  H   H26       1.0  0.62018  0.98844  0.31638  1.0000
  H   H27       1.0  0.02147  0.63207  0.35581  1.0000
  H   H28       1.0  0.63544  0.61444  0.30829  1.0000
  H   H29       1.0  0.41563  0.99736  0.44553  1.0000
  H   H30       1.0  0.98431  0.37219  0.32519  1.0000
  H   H31       1.0  0.38763  0.47511  0.12975  1.0000
  H   H32       1.0  0.52645  0.91035  0.12836  1.0000
  H   H33       1.0  0.09203  0.61489  0.12648  1.0000
  H   H34       1.0  0.61678  0.52435  0.12733  1.0000
  H   H35       1.0  0.47722  0.08727  0.11722  1.0000
  H   H36       1.0  0.91097  0.38755  0.12131  1.0000
  H   H37       1.0  0.45948  0.77685  0.00168  1.0000
  H   H38       1.0  0.53984  0.22089  0.01352  1.0000
  H   H39       1.0  0.77687  0.31794  0.00278  1.0000
  H   H40       1.0  0.75357  0.50656  0.47066  1.0000
  H   H41       1.0  0.49779  0.25246  0.43480  1.0000
  H   H42       1.0  0.74535  0.23887  0.45263  1.0000
  H   H43       1.0  0.33494  0.56955  0.26226  1.0000
  H   H44       1.0  0.43230  0.76248  0.24492  1.0000
  H   H45       1.0  0.24134  0.66848  0.25119  1.0000
  H   H46       1.0  0.66813  0.42868  0.25422  1.0000
  H   H47       1.0  0.56965  0.23646  0.24651  1.0000
  H   H48       1.0  0.76352  0.33365  0.24964  1.0000
  H   H49       1.0  0.20788  0.41749  0.07369  1.0000
  H   H50       1.0  0.58082  0.78733  0.04686  1.0000
  H   H51       1.0  0.21815  0.79436  0.07506  1.0000
  H   H52       1.0  0.79588  0.57906  0.07654  1.0000
  H   H53       1.0  0.41757  0.20712  0.06044  1.0000
  H   H54       1.0  0.78651  0.20777  0.07007  1.0000
  H   H55       1.0  0.60705  0.85300  0.22052  1.0000
  H   H56       1.0  0.39393  0.14157  0.22029  1.0000
  H   H57       1.0  0.85329  0.25067  0.23658  1.0000
  H   H58       1.0  0.48757  0.64376  0.41454  1.0000
  H   H59       1.0  0.35996  0.84037  0.40581  1.0000
  H   H60       1.0  0.16245  0.51745  0.39072  1.0000
  H   H61       1.0  0.51935  0.36183  0.43104  1.0000
  H   H62       1.0  0.64583  0.16320  0.41213  1.0000
  H   H63       1.0  0.84114  0.48796  0.36242  1.0000
  H   H64       1.0  0.55919  0.87971  0.28766  1.0000
  H   H65       1.0  0.44358  0.11641  0.27929  1.0000
  H   H66       1.0  0.88108  0.32659  0.28787  1.0000
  H   H67       1.0  0.44346  0.67922  0.96109  1.0000
  H   H68       1.0  0.32134  0.76099  0.92407  1.0000
  H   H69       1.0  0.23922  0.55822  0.92669  1.0000
  H   H70       1.0  0.55769  0.32333  0.97851  1.0000
  H   H71       1.0  0.67580  0.23899  0.96269  1.0000
  H   H72       1.0  0.75997  0.44400  0.88719  1.0000
  H   H73       1.0  0.47560  0.42365  0.74370  1.0000
  H   H74       1.0  0.57167  0.05442  0.68282  1.0000
  H   H75       1.0  0.94613  0.52134  0.73025  1.0000
  H   H76       1.0  0.51873  0.57300  0.72667  1.0000
  H   H77       1.0  0.42289  0.94652  0.74481  1.0000
  H   H78       1.0  0.05130  0.47686  0.72304  1.0000
  H   H79       1.0  0.41910  0.40433  0.93911  1.0000
  H   H80       1.0  0.60488  0.02737  0.83496  1.0000
  H   H81       1.0  0.98304  0.57541  0.94266  1.0000
  H   H82       1.0  0.57890  0.59658  0.91939  1.0000
  H   H83       1.0  0.40223  0.98266  0.93815  1.0000
  H   H84       1.0  0.01004  0.41898  0.92796  1.0000
  H   H85       1.0  0.40843  0.38046  0.73216  1.0000
  H   H86       1.0  0.61093  0.98289  0.79214  1.0000
  H   H87       1.0  0.97176  0.58902  0.74013  1.0000
  H   H88       1.0  0.58599  0.61674  0.71035  1.0000
  H   H89       1.0  0.38044  0.97005  0.72748  1.0000
  H   H90       1.0  0.02599  0.40915  0.72740  1.0000
  H   H91       1.0  0.36771  0.38304  0.84266  1.0000
  H   H92       1.0  0.57239  0.97884  0.93835  1.0000
  H   H93       1.0  0.01532  0.62764  0.86711  1.0000
  H   H94       1.0  0.62843  0.61559  0.81858  1.0000
  H   H95       1.0  0.38157  0.01265  0.84297  1.0000
  H   H96       1.0  0.97989  0.36848  0.82394  1.0000
  H   H97       1.0  0.38253  0.47434  0.63226  1.0000
  H   H98       1.0  0.52319  0.91283  0.62118  1.0000
  H   H99       1.0  0.08863  0.61221  0.63267  1.0000
  H   H100      1.0  0.61112  0.52238  0.64205  1.0000
  H   H101      1.0  0.47143  0.08934  0.62857  1.0000
  H   H102      1.0  0.90776  0.38470  0.62164  1.0000
  H   H103      1.0  0.67849  0.45805  0.52873  1.0000
  H   H104      1.0  0.54196  0.22219  0.50575  1.0000
  H   H105      1.0  0.77315  0.31467  0.50191  1.0000
  H   H106      1.0  0.50677  0.74998  0.93576  1.0000
  H   H107      1.0  0.49094  0.24617  0.95619  1.0000
  H   H108      1.0  0.74876  0.24201  0.95248  1.0000
  H   H109      1.0  0.33241  0.57139  0.75956  1.0000
  H   H110      1.0  0.43231  0.76483  0.74630  1.0000
  H   H111      1.0  0.23786  0.66658  0.75062  1.0000
  H   H112      1.0  0.66460  0.42872  0.76696  1.0000
  H   H113      1.0  0.56742  0.23811  0.75622  1.0000
  H   H114      1.0  0.75973  0.33158  0.74392  1.0000
  H   H115      1.0  0.20383  0.42309  0.55410  1.0000
  H   H116      1.0  0.58435  0.79498  0.55984  1.0000
  H   H117      1.0  0.21622  0.79170  0.58074  1.0000
  H   H118      1.0  0.78963  0.58017  0.58267  1.0000
  H   H119      1.0  0.42369  0.21833  0.53075  1.0000
  H   H120      1.0  0.78431  0.20524  0.56529  1.0000
  H   H121      1.0  0.74955  0.60459  0.75408  1.0000
  H   H122      1.0  0.39478  0.15346  0.69955  1.0000
  H   H123      1.0  0.85131  0.24867  0.72948  1.0000
  H   H124      1.0  0.48352  0.64095  0.93374  1.0000
  H   H125      1.0  0.35506  0.83860  0.88914  1.0000
  H   H126      1.0  0.16056  0.51548  0.89356  1.0000
  H   H127      1.0  0.51508  0.35845  0.93734  1.0000
  H   H128      1.0  0.64067  0.16129  0.91255  1.0000
  H   H129      1.0  0.83811  0.48632  0.84718  1.0000
  H   H130      1.0  0.67440  0.55563  0.81309  1.0000
  H   H131      1.0  0.43984  0.12383  0.77427  1.0000
  H   H132      1.0  0.87816  0.32423  0.78408  1.0000
  C   C1        1.0  0.36309  0.64672  0.37189  1.0000
  C   C2        1.0  0.35506  0.71265  0.36670  1.0000
  C   C3        1.0  0.29107  0.64396  0.36332  1.0000
  C   C4        1.0  0.63925  0.35178  0.36631  1.0000
  C   C5        1.0  0.64464  0.28884  0.35894  1.0000
  C   C6        1.0  0.71418  0.36126  0.35485  1.0000
  C   C7        1.0  0.37292  0.68778  0.37478  1.0000
  C   C8        1.0  0.31100  0.68810  0.36659  1.0000
  C   C9        1.0  0.32081  0.63218  0.37147  1.0000
  C   C10       1.0  0.61968  0.30783  0.35976  1.0000
  C   C11       1.0  0.68653  0.31890  0.36043  1.0000
  C   C12       1.0  0.68229  0.36966  0.36682  1.0000
  C   C13       1.0  0.39992  0.50642  0.18341  1.0000
  C   C14       1.0  0.49530  0.89107  0.17847  1.0000
  C   C15       1.0  0.11155  0.60316  0.17619  1.0000
  C   C16       1.0  0.60478  0.49374  0.18166  1.0000
  C   C17       1.0  0.50819  0.10740  0.17359  1.0000
  C   C18       1.0  0.89190  0.39986  0.16983  1.0000
  C   C19       1.0  0.38776  0.62610  0.35790  1.0000
  C   C20       1.0  0.37713  0.75829  0.34780  1.0000
  C   C21       1.0  0.24536  0.61695  0.34149  1.0000
  C   C22       1.0  0.61644  0.37467  0.35725  1.0000
  C   C23       1.0  0.62654  0.24325  0.34383  1.0000
  C   C24       1.0  0.75931  0.38664  0.32994  1.0000
  C   C25       1.0  0.36834  0.58525  0.29430  1.0000
  C   C26       1.0  0.41691  0.77984  0.28057  1.0000
  C   C27       1.0  0.22328  0.63525  0.27874  1.0000
  C   C28       1.0  0.63555  0.41453  0.29145  1.0000
  C   C29       1.0  0.58574  0.21968  0.27999  1.0000
  C   C30       1.0  0.78096  0.36740  0.27337  1.0000
  C   C31       1.0  0.39118  0.56449  0.26776  1.0000
  C   C32       1.0  0.43733  0.82359  0.25477  1.0000
  C   C33       1.0  0.17927  0.61226  0.25194  1.0000
  C   C34       1.0  0.61340  0.43612  0.26775  1.0000
  C   C35       1.0  0.56563  0.17579  0.25670  1.0000
  C   C36       1.0  0.82461  0.39083  0.24450  1.0000
  C   C37       1.0  0.43540  0.58666  0.31131  1.0000
  C   C38       1.0  0.41592  0.84563  0.30084  1.0000
  C   C39       1.0  0.15703  0.56859  0.29422  1.0000
  C   C40       1.0  0.57004  0.41574  0.31599  1.0000
  C   C41       1.0  0.58822  0.15509  0.30458  1.0000
  C   C42       1.0  0.84671  0.43532  0.28066  1.0000
  C   C43       1.0  0.45431  0.62828  0.37988  1.0000
  C   C44       1.0  0.37503  0.82273  0.36928  1.0000
  C   C45       1.0  0.18030  0.55036  0.35789  1.0000
  C   C46       1.0  0.55163  0.37555  0.38992  1.0000
  C   C47       1.0  0.62987  0.17978  0.37302  1.0000
  C   C48       1.0  0.82353  0.45429  0.33671  1.0000
  C   C49       1.0  0.50596  0.83046  0.14888  1.0000
  C   C50       1.0  0.49535  0.16663  0.15054  1.0000
  C   C51       1.0  0.83091  0.32770  0.14982  1.0000
  C   C52       1.0  0.43126  0.64779  0.40184  1.0000
  C   C53       1.0  0.35614  0.78029  0.39226  1.0000
  C   C54       1.0  0.22336  0.57372  0.38040  1.0000
  C   C55       1.0  0.57405  0.35535  0.40954  1.0000
  C   C56       1.0  0.64874  0.22276  0.39153  1.0000
  C   C57       1.0  0.78086  0.43072  0.35977  1.0000
  C   C58       1.0  0.49153  0.79333  0.05243  1.0000
  C   C59       1.0  0.50821  0.20364  0.06188  1.0000
  C   C60       1.0  0.79325  0.30315  0.05691  1.0000
  C   C61       1.0  0.51837  0.77811  0.01503  1.0000
  C   C62       1.0  0.48037  0.21795  0.02895  1.0000
  C   C63       1.0  0.77749  0.26032  0.02792  1.0000
  C   C64       1.0  0.44320  0.53049  0.23105  1.0000
  C   C65       1.0  0.47203  0.91025  0.22949  1.0000
  C   C66       1.0  0.09212  0.56063  0.22499  1.0000
  C   C67       1.0  0.56210  0.47107  0.23045  1.0000
  C   C68       1.0  0.53227  0.08937  0.22849  1.0000
  C   C69       1.0  0.91145  0.44307  0.21692  1.0000
  C   C70       1.0  0.56004  0.79938  0.07527  1.0000
  C   C71       1.0  0.43916  0.19581  0.08574  1.0000
  C   C72       1.0  0.79893  0.24117  0.09225  1.0000
  C   C73       1.0  0.47199  0.51373  0.21603  1.0000
  C   C74       1.0  0.48897  0.95610  0.22268  1.0000
  C   C75       1.0  0.04587  0.53213  0.21767  1.0000
  C   C76       1.0  0.53319  0.48778  0.21435  1.0000
  C   C77       1.0  0.51537  0.04346  0.22061  1.0000
  C   C78       1.0  0.95759  0.47171  0.21306  1.0000
  C   C79       1.0  0.57482  0.83634  0.17130  1.0000
  C   C80       1.0  0.42578  0.15882  0.17350  1.0000
  C   C81       1.0  0.83651  0.26524  0.18408  1.0000
  C   C82       1.0  0.45960  0.47070  0.22201  1.0000
  C   C83       1.0  0.53228  0.98719  0.23168  1.0000
  C   C84       1.0  0.01564  0.54498  0.22450  1.0000
  C   C85       1.0  0.54550  0.53070  0.20566  1.0000
  C   C86       1.0  0.47215  0.01246  0.21767  1.0000
  C   C87       1.0  0.98789  0.45892  0.21587  1.0000
  C   C88       1.0  0.54807  0.85168  0.20808  1.0000
  C   C89       1.0  0.45357  0.14442  0.20587  1.0000
  C   C90       1.0  0.85237  0.30805  0.21253  1.0000
  C   C91       1.0  0.48982  0.45878  0.22037  1.0000
  C   C92       1.0  0.54441  0.02946  0.22802  1.0000
  C   C93       1.0  0.97294  0.51512  0.21882  1.0000
  C   C94       1.0  0.51523  0.54262  0.20610  1.0000
  C   C95       1.0  0.46005  0.97016  0.21770  1.0000
  C   C96       1.0  0.03057  0.48876  0.21456  1.0000
  C   C97       1.0  0.40735  0.40344  0.31933  1.0000
  C   C98       1.0  0.60335  0.00550  0.29794  1.0000
  C   C99       1.0  0.00228  0.59834  0.32674  1.0000
  C   C100      1.0  0.60096  0.59820  0.30040  1.0000
  C   C101      1.0  0.40600  0.00065  0.31775  1.0000
  C   C102      1.0  0.00285  0.40588  0.30186  1.0000
  C   C103      1.0  0.37332  0.52237  0.20263  1.0000
  C   C104      1.0  0.47892  0.84817  0.19125  1.0000
  C   C105      1.0  0.15478  0.62975  0.19055  1.0000
  C   C106      1.0  0.63111  0.47740  0.20150  1.0000
  C   C107      1.0  0.52360  0.15013  0.19056  1.0000
  C   C108      1.0  0.84897  0.37317  0.18510  1.0000
  C   C109      1.0  0.36319  0.65046  0.86926  1.0000
  C   C110      1.0  0.35772  0.71323  0.85574  1.0000
  C   C111      1.0  0.28812  0.64092  0.85677  1.0000
  C   C112      1.0  0.63702  0.35187  0.88530  1.0000
  C   C113      1.0  0.64194  0.28864  0.88128  1.0000
  C   C114      1.0  0.71091  0.36022  0.84527  1.0000
  C   C115      1.0  0.38286  0.69448  0.86599  1.0000
  C   C116      1.0  0.31561  0.68350  0.85594  1.0000
  C   C117      1.0  0.32024  0.63301  0.86832  1.0000
  C   C118      1.0  0.61788  0.30818  0.90401  1.0000
  C   C119      1.0  0.68355  0.31813  0.86328  1.0000
  C   C120      1.0  0.67965  0.36936  0.86572  1.0000
  C   C121      1.0  0.39509  0.50546  0.68867  1.0000
  C   C122      1.0  0.49237  0.89303  0.67295  1.0000
  C   C123      1.0  0.10814  0.60052  0.68297  1.0000
  C   C124      1.0  0.59929  0.49170  0.69564  1.0000
  C   C125      1.0  0.50320  0.10910  0.67874  1.0000
  C   C126      1.0  0.88860  0.39716  0.66731  1.0000
  C   C127      1.0  0.38554  0.62711  0.86002  1.0000
  C   C128      1.0  0.37552  0.75856  0.83596  1.0000
  C   C129      1.0  0.24252  0.61513  0.83982  1.0000
  C   C130      1.0  0.61370  0.37423  0.87315  1.0000
  C   C131      1.0  0.62315  0.24300  0.85981  1.0000
  C   C132      1.0  0.75595  0.38515  0.81813  1.0000
  C   C133      1.0  0.36550  0.58622  0.79633  1.0000
  C   C134      1.0  0.41598  0.78163  0.77583  1.0000
  C   C135      1.0  0.22030  0.63350  0.78058  1.0000
  C   C136      1.0  0.63200  0.41383  0.80501  1.0000
  C   C137      1.0  0.58296  0.22074  0.78875  1.0000
  C   C138      1.0  0.77741  0.36545  0.76444  1.0000
  C   C139      1.0  0.38743  0.56434  0.77284  1.0000
  C   C140      1.0  0.43562  0.82525  0.75176  1.0000
  C   C141      1.0  0.17618  0.61008  0.75670  1.0000
  C   C142      1.0  0.60900  0.43456  0.78010  1.0000
  C   C143      1.0  0.56231  0.17693  0.75888  1.0000
  C   C144      1.0  0.82114  0.38853  0.73632  1.0000
  C   C145      1.0  0.43121  0.58517  0.82280  1.0000
  C   C146      1.0  0.41286  0.84617  0.79383  1.0000
  C   C147      1.0  0.15430  0.56647  0.79970  1.0000
  C   C148      1.0  0.56555  0.41352  0.82712  1.0000
  C   C149      1.0  0.58404  0.15529  0.80453  1.0000
  C   C150      1.0  0.84339  0.43316  0.77015  1.0000
  C   C151      1.0  0.45072  0.62662  0.89313  1.0000
  C   C152      1.0  0.37138  0.82194  0.85603  1.0000
  C   C153      1.0  0.17799  0.54842  0.86086  1.0000
  C   C154      1.0  0.54770  0.37320  0.89963  1.0000
  C   C155      1.0  0.62541  0.17875  0.87645  1.0000
  C   C156      1.0  0.82037  0.45258  0.82310  1.0000
  C   C157      1.0  0.67104  0.50327  0.67553  1.0000
  C   C158      1.0  0.49415  0.17073  0.64511  1.0000
  C   C159      1.0  0.82769  0.32505  0.64665  1.0000
  C   C160      1.0  0.42871  0.64731  0.90945  1.0000
  C   C161      1.0  0.35300  0.77927  0.87554  1.0000
  C   C162      1.0  0.22109  0.57194  0.87943  1.0000
  C   C163      1.0  0.57104  0.35407  0.92235  1.0000
  C   C164      1.0  0.64461  0.22150  0.90346  1.0000
  C   C165      1.0  0.77765  0.42933  0.84530  1.0000
  C   C166      1.0  0.69423  0.48979  0.58171  1.0000
  C   C167      1.0  0.51002  0.20742  0.55122  1.0000
  C   C168      1.0  0.78988  0.30014  0.55495  1.0000
  C   C169      1.0  0.73654  0.51732  0.54803  1.0000
  C   C170      1.0  0.48488  0.22442  0.51027  1.0000
  C   C171      1.0  0.77436  0.25736  0.52618  1.0000
  C   C172      1.0  0.43795  0.52832  0.74304  1.0000
  C   C173      1.0  0.46808  0.91133  0.72126  1.0000
  C   C174      1.0  0.08905  0.55809  0.73299  1.0000
  C   C175      1.0  0.55671  0.46861  0.74495  1.0000
  C   C176      1.0  0.52702  0.09035  0.72795  1.0000
  C   C177      1.0  0.90826  0.44044  0.71301  1.0000
  C   C178      1.0  0.75669  0.55876  0.60943  1.0000
  C   C179      1.0  0.44326  0.20507  0.56296  1.0000
  C   C180      1.0  0.79638  0.23857  0.58816  1.0000
  C   C181      1.0  0.46650  0.51120  0.73125  1.0000
  C   C182      1.0  0.48443  0.95711  0.71177  1.0000
  C   C183      1.0  0.04283  0.52940  0.72532  1.0000
  C   C184      1.0  0.52777  0.48535  0.73180  1.0000
  C   C185      1.0  0.51010  0.04449  0.71562  1.0000
  C   C186      1.0  0.95454  0.46888  0.71389  1.0000
  C   C187      1.0  0.73407  0.57258  0.70350  1.0000
  C   C188      1.0  0.42692  0.16842  0.65542  1.0000
  C   C189      1.0  0.83410  0.26296  0.67877  1.0000
  C   C190      1.0  0.45402  0.46820  0.73707  1.0000
  C   C191      1.0  0.52710  0.98842  0.69568  1.0000
  C   C192      1.0  0.01253  0.54217  0.73346  1.0000
  C   C193      1.0  0.54021  0.52843  0.72873  1.0000
  C   C194      1.0  0.46728  0.01319  0.73346  1.0000
  C   C195      1.0  0.98486  0.45607  0.71790  1.0000
  C   C196      1.0  0.69174  0.54516  0.73625  1.0000
  C   C197      1.0  0.45212  0.15147  0.69669  1.0000
  C   C198      1.0  0.84951  0.30566  0.70839  1.0000
  C   C199      1.0  0.48434  0.45635  0.73523  1.0000
  C   C200      1.0  0.53876  0.03059  0.69554  1.0000
  C   C201      1.0  0.96987  0.51227  0.72375  1.0000
  C   C202      1.0  0.50982  0.54017  0.72624  1.0000
  C   C203      1.0  0.45538  0.97096  0.72931  1.0000
  C   C204      1.0  0.02758  0.48604  0.71983  1.0000
  C   C205      1.0  0.40157  0.39946  0.81978  1.0000
  C   C206      1.0  0.58827  0.99294  0.82035  1.0000
  C   C207      1.0  0.99696  0.59429  0.83063  1.0000
  C   C208      1.0  0.59420  0.59914  0.79876  1.0000
  C   C209      1.0  0.39838  0.99572  0.82020  1.0000
  C   C210      1.0  0.99889  0.40240  0.80547  1.0000
  C   C211      1.0  0.36922  0.52243  0.70449  1.0000
  C   C212      1.0  0.47731  0.85053  0.69052  1.0000
  C   C213      1.0  0.15134  0.62717  0.69610  1.0000
  C   C214      1.0  0.62599  0.47576  0.71414  1.0000
  C   C215      1.0  0.52021  0.15219  0.69193  1.0000
  C   C216      1.0  0.84556  0.37055  0.68086  1.0000
  N   N1        1.0  0.46040  0.56975  0.29300  1.0000
  N   N2        1.0  0.43299  0.88770  0.28690  1.0000
  N   N3        1.0  0.11453  0.54374  0.28080  1.0000
  N   N4        1.0  0.54541  0.43302  0.29692  1.0000
  N   N5        1.0  0.57147  0.11285  0.29159  1.0000
  N   N6        1.0  0.88901  0.46034  0.26785  1.0000
  N   N7        1.0  0.45537  0.56729  0.80810  1.0000
  N   N8        1.0  0.42913  0.88817  0.77939  1.0000
  N   N9        1.0  0.11179  0.54148  0.78812  1.0000
  N   N10       1.0  0.54041  0.43028  0.80868  1.0000
  N   N11       1.0  0.56665  0.11306  0.78705  1.0000
  N   N12       1.0  0.88573  0.45796  0.75959  1.0000
  O   O1        1.0  0.41718  0.44130  0.23451  1.0000
  O   O2        1.0  0.56122  0.97407  0.24903  1.0000
  O   O3        1.0  0.02960  0.58747  0.24102  1.0000
  O   O4        1.0  0.58804  0.56066  0.20082  1.0000
  O   O5        1.0  0.44218  0.02472  0.21642  1.0000
  O   O6        1.0  0.97412  0.41647  0.22490  1.0000
  O   O7        1.0  0.41154  0.43898  0.75001  1.0000
  O   O8        1.0  0.55867  0.97833  0.68010  1.0000
  O   O9        1.0  0.02643  0.58445  0.75762  1.0000
  O   O10       1.0  0.58277  0.55822  0.73339  1.0000
  O   O11       1.0  0.43863  0.02634  0.75855  1.0000
  O   O12       1.0  0.97105  0.41357  0.72423  1.0000
  C   C217      1.0  0.70900  0.49178  0.05064  1.0000
  C   C218      1.0  0.68192  0.49913  0.14777  1.0000
  C  Sn1       1.0  0.69590  0.53882  0.22045  1.0000
  C  Sn2       1.0  0.73777  0.57170  0.19516  1.0000
  C   C219      1.0  0.76460  0.56403  0.09768  1.0000
  C   C220      1.0  0.75030  0.52419  0.02558  1.0000
  H   H133      1.0  0.70377  0.46696  0.99478  1.0000
  O  Te1       1.0  0.66844  0.54563  0.31719  1.0000
  O  Te2       1.0  0.75255  0.61167  0.26629  1.0000
  H   H134      1.0  0.77711  0.52451  0.95029  1.0000
  Mg  Mg1       1.0  0.70324  0.60547  0.38803  1.0000
  C   C221      1.0  0.29815  0.44274  0.23021  1.0000
  C   C222      1.0  0.32411  0.48334  0.17242  1.0000
  C  Sn3       1.0  0.30706  0.50294  0.07748  1.0000
  C  Sn4       1.0  0.26319  0.48143  0.03994  1.0000
  C   C223      1.0  0.23748  0.44084  0.09844  1.0000
  C   C224      1.0  0.25488  0.42151  0.19330  1.0000
  H   H135      1.0  0.31160  0.42779  0.30368  1.0000
  O  Te3       1.0  0.33346  0.54350  0.02068  1.0000
  O  Te4       1.0  0.25118  0.50630  0.94536  1.0000
  H   H136      1.0  0.23476  0.39010  0.23812  1.0000
  Mg  Mg2       1.0  0.30013  0.56197  0.89617  1.0000
  C   C225      1.0  0.29199  0.50876  0.54081  1.0000
  C   C226      1.0  0.31859  0.50116  0.64217  1.0000
  C  Sn5       1.0  0.30375  0.46178  0.71243  1.0000
  C  Sn6       1.0  0.26149  0.42948  0.68036  1.0000
  C   C227      1.0  0.23513  0.43740  0.57868  1.0000
  C   C228      1.0  0.25030  0.47692  0.50905  1.0000
  H   H137      1.0  0.30372  0.53933  0.48685  1.0000
  O  Te5       1.0  0.33075  0.45472  0.81346  1.0000
  O  Te6       1.0  0.24585  0.38983  0.74894  1.0000
  H   H138      1.0  0.22970  0.48279  0.43049  1.0000
  Mg  Mg3       1.0  0.29481  0.39549  0.87850  1.0000
  C   C229      1.0  0.22415  0.72814  0.53388  1.0000
  C   C230      1.0  0.20811  0.75401  0.57790  1.0000
  C  Sn7       1.0  0.17195  0.73848  0.67398  1.0000
  C  Sn8       1.0  0.15154  0.69626  0.72681  1.0000
  C   C231      1.0  0.16785  0.67064  0.68221  1.0000
  C   C232      1.0  0.20406  0.68650  0.58599  1.0000
  H   H139      1.0  0.25218  0.74041  0.45951  1.0000
  O  Te7       1.0  0.15633  0.76474  0.71680  1.0000
  O  Te8       1.0  0.11535  0.67994  0.82297  1.0000
  H   H140      1.0  0.21648  0.66647  0.55202  1.0000
  Mg  Mg4       1.0  0.10613  0.72804  0.84955  1.0000
  C   C233      1.0  0.57393  0.85120  0.69810  1.0000
  C   C234      1.0  0.56658  0.81429  0.61614  1.0000
  C  Sn9       1.0  0.52715  0.78673  0.54259  1.0000
  C  Sn10      1.0  0.49453  0.79640  0.55141  1.0000
  C   C235      1.0  0.50221  0.83342  0.63359  1.0000
  C   C236      1.0  0.54178  0.86076  0.70680  1.0000
  H   H141      1.0  0.60455  0.87237  0.75467  1.0000
  O  Te9       1.0  0.52034  0.74998  0.46124  1.0000
  O  Te10      1.0  0.45483  0.76942  0.47893  1.0000
  H   H142      1.0  0.54747  0.88935  0.77016  1.0000
  Mg  Mg5       1.0  0.46091  0.72316  0.38192  1.0000
  C   C237      1.0  0.21827  0.70815  0.04422  1.0000
  C   C238      1.0  0.18368  0.68050  0.13818  1.0000
  C  Sn11      1.0  0.15794  0.69382  0.21054  1.0000
  C  Sn12      1.0  0.16706  0.73562  0.18816  1.0000
  C   C239      1.0  0.20172  0.76304  0.09383  1.0000
  C   C240      1.0  0.22728  0.74938  0.02202  1.0000
  H   H143      1.0  0.24389  0.70358  0.98857  1.0000
  O  Te11      1.0  0.12351  0.66579  0.30410  1.0000
  O  Te12      1.0  0.14184  0.74976  0.25904  1.0000
  H   H144      1.0  0.25990  0.77679  0.94919  1.0000
  Mg  Mg6       1.0  0.09848  0.69981  0.37590  1.0000
