data_image0
_chemical_formula_structural       H68C98N28SnCSn2CSnTe4Mg2SnCSn2CSnTe4Mg2SnCSn2CSnTe4Mg2SnCSn2CSnTe4Mg2SnCSn2CSnTe4Mg2SnCSn2CSnTe4Mg2SnCSn2CSnTe4Mg2SnCSn2CSnTe4Mg2SnCSn2CSnTe4Mg2
_chemical_formula_sum              "H68 C116 N28 Sn36 Te36 Mg18"
_cell_length_a       37.29
_cell_length_b       37.1705
_cell_length_c       8.11249
_cell_angle_alpha    87.8567
_cell_angle_beta     92.204
_cell_angle_gamma    121.205

_symmetry_space_group_name_H-M    'P1'
_space_group_IT_number       1

loop_
  _space_group_symop_operation_xyz
  'x, y, z'

loop_
  _atom_site_type_symbol
  _atom_site_label
  _atom_site_symmetry_multiplicity
  _atom_site_fract_x
  _atom_site_fract_y
  _atom_site_fract_z
  _atom_site_occupancy
  H   H1        1.0  0.40560  0.69742  0.18308  1.0000
  H   H2        1.0  0.58782  0.28913  0.24548  1.0000
  H   H3        1.0  0.42447  0.88468  0.03920  1.0000
  H   H4        1.0  0.57360  0.10781  0.02518  1.0000
  H   H5        1.0  0.48053  0.89872  0.32847  1.0000
  H   H6        1.0  0.52030  0.08879  0.31477  1.0000
  H   H7        1.0  0.29109  0.57921  0.27426  1.0000
  H   H8        1.0  0.70297  0.40728  0.31250  1.0000
  H   H9        1.0  0.31829  0.55326  0.12840  1.0000
  H   H10       1.0  0.66495  0.41630  0.07065  1.0000
  H   H11       1.0  0.35467  0.51548  0.08680  1.0000
  H   H12       1.0  0.62370  0.44840  0.97625  1.0000
  H   H13       1.0  0.47288  0.62789  0.19885  1.0000
  H   H14       1.0  0.52571  0.36645  0.30748  1.0000
  H   H15       1.0  0.43588  0.66496  0.24889  1.0000
  H   H16       1.0  0.56706  0.33367  0.40134  1.0000
  H   H17       1.0  0.45238  0.57384  0.44207  1.0000
  H   H18       1.0  0.52912  0.43329  0.58820  1.0000
  H   H19       1.0  0.40244  0.49082  0.23881  1.0000
  H   H20       1.0  0.56585  0.46364  0.28406  1.0000
  H   H21       1.0  0.24001  0.66673  0.20682  1.0000
  H   H22       1.0  0.75843  0.33187  0.17810  1.0000
  H   H23       1.0  0.16333  0.63279  0.23585  1.0000
  H   H24       1.0  0.83584  0.37562  0.16449  1.0000
  H   H25       1.0  0.56809  0.04832  0.06288  1.0000
  H   H26       1.0  0.43244  0.93960  0.30160  1.0000
  H   H27       1.0  0.15983  0.52508  0.46984  1.0000
  H   H28       1.0  0.83596  0.46606  0.48016  1.0000
  H   H29       1.0  0.23613  0.55862  0.43460  1.0000
  H   H30       1.0  0.75838  0.42186  0.49581  1.0000
  H   H31       1.0  0.09988  0.52358  0.39089  1.0000
  H   H32       1.0  0.89303  0.45821  0.17993  1.0000
  H   H33       1.0  0.10182  0.56912  0.09733  1.0000
  H   H34       1.0  0.90415  0.41687  0.02157  1.0000
  H   H35       1.0  0.95205  0.51969  0.25363  1.0000
  H   H36       1.0  0.04743  0.49357  0.61218  1.0000
  H   H37       1.0  0.54733  0.97373  0.06412  1.0000
  H   H38       1.0  0.45315  0.01467  0.30031  1.0000
  H   H39       1.0  0.02775  0.57488  0.28045  1.0000
  H   H40       1.0  0.97316  0.43728  0.57378  1.0000
  H   H41       1.0  0.41130  0.70902  0.73172  1.0000
  H   H42       1.0  0.59102  0.30076  0.70525  1.0000
  H   H43       1.0  0.43097  0.76979  0.88282  1.0000
  H   H44       1.0  0.46727  0.84561  0.83323  1.0000
  H   H45       1.0  0.36036  0.83016  0.54496  1.0000
  H   H46       1.0  0.32435  0.75291  0.59505  1.0000
  H   H47       1.0  0.42700  0.89509  0.54523  1.0000
  H   H48       1.0  0.57625  0.11786  0.53773  1.0000
  H   H49       1.0  0.48309  0.90900  0.83363  1.0000
  H   H50       1.0  0.51738  0.09811  0.80812  1.0000
  H   H51       1.0  0.29660  0.58939  0.78737  1.0000
  H   H52       1.0  0.70599  0.41776  0.79510  1.0000
  H   H53       1.0  0.33381  0.58315  0.55033  1.0000
  H   H54       1.0  0.37550  0.55321  0.46000  1.0000
  H   H55       1.0  0.47552  0.63295  0.79498  1.0000
  H   H56       1.0  0.43370  0.66361  0.88407  1.0000
  H   H57       1.0  0.46586  0.56553  0.05483  1.0000
  H   H58       1.0  0.54795  0.42972  0.95301  1.0000
  H   H59       1.0  0.43495  0.53485  0.77024  1.0000
  H   H60       1.0  0.59460  0.50394  0.73988  1.0000
  H   H61       1.0  0.10489  0.52451  0.89302  1.0000
  H   H62       1.0  0.89891  0.46976  0.75257  1.0000
  H   H63       1.0  0.09933  0.57032  0.59186  1.0000
  H   H64       1.0  0.89844  0.42926  0.51714  1.0000
  H   H65       1.0  0.95319  0.51586  0.78088  1.0000
  H   H66       1.0  0.05267  0.48897  0.10351  1.0000
  H   H67       1.0  0.02665  0.57170  0.80884  1.0000
  H   H68       1.0  0.97864  0.43137  0.06901  1.0000
  C   C1        1.0  0.28905  0.63608  0.28540  1.0000
  C   C2        1.0  0.70666  0.35099  0.31861  1.0000
  C   C3        1.0  0.52654  0.98251  0.11622  1.0000
  C   C4        1.0  0.47372  0.00563  0.24780  1.0000
  C   C5        1.0  0.30911  0.61338  0.26444  1.0000
  C   C6        1.0  0.68548  0.37311  0.30810  1.0000
  C   C7        1.0  0.24359  0.61513  0.31573  1.0000
  C   C8        1.0  0.75299  0.37449  0.33286  1.0000
  C   C9        1.0  0.35216  0.56989  0.14746  1.0000
  C   C10       1.0  0.63484  0.40587  0.12540  1.0000
  C   C11       1.0  0.37282  0.54819  0.12282  1.0000
  C   C12       1.0  0.61144  0.42371  0.07111  1.0000
  C   C13       1.0  0.41662  0.56876  0.14088  1.0000
  C   C14       1.0  0.57185  0.40922  0.13599  1.0000
  C   C15       1.0  0.43888  0.61154  0.18259  1.0000
  C   C16       1.0  0.55636  0.37727  0.25715  1.0000
  C   C17       1.0  0.41782  0.63248  0.20957  1.0000
  C   C18       1.0  0.57949  0.35892  0.30890  1.0000
  C   C19       1.0  0.50542  0.89794  0.10703  1.0000
  C   C20       1.0  0.49201  0.08783  0.08869  1.0000
  C   C21       1.0  0.42199  0.50366  0.12719  1.0000
  C   C22       1.0  0.55698  0.46567  0.15416  1.0000
  C   C23       1.0  0.35098  0.69939  0.24259  1.0000
  C   C24       1.0  0.64476  0.28731  0.27960  1.0000
  C   C25       1.0  0.22217  0.63572  0.26490  1.0000
  C   C26       1.0  0.77553  0.36113  0.24486  1.0000
  C   C27       1.0  0.17909  0.61661  0.28204  1.0000
  C   C28       1.0  0.81903  0.38592  0.23701  1.0000
  C   C29       1.0  0.15604  0.57623  0.35429  1.0000
  C   C30       1.0  0.84088  0.42438  0.31817  1.0000
  C   C31       1.0  0.17730  0.55590  0.40947  1.0000
  C   C32       1.0  0.81884  0.43662  0.41442  1.0000
  C   C33       1.0  0.22041  0.57494  0.38896  1.0000
  C   C34       1.0  0.77523  0.41193  0.42119  1.0000
  C   C35       1.0  0.08953  0.56937  0.46049  1.0000
  C   C36       1.0  0.91171  0.43966  0.39333  1.0000
  C   C37       1.0  0.39300  0.48131  0.98818  1.0000
  C   C38       1.0  0.59355  0.50092  0.07145  1.0000
  C   C39       1.0  0.04267  0.53761  0.44556  1.0000
  C   C40       1.0  0.95766  0.47476  0.41078  1.0000
  C   C41       1.0  0.01556  0.54479  0.34584  1.0000
  C   C42       1.0  0.98494  0.46741  0.50969  1.0000
  C   C43       1.0  0.53817  0.02487  0.11456  1.0000
  C   C44       1.0  0.46219  0.96349  0.24975  1.0000
  C   C45       1.0  0.35189  0.63475  0.22663  1.0000
  C   C46       1.0  0.64203  0.35100  0.28101  1.0000
  C   C47       1.0  0.37294  0.67882  0.21808  1.0000
  C   C48       1.0  0.62136  0.30717  0.27234  1.0000
  C   C49       1.0  0.37383  0.61223  0.19342  1.0000
  C   C50       1.0  0.61890  0.37277  0.24239  1.0000
  C   C51       1.0  0.09933  0.61168  0.41222  1.0000
  C   C52       1.0  0.91032  0.40309  0.31941  1.0000
  C   C53       1.0  0.97310  0.51364  0.32963  1.0000
  C   C54       1.0  0.02689  0.49885  0.52919  1.0000
  C   C55       1.0  0.47649  0.90557  0.19776  1.0000
  C   C56       1.0  0.52338  0.08246  0.18601  1.0000
  C   C57       1.0  0.48872  0.95159  0.18442  1.0000
  C   C58       1.0  0.51194  0.03668  0.18090  1.0000
  C   C59       1.0  0.29280  0.64550  0.79656  1.0000
  C   C60       1.0  0.70869  0.36102  0.80866  1.0000
  C   C61       1.0  0.31398  0.62362  0.78341  1.0000
  C   C62       1.0  0.68822  0.38369  0.78742  1.0000
  C   C63       1.0  0.36440  0.59334  0.60725  1.0000
  C   C64       1.0  0.38805  0.57680  0.55521  1.0000
  C   C65       1.0  0.42832  0.59129  0.62219  1.0000
  C   C66       1.0  0.44422  0.62192  0.74347  1.0000
  C   C67       1.0  0.42082  0.63908  0.79266  1.0000
  C   C68       1.0  0.50777  0.90769  0.61262  1.0000
  C   C69       1.0  0.49327  0.09615  0.57317  1.0000
  C   C70       1.0  0.44293  0.53463  0.64104  1.0000
  C   C71       1.0  0.57687  0.49576  0.62028  1.0000
  C   C72       1.0  0.35442  0.70972  0.76325  1.0000
  C   C73       1.0  0.64633  0.29799  0.76558  1.0000
  C   C74       1.0  0.37525  0.75582  0.74079  1.0000
  C   C75       1.0  0.09136  0.56766  0.96639  1.0000
  C   C76       1.0  0.91469  0.43327  0.90104  1.0000
  C   C77       1.0  0.40508  0.50069  0.55839  1.0000
  C   C78       1.0  0.60742  0.52397  0.49687  1.0000
  C   C79       1.0  0.04496  0.53407  0.95460  1.0000
  C   C80       1.0  0.96048  0.46910  0.92108  1.0000
  C   C81       1.0  0.01627  0.54104  0.86626  1.0000
  C   C82       1.0  0.98923  0.46201  0.01059  1.0000
  C   C83       1.0  0.35734  0.64618  0.75974  1.0000
  C   C84       1.0  0.64510  0.36270  0.74997  1.0000
  C   C85       1.0  0.37790  0.69013  0.75515  1.0000
  C   C86       1.0  0.62399  0.31876  0.74156  1.0000
  C   C87       1.0  0.38069  0.62524  0.72402  1.0000
  C   C88       1.0  0.09875  0.60925  0.91921  1.0000
  C   C89       1.0  0.91214  0.40085  0.79241  1.0000
  C   C90       1.0  0.41549  0.78270  0.80646  1.0000
  C   C91       1.0  0.43603  0.82615  0.77978  1.0000
  C   C92       1.0  0.41630  0.84360  0.68527  1.0000
  C   C93       1.0  0.97439  0.50891  0.85046  1.0000
  C   C94       1.0  0.03100  0.49442  0.02863  1.0000
  C   C95       1.0  0.37571  0.81682  0.61965  1.0000
  C   C96       1.0  0.35548  0.77362  0.64780  1.0000
  C   C97       1.0  0.47908  0.91577  0.70276  1.0000
  C   C98       1.0  0.52346  0.09192  0.68360  1.0000
  N   N1        1.0  0.43995  0.54901  0.12491  1.0000
  N   N2        1.0  0.54594  0.42569  0.07860  1.0000
  N   N3        1.0  0.52714  0.89125  0.03028  1.0000
  N   N4        1.0  0.46914  0.09289  0.00223  1.0000
  N   N5        1.0  0.30971  0.67846  0.27307  1.0000
  N   N6        1.0  0.68684  0.30894  0.30159  1.0000
  N   N7        1.0  0.11141  0.55432  0.35721  1.0000
  N   N8        1.0  0.88555  0.45263  0.30203  1.0000
  N   N9        1.0  0.36839  0.46242  0.88406  1.0000
  N   N10       1.0  0.62003  0.52550  0.98546  1.0000
  N   N11       1.0  0.10601  0.64532  0.37776  1.0000
  N   N12       1.0  0.90935  0.37621  0.24532  1.0000
  N   N13       1.0  0.43258  0.87754  0.15178  1.0000
  N   N14       1.0  0.56604  0.11251  0.13861  1.0000
  N   N15       1.0  0.45431  0.57587  0.56814  1.0000
  N   N16       1.0  0.56075  0.45159  0.58304  1.0000
  N   N17       1.0  0.52836  0.89961  0.53526  1.0000
  N   N18       1.0  0.46998  0.09928  0.48182  1.0000
  N   N19       1.0  0.31258  0.68784  0.78260  1.0000
  N   N20       1.0  0.68800  0.31876  0.79714  1.0000
  N   N21       1.0  0.11436  0.55479  0.85843  1.0000
  N   N22       1.0  0.88805  0.44991  0.85239  1.0000
  N   N23       1.0  0.37732  0.47674  0.47423  1.0000
  N   N24       1.0  0.63263  0.54657  0.40252  1.0000
  N   N25       1.0  0.10343  0.64217  0.88524  1.0000
  N   N26       1.0  0.90854  0.37439  0.70760  1.0000
  N   N27       1.0  0.43522  0.88745  0.65653  1.0000
  N   N28       1.0  0.56700  0.12212  0.64828  1.0000
  C  Sn1       1.0  0.56126  0.19173  0.73322  1.0000
  C   C99       1.0  0.57732  0.17008  0.65709  1.0000
  C  Sn2       1.0  0.62045  0.18900  0.63579  1.0000
  C  Sn3       1.0  0.64811  0.23042  0.69183  1.0000
  C   C100      1.0  0.63204  0.25205  0.76792  1.0000
  C  Sn4       1.0  0.58891  0.23315  0.78926  1.0000
  O  Te1       1.0  0.51803  0.17219  0.75324  1.0000
  O  Te2       1.0  0.63577  0.16674  0.55928  1.0000
  O  Te3       1.0  0.69136  0.24995  0.67174  1.0000
  O  Te4       1.0  0.57359  0.25539  0.86574  1.0000
  Mg  Mg1       1.0  0.69712  0.20679  0.56029  1.0000
  Mg  Mg2       1.0  0.51226  0.21536  0.86486  1.0000
  C  Sn5       1.0  0.81284  0.44050  0.93832  1.0000
  C   C101      1.0  0.83839  0.42480  0.90076  1.0000
  C  Sn6       1.0  0.82200  0.38763  0.81327  1.0000
  C  Sn7       1.0  0.77918  0.36570  0.76217  1.0000
  C   C102      1.0  0.75366  0.38140  0.79971  1.0000
  C  Sn8       1.0  0.77002  0.41857  0.88722  1.0000
  O  Te5       1.0  0.82422  0.48293  0.02590  1.0000
  O  Te6       1.0  0.84816  0.37254  0.77722  1.0000
  O  Te7       1.0  0.76214  0.32845  0.67454  1.0000
  O  Te8       1.0  0.74389  0.43366  0.92325  1.0000
  Mg  Mg3       1.0  0.81035  0.32054  0.65497  1.0000
  Mg  Mg4       1.0  0.77599  0.49088  0.04541  1.0000
  C  Sn9       1.0  0.21540  0.57107  0.87496  1.0000
  C   C103      1.0  0.24117  0.60970  0.79510  1.0000
  C  Sn10      1.0  0.22630  0.63660  0.75447  1.0000
  C  Sn11      1.0  0.18482  0.62466  0.79459  1.0000
  C   C104      1.0  0.15909  0.58606  0.87443  1.0000
  C  Sn12      1.0  0.17392  0.55913  0.91508  1.0000
  O  Te9       1.0  0.23092  0.54468  0.91441  1.0000
  O  Te10      1.0  0.25264  0.67505  0.67459  1.0000
  O  Te11      1.0  0.16932  0.65109  0.75506  1.0000
  O  Te12      1.0  0.14761  0.52071  0.99494  1.0000
  Mg  Mg5       1.0  0.21717  0.70022  0.64655  1.0000
  Mg  Mg6       1.0  0.17738  0.50074  0.02311  1.0000
  C  Sn13      1.0  0.52194  0.51438  0.24659  1.0000
  C   C105      1.0  0.51975  0.47747  0.19980  1.0000
  C  Sn14      1.0  0.48517  0.44740  0.10887  1.0000
  C  Sn15      1.0  0.45210  0.45437  0.06365  1.0000
  C   C106      1.0  0.45431  0.49126  0.11040  1.0000
  C  Sn16      1.0  0.48887  0.52135  0.20137  1.0000
  O  Te13      1.0  0.55681  0.54401  0.33747  1.0000
  O  Te14      1.0  0.48368  0.41074  0.06357  1.0000
  O  Te15      1.0  0.42289  0.41949  0.97270  1.0000
  O  Te16      1.0  0.49038  0.55799  0.24664  1.0000
  Mg  Mg7       1.0  0.43529  0.37454  0.94004  1.0000
  Mg  Mg8       1.0  0.54443  0.58901  0.37008  1.0000
  C  Sn17      1.0  0.56021  0.18152  0.23337  1.0000
  C   C107      1.0  0.57608  0.16095  0.14814  1.0000
  C  Sn18      1.0  0.61915  0.18021  0.12431  1.0000
  C  Sn19      1.0  0.64695  0.22087  0.18708  1.0000
  C   C108      1.0  0.63108  0.24142  0.27227  1.0000
  C  Sn20      1.0  0.58801  0.22218  0.29614  1.0000
  O  Te17      1.0  0.51705  0.16167  0.25575  1.0000
  O  Te18      1.0  0.63427  0.15902  0.03865  1.0000
  O  Te19      1.0  0.69014  0.24071  0.16462  1.0000
  O  Te20      1.0  0.57289  0.24334  0.38176  1.0000
  Mg  Mg9       1.0  0.69561  0.19911  0.03983  1.0000
  Mg  Mg10      1.0  0.51156  0.20328  0.38073  1.0000
  C  Sn21      1.0  0.63000  0.44313  0.56874  1.0000
  C   C109      1.0  0.58798  0.43024  0.59043  1.0000
  C  Sn22      1.0  0.56269  0.39532  0.69103  1.0000
  C  Sn23      1.0  0.57978  0.37284  0.77174  1.0000
  C   C110      1.0  0.62178  0.38574  0.75007  1.0000
  C  Sn24      1.0  0.64708  0.42064  0.64945  1.0000
  O  Te21      1.0  0.65470  0.47813  0.46761  1.0000
  O  Te22      1.0  0.52077  0.38303  0.71077  1.0000
  O  Te23      1.0  0.55504  0.33782  0.87293  1.0000
  O  Te24      1.0  0.68899  0.43295  0.62972  1.0000
  Mg  Mg11      1.0  0.49975  0.33333  0.86118  1.0000
  Mg  Mg12      1.0  0.71004  0.48265  0.47941  1.0000
  C  Sn25      1.0  0.49001  0.47183  0.60611  1.0000
  C   C111      1.0  0.53329  0.49939  0.59541  1.0000
  C  Sn26      1.0  0.55093  0.54237  0.62053  1.0000
  C  Sn27      1.0  0.52476  0.55812  0.65721  1.0000
  C   C112      1.0  0.48150  0.53057  0.66792  1.0000
  C  Sn28      1.0  0.46384  0.48759  0.64279  1.0000
  O  Te25      1.0  0.47306  0.42898  0.58055  1.0000
  O  Te26      1.0  0.59428  0.56931  0.60913  1.0000
  O  Te27      1.0  0.54175  0.60101  0.68277  1.0000
  O  Te28      1.0  0.42051  0.46065  0.65420  1.0000
  Mg  Mg13      1.0  0.60256  0.62514  0.65415  1.0000
  Mg  Mg14      1.0  0.41221  0.40482  0.60930  1.0000
  C  Sn29      1.0  0.35938  0.77211  0.08743  1.0000
  C   C113      1.0  0.37326  0.74880  0.17859  1.0000
  C  Sn30      1.0  0.40709  0.76867  0.29003  1.0000
  C  Sn31      1.0  0.42746  0.81275  0.31089  1.0000
  C   C114      1.0  0.41358  0.83603  0.21980  1.0000
  C  Sn32      1.0  0.37975  0.81619  0.10829  1.0000
  O  Te29      1.0  0.33117  0.74638  0.97672  1.0000
  O  Te30      1.0  0.42042  0.74470  0.37973  1.0000
  O  Te31      1.0  0.46137  0.83326  0.42172  1.0000
  O  Te32      1.0  0.36642  0.84014  0.01865  1.0000
  Mg  Mg15      1.0  0.46793  0.78701  0.51559  1.0000
  Mg  Mg16      1.0  0.32457  0.79264  0.88283  1.0000
  C  Sn33      1.0  0.53339  0.02522  0.56557  1.0000
  C   C115      1.0  0.51205  0.04272  0.63311  1.0000
  C  Sn34      1.0  0.48003  0.01944  0.74491  1.0000
  C  Sn35      1.0  0.98557  0.97781  0.79025  1.0000
  C   C116      1.0  0.00691  0.96034  0.72275  1.0000
  C  Sn36      1.0  0.03894  0.98360  0.61090  1.0000
  O  Te33      1.0  0.56530  0.04907  0.45403  1.0000
  O  Te34      1.0  0.45913  0.03760  0.81075  1.0000
  O  Te35      1.0  0.95363  0.95397  0.90188  1.0000
  O  Te36      1.0  0.05983  0.96546  0.54511  1.0000
  Mg  Mg17      1.0  0.93436  0.99251  0.95800  1.0000
  Mg  Mg18      1.0  0.58462  0.01052  0.39792  1.0000
