data_image0
_chemical_formula_structural       H108C132N24O12SnCSn2CSnTe4Mg2SnCSn2CSnTe4Mg2SnCSn2CSnTe4Mg2SnCSn2CSnTe4Mg2SnCSn2CSnTe4Mg2SnCSn2CSnTe4Mg2
_chemical_formula_sum              "H108 C144 N24 O12 Sn24 Te24 Mg12"
_cell_length_a       37.6929
_cell_length_b       37.1199
_cell_length_c       8.44992
_cell_angle_alpha    89.067
_cell_angle_beta     66.0193
_cell_angle_gamma    120.599

_symmetry_space_group_name_H-M    'P1'
_space_group_IT_number       1

loop_
  _space_group_symop_operation_xyz
  'x, y, z'

loop_
  _atom_site_type_symbol
  _atom_site_label
  _atom_site_symmetry_multiplicity
  _atom_site_fract_x
  _atom_site_fract_y
  _atom_site_fract_z
  _atom_site_occupancy
  H   H1        1.0  0.30101  0.60444  0.27845  1.0000
  H   H2        1.0  0.41256  0.71799  0.30738  1.0000
  H   H3        1.0  0.28907  0.71145  0.39109  1.0000
  H   H4        1.0  0.70606  0.42838  0.34167  1.0000
  H   H5        1.0  0.59762  0.31818  0.28223  1.0000
  H   H6        1.0  0.70365  0.31165  0.32705  1.0000
  H   H7        1.0  0.35252  0.59994  0.10045  1.0000
  H   H8        1.0  0.43990  0.78292  0.10787  1.0000
  H   H9        1.0  0.39288  0.56288  0.03365  1.0000
  H   H10       1.0  0.48108  0.86234  0.06869  1.0000
  H   H11       1.0  0.46927  0.63484  0.30540  1.0000
  H   H12       1.0  0.35945  0.84077  0.52904  1.0000
  H   H13       1.0  0.42549  0.66982  0.38748  1.0000
  H   H14       1.0  0.31934  0.76044  0.57833  1.0000
  H   H15       1.0  0.48907  0.44349  0.23548  1.0000
  H   H16       1.0  0.57194  0.07681  0.28254  1.0000
  H   H17       1.0  0.94286  0.51813  0.32270  1.0000
  H   H18       1.0  0.51338  0.58651  0.26114  1.0000
  H   H19       1.0  0.42874  0.95826  0.27995  1.0000
  H   H20       1.0  0.06932  0.49764  0.21636  1.0000
  H   H21       1.0  0.59305  0.63637  0.16074  1.0000
  H   H22       1.0  0.39031  0.98195  0.22627  1.0000
  H   H23       1.0  0.06694  0.44817  0.06628  1.0000
  H   H24       1.0  0.43039  0.39845  0.18988  1.0000
  H   H25       1.0  0.62588  0.05592  0.19226  1.0000
  H   H26       1.0  0.00377  0.60133  0.15840  1.0000
  H   H27       1.0  0.62034  0.63822  0.29494  1.0000
  H   H28       1.0  0.37036  0.01334  0.34248  1.0000
  H   H29       1.0  0.01737  0.39224  0.14915  1.0000
  H   H30       1.0  0.37193  0.38588  0.30725  1.0000
  H   H31       1.0  0.61408  0.01222  0.34511  1.0000
  H   H32       1.0  0.01029  0.63392  0.31226  1.0000
  H   H33       1.0  0.55895  0.61722  0.40275  1.0000
  H   H34       1.0  0.37414  0.97585  0.46150  1.0000
  H   H35       1.0  0.02857  0.42196  0.30663  1.0000
  H   H36       1.0  0.40543  0.39835  0.42439  1.0000
  H   H37       1.0  0.59076  0.04394  0.43179  1.0000
  H   H38       1.0  0.95641  0.58139  0.38485  1.0000
  H   H39       1.0  0.46427  0.57002  0.00166  1.0000
  H   H40       1.0  0.45235  0.91612  0.12814  1.0000
  H   H41       1.0  0.13258  0.55549  0.12632  1.0000
  H   H42       1.0  0.52378  0.43336  0.29356  1.0000
  H   H43       1.0  0.58988  0.13624  0.10188  1.0000
  H   H44       1.0  0.92291  0.47577  0.06099  1.0000
  H   H45       1.0  0.41831  0.53772  0.39329  1.0000
  H   H46       1.0  0.47051  0.91586  0.43437  1.0000
  H   H47       1.0  0.08366  0.58423  0.40876  1.0000
  H   H48       1.0  0.58594  0.51722  0.33472  1.0000
  H   H49       1.0  0.49748  0.10331  0.41462  1.0000
  H   H50       1.0  0.89290  0.42300  0.40572  1.0000
  H   H51       1.0  0.29568  0.57385  0.75541  1.0000
  H   H52       1.0  0.40996  0.68632  0.78020  1.0000
  H   H53       1.0  0.29016  0.68480  0.85108  1.0000
  H   H54       1.0  0.69560  0.39093  0.88776  1.0000
  H   H55       1.0  0.58687  0.28228  0.82667  1.0000
  H   H56       1.0  0.70769  0.28491  0.75335  1.0000
  H   H57       1.0  0.31239  0.53835  0.87660  1.0000
  H   H58       1.0  0.43658  0.76090  0.54496  1.0000
  H   H59       1.0  0.24057  0.66193  0.77901  1.0000
  H   H60       1.0  0.57996  0.24245  0.67547  1.0000
  H   H61       1.0  0.34870  0.49815  0.84028  1.0000
  H   H62       1.0  0.46866  0.83887  0.52050  1.0000
  H   H63       1.0  0.16929  0.62814  0.75277  1.0000
  H   H64       1.0  0.54267  0.17126  0.62359  1.0000
  H   H65       1.0  0.48543  0.61979  0.59622  1.0000
  H   H66       1.0  0.35363  0.80404  0.04228  1.0000
  H   H67       1.0  0.15344  0.50464  0.81863  1.0000
  H   H68       1.0  0.62511  0.14245  0.76034  1.0000
  H   H69       1.0  0.44862  0.65992  0.62811  1.0000
  H   H70       1.0  0.31994  0.72527  0.06139  1.0000
  H   H71       1.0  0.22542  0.53856  0.84827  1.0000
  H   H72       1.0  0.66124  0.21410  0.82651  1.0000
  H   H73       1.0  0.47657  0.40138  0.77402  1.0000
  H   H74       1.0  0.55486  0.04540  0.80754  1.0000
  H   H75       1.0  0.94201  0.49684  0.77416  1.0000
  H   H76       1.0  0.49735  0.54359  0.79286  1.0000
  H   H77       1.0  0.41842  0.93272  0.74949  1.0000
  H   H78       1.0  0.06578  0.47672  0.71905  1.0000
  H   H79       1.0  0.60998  0.59908  0.78803  1.0000
  H   H80       1.0  0.36767  0.00293  0.83137  1.0000
  H   H81       1.0  0.00500  0.36327  0.71141  1.0000
  H   H82       1.0  0.34195  0.35519  0.89269  1.0000
  H   H83       1.0  0.61055  0.02822  0.66722  1.0000
  H   H84       1.0  0.98004  0.57210  0.69477  1.0000
  H   H85       1.0  0.55061  0.58447  0.88546  1.0000
  H   H86       1.0  0.39441  0.01464  0.97274  1.0000
  H   H87       1.0  0.00848  0.39454  0.87069  1.0000
  H   H88       1.0  0.35888  0.39654  0.00522  1.0000
  H   H89       1.0  0.60675  0.98619  0.79767  1.0000
  H   H90       1.0  0.98797  0.60103  0.85946  1.0000
  H   H91       1.0  0.58336  0.59235  0.64677  1.0000
  H   H92       1.0  0.36553  0.96041  0.94881  1.0000
  H   H93       1.0  0.05717  0.41682  0.64492  1.0000
  H   H94       1.0  0.37537  0.35881  0.00266  1.0000
  H   H95       1.0  0.58299  0.01530  0.90974  1.0000
  H   H96       1.0  0.94041  0.54459  0.93392  1.0000
  H   H97       1.0  0.47241  0.54689  0.57255  1.0000
  H   H98       1.0  0.42833  0.88306  0.65217  1.0000
  H   H99       1.0  0.13010  0.54189  0.61163  1.0000
  H   H100      1.0  0.54604  0.41081  0.66426  1.0000
  H   H101      1.0  0.56541  0.11432  0.52343  1.0000
  H   H102      1.0  0.91603  0.46334  0.60740  1.0000
  H   H103      1.0  0.39326  0.48051  0.91689  1.0000
  H   H104      1.0  0.46675  0.88754  0.89669  1.0000
  H   H105      1.0  0.07035  0.55237  0.93671  1.0000
  H   H106      1.0  0.56304  0.46716  0.90396  1.0000
  H   H107      1.0  0.50414  0.07970  0.91481  1.0000
  H   H108      1.0  0.90074  0.39433  0.85781  1.0000
  C   C1        1.0  0.28859  0.65435  0.33623  1.0000
  C   C2        1.0  0.35878  0.65776  0.29576  1.0000
  C   C3        1.0  0.35274  0.71908  0.35212  1.0000
  C   C4        1.0  0.71114  0.37307  0.32584  1.0000
  C   C5        1.0  0.64694  0.37450  0.32668  1.0000
  C   C6        1.0  0.64748  0.30897  0.30451  1.0000
  C   C7        1.0  0.31472  0.63616  0.30330  1.0000
  C   C8        1.0  0.37766  0.69963  0.31944  1.0000
  C   C9        1.0  0.30776  0.69574  0.36653  1.0000
  C   C10       1.0  0.68935  0.39493  0.33386  1.0000
  C   C11       1.0  0.62756  0.33225  0.30638  1.0000
  C   C12       1.0  0.68856  0.32953  0.32001  1.0000
  C   C13       1.0  0.38513  0.63721  0.25222  1.0000
  C   C14       1.0  0.37659  0.76587  0.34522  1.0000
  C   C15       1.0  0.37702  0.60707  0.15084  1.0000
  C   C16       1.0  0.42262  0.79535  0.20373  1.0000
  C   C17       1.0  0.40060  0.58658  0.10941  1.0000
  C   C18       1.0  0.44539  0.84021  0.17870  1.0000
  C   C19       1.0  0.43387  0.59637  0.16552  1.0000
  C   C20       1.0  0.42232  0.85690  0.29349  1.0000
  C   C21       1.0  0.44318  0.62705  0.26299  1.0000
  C   C22       1.0  0.37713  0.82772  0.43919  1.0000
  C   C23       1.0  0.41886  0.64698  0.30713  1.0000
  C   C24       1.0  0.35452  0.78270  0.46501  1.0000
  C   C25       1.0  0.43385  0.53335  0.25887  1.0000
  C   C26       1.0  0.48145  0.93035  0.29430  1.0000
  C   C27       1.0  0.09203  0.57707  0.27709  1.0000
  C   C28       1.0  0.57151  0.49996  0.24837  1.0000
  C   C29       1.0  0.51914  0.10533  0.27432  1.0000
  C   C30       1.0  0.91939  0.44173  0.26327  1.0000
  C   C31       1.0  0.46816  0.52221  0.25277  1.0000
  C   C32       1.0  0.49203  0.97614  0.28167  1.0000
  C   C33       1.0  0.04660  0.54041  0.28173  1.0000
  C   C34       1.0  0.53388  0.50669  0.25941  1.0000
  C   C35       1.0  0.50962  0.06008  0.27180  1.0000
  C   C36       1.0  0.96601  0.47606  0.25787  1.0000
  C   C37       1.0  0.46133  0.48149  0.24743  1.0000
  C   C38       1.0  0.53186  0.00939  0.28900  1.0000
  C   C39       1.0  0.01016  0.54580  0.31427  1.0000
  C   C40       1.0  0.54042  0.54743  0.26764  1.0000
  C   C41       1.0  0.46808  0.02585  0.27782  1.0000
  C   C42       1.0  0.00285  0.47092  0.22322  1.0000
  C   C43       1.0  0.49464  0.47475  0.24843  1.0000
  C   C44       1.0  0.54091  0.05111  0.27877  1.0000
  C   C45       1.0  0.97073  0.51391  0.30240  1.0000
  C   C46       1.0  0.50798  0.55478  0.26245  1.0000
  C   C47       1.0  0.46036  0.98477  0.27774  1.0000
  C   C48       1.0  0.04175  0.50249  0.24012  1.0000
  C   C49       1.0  0.58805  0.61971  0.28437  1.0000
  C   C50       1.0  0.39013  0.99895  0.33171  1.0000
  C   C51       1.0  0.03052  0.42440  0.17311  1.0000
  C   C52       1.0  0.40726  0.40549  0.29335  1.0000
  C   C53       1.0  0.59987  0.02985  0.32051  1.0000
  C   C54       1.0  0.99487  0.60060  0.29992  1.0000
  C   C55       1.0  0.39395  0.50016  0.23595  1.0000
  C   C56       1.0  0.52277  0.92920  0.18404  1.0000
  C   C57       1.0  0.11244  0.61773  0.14343  1.0000
  C   C58       1.0  0.61099  0.52201  0.06012  1.0000
  C   C59       1.0  0.50437  0.12042  0.16561  1.0000
  C   C60       1.0  0.92025  0.40855  0.17025  1.0000
  C   C61       1.0  0.28596  0.62563  0.80933  1.0000
  C   C62       1.0  0.35446  0.62623  0.77274  1.0000
  C   C63       1.0  0.35306  0.69074  0.80804  1.0000
  C   C64       1.0  0.70706  0.34026  0.82318  1.0000
  C   C65       1.0  0.63929  0.33966  0.85386  1.0000
  C   C66       1.0  0.64361  0.27704  0.79579  1.0000
  C   C67       1.0  0.31038  0.60567  0.77980  1.0000
  C   C68       1.0  0.37596  0.66943  0.78401  1.0000
  C   C69       1.0  0.30772  0.66807  0.82725  1.0000
  C   C70       1.0  0.68209  0.35983  0.85672  1.0000
  C   C71       1.0  0.62010  0.29795  0.82814  1.0000
  C   C72       1.0  0.68746  0.29915  0.79071  1.0000
  C   C73       1.0  0.24016  0.60366  0.81061  1.0000
  C   C74       1.0  0.37730  0.60254  0.75149  1.0000
  C   C75       1.0  0.37585  0.73739  0.80573  1.0000
  C   C76       1.0  0.62294  0.23393  0.75948  1.0000
  C   C77       1.0  0.35055  0.55674  0.81084  1.0000
  C   C78       1.0  0.41862  0.77010  0.65593  1.0000
  C   C79       1.0  0.22172  0.62721  0.79086  1.0000
  C   C80       1.0  0.58954  0.22066  0.69985  1.0000
  C   C81       1.0  0.37109  0.53354  0.79186  1.0000
  C   C82       1.0  0.43672  0.81424  0.64195  1.0000
  C   C83       1.0  0.18091  0.60804  0.77533  1.0000
  C   C84       1.0  0.56868  0.18032  0.66724  1.0000
  C   C85       1.0  0.42014  0.55587  0.71180  1.0000
  C   C86       1.0  0.41305  0.82664  0.78055  1.0000
  C   C87       1.0  0.15661  0.56395  0.77977  1.0000
  C   C88       1.0  0.58092  0.15165  0.68990  1.0000
  C   C89       1.0  0.44740  0.60181  0.65349  1.0000
  C   C90       1.0  0.37160  0.79429  0.93413  1.0000
  C   C91       1.0  0.17296  0.53927  0.80998  1.0000
  C   C92       1.0  0.61466  0.16433  0.74682  1.0000
  C   C93       1.0  0.42641  0.62443  0.67388  1.0000
  C   C94       1.0  0.35287  0.75025  0.94451  1.0000
  C   C95       1.0  0.21395  0.55879  0.82477  1.0000
  C   C96       1.0  0.63535  0.20490  0.78117  1.0000
  C   C97       1.0  0.41921  0.48878  0.77386  1.0000
  C   C98       1.0  0.47063  0.90215  0.77115  1.0000
  C   C99       1.0  0.08353  0.55336  0.79280  1.0000
  C   C100      1.0  0.55884  0.46080  0.78348  1.0000
  C   C101      1.0  0.50954  0.07729  0.77805  1.0000
  C   C102      1.0  0.92149  0.41840  0.72383  1.0000
  C   C103      1.0  0.45429  0.47946  0.77439  1.0000
  C   C104      1.0  0.47831  0.94669  0.77573  1.0000
  C   C105      1.0  0.04223  0.51896  0.76768  1.0000
  C   C106      1.0  0.52026  0.46568  0.79047  1.0000
  C   C107      1.0  0.49604  0.03094  0.77485  1.0000
  C   C108      1.0  0.96643  0.45510  0.71978  1.0000
  C   C109      1.0  0.44852  0.43911  0.77158  1.0000
  C   C110      1.0  0.51723  0.97940  0.79221  1.0000
  C   C111      1.0  0.00644  0.52426  0.78621  1.0000
  C   C112      1.0  0.52531  0.50583  0.79870  1.0000
  C   C113      1.0  0.45784  0.99883  0.75599  1.0000
  C   C114      1.0  0.00153  0.44945  0.70543  1.0000
  C   C115      1.0  0.48154  0.43279  0.77857  1.0000
  C   C116      1.0  0.52508  0.02031  0.79469  1.0000
  C   C117      1.0  0.96986  0.49300  0.75762  1.0000
  C   C118      1.0  0.49294  0.51246  0.78883  1.0000
  C   C119      1.0  0.44906  0.95710  0.75981  1.0000
  C   C120      1.0  0.03912  0.48150  0.72674  1.0000
  C   C121      1.0  0.57699  0.58065  0.78217  1.0000
  C   C122      1.0  0.38683  0.99544  0.87929  1.0000
  C   C123      1.0  0.01866  0.39617  0.72796  1.0000
  C   C124      1.0  0.36956  0.37742  0.92500  1.0000
  C   C125      1.0  0.58919  0.00200  0.79361  1.0000
  C   C126      1.0  0.97692  0.56947  0.83055  1.0000
  C   C127      1.0  0.39111  0.46228  0.68915  1.0000
  C   C128      1.0  0.51341  0.90780  0.62474  1.0000
  C   C129      1.0  0.10200  0.59778  0.69560  1.0000
  C   C130      1.0  0.60379  0.49611  0.62610  1.0000
  C   C131      1.0  0.48044  0.08905  0.74793  1.0000
  C   C132      1.0  0.92720  0.39265  0.59571  1.0000
  N   N1        1.0  0.45900  0.57579  0.12458  1.0000
  N   N2        1.0  0.44212  0.90309  0.25880  1.0000
  N   N3        1.0  0.12438  0.56416  0.24354  1.0000
  N   N4        1.0  0.55200  0.45403  0.30954  1.0000
  N   N5        1.0  0.56848  0.13629  0.22423  1.0000
  N   N6        1.0  0.90222  0.46357  0.19831  1.0000
  N   N7        1.0  0.36359  0.47973  0.20151  1.0000
  N   N8        1.0  0.55201  0.92376  0.09836  1.0000
  N   N9        1.0  0.13065  0.65003  0.03527  1.0000
  N   N10       1.0  0.64234  0.53946  0.91298  1.0000
  N   N11       1.0  0.49371  0.13552  0.08632  1.0000
  N   N12       1.0  0.91581  0.38175  0.09515  1.0000
  N   N13       1.0  0.44372  0.53545  0.69635  1.0000
  N   N14       1.0  0.42722  0.87140  0.76545  1.0000
  N   N15       1.0  0.11802  0.54257  0.74326  1.0000
  N   N16       1.0  0.54656  0.41679  0.78176  1.0000
  N   N17       1.0  0.56044  0.10978  0.65265  1.0000
  N   N18       1.0  0.89544  0.43552  0.71130  1.0000
  N   N19       1.0  0.36537  0.44421  0.63096  1.0000
  N   N20       1.0  0.54599  0.91052  0.51029  1.0000
  N   N21       1.0  0.11735  0.63294  0.61841  1.0000
  N   N22       1.0  0.63777  0.52312  0.49677  1.0000
  N   N23       1.0  0.46177  0.10310  0.71580  1.0000
  N   N24       1.0  0.92501  0.36866  0.50724  1.0000
  O   O1        1.0  0.42270  0.45003  0.23841  1.0000
  O   O2        1.0  0.55882  0.99752  0.31115  1.0000
  O   O3        1.0  0.01568  0.58334  0.35754  1.0000
  O   O4        1.0  0.57978  0.57774  0.27856  1.0000
  O   O5        1.0  0.43647  0.03504  0.28656  1.0000
  O   O6        1.0  0.99954  0.43550  0.16930  1.0000
  O   O7        1.0  0.41149  0.40535  0.75414  1.0000
  O   O8        1.0  0.54545  0.96803  0.80456  1.0000
  O   O9        1.0  0.00854  0.55970  0.83971  1.0000
  O   O10       1.0  0.56308  0.53620  0.81620  1.0000
  O   O11       1.0  0.42964  0.00764  0.72159  1.0000
  O   O12       1.0  0.99655  0.41162  0.67119  1.0000
  C  Sn1       1.0  0.62881  0.42260  0.71213  1.0000
  C   C133      1.0  0.58087  0.40363  0.77564  1.0000
  C  Sn2       1.0  0.54733  0.36317  0.90629  1.0000
  C  Sn3       1.0  0.56200  0.34121  0.97499  1.0000
  C   C134      1.0  0.60992  0.36018  0.91151  1.0000
  C  Sn4       1.0  0.64348  0.40064  0.78083  1.0000
  O  Te1       1.0  0.66172  0.46307  0.58149  1.0000
  O  Te2       1.0  0.49960  0.34485  0.96765  1.0000
  O  Te3       1.0  0.65452  0.36927  0.10573  1.0000
  O  Te4       1.0  0.69118  0.41896  0.71950  1.0000
  Mg  Mg1       1.0  0.59361  0.35766  0.14676  1.0000
  Mg  Mg2       1.0  0.72268  0.47472  0.54047  1.0000
  C  Sn5       1.0  0.63569  0.45888  0.19559  1.0000
  C   C135      1.0  0.58765  0.43962  0.26042  1.0000
  C  Sn6       1.0  0.55460  0.39754  0.37925  1.0000
  C  Sn7       1.0  0.56988  0.37423  0.43456  1.0000
  C   C136      1.0  0.61789  0.39349  0.36977  1.0000
  C  Sn8       1.0  0.65097  0.43557  0.25090  1.0000
  O  Te5       1.0  0.66811  0.50098  0.07690  1.0000
  O  Te6       1.0  0.50677  0.37896  0.44219  1.0000
  O  Te7       1.0  0.53741  0.33209  0.55334  1.0000
  O  Te8       1.0  0.69878  0.45415  0.18800  1.0000
  Mg  Mg3       1.0  0.47612  0.32076  0.60189  1.0000
  Mg  Mg4       1.0  0.72945  0.51235  0.02837  1.0000
  C  Sn9       1.0  0.83009  0.40671  0.12480  1.0000
  C   C137      1.0  0.85298  0.43929  0.19605  1.0000
  C  Sn10      1.0  0.82735  0.44880  0.34055  1.0000
  C  Sn11      1.0  0.77780  0.42524  0.41550  1.0000
  C   C138      1.0  0.75494  0.39268  0.34428  1.0000
  C  Sn12      1.0  0.78054  0.38315  0.19975  1.0000
  O  Te9       1.0  0.73094  0.32918  0.98033  1.0000
  O  Te10      1.0  0.85102  0.48153  0.40944  1.0000
  O  Te11      1.0  0.75148  0.43423  0.56008  1.0000
  O  Te12      1.0  0.75690  0.35044  0.13090  1.0000
  Mg  Mg5       1.0  0.79970  0.48174  0.60706  1.0000
  Mg  Mg6       1.0  0.68269  0.28162  0.93334  1.0000
  C  Sn13      1.0  0.63788  0.21031  0.24470  1.0000
  C   C139      1.0  0.59162  0.18005  0.28150  1.0000
  C  Sn14      1.0  0.56180  0.19343  0.30225  1.0000
  C  Sn15      1.0  0.57859  0.23800  0.28575  1.0000
  C   C140      1.0  0.62483  0.26823  0.24893  1.0000
  C  Sn16      1.0  0.65466  0.25488  0.22820  1.0000
  O  Te13      1.0  0.66707  0.19620  0.22447  1.0000
  O  Te14      1.0  0.51569  0.16257  0.33905  1.0000
  O  Te15      1.0  0.54935  0.25209  0.30601  1.0000
  O  Te16      1.0  0.70076  0.28571  0.19138  1.0000
  Mg  Mg7       1.0  0.48940  0.19776  0.35512  1.0000
  Mg  Mg8       1.0  0.72708  0.25057  0.17520  1.0000
  C  Sn17      1.0  0.78069  0.34230  0.86362  1.0000
  C   C141      1.0  0.75443  0.35882  0.86690  1.0000
  C  Sn18      1.0  0.77674  0.40337  0.79384  1.0000
  C  Sn19      1.0  0.82634  0.43199  0.71577  1.0000
  C   C142      1.0  0.85257  0.41546  0.71249  1.0000
  C  Sn20      1.0  0.83028  0.37092  0.78554  1.0000
  O  Te17      1.0  0.75764  0.29765  0.93743  1.0000
  O  Te18      1.0  0.74974  0.41912  0.79875  1.0000
  O  Te19      1.0  0.84937  0.47666  0.64193  1.0000
  O  Te20      1.0  0.85726  0.35516  0.78063  1.0000
  Mg  Mg9       1.0  0.79731  0.48250  0.68077  1.0000
  Mg  Mg10      1.0  0.80973  0.29179  0.89848  1.0000
  C  Sn21      1.0  0.20201  0.64265  0.22386  1.0000
  C   C143      1.0  0.17557  0.59926  0.22397  1.0000
  C  Sn22      1.0  0.18024  0.56832  0.29244  1.0000
  C  Sn23      1.0  0.21197  0.58102  0.36238  1.0000
  C   C144      1.0  0.23838  0.62439  0.36229  1.0000
  C  Sn24      1.0  0.23374  0.65535  0.29381  1.0000
  O  Te21      1.0  0.19677  0.67303  0.15474  1.0000
  O  Te22      1.0  0.15345  0.52513  0.29105  1.0000
  O  Te23      1.0  0.21719  0.55060  0.43153  1.0000
  O  Te24      1.0  0.26050  0.69851  0.29521  1.0000
  Mg  Mg11      1.0  0.17297  0.49572  0.40018  1.0000
  Mg  Mg12      1.0  0.24100  0.72794  0.18620  1.0000
