data_image0
_chemical_formula_structural       H104C182N16SnCSn2CSnTe4Mg2SnCSn2CSnTe4Mg2SnCSn2CSnTe4Mg2SnCSn2CSnTe4Mg2SnCSn2CSnTe4Mg2SnCSn2CSnTe4Mg2SnCSn2CSnTe4Mg2SnCSn2CSnTe4Mg2SnCSn2CSnTe4Mg2
_chemical_formula_sum              "H104 C200 N16 Sn36 Te36 Mg18"
_cell_length_a       36.3327
_cell_length_b       36.7241
_cell_length_c       8.05127
_cell_angle_alpha    89.3097
_cell_angle_beta     90.6819
_cell_angle_gamma    120.268

_symmetry_space_group_name_H-M    'P1'
_space_group_IT_number       1

loop_
  _space_group_symop_operation_xyz
  'x, y, z'

loop_
  _atom_site_type_symbol
  _atom_site_label
  _atom_site_symmetry_multiplicity
  _atom_site_fract_x
  _atom_site_fract_y
  _atom_site_fract_z
  _atom_site_occupancy
  H   H1        1.0  0.31893  0.76047  0.39813  1.0000
  H   H2        1.0  0.68434  0.24068  0.38554  1.0000
  H   H3        1.0  0.52225  0.90976  0.06417  1.0000
  H   H4        1.0  0.47960  0.08858  0.06659  1.0000
  H   H5        1.0  0.45282  0.77802  0.46396  1.0000
  H   H6        1.0  0.53988  0.22249  0.44696  1.0000
  H   H7        1.0  0.50249  0.75258  0.39550  1.0000
  H   H8        1.0  0.49217  0.25209  0.40976  1.0000
  H   H9        1.0  0.57969  0.78795  0.99645  1.0000
  H   H10       1.0  0.42147  0.21199  0.01874  1.0000
  H   H11       1.0  0.60470  0.85209  0.17039  1.0000
  H   H12       1.0  0.39722  0.14651  0.18799  1.0000
  H   H13       1.0  0.41369  0.71214  0.33338  1.0000
  H   H14       1.0  0.58726  0.28728  0.32312  1.0000
  H   H15       1.0  0.55568  0.87804  0.23607  1.0000
  H   H16       1.0  0.44607  0.11898  0.24059  1.0000
  H   H17       1.0  0.33572  0.57397  0.24587  1.0000
  H   H18       1.0  0.66522  0.42555  0.25634  1.0000
  H   H19       1.0  0.48675  0.64420  0.43152  1.0000
  H   H20       1.0  0.51375  0.35404  0.42863  1.0000
  H   H21       1.0  0.44379  0.67874  0.47732  1.0000
  H   H22       1.0  0.55660  0.31892  0.47413  1.0000
  H   H23       1.0  0.38914  0.48076  0.11687  1.0000
  H   H24       1.0  0.61145  0.51916  0.11786  1.0000
  H   H25       1.0  0.30064  0.59223  0.40764  1.0000
  H   H26       1.0  0.69917  0.40621  0.42418  1.0000
  H   H27       1.0  0.24043  0.67210  0.28358  1.0000
  H   H28       1.0  0.76088  0.33028  0.27625  1.0000
  H   H29       1.0  0.75762  0.50328  0.47245  1.0000
  H   H30       1.0  0.20562  0.42387  0.10121  1.0000
  H   H31       1.0  0.79517  0.57604  0.11111  1.0000
  H   H32       1.0  0.16255  0.52285  0.47627  1.0000
  H   H33       1.0  0.83740  0.47866  0.47025  1.0000
  H   H34       1.0  0.24102  0.56621  0.51102  1.0000
  H   H35       1.0  0.75976  0.43316  0.51777  1.0000
  H   H36       1.0  0.08898  0.61590  0.17160  1.0000
  H   H37       1.0  0.91113  0.39152  0.13867  1.0000
  H   H38       1.0  0.20899  0.79514  0.08525  1.0000
  H   H39       1.0  0.79244  0.20863  0.11176  1.0000
  H   H40       1.0  0.42890  0.76271  0.19780  1.0000
  H   H41       1.0  0.57037  0.23515  0.20209  1.0000
  H   H42       1.0  0.35252  0.83814  0.34155  1.0000
  H   H43       1.0  0.65200  0.16321  0.33179  1.0000
  H   H44       1.0  0.31570  0.75912  0.91328  1.0000
  H   H45       1.0  0.68108  0.23905  0.87601  1.0000
  H   H46       1.0  0.51679  0.91012  0.56763  1.0000
  H   H47       1.0  0.47563  0.08921  0.55551  1.0000
  H   H48       1.0  0.45635  0.77697  0.95490  1.0000
  H   H49       1.0  0.54305  0.22058  0.95351  1.0000
  H   H50       1.0  0.50501  0.75046  0.88962  1.0000
  H   H51       1.0  0.49459  0.24890  0.90157  1.0000
  H   H52       1.0  0.57758  0.79214  0.49356  1.0000
  H   H53       1.0  0.41988  0.21562  0.53509  1.0000
  H   H54       1.0  0.60256  0.85703  0.66401  1.0000
  H   H55       1.0  0.39582  0.14915  0.69700  1.0000
  H   H56       1.0  0.41177  0.71223  0.83245  1.0000
  H   H57       1.0  0.58582  0.28790  0.81894  1.0000
  H   H58       1.0  0.55221  0.88112  0.73547  1.0000
  H   H59       1.0  0.44396  0.12025  0.73498  1.0000
  H   H60       1.0  0.33412  0.57328  0.75285  1.0000
  H   H61       1.0  0.66643  0.42804  0.75714  1.0000
  H   H62       1.0  0.48741  0.64667  0.91002  1.0000
  H   H63       1.0  0.51503  0.35782  0.92762  1.0000
  H   H64       1.0  0.44401  0.68027  0.96531  1.0000
  H   H65       1.0  0.55611  0.32062  0.96307  1.0000
  H   H66       1.0  0.47436  0.42628  0.72600  1.0000
  H   H67       1.0  0.52962  0.58014  0.68776  1.0000
  H   H68       1.0  0.38858  0.48123  0.61284  1.0000
  H   H69       1.0  0.61655  0.52594  0.64774  1.0000
  H   H70       1.0  0.30030  0.59168  0.92038  1.0000
  H   H71       1.0  0.69994  0.40650  0.90274  1.0000
  H   H72       1.0  0.68002  0.45864  0.52026  1.0000
  H   H73       1.0  0.23860  0.66870  0.79043  1.0000
  H   H74       1.0  0.75915  0.32718  0.76660  1.0000
  H   H75       1.0  0.20527  0.42292  0.58839  1.0000
  H   H76       1.0  0.79797  0.57462  0.59757  1.0000
  H   H77       1.0  0.16224  0.52026  0.99041  1.0000
  H   H78       1.0  0.83831  0.47437  0.97226  1.0000
  H   H79       1.0  0.75977  0.60087  0.77142  1.0000
  H   H80       1.0  0.24029  0.56525  0.03501  1.0000
  H   H81       1.0  0.76008  0.43122  0.00545  1.0000
  H   H82       1.0  0.68276  0.55522  0.82523  1.0000
  H   H83       1.0  0.57460  0.04785  0.65730  1.0000
  H   H84       1.0  0.41803  0.95057  0.65040  1.0000
  H   H85       1.0  0.08841  0.60868  0.64802  1.0000
  H   H86       1.0  0.91028  0.38338  0.65549  1.0000
  H   H87       1.0  0.77664  0.31481  0.53498  1.0000
  H   H88       1.0  0.74738  0.23910  0.48140  1.0000
  H   H89       1.0  0.20816  0.79075  0.59693  1.0000
  H   H90       1.0  0.78365  0.20207  0.59626  1.0000
  H   H91       1.0  0.85052  0.24232  0.76300  1.0000
  H   H92       1.0  0.87839  0.31768  0.82383  1.0000
  H   H93       1.0  0.94805  0.52062  0.77416  1.0000
  H   H94       1.0  0.05237  0.47245  0.71197  1.0000
  H   H95       1.0  0.42595  0.76323  0.70573  1.0000
  H   H96       1.0  0.56831  0.23582  0.69100  1.0000
  H   H97       1.0  0.42407  0.45324  0.71153  1.0000
  H   H98       1.0  0.57986  0.55329  0.69466  1.0000
  H   H99       1.0  0.54524  0.97069  0.66192  1.0000
  H   H100      1.0  0.44743  0.02778  0.64173  1.0000
  H   H101      1.0  0.34807  0.83662  0.85594  1.0000
  H   H102      1.0  0.64733  0.16144  0.82399  1.0000
  H   H103      1.0  0.02563  0.57278  0.77147  1.0000
  H   H104      1.0  0.97501  0.42040  0.71160  1.0000
  C   C1        1.0  0.36100  0.64951  0.37263  1.0000
  C   C2        1.0  0.63950  0.34915  0.37605  1.0000
  C   C3        1.0  0.37951  0.69305  0.35090  1.0000
  C   C4        1.0  0.62131  0.30605  0.34675  1.0000
  C   C5        1.0  0.49080  0.89036  0.11750  1.0000
  C   C6        1.0  0.51140  0.10824  0.11772  1.0000
  C   C7        1.0  0.38664  0.62875  0.35966  1.0000
  C   C8        1.0  0.61386  0.36993  0.36313  1.0000
  C   C9        1.0  0.50249  0.82968  0.09835  1.0000
  C   C10       1.0  0.49820  0.16805  0.10104  1.0000
  C   C11       1.0  0.36865  0.58923  0.28746  1.0000
  C   C12       1.0  0.63212  0.41005  0.29404  1.0000
  C   C13       1.0  0.48862  0.79299  0.00432  1.0000
  C   C14       1.0  0.51140  0.20505  0.00737  1.0000
  C   C15       1.0  0.39210  0.56868  0.26189  1.0000
  C   C16       1.0  0.60867  0.43070  0.26614  1.0000
  C   C17       1.0  0.51334  0.78042  0.47230  1.0000
  C   C18       1.0  0.48153  0.22328  0.48191  1.0000
  C   C19       1.0  0.43620  0.58977  0.31084  1.0000
  C   C20       1.0  0.56445  0.40923  0.31136  1.0000
  C   C21       1.0  0.55820  0.79943  0.02603  1.0000
  C   C22       1.0  0.44273  0.19968  0.04216  1.0000
  C   C23       1.0  0.45385  0.62972  0.38900  1.0000
  C   C24       1.0  0.54666  0.36877  0.38794  1.0000
  C   C25       1.0  0.57235  0.83567  0.12116  1.0000
  C   C26       1.0  0.42903  0.16275  0.13506  1.0000
  C   C27       1.0  0.42992  0.64870  0.41304  1.0000
  C   C28       1.0  0.57051  0.34953  0.41256  1.0000
  C   C29       1.0  0.54483  0.85059  0.15721  1.0000
  C   C30       1.0  0.45649  0.14709  0.16421  1.0000
  C   C31       1.0  0.44507  0.53495  0.22253  1.0000
  C   C32       1.0  0.55598  0.46466  0.22278  1.0000
  C   C33       1.0  0.29289  0.64664  0.38733  1.0000
  C   C34       1.0  0.70798  0.35293  0.39017  1.0000
  C   C35       1.0  0.37434  0.52720  0.19424  1.0000
  C   C36       1.0  0.62657  0.47248  0.19851  1.0000
  C   C37       1.0  0.31674  0.62625  0.39284  1.0000
  C   C38       1.0  0.68358  0.37254  0.40217  1.0000
  C   C39       1.0  0.24581  0.62186  0.39071  1.0000
  C   C40       1.0  0.75505  0.37879  0.39053  1.0000
  C   C41       1.0  0.22280  0.63940  0.32396  1.0000
  C   C42       1.0  0.77827  0.36274  0.31780  1.0000
  C   C43       1.0  0.40153  0.51154  0.17322  1.0000
  C   C44       1.0  0.59943  0.48830  0.17543  1.0000
  C   C45       1.0  0.17803  0.61565  0.30519  1.0000
  C   C46       1.0  0.82264  0.38781  0.29265  1.0000
  C   C47       1.0  0.15615  0.57202  0.35535  1.0000
  C   C48       1.0  0.84390  0.43113  0.34331  1.0000
  C   C49       1.0  0.18002  0.55527  0.43155  1.0000
  C   C50       1.0  0.82003  0.44636  0.42609  1.0000
  C   C51       1.0  0.22354  0.57952  0.44994  1.0000
  C   C52       1.0  0.77696  0.42092  0.45039  1.0000
  C   C53       1.0  0.09062  0.56163  0.27125  1.0000
  C   C54       1.0  0.90941  0.44448  0.24873  1.0000
  C   C55       1.0  0.15259  0.63239  0.24040  1.0000
  C   C56       1.0  0.84846  0.37290  0.22053  1.0000
  C   C57       1.0  0.10915  0.60473  0.22508  1.0000
  C   C58       1.0  0.89129  0.40186  0.19791  1.0000
  C   C59       1.0  0.35369  0.71145  0.34275  1.0000
  C   C60       1.0  0.64747  0.28809  0.33878  1.0000
  C   C61       1.0  0.37248  0.75686  0.30484  1.0000
  C   C62       1.0  0.62903  0.24283  0.29994  1.0000
  C   C63       1.0  0.41230  0.77911  0.23159  1.0000
  C   C64       1.0  0.58840  0.21971  0.23197  1.0000
  C   C65       1.0  0.43242  0.82282  0.19981  1.0000
  C   C66       1.0  0.56928  0.17619  0.19906  1.0000
  C   C67       1.0  0.41013  0.84450  0.24165  1.0000
  C   C68       1.0  0.59284  0.15527  0.23686  1.0000
  C   C69       1.0  0.36866  0.82095  0.31118  1.0000
  C   C70       1.0  0.63479  0.17965  0.30312  1.0000
  C   C71       1.0  0.35034  0.77843  0.34272  1.0000
  C   C72       1.0  0.65244  0.22207  0.33348  1.0000
  C   C73       1.0  0.46657  0.90927  0.16313  1.0000
  C   C74       1.0  0.53662  0.08998  0.16149  1.0000
  C   C75       1.0  0.47477  0.84743  0.13597  1.0000
  C   C76       1.0  0.52668  0.15089  0.13661  1.0000
  C   C77       1.0  0.35999  0.64935  0.87809  1.0000
  C   C78       1.0  0.63915  0.35002  0.86325  1.0000
  C   C79       1.0  0.37785  0.69283  0.85579  1.0000
  C   C80       1.0  0.62011  0.30664  0.83665  1.0000
  C   C81       1.0  0.48573  0.89057  0.62359  1.0000
  C   C82       1.0  0.50743  0.10863  0.60714  1.0000
  C   C83       1.0  0.38578  0.62892  0.85941  1.0000
  C   C84       1.0  0.61427  0.37179  0.85683  1.0000
  C   C85       1.0  0.49884  0.83118  0.60437  1.0000
  C   C86       1.0  0.49537  0.16934  0.59371  1.0000
  C   C87       1.0  0.36745  0.58909  0.78953  1.0000
  C   C88       1.0  0.63333  0.41267  0.79444  1.0000
  C   C89       1.0  0.48524  0.79440  0.51170  1.0000
  C   C90       1.0  0.50854  0.20683  0.50336  1.0000
  C   C91       1.0  0.39113  0.56894  0.75965  1.0000
  C   C92       1.0  0.61091  0.43457  0.77338  1.0000
  C   C93       1.0  0.51616  0.77813  0.96754  1.0000
  C   C94       1.0  0.48399  0.22071  0.97786  1.0000
  C   C95       1.0  0.43570  0.59088  0.80151  1.0000
  C   C96       1.0  0.56673  0.41352  0.81811  1.0000
  C   C97       1.0  0.55570  0.80289  0.52647  1.0000
  C   C98       1.0  0.44078  0.20261  0.55093  1.0000
  C   C99       1.0  0.45385  0.63130  0.87576  1.0000
  C   C100      1.0  0.54803  0.37232  0.88843  1.0000
  C   C101      1.0  0.56973  0.83942  0.61988  1.0000
  C   C102      1.0  0.42709  0.16509  0.63955  1.0000
  C   C103      1.0  0.42967  0.64975  0.90468  1.0000
  C   C104      1.0  0.57091  0.35189  0.90656  1.0000
  C   C105      1.0  0.54156  0.85336  0.65870  1.0000
  C   C106      1.0  0.45409  0.14863  0.66069  1.0000
  C   C107      1.0  0.44460  0.53612  0.71389  1.0000
  C   C108      1.0  0.55920  0.47006  0.73602  1.0000
  C   C109      1.0  0.47350  0.51892  0.69980  1.0000
  C   C110      1.0  0.53050  0.48745  0.71337  1.0000
  C   C111      1.0  0.45819  0.47530  0.70609  1.0000
  C   C112      1.0  0.54576  0.53100  0.69817  1.0000
  C   C113      1.0  0.48613  0.45989  0.71422  1.0000
  C   C114      1.0  0.51782  0.54645  0.69339  1.0000
  C   C115      1.0  0.29171  0.64554  0.90275  1.0000
  C   C116      1.0  0.70708  0.35212  0.87261  1.0000
  C   C117      1.0  0.37334  0.52738  0.69274  1.0000
  C   C118      1.0  0.62967  0.47714  0.71338  1.0000
  C   C119      1.0  0.31603  0.62568  0.90513  1.0000
  C   C120      1.0  0.68353  0.37267  0.88362  1.0000
  C   C121      1.0  0.24470  0.61978  0.90534  1.0000
  C   C122      1.0  0.75425  0.37666  0.87685  1.0000
  C   C123      1.0  0.22135  0.63614  0.83221  1.0000
  C   C124      1.0  0.77706  0.35953  0.80888  1.0000
  C   C125      1.0  0.40075  0.51201  0.66909  1.0000
  C   C126      1.0  0.60327  0.49403  0.69623  1.0000
  C   C127      1.0  0.17695  0.61132  0.80626  1.0000
  C   C128      1.0  0.82184  0.38314  0.79127  1.0000
  C   C129      1.0  0.15565  0.56785  0.85772  1.0000
  C   C130      1.0  0.84406  0.42630  0.84463  1.0000
  C   C131      1.0  0.67580  0.50355  0.67704  1.0000
  C   C132      1.0  0.17960  0.55243  0.94301  1.0000
  C   C133      1.0  0.82054  0.44251  0.92360  1.0000
  C   C134      1.0  0.69771  0.48931  0.57896  1.0000
  C   C135      1.0  0.22288  0.57758  0.96635  1.0000
  C   C136      1.0  0.77703  0.41842  0.94008  1.0000
  C   C137      1.0  0.74136  0.51467  0.55074  1.0000
  C   C138      1.0  0.76394  0.55497  0.61941  1.0000
  C   C139      1.0  0.09043  0.55564  0.76034  1.0000
  C   C140      1.0  0.90953  0.43732  0.75957  1.0000
  C   C141      1.0  0.74252  0.56980  0.71524  1.0000
  C   C142      1.0  0.04431  0.52586  0.74235  1.0000
  C   C143      1.0  0.95583  0.46708  0.74375  1.0000
  C   C144      1.0  0.69892  0.54429  0.74430  1.0000
  C   C145      1.0  0.01459  0.53944  0.75597  1.0000
  C   C146      1.0  0.98563  0.45374  0.72291  1.0000
  C   C147      1.0  0.15143  0.62694  0.73250  1.0000
  C   C148      1.0  0.84722  0.36682  0.72595  1.0000
  C   C149      1.0  0.10846  0.59840  0.70960  1.0000
  C   C150      1.0  0.89062  0.39453  0.71048  1.0000
  C   C151      1.0  0.54039  0.02633  0.65183  1.0000
  C   C152      1.0  0.45227  0.97213  0.64871  1.0000
  C   C153      1.0  0.82950  0.32178  0.68433  1.0000
  C   C154      1.0  0.79236  0.29887  0.58834  1.0000
  C   C155      1.0  0.35160  0.71082  0.85398  1.0000
  C   C156      1.0  0.64557  0.28789  0.82596  1.0000
  C   C157      1.0  0.77609  0.25615  0.55676  1.0000
  C   C158      1.0  0.79670  0.23547  0.62000  1.0000
  C   C159      1.0  0.36947  0.75624  0.81697  1.0000
  C   C160      1.0  0.62639  0.24242  0.78941  1.0000
  C   C161      1.0  0.83419  0.25803  0.71250  1.0000
  C   C162      1.0  0.40907  0.77912  0.74250  1.0000
  C   C163      1.0  0.58578  0.21985  0.72114  1.0000
  C   C164      1.0  0.85030  0.30069  0.74520  1.0000
  C   C165      1.0  0.42844  0.82278  0.71035  1.0000
  C   C166      1.0  0.56597  0.17627  0.68859  1.0000
  C   C167      1.0  0.40581  0.84403  0.75310  1.0000
  C   C168      1.0  0.58875  0.15470  0.72822  1.0000
  C   C169      1.0  0.36462  0.81988  0.82462  1.0000
  C   C170      1.0  0.63074  0.17846  0.79467  1.0000
  C   C171      1.0  0.34688  0.77734  0.85602  1.0000
  C   C172      1.0  0.64913  0.22098  0.82392  1.0000
  C   C173      1.0  0.46116  0.90901  0.66929  1.0000
  C   C174      1.0  0.53192  0.08974  0.65339  1.0000
  C   C175      1.0  0.47922  0.95505  0.65485  1.0000
  C   C176      1.0  0.51348  0.04351  0.64624  1.0000
  C   C177      1.0  0.97118  0.51053  0.75774  1.0000
  C   C178      1.0  0.02915  0.48262  0.72341  1.0000
  C   C179      1.0  0.52357  0.98297  0.65475  1.0000
  C   C180      1.0  0.46913  0.01552  0.64321  1.0000
  C   C181      1.0  0.47042  0.84787  0.64381  1.0000
  C   C182      1.0  0.52339  0.15147  0.62549  1.0000
  N   N1        1.0  0.46184  0.57310  0.29042  1.0000
  N   N2        1.0  0.53881  0.42604  0.28896  1.0000
  N   N3        1.0  0.11345  0.54560  0.33596  1.0000
  N   N4        1.0  0.88608  0.45856  0.32050  1.0000
  N   N5        1.0  0.31118  0.68868  0.36358  1.0000
  N   N6        1.0  0.69006  0.31123  0.36060  1.0000
  N   N7        1.0  0.42705  0.88678  0.22225  1.0000
  N   N8        1.0  0.57657  0.11308  0.21769  1.0000
  N   N9        1.0  0.46156  0.57463  0.77821  1.0000
  N   N10       1.0  0.54168  0.43097  0.79787  1.0000
  N   N11       1.0  0.11334  0.54064  0.83291  1.0000
  N   N12       1.0  0.88668  0.45256  0.82692  1.0000
  N   N13       1.0  0.30927  0.68751  0.87887  1.0000
  N   N14       1.0  0.68826  0.31028  0.84455  1.0000
  N   N15       1.0  0.42198  0.88621  0.73140  1.0000
  N   N16       1.0  0.57183  0.11244  0.71028  1.0000
  C  Sn1       1.0  0.78210  0.29005  0.12729  1.0000
  C   C183      1.0  0.81934  0.32006  0.20722  1.0000
  C  Sn2       1.0  0.85225  0.31179  0.24074  1.0000
  C  Sn3       1.0  0.84785  0.27271  0.19330  1.0000
  C   C184      1.0  0.81062  0.24272  0.11339  1.0000
  C  Sn4       1.0  0.77769  0.25097  0.07984  1.0000
  O  Te1       1.0  0.74961  0.29900  0.09501  1.0000
  O  Te2       1.0  0.88918  0.34227  0.32084  1.0000
  O  Te3       1.0  0.88037  0.26377  0.22565  1.0000
  O  Te4       1.0  0.74252  0.21874  0.99977  1.0000
  Mg  Mg1       1.0  0.92455  0.31536  0.33754  1.0000
  Mg  Mg2       1.0  0.70714  0.24563  0.98293  1.0000
  C  Sn5       1.0  0.27108  0.48813  0.00204  1.0000
  C   C185      1.0  0.24557  0.44779  0.06898  1.0000
  C  Sn6       1.0  0.26076  0.43341  0.19934  1.0000
  C  Sn7       1.0  0.30231  0.45993  0.26423  1.0000
  C   C186      1.0  0.32780  0.50025  0.19732  1.0000
  C  Sn8       1.0  0.31263  0.51464  0.06692  1.0000
  O  Te5       1.0  0.25698  0.50006  0.87175  1.0000
  O  Te6       1.0  0.23468  0.39295  0.26419  1.0000
  O  Te7       1.0  0.31814  0.44618  0.39462  1.0000
  O  Te8       1.0  0.33870  0.55508  0.00211  1.0000
  Mg  Mg3       1.0  0.27055  0.38855  0.44126  1.0000
  Mg  Mg4       1.0  0.30458  0.55775  0.82511  1.0000
  C  Sn9       1.0  0.30007  0.44625  0.69085  1.0000
  C   C187      1.0  0.32512  0.48756  0.63229  1.0000
  C  Sn10      1.0  0.30603  0.50969  0.56892  1.0000
  C  Sn11      1.0  0.26097  0.49014  0.56408  1.0000
  C   C188      1.0  0.23595  0.44886  0.62264  1.0000
  C  Sn12      1.0  0.25501  0.42670  0.68600  1.0000
  O  Te9       1.0  0.31983  0.42473  0.75368  1.0000
  O  Te10      1.0  0.33174  0.55096  0.51105  1.0000
  O  Te11      1.0  0.24122  0.51171  0.50118  1.0000
  O  Te12      1.0  0.22932  0.38547  0.74388  1.0000
  Mg  Mg5       1.0  0.28988  0.56730  0.43703  1.0000
  Mg  Mg6       1.0  0.27115  0.36910  0.81800  1.0000
  C  Sn13      1.0  0.21149  0.73044  0.01914  1.0000
  C   C189      1.0  0.19509  0.75547  0.07249  1.0000
  C  Sn14      1.0  0.16716  0.74265  0.20669  1.0000
  C  Sn15      1.0  0.15539  0.70401  0.28937  1.0000
  C   C190      1.0  0.17180  0.67901  0.23603  1.0000
  C  Sn16      1.0  0.19973  0.69180  0.10181  1.0000
  O  Te13      1.0  0.24111  0.74210  0.88471  1.0000
  O  Te14      1.0  0.15116  0.76821  0.25773  1.0000
  O  Te15      1.0  0.12749  0.69059  0.42389  1.0000
  O  Te16      1.0  0.21573  0.66627  0.05080  1.0000
  Mg  Mg7       1.0  0.11420  0.73633  0.44713  1.0000
  Mg  Mg8       1.0  0.25444  0.69634  0.86147  1.0000
  C  Sn17      1.0  0.52696  0.54425  0.17345  1.0000
  C   C191      1.0  0.48249  0.52227  0.16269  1.0000
  C  Sn18      1.0  0.45941  0.47867  0.18804  1.0000
  C  Sn19      1.0  0.48122  0.45657  0.22501  1.0000
  C   C192      1.0  0.52566  0.47855  0.23578  1.0000
  C  Sn20      1.0  0.54877  0.52216  0.21042  1.0000
  O  Te17      1.0  0.54939  0.58783  0.14766  1.0000
  O  Te18      1.0  0.41497  0.45738  0.17658  1.0000
  O  Te19      1.0  0.45875  0.41295  0.25080  1.0000
  O  Te20      1.0  0.59318  0.54344  0.22189  1.0000
  Mg  Mg9       1.0  0.39856  0.39800  0.22199  1.0000
  Mg  Mg10      1.0  0.60962  0.60282  0.17659  1.0000
  C  Sn21      1.0  0.21821  0.70929  0.63208  1.0000
  C   C193      1.0  0.18147  0.68011  0.71636  1.0000
  C  Sn22      1.0  0.14886  0.68880  0.74575  1.0000
  C  Sn23      1.0  0.15305  0.72747  0.68965  1.0000
  C   C194      1.0  0.18978  0.75663  0.60540  1.0000
  C  Sn24      1.0  0.22240  0.74796  0.57598  1.0000
  O  Te21      1.0  0.25040  0.69994  0.60406  1.0000
  O  Te22      1.0  0.11243  0.65914  0.83033  1.0000
  O  Te23      1.0  0.12082  0.73681  0.71775  1.0000
  O  Te24      1.0  0.25881  0.77759  0.49144  1.0000
  Mg  Mg11      1.0  0.07731  0.68635  0.83845  1.0000
  Mg  Mg12      1.0  0.29394  0.75041  0.48317  1.0000
  C  Sn25      1.0  0.02038  0.48450  0.15906  1.0000
  C   C195      1.0  0.04082  0.52722  0.19998  1.0000
  C  Sn26      1.0  0.01811  0.54412  0.27327  1.0000
  C  Sn27      1.0  0.97406  0.51778  0.30644  1.0000
  C   C196      1.0  0.95365  0.47509  0.26554  1.0000
  C  Sn28      1.0  0.97634  0.45816  0.19222  1.0000
  O  Te25      1.0  0.04372  0.46828  0.08588  1.0000
  O  Te26      1.0  0.03922  0.58692  0.31302  1.0000
  O  Te27      1.0  0.95073  0.53404  0.37967  1.0000
  O  Te28      1.0  0.95524  0.41539  0.15251  1.0000
  Mg  Mg13      1.0  0.99370  0.59428  0.41111  1.0000
  Mg  Mg14      1.0  0.00074  0.40799  0.05450  1.0000
  C  Sn29      1.0  0.69969  0.55357  0.19001  1.0000
  C   C197      1.0  0.67497  0.51176  0.13846  1.0000
  C  Sn30      1.0  0.69439  0.48919  0.08845  1.0000
  C  Sn31      1.0  0.73947  0.50882  0.09010  1.0000
  C   C198      1.0  0.76417  0.55060  0.14165  1.0000
  C  Sn32      1.0  0.74477  0.57320  0.19165  1.0000
  O  Te29      1.0  0.67960  0.57553  0.23948  1.0000
  O  Te30      1.0  0.66901  0.44743  0.03738  1.0000
  O  Te31      1.0  0.75956  0.48682  0.04056  1.0000
  O  Te32      1.0  0.77013  0.61493  0.24273  1.0000
  Mg  Mg15      1.0  0.71300  0.42884  0.98144  1.0000
  Mg  Mg16      1.0  0.72791  0.63176  0.29878  1.0000
  C  Sn33      1.0  0.53533  0.99313  0.20252  1.0000
  C   C199      1.0  0.49272  0.96092  0.19523  1.0000
  C  Sn34      1.0  0.46092  0.96983  0.14865  1.0000
  C  Sn35      1.0  0.96246  0.01182  0.10840  1.0000
  C   C200      1.0  0.00505  0.04400  0.11567  1.0000
  C  Sn36      1.0  0.03687  0.03512  0.16227  1.0000
  O  Te33      1.0  0.56660  0.98349  0.24939  1.0000
  O  Te34      1.0  0.41853  0.93710  0.14232  1.0000
  O  Te35      1.0  0.93115  0.02144  0.06150  1.0000
  O  Te36      1.0  0.07923  0.06782  0.16858  1.0000
  Mg  Mg17      1.0  0.38739  0.96606  0.07135  1.0000
  Mg  Mg18      1.0  0.11040  0.03890  0.23944  1.0000
