data_image0
_chemical_formula_structural       H64C112S16N16C2Sn2C2HTe2HMgC2Sn2C2HTe2HMgC2Sn2C2HTe2HMgC2Sn2C2HTe2HMgC2Sn2C2HTe2HMgC2Sn2C2HTe2HMgC2Sn2C2HTe2HMgC2Sn2C2HTe2HMgC2Sn2C2HTe2HMgC2Sn2C2HTe2HMgC2Sn2C2HTe2HMgC2Sn2C2HTe2HMg
_chemical_formula_sum              "H88 C160 S16 N16 Sn24 Te24 Mg12"
_cell_length_a       27.3573
_cell_length_b       42.5281
_cell_length_c       8.23423
_cell_angle_alpha    68.2548
_cell_angle_beta     112.345
_cell_angle_gamma    96.4489

_symmetry_space_group_name_H-M    'P1'
_space_group_IT_number       1

loop_
  _space_group_symop_operation_xyz
  'x, y, z'

loop_
  _atom_site_type_symbol
  _atom_site_label
  _atom_site_symmetry_multiplicity
  _atom_site_fract_x
  _atom_site_fract_y
  _atom_site_fract_z
  _atom_site_occupancy
  H   H1        1.0  0.49353  0.12881  0.36842  1.0000
  H   H2        1.0  0.52869  0.13610  0.11505  1.0000
  H   H3        1.0  0.98873  0.62658  0.35726  1.0000
  H   H4        1.0  0.50894  0.87198  0.15601  1.0000
  H   H5        1.0  0.43104  0.17482  0.27187  1.0000
  H   H6        1.0  0.59367  0.17897  0.17861  1.0000
  H   H7        1.0  0.92563  0.66904  0.30234  1.0000
  H   H8        1.0  0.57183  0.82890  0.21797  1.0000
  H   H9        1.0  0.30610  0.12400  0.41138  1.0000
  H   H10       1.0  0.80248  0.62668  0.42348  1.0000
  H   H11       1.0  0.70092  0.87418  0.07800  1.0000
  H   H12       1.0  0.80996  0.38904  0.35436  1.0000
  H   H13       1.0  0.37459  0.08102  0.49905  1.0000
  H   H14       1.0  0.86633  0.58336  0.48473  1.0000
  H   H15       1.0  0.63589  0.91547  0.03221  1.0000
  H   H16       1.0  0.87638  0.43345  0.38996  1.0000
  H   H17       1.0  0.76528  0.19051  0.14084  1.0000
  H   H18       1.0  0.24916  0.69310  0.23346  1.0000
  H   H19       1.0  0.77951  0.80523  0.05580  1.0000
  H   H20       1.0  0.24052  0.81254  0.34007  1.0000
  H   H21       1.0  0.36951  0.20107  0.23839  1.0000
  H   H22       1.0  0.66194  0.20590  0.23744  1.0000
  H   H23       1.0  0.86801  0.70464  0.20898  1.0000
  H   H24       1.0  0.13437  0.71844  0.28558  1.0000
  H   H25       1.0  0.63516  0.80115  0.25499  1.0000
  H   H26       1.0  0.34526  0.79037  0.25786  1.0000
  H   H27       1.0  0.12960  0.30015  0.25323  1.0000
  H   H28       1.0  0.86471  0.28749  0.20784  1.0000
  H   H29       1.0  0.84530  0.75796  0.17364  1.0000
  H   H30       1.0  0.16819  0.77358  0.25278  1.0000
  H   H31       1.0  0.31000  0.73709  0.32382  1.0000
  H   H32       1.0  0.83343  0.23047  0.24692  1.0000
  H   H33       1.0  0.48666  0.12912  0.85825  1.0000
  H   H34       1.0  0.98770  0.62572  0.85356  1.0000
  H   H35       1.0  0.51671  0.87790  0.63331  1.0000
  H   H36       1.0  0.97960  0.36026  0.89732  1.0000
  H   H37       1.0  0.42098  0.17324  0.75787  1.0000
  H   H38       1.0  0.92494  0.66959  0.78610  1.0000
  H   H39       1.0  0.58137  0.83762  0.67603  1.0000
  H   H40       1.0  0.91479  0.31641  0.85737  1.0000
  H   H41       1.0  0.31057  0.12841  0.92435  1.0000
  H   H42       1.0  0.68415  0.10571  0.71126  1.0000
  H   H43       1.0  0.80256  0.62734  0.93570  1.0000
  H   H44       1.0  0.69732  0.87699  0.54029  1.0000
  H   H45       1.0  0.37581  0.08377  0.00514  1.0000
  H   H46       1.0  0.61789  0.06222  0.64963  1.0000
  H   H47       1.0  0.86616  0.58379  0.99353  1.0000
  H   H48       1.0  0.63386  0.92061  0.47779  1.0000
  H   H49       1.0  0.72176  0.69757  0.93916  1.0000
  H   H50       1.0  0.27031  0.68772  0.65772  1.0000
  H   H51       1.0  0.25145  0.80643  0.75339  1.0000
  H   H52       1.0  0.72961  0.31494  0.83602  1.0000
  H   H53       1.0  0.35827  0.19855  0.71315  1.0000
  H   H54       1.0  0.62941  0.21819  0.77376  1.0000
  H   H55       1.0  0.86186  0.69702  0.75110  1.0000
  H   H56       1.0  0.15608  0.70781  0.72969  1.0000
  H   H57       1.0  0.63318  0.79772  0.80142  1.0000
  H   H58       1.0  0.37669  0.78243  0.70569  1.0000
  H   H59       1.0  0.13721  0.29865  0.79454  1.0000
  H   H60       1.0  0.85266  0.28388  0.79024  1.0000
  H   H61       1.0  0.66075  0.27499  0.73311  1.0000
  H   H62       1.0  0.18999  0.76282  0.66184  1.0000
  H   H63       1.0  0.65648  0.74530  0.81517  1.0000
  H   H64       1.0  0.34316  0.72680  0.73985  1.0000
  C   C1        1.0  0.47513  0.07313  0.26017  1.0000
  C   C2        1.0  0.52947  0.07016  0.34196  1.0000
  C   C3        1.0  0.97048  0.57653  0.20977  1.0000
  C   C4        1.0  0.02488  0.57590  0.27924  1.0000
  C   C5        1.0  0.52756  0.92446  0.28720  1.0000
  C   C6        1.0  0.47300  0.92563  0.21412  1.0000
  C   C7        1.0  0.02646  0.42675  0.25013  1.0000
  C   C8        1.0  0.97205  0.42857  0.17582  1.0000
  C   C9        1.0  0.43948  0.10187  0.19942  1.0000
  C   C10       1.0  0.56830  0.09594  0.37715  1.0000
  C   C11       1.0  0.93320  0.60210  0.17811  1.0000
  C   C12       1.0  0.56527  0.89946  0.31484  1.0000
  C   C13       1.0  0.45383  0.12863  0.26944  1.0000
  C   C14       1.0  0.56296  0.12926  0.24526  1.0000
  C   C15       1.0  0.94834  0.62695  0.26201  1.0000
  C   C16       1.0  0.54991  0.87306  0.24270  1.0000
  C   C17       1.0  0.41810  0.15458  0.21577  1.0000
  C   C18       1.0  0.59982  0.15333  0.28146  1.0000
  C   C19       1.0  0.91238  0.65119  0.22915  1.0000
  C   C20       1.0  0.58575  0.84838  0.27957  1.0000
  C   C21       1.0  0.36495  0.15436  0.09555  1.0000
  C   C22       1.0  0.64443  0.14506  0.45000  1.0000
  C   C23       1.0  0.85887  0.65145  0.11104  1.0000
  C   C24       1.0  0.63985  0.84918  0.39010  1.0000
  C   C25       1.0  0.35081  0.12815  0.02223  1.0000
  C   C26       1.0  0.65042  0.11165  0.58023  1.0000
  C   C27       1.0  0.84351  0.62648  0.02912  1.0000
  C   C28       1.0  0.65578  0.87625  0.45594  1.0000
  C   C29       1.0  0.38725  0.10280  0.07100  1.0000
  C   C30       1.0  0.61333  0.08759  0.54406  1.0000
  C   C31       1.0  0.87959  0.60221  0.06268  1.0000
  C   C32       1.0  0.61969  0.90082  0.41846  1.0000
  C   C33       1.0  0.78772  0.72496  0.06285  1.0000
  C   C34       1.0  0.21442  0.72781  0.45027  1.0000
  C   C35       1.0  0.28384  0.77476  0.04514  1.0000
  C   C36       1.0  0.78578  0.27543  0.04490  1.0000
  C   C37       1.0  0.75814  0.21782  0.07655  1.0000
  C   C38       1.0  0.24961  0.71792  0.12947  1.0000
  C   C39       1.0  0.76772  0.78184  0.02901  1.0000
  C   C40       1.0  0.24640  0.78518  0.40761  1.0000
  C   C41       1.0  0.33254  0.20016  0.12286  1.0000
  C   C42       1.0  0.68557  0.19753  0.38849  1.0000
  C   C43       1.0  0.82821  0.69956  0.12257  1.0000
  C   C44       1.0  0.17185  0.70553  0.39317  1.0000
  C   C45       1.0  0.67247  0.80293  0.36694  1.0000
  C   C46       1.0  0.32036  0.79941  0.10691  1.0000
  C   C47       1.0  0.16663  0.30019  0.36948  1.0000
  C   C48       1.0  0.82621  0.29872  0.10080  1.0000
  C   C49       1.0  0.80384  0.75546  0.09548  1.0000
  C   C50       1.0  0.20639  0.76333  0.36073  1.0000
  C   C51       1.0  0.28351  0.74238  0.17928  1.0000
  C   C52       1.0  0.79589  0.24013  0.13301  1.0000
  C   C53       1.0  0.49961  0.01153  0.31195  1.0000
  C   C54       1.0  0.99930  0.51811  0.22491  1.0000
  C   C55       1.0  0.49933  0.98200  0.28301  1.0000
  C   C56       1.0  0.99969  0.48810  0.20051  1.0000
  C   C57       1.0  0.47424  0.07357  0.75468  1.0000
  C   C58       1.0  0.52861  0.07251  0.83679  1.0000
  C   C59       1.0  0.96982  0.57584  0.70119  1.0000
  C   C60       1.0  0.02433  0.57455  0.77333  1.0000
  C   C61       1.0  0.53312  0.92448  0.80540  1.0000
  C   C62       1.0  0.47867  0.92543  0.72982  1.0000
  C   C63       1.0  0.02601  0.42568  0.75413  1.0000
  C   C64       1.0  0.97153  0.42707  0.67093  1.0000
  C   C65       1.0  0.43605  0.10115  0.68942  1.0000
  C   C66       1.0  0.93269  0.60126  0.67274  1.0000
  C   C67       1.0  0.57062  0.89959  0.83160  1.0000
  C   C68       1.0  0.93397  0.40024  0.64464  1.0000
  C   C69       1.0  0.44770  0.12809  0.75740  1.0000
  C   C70       1.0  0.94745  0.62601  0.75738  1.0000
  C   C71       1.0  0.55654  0.87682  0.73401  1.0000
  C   C72       1.0  0.94305  0.36664  0.77564  1.0000
  C   C73       1.0  0.40996  0.15304  0.70099  1.0000
  C   C74       1.0  0.91168  0.65078  0.71941  1.0000
  C   C75       1.0  0.59315  0.85364  0.76034  1.0000
  C   C76       1.0  0.90623  0.34184  0.75216  1.0000
  C   C77       1.0  0.35756  0.15155  0.57885  1.0000
  C   C78       1.0  0.85840  0.65142  0.59861  1.0000
  C   C79       1.0  0.64598  0.85224  0.88597  1.0000
  C   C80       1.0  0.85808  0.34943  0.59603  1.0000
  C   C81       1.0  0.34588  0.12489  0.50917  1.0000
  C   C82       1.0  0.84305  0.62602  0.51941  1.0000
  C   C83       1.0  0.66055  0.87550  0.97941  1.0000
  C   C84       1.0  0.84761  0.38329  0.47152  1.0000
  C   C85       1.0  0.38432  0.10047  0.56157  1.0000
  C   C86       1.0  0.87918  0.60155  0.55590  1.0000
  C   C87       1.0  0.62375  0.89866  0.95263  1.0000
  C   C88       1.0  0.88475  0.40798  0.49416  1.0000
  C   C89       1.0  0.70893  0.23009  0.93228  1.0000
  C   C90       1.0  0.21475  0.72506  0.94273  1.0000
  C   C91       1.0  0.71404  0.77818  0.92868  1.0000
  C   C92       1.0  0.29632  0.77235  0.54536  1.0000
  C   C93       1.0  0.73406  0.72128  0.96236  1.0000
  C   C94       1.0  0.26420  0.71505  0.58949  1.0000
  C   C95       1.0  0.24969  0.78185  0.85753  1.0000
  C   C96       1.0  0.73663  0.28767  0.90083  1.0000
  C   C97       1.0  0.32200  0.19713  0.59690  1.0000
  C   C98       1.0  0.66840  0.20684  0.87648  1.0000
  C   C99       1.0  0.82664  0.69740  0.62772  1.0000
  C   C100      1.0  0.17829  0.70017  0.88236  1.0000
  C   C101      1.0  0.67409  0.80352  0.87534  1.0000
  C   C102      1.0  0.33866  0.79482  0.59971  1.0000
  C   C103      1.0  0.17580  0.30219  0.89651  1.0000
  C   C104      1.0  0.82357  0.29460  0.64571  1.0000
  C   C105      1.0  0.69867  0.26540  0.84524  1.0000
  C   C106      1.0  0.21569  0.75737  0.80760  1.0000
  C   C107      1.0  0.69798  0.74777  0.89456  1.0000
  C   C108      1.0  0.30446  0.73687  0.63485  1.0000
  C   C109      1.0  0.50350  0.01220  0.81957  1.0000
  C   C110      1.0  0.99692  0.51727  0.71476  1.0000
  C   C111      1.0  0.50443  0.98219  0.79595  1.0000
  C   C112      1.0  0.99761  0.48696  0.69448  1.0000
  S   S1        1.0  0.44248  0.03508  0.24849  1.0000
  S   S2        1.0  0.55789  0.02939  0.42072  1.0000
  S   S3        1.0  0.94037  0.54045  0.15894  1.0000
  S   S4        1.0  0.05665  0.53873  0.31718  1.0000
  S   S5        1.0  0.55789  0.95909  0.35327  1.0000
  S   S6        1.0  0.44183  0.96262  0.18151  1.0000
  S   S7        1.0  0.05754  0.46540  0.26164  1.0000
  S   S8        1.0  0.94196  0.46868  0.10152  1.0000
  S   S9        1.0  0.44464  0.03455  0.74929  1.0000
  S   S10       1.0  0.56006  0.03226  0.92160  1.0000
  S   S11       1.0  0.93881  0.54070  0.64193  1.0000
  S   S12       1.0  0.05488  0.53678  0.81302  1.0000
  S   S13       1.0  0.56292  0.95912  0.87060  1.0000
  S   S14       1.0  0.44710  0.96276  0.69124  1.0000
  S   S15       1.0  0.05622  0.46413  0.76929  1.0000
  S   S16       1.0  0.94113  0.46764  0.58730  1.0000
  N   N1        1.0  0.32497  0.17814  0.04154  1.0000
  N   N2        1.0  0.68189  0.16771  0.50563  1.0000
  N   N3        1.0  0.81843  0.67409  0.06608  1.0000
  N   N4        1.0  0.17811  0.67279  0.46518  1.0000
  N   N5        1.0  0.67990  0.82570  0.44286  1.0000
  N   N6        1.0  0.32324  0.82974  0.99401  1.0000
  N   N7        1.0  0.17529  0.32188  0.45346  1.0000
  N   N8        1.0  0.81727  0.33124  0.02141  1.0000
  N   N9        1.0  0.31598  0.17460  0.51953  1.0000
  N   N10       1.0  0.67816  0.17434  0.95279  1.0000
  N   N11       1.0  0.81952  0.67570  0.54503  1.0000
  N   N12       1.0  0.17291  0.67052  0.99860  1.0000
  N   N13       1.0  0.68589  0.82975  0.92572  1.0000
  N   N14       1.0  0.33097  0.82752  0.52793  1.0000
  N   N15       1.0  0.18374  0.32582  0.96731  1.0000
  N   N16       1.0  0.82082  0.32639  0.54152  1.0000
  C   C113      1.0  0.78553  0.22780  0.71187  1.0000
  C   C114      1.0  0.79279  0.26114  0.60734  1.0000
  C  Sn1       1.0  0.76057  0.27570  0.41809  1.0000
  C  Sn2       1.0  0.72035  0.25647  0.33230  1.0000
  C   C115      1.0  0.71338  0.22315  0.43813  1.0000
  C   C116      1.0  0.74586  0.20882  0.62739  1.0000
  H   H65       1.0  0.81063  0.21672  0.85833  1.0000
  O  Te1       1.0  0.76838  0.30903  0.31569  1.0000
  O  Te2       1.0  0.68758  0.27040  0.14342  1.0000
  H   H66       1.0  0.74020  0.18302  0.70831  1.0000
  Mg  Mg1       1.0  0.71367  0.31682  0.06250  1.0000
  C   C117      1.0  0.13881  0.60848  0.54979  1.0000
  C   C118      1.0  0.14175  0.64215  0.43866  1.0000
  C  Sn3       1.0  0.10199  0.65678  0.26295  1.0000
  C  Sn4       1.0  0.05852  0.63728  0.19768  1.0000
  C   C119      1.0  0.05592  0.60363  0.30998  1.0000
  C   C120      1.0  0.09593  0.58924  0.48556  1.0000
  H   H67       1.0  0.16975  0.59735  0.68569  1.0000
  O  Te3       1.0  0.10556  0.69044  0.15369  1.0000
  O  Te4       1.0  0.01823  0.65128  0.02266  1.0000
  H   H68       1.0  0.09363  0.56318  0.57162  1.0000
  Mg  Mg2       1.0  0.14405  0.63391  0.92513  1.0000
  C   C121      1.0  0.38378  0.90607  0.48487  1.0000
  C   C122      1.0  0.42881  0.90252  0.64610  1.0000
  C  Sn5       1.0  0.44623  0.87050  0.78293  1.0000
  C  Sn6       1.0  0.41796  0.84154  0.75746  1.0000
  C   C123      1.0  0.37297  0.84535  0.59561  1.0000
  C   C124      1.0  0.35588  0.87752  0.45960  1.0000
  H   H69       1.0  0.37057  0.93096  0.37958  1.0000
  O  Te5       1.0  0.49129  0.86740  0.94321  1.0000
  O  Te6       1.0  0.43451  0.80923  0.89196  1.0000
  H   H70       1.0  0.32103  0.88026  0.33473  1.0000
  Mg  Mg3       1.0  0.39502  0.88229  0.08664  1.0000
  C   C125      1.0  0.90914  0.34890  0.28246  1.0000
  C   C126      1.0  0.86444  0.35174  0.12121  1.0000
  C  Sn7       1.0  0.95827  0.31653  0.96006  1.0000
  C  Sn8       1.0  0.99439  0.34322  0.96076  1.0000
  C   C127      1.0  0.93581  0.40440  0.12274  1.0000
  C   C128      1.0  0.94480  0.37521  0.28324  1.0000
  H   H71       1.0  0.91612  0.32631  0.40662  1.0000
  O  Te7       1.0  0.91340  0.31895  0.80018  1.0000
  O  Te8       1.0  0.98599  0.37255  0.80160  1.0000
  H   H72       1.0  0.97944  0.37301  0.40803  1.0000
  Mg  Mg4       1.0  0.91915  0.36396  0.61797  1.0000
  C   C129      1.0  0.28175  0.27370  0.11401  1.0000
  C   C130      1.0  0.33494  0.21566  0.97113  1.0000
  C  Sn9       1.0  0.31398  0.19264  0.87928  1.0000
  C  Sn10      1.0  0.34372  0.16284  0.93178  1.0000
  C   C131      1.0  0.29050  0.22110  0.07498  1.0000
  C   C132      1.0  0.31111  0.24431  0.16593  1.0000
  H   H73       1.0  0.29769  0.29164  0.18445  1.0000
  O  Te9       1.0  0.26395  0.19927  0.73679  1.0000
  O  Te10      1.0  0.32370  0.13940  0.84235  1.0000
  H   H74       1.0  0.34982  0.23946  0.27663  1.0000
  Mg  Mg5       1.0  0.25367  0.15970  0.65655  1.0000
  C   C133      1.0  0.37780  0.90799  0.96019  1.0000
  C   C134      1.0  0.31905  0.96801  0.12403  1.0000
  C  Sn11      1.0  0.33488  0.93576  0.26040  1.0000
  C  Sn12      1.0  0.30558  0.90729  0.23178  1.0000
  C   C135      1.0  0.26119  0.91182  0.06732  1.0000
  C   C136      1.0  0.34890  0.87993  0.93181  1.0000
  H   H75       1.0  0.36583  0.93305  0.85529  1.0000
  O  Te11      1.0  0.37938  0.93195  0.42331  1.0000
  O  Te12      1.0  0.32053  0.87477  0.36574  1.0000
  H   H76       1.0  0.31450  0.88322  0.80491  1.0000
  Mg  Mg6       1.0  0.38404  0.88253  0.56478  1.0000
  C   C137      1.0  0.77500  0.77134  0.61139  1.0000
  C   C138      1.0  0.72718  0.77900  0.45749  1.0000
  C  Sn13      1.0  0.70824  0.75723  0.35651  1.0000
  C  Sn14      1.0  0.73781  0.72725  0.41099  1.0000
  C   C139      1.0  0.78559  0.71980  0.56524  1.0000
  C   C140      1.0  0.80418  0.74177  0.66526  1.0000
  H   H77       1.0  0.78938  0.78832  0.68885  1.0000
  O  Te13      1.0  0.66040  0.76527  0.20306  1.0000
  O  Te14      1.0  0.71979  0.70504  0.31258  1.0000
  H   H78       1.0  0.84119  0.73582  0.78449  1.0000
  Mg  Mg7       1.0  0.65233  0.72704  0.11338  1.0000
  C   C141      1.0  0.07704  0.65681  0.73426  1.0000
  C   C142      1.0  0.12186  0.65184  0.89776  1.0000
  C  Sn15      1.0  0.03629  0.68337  0.02445  1.0000
  C  Sn16      1.0  0.11167  0.59085  0.98634  1.0000
  C   C143      1.0  0.06689  0.59609  0.82232  1.0000
  C   C144      1.0  0.04958  0.62896  0.69654  1.0000
  H   H79       1.0  0.06365  0.68224  0.63688  1.0000
  O  Te15      1.0  0.08113  0.67886  0.18716  1.0000
  O  Te16      1.0  0.02523  0.62213  0.11052  1.0000
  H   H80       1.0  0.01489  0.63280  0.56990  1.0000
  Mg  Mg8       1.0  0.08851  0.62899  0.31337  1.0000
  C   C145      1.0  0.27152  0.27107  0.58153  1.0000
  C   C146      1.0  0.21991  0.27602  0.44911  1.0000
  C  Sn17      1.0  0.19809  0.25236  0.36239  1.0000
  C  Sn18      1.0  0.22860  0.22322  0.40945  1.0000
  C   C147      1.0  0.28018  0.21849  0.54220  1.0000
  C   C148      1.0  0.30164  0.24233  0.62807  1.0000
  H   H81       1.0  0.28812  0.28950  0.64805  1.0000
  O  Te17      1.0  0.14647  0.25771  0.23035  1.0000
  O  Te18      1.0  0.20776  0.19917  0.32497  1.0000
  H   H82       1.0  0.34158  0.23847  0.73068  1.0000
  Mg  Mg9       1.0  0.13557  0.21772  0.15346  1.0000
  C   C149      1.0  0.12877  0.39343  0.98013  1.0000
  C   C150      1.0  0.07780  0.39991  0.84307  1.0000
  C  Sn19      1.0  0.05692  0.37885  0.73851  1.0000
  C  Sn20      1.0  0.08772  0.35080  0.77216  1.0000
  C   C151      1.0  0.13865  0.34452  0.90969  1.0000
  C   C152      1.0  0.05596  0.43004  0.01346  1.0000
  H   H83       1.0  0.04142  0.47413  0.06050  1.0000
  O  Te19      1.0  0.00595  0.38569  0.60206  1.0000
  O  Te20      1.0  0.06782  0.32934  0.66974  1.0000
  H   H84       1.0  0.09540  0.42500  0.11966  1.0000
  Mg  Mg10      1.0  0.99624  0.34914  0.49889  1.0000
  C   C153      1.0  0.15010  0.38203  0.46457  1.0000
  C   C154      1.0  0.14095  0.35206  0.42625  1.0000
  C  Sn21      1.0  0.09053  0.34571  0.31516  1.0000
  C  Sn22      1.0  0.04858  0.36987  0.24122  1.0000
  C   C155      1.0  0.05816  0.39978  0.28025  1.0000
  C   C156      1.0  0.10875  0.40587  0.39163  1.0000
  H   H85       1.0  0.18926  0.38675  0.55065  1.0000
  O  Te21      1.0  0.08207  0.31563  0.27831  1.0000
  O  Te22      1.0  0.99781  0.36417  0.12972  1.0000
  H   H86       1.0  0.11584  0.42909  0.42117  1.0000
  Mg  Mg11      1.0  0.00597  0.31939  0.11899  1.0000
  C   C157      1.0  0.62588  0.09544  0.04947  1.0000
  C   C158      1.0  0.67900  0.03353  0.91027  1.0000
  C  Sn23      1.0  0.66120  0.06374  0.75702  1.0000
  C  Sn24      1.0  0.69425  0.09206  0.74325  1.0000
  C   C159      1.0  0.74431  0.08942  0.88318  1.0000
  C   C160      1.0  0.65851  0.12335  0.03596  1.0000
  H   H87       1.0  0.63937  0.07195  0.16763  1.0000
  O  Te23      1.0  0.61104  0.06567  0.61923  1.0000
  O  Te24      1.0  0.67745  0.12255  0.59155  1.0000
  H   H88       1.0  0.69731  0.12152  0.14365  1.0000
  Mg  Mg12      1.0  0.60585  0.11270  0.43942  1.0000
