data_image0
_chemical_formula_structural       H80C104S16N16O16C2Sn2C2HTe2HMgC2Sn2C2HTe2HMgC2Sn2C2HTe2HMgC2Sn2C2HTe2HMgC2Sn2C2HTe2HMgC2Sn2C2HTe2HMgC2Sn2C2HTe2HMgC2Sn2C2HTe2HMgC2Sn2C2HTe2HMgC2Sn2C2HTe2HMgC2Sn2C2HTe2HMgC2Sn2C2HTe2HMgC2Sn2C2HTe2HMgC2Sn2C2HTe2HMgC2Sn2C2HTe2HMgC2Sn2C2HTe2HMg
_chemical_formula_sum              "H112 C168 S16 N16 O16 Sn32 Te32 Mg16"
_cell_length_a       25.0733
_cell_length_b       44.2944
_cell_length_c       10.8331
_cell_angle_alpha    136.036
_cell_angle_beta     114.779
_cell_angle_gamma    72.1651

_symmetry_space_group_name_H-M    'P1'
_space_group_IT_number       1

loop_
  _space_group_symop_operation_xyz
  'x, y, z'

loop_
  _atom_site_type_symbol
  _atom_site_label
  _atom_site_symmetry_multiplicity
  _atom_site_fract_x
  _atom_site_fract_y
  _atom_site_fract_z
  _atom_site_occupancy
  H   H1        1.0  0.21452  0.18269  0.32262  1.0000
  H   H2        1.0  0.16671  0.15156  0.46999  1.0000
  H   H3        1.0  0.09578  0.17572  0.44654  1.0000
  H   H4        1.0  0.12392  0.17742  0.14429  1.0000
  H   H5        1.0  0.26973  0.17273  0.51033  1.0000
  H   H6        1.0  0.73306  0.67547  0.27091  1.0000
  H   H7        1.0  0.68479  0.64230  0.43742  1.0000
  H   H8        1.0  0.61334  0.65836  0.36118  1.0000
  H   H9        1.0  0.64159  0.66776  0.08477  1.0000
  H   H10       1.0  0.80537  0.66147  0.43470  1.0000
  H   H11       1.0  0.80770  0.20687  0.08828  1.0000
  H   H12       1.0  0.89382  0.24557  0.32206  1.0000
  H   H13       1.0  0.95253  0.24283  0.26152  1.0000
  H   H14       1.0  0.90201  0.19847  0.09298  1.0000
  H   H15       1.0  0.72873  0.17023  0.97079  1.0000
  H   H16       1.0  0.30281  0.71251  0.09781  1.0000
  H   H17       1.0  0.38274  0.75157  0.33081  1.0000
  H   H18       1.0  0.44520  0.75323  0.29667  1.0000
  H   H19       1.0  0.39943  0.70593  0.11391  1.0000
  H   H20       1.0  0.22513  0.67543  0.98090  1.0000
  H   H21       1.0  0.77056  0.81923  0.19451  1.0000
  H   H22       1.0  0.80899  0.85431  0.04596  1.0000
  H   H23       1.0  0.88023  0.83788  0.12132  1.0000
  H   H24       1.0  0.85793  0.83032  0.40252  1.0000
  H   H25       1.0  0.71937  0.83012  0.01228  1.0000
  H   H26       1.0  0.27628  0.32700  0.23835  1.0000
  H   H27       1.0  0.33071  0.35345  0.02368  1.0000
  H   H28       1.0  0.40025  0.33511  0.09703  1.0000
  H   H29       1.0  0.36880  0.33248  0.41753  1.0000
  H   H30       1.0  0.20137  0.34316  0.08155  1.0000
  H   H31       1.0  0.19309  0.79069  0.40821  1.0000
  H   H32       1.0  0.11103  0.75129  0.17209  1.0000
  H   H33       1.0  0.04933  0.75141  0.21463  1.0000
  H   H34       1.0  0.09679  0.79773  0.39254  1.0000
  H   H35       1.0  0.27077  0.82637  0.51970  1.0000
  H   H36       1.0  0.69812  0.29051  0.40622  1.0000
  H   H37       1.0  0.61443  0.25426  0.18190  1.0000
  H   H38       1.0  0.55359  0.25562  0.23107  1.0000
  H   H39       1.0  0.60344  0.30064  0.40782  1.0000
  H   H40       1.0  0.77658  0.32413  0.50894  1.0000
  H   H41       1.0  0.22101  0.17245  0.75525  1.0000
  H   H42       1.0  0.17819  0.15615  0.02952  1.0000
  H   H43       1.0  0.10829  0.17456  0.95878  1.0000
  H   H44       1.0  0.12533  0.17332  0.62112  1.0000
  H   H45       1.0  0.29774  0.15653  0.91483  1.0000
  H   H46       1.0  0.72111  0.66385  0.71929  1.0000
  H   H47       1.0  0.69849  0.65448  0.99198  1.0000
  H   H48       1.0  0.62684  0.67011  0.91429  1.0000
  H   H49       1.0  0.62802  0.65617  0.53167  1.0000
  H   H50       1.0  0.79582  0.65040  0.88698  1.0000
  H   H51       1.0  0.80782  0.20967  0.59439  1.0000
  H   H52       1.0  0.88984  0.24882  0.82686  1.0000
  H   H53       1.0  0.95186  0.24650  0.77909  1.0000
  H   H54       1.0  0.90307  0.20099  0.60614  1.0000
  H   H55       1.0  0.72923  0.17573  0.49072  1.0000
  H   H56       1.0  0.30332  0.71199  0.60700  1.0000
  H   H57       1.0  0.38721  0.75211  0.84636  1.0000
  H   H58       1.0  0.44769  0.75057  0.79517  1.0000
  H   H59       1.0  0.39921  0.70492  0.62278  1.0000
  H   H60       1.0  0.22548  0.67650  0.49626  1.0000
  H   H61       1.0  0.77109  0.83306  0.76827  1.0000
  H   H62       1.0  0.79595  0.84126  0.47256  1.0000
  H   H63       1.0  0.86618  0.82825  0.56922  1.0000
  H   H64       1.0  0.86543  0.83964  0.94929  1.0000
  H   H65       1.0  0.69924  0.84669  0.59947  1.0000
  H   H66       1.0  0.29355  0.32784  0.73440  1.0000
  H   H67       1.0  0.31381  0.34752  0.51995  1.0000
  H   H68       1.0  0.38497  0.32940  0.58592  1.0000
  H   H69       1.0  0.38603  0.33255  0.91317  1.0000
  H   H70       1.0  0.23164  0.34123  0.56563  1.0000
  H   H71       1.0  0.19033  0.79294  0.90905  1.0000
  H   H72       1.0  0.11051  0.75390  0.67385  1.0000
  H   H73       1.0  0.04829  0.75045  0.70291  1.0000
  H   H74       1.0  0.09310  0.79826  0.89089  1.0000
  H   H75       1.0  0.26786  0.82972  0.02371  1.0000
  H   H76       1.0  0.69626  0.29087  0.91711  1.0000
  H   H77       1.0  0.61631  0.24743  0.66548  1.0000
  H   H78       1.0  0.55381  0.25029  0.71250  1.0000
  H   H79       1.0  0.60285  0.29556  0.88486  1.0000
  H   H80       1.0  0.77396  0.32777  0.03599  1.0000
  C   C1        1.0  0.46062  0.07675  0.23996  1.0000
  C   C2        1.0  0.27485  0.22206  0.03133  1.0000
  C   C3        1.0  0.23174  0.21460  0.41128  1.0000
  C   C4        1.0  0.14270  0.18034  0.07784  1.0000
  C   C5        1.0  0.30089  0.19058  0.04911  1.0000
  C   C6        1.0  0.29096  0.26650  0.17017  1.0000
  C   C7        1.0  0.95848  0.57430  0.23201  1.0000
  C   C8        1.0  0.77106  0.71528  0.99881  1.0000
  C   C9        1.0  0.74098  0.71025  0.37930  1.0000
  C   C10       1.0  0.65998  0.67544  0.03383  1.0000
  C   C11       1.0  0.79860  0.68462  0.02025  1.0000
  C   C12       1.0  0.78478  0.76016  0.13691  1.0000
  C   C13       1.0  0.51997  0.07439  0.26983  1.0000
  C   C14       1.0  0.72253  0.22279  0.47556  1.0000
  C   C15       1.0  0.78366  0.22514  0.04915  1.0000
  C   C16       1.0  0.90670  0.23398  0.20822  1.0000
  C   C17       1.0  0.69695  0.19288  0.45130  1.0000
  C   C18       1.0  0.69065  0.24665  0.42332  1.0000
  C   C19       1.0  0.01776  0.57165  0.26034  1.0000
  C   C20       1.0  0.21816  0.72371  0.48159  1.0000
  C   C21       1.0  0.27863  0.73022  0.05584  1.0000
  C   C22       1.0  0.40005  0.74158  0.22775  1.0000
  C   C23       1.0  0.19302  0.69322  0.45488  1.0000
  C   C24       1.0  0.18601  0.74687  0.42596  1.0000
  C   C25       1.0  0.54020  0.92606  0.26627  1.0000
  C   C26       1.0  0.72482  0.78153  0.48346  1.0000
  C   C27       1.0  0.75923  0.78515  0.09272  1.0000
  C   C28       1.0  0.83639  0.82175  0.44405  1.0000
  C   C29       1.0  0.69764  0.81279  0.46507  1.0000
  C   C30       1.0  0.71340  0.73619  0.34048  1.0000
  C   C31       1.0  0.04063  0.42235  0.25131  1.0000
  C   C32       1.0  0.23065  0.28022  0.47956  1.0000
  C   C33       1.0  0.26447  0.29292  0.13347  1.0000
  C   C34       1.0  0.35068  0.32518  0.47037  1.0000
  C   C35       1.0  0.20916  0.30958  0.45028  1.0000
  C   C36       1.0  0.20794  0.23828  0.36026  1.0000
  C   C37       1.0  0.48077  0.92892  0.23704  1.0000
  C   C38       1.0  0.27622  0.78085  0.03013  1.0000
  C   C39       1.0  0.21677  0.77343  0.45264  1.0000
  C   C40       1.0  0.09484  0.76209  0.27882  1.0000
  C   C41       1.0  0.30089  0.81162  0.05690  1.0000
  C   C42       1.0  0.30883  0.75708  0.08256  1.0000
  C   C43       1.0  0.98141  0.42465  0.22292  1.0000
  C   C44       1.0  0.78184  0.27667  0.02905  1.0000
  C   C45       1.0  0.72181  0.27226  0.44572  1.0000
  C   C46       1.0  0.59949  0.26513  0.29098  1.0000
  C   C47       1.0  0.80675  0.30758  0.05736  1.0000
  C   C48       1.0  0.81427  0.25178  0.07560  1.0000
  C   C49       1.0  0.49855  0.01568  0.24466  1.0000
  C   C50       1.0  0.99646  0.51329  0.23736  1.0000
  C   C51       1.0  0.50336  0.98668  0.25852  1.0000
  C   C52       1.0  0.00190  0.48374  0.24863  1.0000
  C   C53       1.0  0.45835  0.07583  0.74195  1.0000
  C   C54       1.0  0.27838  0.22982  0.57453  1.0000
  C   C55       1.0  0.23232  0.20665  0.86135  1.0000
  C   C56       1.0  0.13617  0.17756  0.54583  1.0000
  C   C57       1.0  0.29865  0.20084  0.60602  1.0000
  C   C58       1.0  0.30150  0.27154  0.69304  1.0000
  C   C59       1.0  0.95977  0.57537  0.73451  1.0000
  C   C60       1.0  0.78019  0.72683  0.55460  1.0000
  C   C61       1.0  0.73014  0.69843  0.82471  1.0000
  C   C62       1.0  0.64661  0.66367  0.48049  1.0000
  C   C63       1.0  0.80765  0.69519  0.57031  1.0000
  C   C64       1.0  0.79166  0.77218  0.69786  1.0000
  C   C65       1.0  0.51715  0.07215  0.76306  1.0000
  C   C66       1.0  0.72191  0.22069  0.97444  1.0000
  C   C67       1.0  0.78425  0.22718  0.55117  1.0000
  C   C68       1.0  0.90604  0.23666  0.71746  1.0000
  C   C69       1.0  0.69639  0.19023  0.94756  1.0000
  C   C70       1.0  0.68963  0.24506  0.92504  1.0000
  C   C71       1.0  0.01869  0.57195  0.75726  1.0000
  C   C72       1.0  0.21717  0.72453  0.97600  1.0000
  C   C73       1.0  0.27963  0.72946  0.56357  1.0000
  C   C74       1.0  0.40207  0.74056  0.73581  1.0000
  C   C75       1.0  0.19239  0.69380  0.94882  1.0000
  C   C76       1.0  0.18459  0.74787  0.92158  1.0000
  C   C77       1.0  0.53815  0.92323  0.75337  1.0000
  C   C78       1.0  0.71751  0.76862  0.92033  1.0000
  C   C79       1.0  0.76355  0.79823  0.65966  1.0000
  C   C80       1.0  0.84688  0.83258  0.00214  1.0000
  C   C81       1.0  0.69502  0.79925  0.89798  1.0000
  C   C82       1.0  0.70216  0.72408  0.78440  1.0000
  C   C83       1.0  0.04302  0.42409  0.75696  1.0000
  C   C84       1.0  0.22169  0.27758  0.96396  1.0000
  C   C85       1.0  0.27706  0.29558  0.64386  1.0000
  C   C86       1.0  0.36645  0.32940  0.97739  1.0000
  C   C87       1.0  0.19685  0.30915  0.94652  1.0000
  C   C88       1.0  0.20451  0.23342  0.82685  1.0000
  C   C89       1.0  0.47948  0.92716  0.73395  1.0000
  C   C90       1.0  0.27828  0.77909  0.53399  1.0000
  C   C91       1.0  0.21468  0.77518  0.95061  1.0000
  C   C92       1.0  0.09317  0.76275  0.77447  1.0000
  C   C93       1.0  0.30345  0.80913  0.55817  1.0000
  C   C94       1.0  0.31040  0.75600  0.59012  1.0000
  C   C95       1.0  0.98402  0.42694  0.73239  1.0000
  C   C96       1.0  0.78360  0.27617  0.51893  1.0000
  C   C97       1.0  0.72022  0.27216  0.95413  1.0000
  C   C98       1.0  0.59971  0.25993  0.77466  1.0000
  C   C99       1.0  0.80915  0.30595  0.54238  1.0000
  C   C100      1.0  0.81544  0.25260  0.57261  1.0000
  C   C101      1.0  0.49560  0.01417  0.74164  1.0000
  C   C102      1.0  0.99787  0.51395  0.73683  1.0000
  C   C103      1.0  0.50091  0.98527  0.75637  1.0000
  C   C104      1.0  0.00383  0.48507  0.75215  1.0000
  S   S1        1.0  0.43093  0.03888  0.20296  1.0000
  S   S2        1.0  0.92885  0.53731  0.20066  1.0000
  S   S3        1.0  0.55878  0.03384  0.26973  1.0000
  S   S4        1.0  0.05656  0.53116  0.26036  1.0000
  S   S5        1.0  0.57056  0.96312  0.29991  1.0000
  S   S6        1.0  0.06979  0.46006  0.28605  1.0000
  S   S7        1.0  0.44274  0.96949  0.23638  1.0000
  S   S8        1.0  0.94223  0.46554  0.22577  1.0000
  S   S9        1.0  0.42833  0.03881  0.70865  1.0000
  S   S10       1.0  0.93029  0.53852  0.70408  1.0000
  S   S11       1.0  0.55522  0.03033  0.75531  1.0000
  S   S12       1.0  0.05741  0.53096  0.75384  1.0000
  S   S13       1.0  0.56821  0.96041  0.78765  1.0000
  S   S14       1.0  0.07189  0.46169  0.79056  1.0000
  S   S15       1.0  0.44125  0.96890  0.74160  1.0000
  S   S16       1.0  0.94475  0.46801  0.73653  1.0000
  N   N1        1.0  0.32666  0.20106  0.20694  1.0000
  N   N2        1.0  0.82535  0.69587  0.17953  1.0000
  N   N3        1.0  0.64112  0.18557  0.38303  1.0000
  N   N4        1.0  0.13740  0.68506  0.38286  1.0000
  N   N5        1.0  0.67268  0.80248  0.30749  1.0000
  N   N6        1.0  0.16738  0.30073  0.30690  1.0000
  N   N7        1.0  0.35673  0.81810  0.11871  1.0000
  N   N8        1.0  0.86258  0.31217  0.10822  1.0000
  N   N9        1.0  0.34609  0.20571  0.73026  1.0000
  N   N10       1.0  0.83342  0.70465  0.72584  1.0000
  N   N11       1.0  0.64034  0.18594  0.89565  1.0000
  N   N12       1.0  0.13652  0.68737  0.88676  1.0000
  N   N13       1.0  0.65136  0.79275  0.76261  1.0000
  N   N14       1.0  0.17119  0.29882  0.78906  1.0000
  N   N15       1.0  0.35932  0.81609  0.62392  1.0000
  N   N16       1.0  0.86512  0.31208  0.60385  1.0000
  O   O1        1.0  0.33322  0.28084  0.33319  1.0000
  O   O2        1.0  0.82409  0.77636  0.30582  1.0000
  O   O3        1.0  0.63100  0.24331  0.35454  1.0000
  O   O4        1.0  0.12660  0.74158  0.34836  1.0000
  O   O5        1.0  0.67473  0.72040  0.17141  1.0000
  O   O6        1.0  0.16308  0.22340  0.20070  1.0000
  O   O7        1.0  0.36828  0.76198  0.15762  1.0000
  O   O8        1.0  0.87389  0.25563  0.14461  1.0000
  O   O9        1.0  0.34625  0.28623  0.85266  1.0000
  O   O10       1.0  0.83125  0.78785  0.86634  1.0000
  O   O11       1.0  0.63007  0.24049  0.84974  1.0000
  O   O12       1.0  0.12535  0.74181  0.84169  1.0000
  O   O13       1.0  0.66159  0.70853  0.61758  1.0000
  O   O14       1.0  0.15967  0.21967  0.66839  1.0000
  O   O15       1.0  0.36982  0.76102  0.66616  1.0000
  O   O16       1.0  0.87507  0.25637  0.64392  1.0000
  C   C105      1.0  0.35615  0.09720  0.05875  1.0000
  C   C106      1.0  0.40776  0.10410  0.19595  1.0000
  C  Sn1       1.0  0.42970  0.14612  0.35508  1.0000
  C  Sn2       1.0  0.39930  0.18183  0.37690  1.0000
  C   C107      1.0  0.34768  0.17459  0.23891  1.0000
  C   C108      1.0  0.32613  0.13240  0.08020  1.0000
  H   H81       1.0  0.43418  0.22418  0.93600  1.0000
  O  Te1       1.0  0.48133  0.15244  0.49077  1.0000
  O  Te2       1.0  0.42023  0.22417  0.53459  1.0000
  H   H82       1.0  0.38087  0.28669  0.97405  1.0000
  Mg  Mg1       1.0  0.49240  0.21621  0.68089  1.0000
  C   C109      1.0  0.92886  0.66162  0.38870  1.0000
  C   C110      1.0  0.91952  0.61746  0.27226  1.0000
  C  Sn3       1.0  0.87413  0.59562  0.10390  1.0000
  C  Sn4       1.0  0.83750  0.61849  0.05149  1.0000
  C   C111      1.0  0.84724  0.66265  0.16889  1.0000
  C   C112      1.0  0.89277  0.68420  0.33708  1.0000
  H   H83       1.0  0.96411  0.67828  0.51879  1.0000
  O  Te3       1.0  0.96011  0.71111  0.98924  1.0000
  O  Te4       1.0  0.88656  0.75706  0.88396  1.0000
  H   H84       1.0  0.90002  0.71838  0.42715  1.0000
  Mg  Mg2       1.0  0.89212  0.69673  0.77481  1.0000
  C   C113      1.0  0.62565  0.12013  0.44230  1.0000
  C   C114      1.0  0.56792  0.10538  0.33304  1.0000
  C  Sn5       1.0  0.53459  0.11499  0.22408  1.0000
  C  Sn6       1.0  0.55964  0.13984  0.22477  1.0000
  C   C115      1.0  0.61745  0.15442  0.33446  1.0000
  C   C116      1.0  0.65040  0.14462  0.44300  1.0000
  H   H85       1.0  0.65116  0.11253  0.52621  1.0000
  O  Te5       1.0  0.47697  0.10001  0.11579  1.0000
  O  Te6       1.0  0.52732  0.14990  0.11714  1.0000
  H   H86       1.0  0.69511  0.15602  0.52749  1.0000
  Mg  Mg3       1.0  0.54529  0.28177  0.99268  1.0000
  C   C117      1.0  0.13829  0.63551  0.46333  1.0000
  C   C118      1.0  0.12390  0.64982  0.37276  1.0000
  C  Sn7       1.0  0.06992  0.63892  0.23581  1.0000
  C  Sn8       1.0  0.02969  0.61324  0.18899  1.0000
  C   C119      1.0  0.04448  0.59911  0.28049  1.0000
  C   C120      1.0  0.09862  0.61018  0.41728  1.0000
  H   H87       1.0  0.18016  0.64409  0.56924  1.0000
  O  Te7       1.0  0.05626  0.65348  0.14665  1.0000
  O  Te8       1.0  0.97543  0.60189  0.05268  1.0000
  H   H88       1.0  0.10973  0.59912  0.48746  1.0000
  Mg  Mg4       1.0  0.07162  0.78913  0.97035  1.0000
  C   C121      1.0  0.58779  0.82237  0.11168  1.0000
  C   C122      1.0  0.63854  0.82956  0.25147  1.0000
  C  Sn9       1.0  0.66016  0.87166  0.41078  1.0000
  C  Sn10      1.0  0.63031  0.90716  0.43013  1.0000
  C   C123      1.0  0.57954  0.89964  0.28956  1.0000
  C   C124      1.0  0.55830  0.85737  0.13069  1.0000
  H   H89       1.0  0.66605  0.94929  0.98881  1.0000
  O  Te9       1.0  0.71094  0.87826  0.54908  1.0000
  O  Te10      1.0  0.65094  0.94958  0.58795  1.0000
  H   H90       1.0  0.51898  0.85182  0.02254  1.0000
  Mg  Mg5       1.0  0.72190  0.94203  0.73828  1.0000
  C   C125      1.0  0.07512  0.33448  0.08480  1.0000
  C   C126      1.0  0.07692  0.37989  0.21691  1.0000
  C  Sn11      1.0  0.11795  0.40233  0.39389  1.0000
  C  Sn12      1.0  0.15788  0.37878  0.43902  1.0000
  C   C127      1.0  0.15575  0.33336  0.30583  1.0000
  C   C128      1.0  0.11450  0.31124  0.12917  1.0000
  H   H91       1.0  0.13794  0.47698  0.94808  1.0000
  O  Te11      1.0  0.11913  0.44769  0.52424  1.0000
  O  Te12      1.0  0.19936  0.40039  0.61483  1.0000
  H   H92       1.0  0.11314  0.27608  0.02687  1.0000
  Mg  Mg6       1.0  0.18370  0.46244  0.74512  1.0000
  C   C129      1.0  0.37424  0.88398  0.06392  1.0000
  C   C130      1.0  0.42937  0.90259  0.19069  1.0000
  C  Sn13      1.0  0.46248  0.89185  0.29556  1.0000
  C  Sn14      1.0  0.43987  0.86190  0.27277  1.0000
  C   C131      1.0  0.38469  0.84344  0.14549  1.0000
  C   C132      1.0  0.35192  0.85443  0.04130  1.0000
  H   H93       1.0  0.44362  0.05208  0.98323  1.0000
  O  Te13      1.0  0.51746  0.91075  0.42165  1.0000
  O  Te14      1.0  0.47205  0.85058  0.37575  1.0000
  H   H94       1.0  0.40398  0.99961  0.94307  1.0000
  Mg  Mg7       1.0  0.54472  0.88502  0.53009  1.0000
  C   C133      1.0  0.97255  0.37805  0.30603  1.0000
  C   C134      1.0  0.95642  0.39371  0.22015  1.0000
  C  Sn15      1.0  0.90145  0.38377  0.08809  1.0000
  C  Sn16      1.0  0.86199  0.35765  0.04148  1.0000
  C   C135      1.0  0.87853  0.34216  0.12828  1.0000
  C   C136      1.0  0.93365  0.35230  0.26019  1.0000
  H   H95       1.0  0.01518  0.38591  0.40817  1.0000
  O  Te15      1.0  0.88604  0.39967  0.00357  1.0000
  O  Te16      1.0  0.90150  0.50685  0.91002  1.0000
  H   H96       1.0  0.94611  0.34019  0.32675  1.0000
  Mg  Mg8       1.0  0.90064  0.53620  0.83291  1.0000
  C   C137      1.0  0.36774  0.09938  0.55115  1.0000
  C   C138      1.0  0.86761  0.10476  0.70149  1.0000
  C  Sn17      1.0  0.42521  0.14643  0.87724  1.0000
  C  Sn18      1.0  0.40021  0.18335  0.90252  1.0000
  C   C139      1.0  0.35926  0.17763  0.75126  1.0000
  C   C140      1.0  0.34305  0.13578  0.57599  1.0000
  H   H97       1.0  0.35517  0.06700  0.41555  1.0000
  O  Te17      1.0  0.83040  0.99160  0.02592  1.0000
  O  Te18      1.0  0.32120  0.06575  0.07669  1.0000
  H   H98       1.0  0.31132  0.13163  0.45964  1.0000
  Mg  Mg9       1.0  0.37885  0.05552  0.23643  1.0000
  C   C141      1.0  0.85780  0.59912  0.56115  1.0000
  C   C142      1.0  0.90856  0.60436  0.69665  1.0000
  C  Sn19      1.0  0.93192  0.64575  0.85953  1.0000
  C  Sn20      1.0  0.90383  0.68251  0.88688  1.0000
  C   C143      1.0  0.85304  0.67693  0.75055  1.0000
  C   C144      1.0  0.83005  0.63536  0.58806  1.0000
  H   H99       1.0  0.83999  0.56696  0.43547  1.0000
  O  Te19      1.0  0.98268  0.65040  0.99345  1.0000
  O  Te20      1.0  0.83150  0.56463  0.04840  1.0000
  H   H100      1.0  0.79072  0.63132  0.48323  1.0000
  Mg  Mg10      1.0  0.90169  0.55431  0.19032  1.0000
  C   C145      1.0  0.08357  0.11522  0.92823  1.0000
  C   C146      1.0  0.02476  0.10279  0.82667  1.0000
  C  Sn21      1.0  0.99031  0.11619  0.73275  1.0000
  C  Sn22      1.0  0.55640  0.14250  0.74088  1.0000
  C   C147      1.0  0.61528  0.15473  0.84275  1.0000
  C   C148      1.0  0.10828  0.14115  0.93626  1.0000
  H   H101      1.0  0.01522  0.94508  0.00050  1.0000
  O  Te21      1.0  0.47269  0.10350  0.63199  1.0000
  O  Te22      1.0  0.52297  0.15634  0.64826  1.0000
  H   H102      1.0  0.05910  0.99113  0.01478  1.0000
  Mg  Mg11      1.0  0.44501  0.13059  0.52927  1.0000
  C   C149      1.0  0.12395  0.61805  0.92974  1.0000
  C   C150      1.0  0.06624  0.60320  0.82082  1.0000
  C  Sn23      1.0  0.03177  0.61438  0.71824  1.0000
  C  Sn24      1.0  0.05563  0.64091  0.72507  1.0000
  C   C151      1.0  0.11342  0.65558  0.83435  1.0000
  C   C152      1.0  0.14753  0.64421  0.93650  1.0000
  H   H103      1.0  0.05563  0.44962  0.00869  1.0000
  O  Te23      1.0  0.97419  0.59928  0.61020  1.0000
  O  Te24      1.0  0.02215  0.65256  0.62387  1.0000
  H   H104      1.0  0.09750  0.49607  0.02072  1.0000
  Mg  Mg12      1.0  0.94595  0.62395  0.49709  1.0000
  C   C153      1.0  0.58243  0.81689  0.56886  1.0000
  C   C154      1.0  0.62600  0.82231  0.71653  1.0000
  C  Sn25      1.0  0.64450  0.86398  0.88977  1.0000
  C  Sn26      1.0  0.61882  0.90084  0.91522  1.0000
  C   C155      1.0  0.57523  0.89507  0.76663  1.0000
  C   C156      1.0  0.55706  0.85323  0.59386  1.0000
  H   H105      1.0  0.56835  0.78452  0.43520  1.0000
  O  Te25      1.0  0.59337  0.70920  0.03581  1.0000
  O  Te26      1.0  0.54175  0.78324  0.08691  1.0000
  H   H106      1.0  0.52330  0.84904  0.47958  1.0000
  Mg  Mg13      1.0  0.60269  0.77309  0.24354  1.0000
  C   C157      1.0  0.09027  0.31969  0.59301  1.0000
  C   C158      1.0  0.13973  0.32644  0.73460  1.0000
  C  Sn27      1.0  0.16111  0.36843  0.89706  1.0000
  C  Sn28      1.0  0.13233  0.40428  0.91776  1.0000
  C   C159      1.0  0.08286  0.39719  0.77536  1.0000
  C   C160      1.0  0.06185  0.35503  0.61335  1.0000
  H   H107      1.0  0.07399  0.28708  0.46770  1.0000
  O  Te27      1.0  0.11587  0.21497  0.03712  1.0000
  O  Te28      1.0  0.05804  0.28697  0.07871  1.0000
  H   H108      1.0  0.02353  0.34983  0.50380  1.0000
  Mg  Mg14      1.0  0.12705  0.27877  0.23050  1.0000
  C   C161      1.0  0.37390  0.88214  0.56686  1.0000
  C   C162      1.0  0.42954  0.90029  0.68930  1.0000
  C  Sn29      1.0  0.46421  0.88893  0.79109  1.0000
  C  Sn30      1.0  0.44267  0.85882  0.76956  1.0000
  C   C163      1.0  0.38696  0.84082  0.64662  1.0000
  C   C164      1.0  0.35262  0.85242  0.54549  1.0000
  H   H109      1.0  0.34734  0.89109  0.48853  1.0000
  O  Te29      1.0  0.51969  0.90739  0.91286  1.0000
  O  Te30      1.0  0.47641  0.84689  0.86953  1.0000
  H   H110      1.0  0.30956  0.83834  0.45061  1.0000
  Mg  Mg15      1.0  0.45449  0.72127  0.01838  1.0000
  C   C165      1.0  0.96058  0.36078  0.77716  1.0000
  C   C166      1.0  0.90290  0.34591  0.66766  1.0000
  C  Sn31      1.0  0.86831  0.35769  0.56743  1.0000
  C  Sn32      1.0  0.89203  0.38484  0.57725  1.0000
  C   C167      1.0  0.94980  0.39952  0.68710  1.0000
  C   C168      1.0  0.98401  0.38755  0.78687  1.0000
  H   H111      1.0  0.98706  0.35150  0.85429  1.0000
  O  Te31      1.0  0.81077  0.34256  0.45876  1.0000
  O  Te32      1.0  0.85844  0.39710  0.47845  1.0000
  H   H112      1.0  0.02868  0.39904  0.87154  1.0000
  Mg  Mg16      1.0  0.78234  0.36819  0.34967  1.0000
