data_image0
_chemical_formula_structural       H16C40S16N16C2Sn2C2HTe2HMgC2Sn2C2HTe2HMgC2Sn2C2HTe2HMgC2Sn2C2HTe2HMgC2Sn2C2HTe2HMgC2Sn2C2HTe2HMgC2Sn2C2HTe2HMgC2Sn2C2HTe2HMgC2Sn2C2HTe2HMgC2Sn2C2HTe2HMgC2Sn2C2HTe2HMgC2Sn2C2HTe2HMgC2Sn2C2HTe2HMgC2Sn2C2HTe2HMgC2Sn2C2HTe2HMgC2Sn2C2HTe2HMgC2Sn2C2HTe2HMgC2Sn2C2HTe2HMgC2Sn2C2HTe2HMgC2Sn2C2HTe2HMgC2Sn2C2HTe2HMgC2Sn2C2HTe2HMgC2Sn2C2HTe2HMgC2Sn2C2HTe2HMg
_chemical_formula_sum              "H64 C136 S16 N16 Sn48 Te48 Mg24"
_cell_length_a       27.3573
_cell_length_b       42.5281
_cell_length_c       8.23423
_cell_angle_alpha    68.2548
_cell_angle_beta     112.345
_cell_angle_gamma    96.4489

_symmetry_space_group_name_H-M    'P1'
_space_group_IT_number       1

loop_
  _space_group_symop_operation_xyz
  'x, y, z'

loop_
  _atom_site_type_symbol
  _atom_site_label
  _atom_site_symmetry_multiplicity
  _atom_site_fract_x
  _atom_site_fract_y
  _atom_site_fract_z
  _atom_site_occupancy
  H   H1        1.0  0.36951  0.20107  0.23839  1.0000
  H   H2        1.0  0.66194  0.20590  0.23744  1.0000
  H   H3        1.0  0.86801  0.70464  0.20898  1.0000
  H   H4        1.0  0.13437  0.71844  0.28558  1.0000
  H   H5        1.0  0.63516  0.80115  0.25499  1.0000
  H   H6        1.0  0.34526  0.79037  0.25786  1.0000
  H   H7        1.0  0.12960  0.30015  0.25323  1.0000
  H   H8        1.0  0.86471  0.28749  0.20784  1.0000
  H   H9        1.0  0.35827  0.19855  0.71315  1.0000
  H   H10       1.0  0.62941  0.21819  0.77376  1.0000
  H   H11       1.0  0.86186  0.69702  0.75110  1.0000
  H   H12       1.0  0.15608  0.70781  0.72969  1.0000
  H   H13       1.0  0.63318  0.79772  0.80142  1.0000
  H   H14       1.0  0.37669  0.78243  0.70569  1.0000
  H   H15       1.0  0.13721  0.29865  0.79454  1.0000
  H   H16       1.0  0.85266  0.28388  0.79024  1.0000
  C   C1        1.0  0.47513  0.07313  0.26017  1.0000
  C   C2        1.0  0.52947  0.07016  0.34196  1.0000
  C   C3        1.0  0.97048  0.57653  0.20977  1.0000
  C   C4        1.0  0.02488  0.57590  0.27924  1.0000
  C   C5        1.0  0.52756  0.92446  0.28720  1.0000
  C   C6        1.0  0.47300  0.92563  0.21412  1.0000
  C   C7        1.0  0.02646  0.42675  0.25013  1.0000
  C   C8        1.0  0.97205  0.42857  0.17582  1.0000
  C   C9        1.0  0.33254  0.20016  0.12286  1.0000
  C   C10       1.0  0.68557  0.19753  0.38849  1.0000
  C   C11       1.0  0.82821  0.69956  0.12257  1.0000
  C   C12       1.0  0.17185  0.70553  0.39317  1.0000
  C   C13       1.0  0.67247  0.80293  0.36694  1.0000
  C   C14       1.0  0.32036  0.79941  0.10691  1.0000
  C   C15       1.0  0.16663  0.30019  0.36948  1.0000
  C   C16       1.0  0.82621  0.29872  0.10080  1.0000
  C   C17       1.0  0.49961  0.01153  0.31195  1.0000
  C   C18       1.0  0.99930  0.51811  0.22491  1.0000
  C   C19       1.0  0.49933  0.98200  0.28301  1.0000
  C   C20       1.0  0.99969  0.48810  0.20051  1.0000
  C   C21       1.0  0.47424  0.07357  0.75468  1.0000
  C   C22       1.0  0.52861  0.07251  0.83679  1.0000
  C   C23       1.0  0.96982  0.57584  0.70119  1.0000
  C   C24       1.0  0.02433  0.57455  0.77333  1.0000
  C   C25       1.0  0.53312  0.92448  0.80540  1.0000
  C   C26       1.0  0.47867  0.92543  0.72982  1.0000
  C   C27       1.0  0.02601  0.42568  0.75413  1.0000
  C   C28       1.0  0.97153  0.42707  0.67093  1.0000
  C   C29       1.0  0.32200  0.19713  0.59690  1.0000
  C   C30       1.0  0.66840  0.20684  0.87648  1.0000
  C   C31       1.0  0.82664  0.69740  0.62772  1.0000
  C   C32       1.0  0.17829  0.70017  0.88236  1.0000
  C   C33       1.0  0.67409  0.80352  0.87534  1.0000
  C   C34       1.0  0.33866  0.79482  0.59971  1.0000
  C   C35       1.0  0.17580  0.30219  0.89651  1.0000
  C   C36       1.0  0.82357  0.29460  0.64571  1.0000
  C   C37       1.0  0.50350  0.01220  0.81957  1.0000
  C   C38       1.0  0.99692  0.51727  0.71476  1.0000
  C   C39       1.0  0.50443  0.98219  0.79595  1.0000
  C   C40       1.0  0.99761  0.48696  0.69448  1.0000
  S   S1        1.0  0.44248  0.03508  0.24849  1.0000
  S   S2        1.0  0.55789  0.02939  0.42072  1.0000
  S   S3        1.0  0.94037  0.54045  0.15894  1.0000
  S   S4        1.0  0.05665  0.53873  0.31718  1.0000
  S   S5        1.0  0.55789  0.95909  0.35327  1.0000
  S   S6        1.0  0.44183  0.96262  0.18151  1.0000
  S   S7        1.0  0.05754  0.46540  0.26164  1.0000
  S   S8        1.0  0.94196  0.46868  0.10152  1.0000
  S   S9        1.0  0.44464  0.03455  0.74929  1.0000
  S   S10       1.0  0.56006  0.03226  0.92160  1.0000
  S   S11       1.0  0.93881  0.54070  0.64193  1.0000
  S   S12       1.0  0.05488  0.53678  0.81302  1.0000
  S   S13       1.0  0.56292  0.95912  0.87060  1.0000
  S   S14       1.0  0.44710  0.96276  0.69124  1.0000
  S   S15       1.0  0.05622  0.46413  0.76929  1.0000
  S   S16       1.0  0.94113  0.46764  0.58730  1.0000
  N   N1        1.0  0.32497  0.17814  0.04154  1.0000
  N   N2        1.0  0.68189  0.16771  0.50563  1.0000
  N   N3        1.0  0.81843  0.67409  0.06608  1.0000
  N   N4        1.0  0.17811  0.67279  0.46518  1.0000
  N   N5        1.0  0.67990  0.82570  0.44286  1.0000
  N   N6        1.0  0.32324  0.82974  0.99401  1.0000
  N   N7        1.0  0.17529  0.32188  0.45346  1.0000
  N   N8        1.0  0.81727  0.33124  0.02141  1.0000
  N   N9        1.0  0.31598  0.17460  0.51953  1.0000
  N   N10       1.0  0.67816  0.17434  0.95279  1.0000
  N   N11       1.0  0.81952  0.67570  0.54503  1.0000
  N   N12       1.0  0.17291  0.67052  0.99860  1.0000
  N   N13       1.0  0.68589  0.82975  0.92572  1.0000
  N   N14       1.0  0.33097  0.82752  0.52793  1.0000
  N   N15       1.0  0.18374  0.32582  0.96731  1.0000
  N   N16       1.0  0.82082  0.32639  0.54152  1.0000
  C   C41       1.0  0.43114  0.15011  0.24851  1.0000
  C   C42       1.0  0.38017  0.15705  0.11163  1.0000
  C  Sn1       1.0  0.35665  0.13450  0.01855  1.0000
  C  Sn2       1.0  0.38479  0.10447  0.06368  1.0000
  C   C43       1.0  0.43575  0.09775  0.20092  1.0000
  C   C44       1.0  0.45891  0.12049  0.29316  1.0000
  H   H17       1.0  0.44905  0.16770  0.31995  1.0000
  O  Te1       1.0  0.40891  0.07754  0.88211  1.0000
  O  Te2       1.0  0.46542  0.01721  0.97286  1.0000
  H   H18       1.0  0.49836  0.11511  0.39921  1.0000
  Mg  Mg1       1.0  0.39502  0.03840  0.79715  1.0000
  C   C45       1.0  0.64528  0.10304  0.59859  1.0000
  C   C46       1.0  0.64844  0.13610  0.48056  1.0000
  C  Sn3       1.0  0.60838  0.14994  0.30464  1.0000
  C  Sn4       1.0  0.56437  0.13026  0.24622  1.0000
  C   C47       1.0  0.56156  0.09722  0.36539  1.0000
  C   C48       1.0  0.60188  0.08362  0.54111  1.0000
  H   H19       1.0  0.67646  0.09252  0.73459  1.0000
  O  Te3       1.0  0.61217  0.18301  0.18844  1.0000
  O  Te4       1.0  0.52376  0.14346  0.07116  1.0000
  H   H20       1.0  0.59941  0.05803  0.63251  1.0000
  Mg  Mg2       1.0  0.65007  0.12549  0.96276  1.0000
  C   C49       1.0  0.86552  0.60536  0.04253  1.0000
  C   C50       1.0  0.92002  0.60187  0.14384  1.0000
  C  Sn5       1.0  0.94511  0.62332  0.24282  1.0000
  C  Sn6       1.0  0.91497  0.64870  0.24012  1.0000
  C   C51       1.0  0.86047  0.65197  0.13845  1.0000
  C   C52       1.0  0.83577  0.63038  0.03984  1.0000
  H   H21       1.0  0.94961  0.52437  0.96631  1.0000
  O  Te5       1.0  0.99959  0.61949  0.34326  1.0000
  O  Te6       1.0  0.93904  0.67046  0.33787  1.0000
  H   H22       1.0  0.89677  0.56880  0.96152  1.0000
  Mg  Mg3       1.0  0.01436  0.65527  0.45417  1.0000
  C   C53       1.0  0.08203  0.65766  0.20347  1.0000
  C   C54       1.0  0.12635  0.65435  0.36652  1.0000
  C  Sn7       1.0  0.14020  0.62307  0.51374  1.0000
  C  Sn8       1.0  0.10903  0.59461  0.49699  1.0000
  C   C55       1.0  0.06480  0.59817  0.33324  1.0000
  C   C56       1.0  0.05129  0.62960  0.18680  1.0000
  H   H23       1.0  0.07159  0.68196  0.09012  1.0000
  O  Te7       1.0  0.18459  0.62022  0.67569  1.0000
  O  Te8       1.0  0.12199  0.56305  0.64196  1.0000
  H   H24       1.0  0.01699  0.63214  0.06053  1.0000
  Mg  Mg4       1.0  0.18616  0.57190  0.83484  1.0000
  C   C57       1.0  0.63331  0.89684  0.44522  1.0000
  C   C58       1.0  0.57979  0.90199  0.33014  1.0000
  C  Sn9       1.0  0.55411  0.87897  0.24286  1.0000
  C  Sn10      1.0  0.58263  0.85027  0.27163  1.0000
  C   C59       1.0  0.63615  0.84534  0.38712  1.0000
  C   C60       1.0  0.66147  0.86854  0.47373  1.0000
  H   H25       1.0  0.65290  0.91478  0.51232  1.0000
  O  Te9       1.0  0.50062  0.88450  0.12827  1.0000
  O  Te10      1.0  0.55792  0.82686  0.18616  1.0000
  H   H26       1.0  0.70290  0.86453  0.56292  1.0000
  Mg  Mg5       1.0  0.48444  0.84543  0.04247  1.0000
  C   C61       1.0  0.37780  0.90799  0.96019  1.0000
  C   C62       1.0  0.31905  0.96801  0.12403  1.0000
  C  Sn11      1.0  0.33488  0.93576  0.26040  1.0000
  C  Sn12      1.0  0.30558  0.90729  0.23178  1.0000
  C   C63       1.0  0.26119  0.91182  0.06732  1.0000
  C   C64       1.0  0.34890  0.87993  0.93181  1.0000
  H   H27       1.0  0.36583  0.93305  0.85529  1.0000
  O  Te11      1.0  0.37938  0.93195  0.42331  1.0000
  O  Te12      1.0  0.32053  0.87477  0.36574  1.0000
  H   H28       1.0  0.31450  0.88322  0.80491  1.0000
  Mg  Mg6       1.0  0.38404  0.88253  0.56478  1.0000
  C   C65       1.0  0.15010  0.38203  0.46457  1.0000
  C   C66       1.0  0.14095  0.35206  0.42625  1.0000
  C  Sn13      1.0  0.09053  0.34571  0.31516  1.0000
  C  Sn14      1.0  0.04858  0.36987  0.24122  1.0000
  C   C67       1.0  0.05816  0.39978  0.28025  1.0000
  C   C68       1.0  0.10875  0.40587  0.39163  1.0000
  H   H29       1.0  0.18926  0.38675  0.55065  1.0000
  O  Te13      1.0  0.08207  0.31563  0.27831  1.0000
  O  Te14      1.0  0.99781  0.36417  0.12972  1.0000
  H   H30       1.0  0.11584  0.42909  0.42117  1.0000
  Mg  Mg7       1.0  0.00597  0.31939  0.11899  1.0000
  C   C69       1.0  0.92783  0.36267  0.30433  1.0000
  C   C70       1.0  0.93538  0.39393  0.17963  1.0000
  C  Sn15      1.0  0.00290  0.34195  0.99392  1.0000
  C  Sn16      1.0  0.95887  0.32252  0.93233  1.0000
  C   C71       1.0  0.84844  0.35556  0.05821  1.0000
  C   C72       1.0  0.88440  0.34350  0.24372  1.0000
  H   H31       1.0  0.95563  0.35334  0.44790  1.0000
  O  Te15      1.0  0.01105  0.37323  0.87116  1.0000
  O  Te16      1.0  0.92258  0.33421  0.74750  1.0000
  H   H32       1.0  0.87852  0.31930  0.34027  1.0000
  Mg  Mg8       1.0  0.95069  0.37835  0.63294  1.0000
  C   C73       1.0  0.21520  0.22496  0.38543  1.0000
  C   C74       1.0  0.26896  0.22266  0.49658  1.0000
  C  Sn17      1.0  0.29102  0.24662  0.58090  1.0000
  C  Sn18      1.0  0.25856  0.27334  0.55320  1.0000
  C   C75       1.0  0.20481  0.27540  0.44186  1.0000
  C   C76       1.0  0.18314  0.25130  0.35810  1.0000
  H   H33       1.0  0.19842  0.20630  0.32070  1.0000
  O  Te17      1.0  0.34481  0.24395  0.69146  1.0000
  O  Te18      1.0  0.27958  0.29762  0.63588  1.0000
  H   H34       1.0  0.14151  0.25307  0.27215  1.0000
  Mg  Mg9       1.0  0.35510  0.28319  0.77443  1.0000
  C   C77       1.0  0.79153  0.23119  0.14164  1.0000
  C   C78       1.0  0.79055  0.26655  0.06614  1.0000
  C  Sn19      1.0  0.84865  0.22012  0.91990  1.0000
  C  Sn20      1.0  0.80374  0.20215  0.84826  1.0000
  C   C79       1.0  0.80511  0.16677  0.92484  1.0000
  C   C80       1.0  0.74725  0.21344  0.07111  1.0000
  H   H35       1.0  0.82660  0.21757  0.25488  1.0000
  O  Te19      1.0  0.84834  0.25545  0.84605  1.0000
  O  Te20      1.0  0.75814  0.21935  0.70221  1.0000
  H   H36       1.0  0.74798  0.18606  0.12962  1.0000
  Mg  Mg10      1.0  0.77692  0.26752  0.64800  1.0000
  C   C81       1.0  0.77500  0.77134  0.61139  1.0000
  C   C82       1.0  0.72718  0.77900  0.45749  1.0000
  C  Sn21      1.0  0.70824  0.75723  0.35651  1.0000
  C  Sn22      1.0  0.73781  0.72725  0.41099  1.0000
  C   C83       1.0  0.78559  0.71980  0.56524  1.0000
  C   C84       1.0  0.80418  0.74177  0.66526  1.0000
  H   H37       1.0  0.78938  0.78832  0.68885  1.0000
  O  Te21      1.0  0.66040  0.76527  0.20306  1.0000
  O  Te22      1.0  0.71979  0.70504  0.31258  1.0000
  H   H38       1.0  0.84119  0.73582  0.78449  1.0000
  Mg  Mg11      1.0  0.65233  0.72704  0.11338  1.0000
  C   C85       1.0  0.24012  0.77918  0.81871  1.0000
  C   C86       1.0  0.27396  0.77793  0.99799  1.0000
  C  Sn23      1.0  0.17635  0.81261  0.15388  1.0000
  C  Sn24      1.0  0.14750  0.78377  0.12938  1.0000
  C   C87       1.0  0.21699  0.72099  0.94943  1.0000
  C   C88       1.0  0.21167  0.75074  0.79442  1.0000
  H   H39       1.0  0.23603  0.80219  0.69875  1.0000
  O  Te23      1.0  0.21031  0.81180  0.33202  1.0000
  O  Te24      1.0  0.15237  0.75386  0.28275  1.0000
  H   H40       1.0  0.18549  0.75169  0.65561  1.0000
  Mg  Mg12      1.0  0.20359  0.76522  0.49748  1.0000
  C   C89       1.0  0.78149  0.77828  0.05899  1.0000
  C   C90       1.0  0.83109  0.71636  0.94602  1.0000
  C  Sn25      1.0  0.80658  0.68887  0.89653  1.0000
  C  Sn26      1.0  0.83639  0.65849  0.96160  1.0000
  C   C91       1.0  0.78679  0.72065  0.07467  1.0000
  C   C92       1.0  0.81092  0.74832  0.12329  1.0000
  H   H41       1.0  0.80016  0.79968  0.09670  1.0000
  O  Te25      1.0  0.75299  0.69165  0.78349  1.0000
  O  Te26      1.0  0.81288  0.63062  0.91432  1.0000
  H   H42       1.0  0.85242  0.74649  0.21086  1.0000
  Mg  Mg13      1.0  0.73873  0.64675  0.75694  1.0000
  C   C93       1.0  0.29946  0.72806  0.64639  1.0000
  C   C94       1.0  0.30054  0.76322  0.56319  1.0000
  C  Sn27      1.0  0.25513  0.78165  0.42232  1.0000
  C  Sn28      1.0  0.20783  0.76448  0.36399  1.0000
  C   C95       1.0  0.20715  0.72930  0.44820  1.0000
  C   C96       1.0  0.25282  0.71111  0.58899  1.0000
  H   H43       1.0  0.33478  0.71398  0.75539  1.0000
  O  Te27      1.0  0.25690  0.81677  0.34064  1.0000
  O  Te28      1.0  0.16188  0.78228  0.22356  1.0000
  H   H44       1.0  0.25196  0.68388  0.65346  1.0000
  Mg  Mg14      1.0  0.18406  0.82986  0.15470  1.0000
  C   C97       1.0  0.28175  0.27370  0.11401  1.0000
  C   C98       1.0  0.33494  0.21566  0.97113  1.0000
  C  Sn29      1.0  0.31398  0.19264  0.87928  1.0000
  C  Sn30      1.0  0.34372  0.16284  0.93178  1.0000
  C   C99       1.0  0.29050  0.22110  0.07498  1.0000
  C   C100      1.0  0.31111  0.24431  0.16593  1.0000
  H   H45       1.0  0.29769  0.29164  0.18445  1.0000
  O  Te29      1.0  0.26395  0.19927  0.73679  1.0000
  O  Te30      1.0  0.32370  0.13940  0.84235  1.0000
  H   H46       1.0  0.34982  0.23946  0.27663  1.0000
  Mg  Mg15      1.0  0.25367  0.15970  0.65655  1.0000
  C   C101      1.0  0.78553  0.22780  0.71187  1.0000
  C   C102      1.0  0.79279  0.26114  0.60734  1.0000
  C  Sn31      1.0  0.76057  0.27570  0.41809  1.0000
  C  Sn32      1.0  0.72035  0.25647  0.33230  1.0000
  C   C103      1.0  0.71338  0.22315  0.43813  1.0000
  C   C104      1.0  0.74586  0.20882  0.62739  1.0000
  H   H47       1.0  0.81063  0.21672  0.85833  1.0000
  O  Te31      1.0  0.76838  0.30903  0.31569  1.0000
  O  Te32      1.0  0.68758  0.27040  0.14342  1.0000
  H   H48       1.0  0.74020  0.18302  0.70831  1.0000
  Mg  Mg16      1.0  0.71367  0.31682  0.06250  1.0000
  C   C105      1.0  0.34999  0.11775  0.50043  1.0000
  C   C106      1.0  0.35253  0.14352  0.57000  1.0000
  C  Sn33      1.0  0.40008  0.14953  0.69810  1.0000
  C  Sn34      1.0  0.44588  0.12933  0.75734  1.0000
  C   C107      1.0  0.44295  0.10361  0.68681  1.0000
  C   C108      1.0  0.39515  0.09781  0.55873  1.0000
  H   H49       1.0  0.31302  0.11326  0.40126  1.0000
  O  Te33      1.0  0.40191  0.17538  0.76626  1.0000
  O  Te34      1.0  0.49392  0.13480  0.88517  1.0000
  H   H50       1.0  0.39321  0.07786  0.50480  1.0000
  Mg  Mg17      1.0  0.47652  0.17304  0.93814  1.0000
  C   C109      1.0  0.64436  0.10956  0.06623  1.0000
  C   C110      1.0  0.74746  0.07813  0.94027  1.0000
  C  Sn35      1.0  0.70433  0.09068  0.77161  1.0000
  C  Sn36      1.0  0.66054  0.06990  0.72867  1.0000
  C   C111      1.0  0.66101  0.03707  0.85568  1.0000
  C   C112      1.0  0.60117  0.08904  0.02402  1.0000
  H   H51       1.0  0.67790  0.10004  0.19653  1.0000
  O  Te35      1.0  0.70489  0.12356  0.64732  1.0000
  O  Te36      1.0  0.61692  0.08181  0.56114  1.0000
  H   H52       1.0  0.60122  0.06361  0.12157  1.0000
  Mg  Mg18      1.0  0.63621  0.12836  0.43686  1.0000
  C   C113      1.0  0.94510  0.63419  0.76096  1.0000
  C   C114      1.0  0.93641  0.60598  0.70634  1.0000
  C  Sn37      1.0  0.88668  0.60131  0.58389  1.0000
  C  Sn38      1.0  0.84494  0.62538  0.51504  1.0000
  C   C115      1.0  0.85404  0.65353  0.57042  1.0000
  C   C116      1.0  0.90396  0.65795  0.69306  1.0000
  H   H53       1.0  0.98373  0.63763  0.85577  1.0000
  O  Te37      1.0  0.87868  0.57297  0.53080  1.0000
  O  Te38      1.0  0.79485  0.62134  0.39244  1.0000
  H   H54       1.0  0.91068  0.67981  0.73523  1.0000
  Mg  Mg19      1.0  0.80345  0.57859  0.36091  1.0000
  C   C117      1.0  0.01905  0.65591  0.01405  1.0000
  C   C118      1.0  0.07254  0.59701  0.86983  1.0000
  C  Sn39      1.0  0.05428  0.62980  0.74558  1.0000
  C  Sn40      1.0  0.08649  0.65768  0.76643  1.0000
  C   C119      1.0  0.13619  0.65204  0.91108  1.0000
  C   C120      1.0  0.05085  0.68340  0.03466  1.0000
  H   H55       1.0  0.03289  0.63044  0.10961  1.0000
  O  Te39      1.0  0.00450  0.63472  0.60232  1.0000
  O  Te40      1.0  0.06923  0.69072  0.64417  1.0000
  H   H56       1.0  0.08936  0.67924  0.14623  1.0000
  Mg  Mg20      1.0  0.99842  0.68449  0.47102  1.0000
  C   C121      1.0  0.57900  0.85662  0.74056  1.0000
  C   C122      1.0  0.63332  0.85303  0.84488  1.0000
  C  Sn41      1.0  0.65711  0.87256  0.95682  1.0000
  C  Sn42      1.0  0.62583  0.89607  0.96421  1.0000
  C   C123      1.0  0.57151  0.89945  0.85942  1.0000
  C   C124      1.0  0.54811  0.87980  0.74782  1.0000
  H   H57       1.0  0.56089  0.84140  0.65429  1.0000
  O  Te41      1.0  0.60823  0.93294  0.06010  1.0000
  O  Te42      1.0  0.54538  0.98017  0.07498  1.0000
  H   H58       1.0  0.50605  0.88256  0.66716  1.0000
  Mg  Mg21      1.0  0.62101  0.96570  0.19025  1.0000
  C   C125      1.0  0.44668  0.85567  0.81178  1.0000
  C   C126      1.0  0.44661  0.89015  0.70771  1.0000
  C  Sn43      1.0  0.40447  0.90517  0.53944  1.0000
  C  Sn44      1.0  0.36165  0.88523  0.47455  1.0000
  C   C127      1.0  0.36207  0.85077  0.57976  1.0000
  C   C128      1.0  0.40445  0.83599  0.74791  1.0000
  H   H59       1.0  0.47945  0.84424  0.94194  1.0000
  O  Te43      1.0  0.40504  0.93965  0.43716  1.0000
  O  Te44      1.0  0.31901  0.89960  0.30689  1.0000
  H   H60       1.0  0.40448  0.80930  0.82852  1.0000
  Mg  Mg22      1.0  0.33791  0.94763  0.21721  1.0000
  C   C129      1.0  0.05674  0.36624  0.72318  1.0000
  C   C130      1.0  0.05939  0.39076  0.80144  1.0000
  C  Sn45      1.0  0.10648  0.39500  0.93789  1.0000
  C  Sn46      1.0  0.15169  0.37429  0.99676  1.0000
  C   C131      1.0  0.14864  0.34985  0.91750  1.0000
  C   C132      1.0  0.10131  0.34581  0.78111  1.0000
  H   H61       1.0  0.02013  0.36313  0.61757  1.0000
  O  Te45      1.0  0.00523  0.48389  0.01467  1.0000
  O  Te46      1.0  0.09605  0.44228  0.13284  1.0000
  H   H62       1.0  0.09928  0.32684  0.72045  1.0000
  Mg  Mg23      1.0  0.07904  0.47932  0.19585  1.0000
  C   C133      1.0  0.93879  0.35784  0.79597  1.0000
  C   C134      1.0  0.93764  0.39140  0.67626  1.0000
  C  Sn47      1.0  0.89309  0.40490  0.51388  1.0000
  C  Sn48      1.0  0.84894  0.38438  0.47095  1.0000
  C   C135      1.0  0.85047  0.35085  0.59168  1.0000
  C   C136      1.0  0.89525  0.33759  0.75376  1.0000
  H   H63       1.0  0.97343  0.34759  0.92143  1.0000
  O  Te47      1.0  0.89261  0.43847  0.39579  1.0000
  O  Te48      1.0  0.80390  0.39723  0.30962  1.0000
  H   H64       1.0  0.89612  0.31161  0.84648  1.0000
  Mg  Mg24      1.0  0.82216  0.44447  0.19245  1.0000
