data_image0
_chemical_formula_structural       H80C104S16N16O16SnCSn2CSnTe4Mg2SnCSn2CSnTe4Mg2SnCSn2CSnTe4Mg2SnCSn2CSnTe4Mg2SnCSn2CSnTe4Mg2SnCSn2CSnTe4Mg2SnCSn2CSnTe4Mg2SnCSn2CSnTe4Mg2SnCSn2CSnTe4Mg2SnCSn2CSnTe4Mg2SnCSn2CSnTe4Mg2SnCSn2CSnTe4Mg2SnCSn2CSnTe4Mg2SnCSn2CSnTe4Mg2SnCSn2CSnTe4Mg2SnCSn2CSnTe4Mg2
_chemical_formula_sum              "H80 C136 S16 N16 O16 Sn64 Te64 Mg32"
_cell_length_a       25.0733
_cell_length_b       44.2944
_cell_length_c       10.8331
_cell_angle_alpha    136.036
_cell_angle_beta     114.779
_cell_angle_gamma    72.1651

_symmetry_space_group_name_H-M    'P1'
_space_group_IT_number       1

loop_
  _space_group_symop_operation_xyz
  'x, y, z'

loop_
  _atom_site_type_symbol
  _atom_site_label
  _atom_site_symmetry_multiplicity
  _atom_site_fract_x
  _atom_site_fract_y
  _atom_site_fract_z
  _atom_site_occupancy
  H   H1        1.0  0.21452  0.18269  0.32262  1.0000
  H   H2        1.0  0.16671  0.15156  0.46999  1.0000
  H   H3        1.0  0.09578  0.17572  0.44654  1.0000
  H   H4        1.0  0.12392  0.17742  0.14429  1.0000
  H   H5        1.0  0.26973  0.17273  0.51033  1.0000
  H   H6        1.0  0.73306  0.67547  0.27091  1.0000
  H   H7        1.0  0.68479  0.64230  0.43742  1.0000
  H   H8        1.0  0.61334  0.65836  0.36118  1.0000
  H   H9        1.0  0.64159  0.66776  0.08477  1.0000
  H   H10       1.0  0.80537  0.66147  0.43470  1.0000
  H   H11       1.0  0.80770  0.20687  0.08828  1.0000
  H   H12       1.0  0.89382  0.24557  0.32206  1.0000
  H   H13       1.0  0.95253  0.24283  0.26152  1.0000
  H   H14       1.0  0.90201  0.19847  0.09298  1.0000
  H   H15       1.0  0.72873  0.17023  0.97079  1.0000
  H   H16       1.0  0.30281  0.71251  0.09781  1.0000
  H   H17       1.0  0.38274  0.75157  0.33081  1.0000
  H   H18       1.0  0.44520  0.75323  0.29667  1.0000
  H   H19       1.0  0.39943  0.70593  0.11391  1.0000
  H   H20       1.0  0.22513  0.67543  0.98090  1.0000
  H   H21       1.0  0.77056  0.81923  0.19451  1.0000
  H   H22       1.0  0.80899  0.85431  0.04596  1.0000
  H   H23       1.0  0.88023  0.83788  0.12132  1.0000
  H   H24       1.0  0.85793  0.83032  0.40252  1.0000
  H   H25       1.0  0.71937  0.83012  0.01228  1.0000
  H   H26       1.0  0.27628  0.32700  0.23835  1.0000
  H   H27       1.0  0.33071  0.35345  0.02368  1.0000
  H   H28       1.0  0.40025  0.33511  0.09703  1.0000
  H   H29       1.0  0.36880  0.33248  0.41753  1.0000
  H   H30       1.0  0.20137  0.34316  0.08155  1.0000
  H   H31       1.0  0.19309  0.79069  0.40821  1.0000
  H   H32       1.0  0.11103  0.75129  0.17209  1.0000
  H   H33       1.0  0.04933  0.75141  0.21463  1.0000
  H   H34       1.0  0.09679  0.79773  0.39254  1.0000
  H   H35       1.0  0.27077  0.82637  0.51970  1.0000
  H   H36       1.0  0.69812  0.29051  0.40622  1.0000
  H   H37       1.0  0.61443  0.25426  0.18190  1.0000
  H   H38       1.0  0.55359  0.25562  0.23107  1.0000
  H   H39       1.0  0.60344  0.30064  0.40782  1.0000
  H   H40       1.0  0.77658  0.32413  0.50894  1.0000
  H   H41       1.0  0.22101  0.17245  0.75525  1.0000
  H   H42       1.0  0.17819  0.15615  0.02952  1.0000
  H   H43       1.0  0.10829  0.17456  0.95878  1.0000
  H   H44       1.0  0.12533  0.17332  0.62112  1.0000
  H   H45       1.0  0.29774  0.15653  0.91483  1.0000
  H   H46       1.0  0.72111  0.66385  0.71929  1.0000
  H   H47       1.0  0.69849  0.65448  0.99198  1.0000
  H   H48       1.0  0.62684  0.67011  0.91429  1.0000
  H   H49       1.0  0.62802  0.65617  0.53167  1.0000
  H   H50       1.0  0.79582  0.65040  0.88698  1.0000
  H   H51       1.0  0.80782  0.20967  0.59439  1.0000
  H   H52       1.0  0.88984  0.24882  0.82686  1.0000
  H   H53       1.0  0.95186  0.24650  0.77909  1.0000
  H   H54       1.0  0.90307  0.20099  0.60614  1.0000
  H   H55       1.0  0.72923  0.17573  0.49072  1.0000
  H   H56       1.0  0.30332  0.71199  0.60700  1.0000
  H   H57       1.0  0.38721  0.75211  0.84636  1.0000
  H   H58       1.0  0.44769  0.75057  0.79517  1.0000
  H   H59       1.0  0.39921  0.70492  0.62278  1.0000
  H   H60       1.0  0.22548  0.67650  0.49626  1.0000
  H   H61       1.0  0.77109  0.83306  0.76827  1.0000
  H   H62       1.0  0.79595  0.84126  0.47256  1.0000
  H   H63       1.0  0.86618  0.82825  0.56922  1.0000
  H   H64       1.0  0.86543  0.83964  0.94929  1.0000
  H   H65       1.0  0.69924  0.84669  0.59947  1.0000
  H   H66       1.0  0.29355  0.32784  0.73440  1.0000
  H   H67       1.0  0.31381  0.34752  0.51995  1.0000
  H   H68       1.0  0.38497  0.32940  0.58592  1.0000
  H   H69       1.0  0.38603  0.33255  0.91317  1.0000
  H   H70       1.0  0.23164  0.34123  0.56563  1.0000
  H   H71       1.0  0.19033  0.79294  0.90905  1.0000
  H   H72       1.0  0.11051  0.75390  0.67385  1.0000
  H   H73       1.0  0.04829  0.75045  0.70291  1.0000
  H   H74       1.0  0.09310  0.79826  0.89089  1.0000
  H   H75       1.0  0.26786  0.82972  0.02371  1.0000
  H   H76       1.0  0.69626  0.29087  0.91711  1.0000
  H   H77       1.0  0.61631  0.24743  0.66548  1.0000
  H   H78       1.0  0.55381  0.25029  0.71250  1.0000
  H   H79       1.0  0.60285  0.29556  0.88486  1.0000
  H   H80       1.0  0.77396  0.32777  0.03599  1.0000
  C   C1        1.0  0.46062  0.07675  0.23996  1.0000
  C   C2        1.0  0.27485  0.22206  0.03133  1.0000
  C   C3        1.0  0.23174  0.21460  0.41128  1.0000
  C   C4        1.0  0.14270  0.18034  0.07784  1.0000
  C   C5        1.0  0.30089  0.19058  0.04911  1.0000
  C   C6        1.0  0.29096  0.26650  0.17017  1.0000
  C   C7        1.0  0.95848  0.57430  0.23201  1.0000
  C   C8        1.0  0.77106  0.71528  0.99881  1.0000
  C   C9        1.0  0.74098  0.71025  0.37930  1.0000
  C   C10       1.0  0.65998  0.67544  0.03383  1.0000
  C   C11       1.0  0.79860  0.68462  0.02025  1.0000
  C   C12       1.0  0.78478  0.76016  0.13691  1.0000
  C   C13       1.0  0.51997  0.07439  0.26983  1.0000
  C   C14       1.0  0.72253  0.22279  0.47556  1.0000
  C   C15       1.0  0.78366  0.22514  0.04915  1.0000
  C   C16       1.0  0.90670  0.23398  0.20822  1.0000
  C   C17       1.0  0.69695  0.19288  0.45130  1.0000
  C   C18       1.0  0.69065  0.24665  0.42332  1.0000
  C   C19       1.0  0.01776  0.57165  0.26034  1.0000
  C   C20       1.0  0.21816  0.72371  0.48159  1.0000
  C   C21       1.0  0.27863  0.73022  0.05584  1.0000
  C   C22       1.0  0.40005  0.74158  0.22775  1.0000
  C   C23       1.0  0.19302  0.69322  0.45488  1.0000
  C   C24       1.0  0.18601  0.74687  0.42596  1.0000
  C   C25       1.0  0.54020  0.92606  0.26627  1.0000
  C   C26       1.0  0.72482  0.78153  0.48346  1.0000
  C   C27       1.0  0.75923  0.78515  0.09272  1.0000
  C   C28       1.0  0.83639  0.82175  0.44405  1.0000
  C   C29       1.0  0.69764  0.81279  0.46507  1.0000
  C   C30       1.0  0.71340  0.73619  0.34048  1.0000
  C   C31       1.0  0.04063  0.42235  0.25131  1.0000
  C   C32       1.0  0.23065  0.28022  0.47956  1.0000
  C   C33       1.0  0.26447  0.29292  0.13347  1.0000
  C   C34       1.0  0.35068  0.32518  0.47037  1.0000
  C   C35       1.0  0.20916  0.30958  0.45028  1.0000
  C   C36       1.0  0.20794  0.23828  0.36026  1.0000
  C   C37       1.0  0.48077  0.92892  0.23704  1.0000
  C   C38       1.0  0.27622  0.78085  0.03013  1.0000
  C   C39       1.0  0.21677  0.77343  0.45264  1.0000
  C   C40       1.0  0.09484  0.76209  0.27882  1.0000
  C   C41       1.0  0.30089  0.81162  0.05690  1.0000
  C   C42       1.0  0.30883  0.75708  0.08256  1.0000
  C   C43       1.0  0.98141  0.42465  0.22292  1.0000
  C   C44       1.0  0.78184  0.27667  0.02905  1.0000
  C   C45       1.0  0.72181  0.27226  0.44572  1.0000
  C   C46       1.0  0.59949  0.26513  0.29098  1.0000
  C   C47       1.0  0.80675  0.30758  0.05736  1.0000
  C   C48       1.0  0.81427  0.25178  0.07560  1.0000
  C   C49       1.0  0.49855  0.01568  0.24466  1.0000
  C   C50       1.0  0.99646  0.51329  0.23736  1.0000
  C   C51       1.0  0.50336  0.98668  0.25852  1.0000
  C   C52       1.0  0.00190  0.48374  0.24863  1.0000
  C   C53       1.0  0.45835  0.07583  0.74195  1.0000
  C   C54       1.0  0.27838  0.22982  0.57453  1.0000
  C   C55       1.0  0.23232  0.20665  0.86135  1.0000
  C   C56       1.0  0.13617  0.17756  0.54583  1.0000
  C   C57       1.0  0.29865  0.20084  0.60602  1.0000
  C   C58       1.0  0.30150  0.27154  0.69304  1.0000
  C   C59       1.0  0.95977  0.57537  0.73451  1.0000
  C   C60       1.0  0.78019  0.72683  0.55460  1.0000
  C   C61       1.0  0.73014  0.69843  0.82471  1.0000
  C   C62       1.0  0.64661  0.66367  0.48049  1.0000
  C   C63       1.0  0.80765  0.69519  0.57031  1.0000
  C   C64       1.0  0.79166  0.77218  0.69786  1.0000
  C   C65       1.0  0.51715  0.07215  0.76306  1.0000
  C   C66       1.0  0.72191  0.22069  0.97444  1.0000
  C   C67       1.0  0.78425  0.22718  0.55117  1.0000
  C   C68       1.0  0.90604  0.23666  0.71746  1.0000
  C   C69       1.0  0.69639  0.19023  0.94756  1.0000
  C   C70       1.0  0.68963  0.24506  0.92504  1.0000
  C   C71       1.0  0.01869  0.57195  0.75726  1.0000
  C   C72       1.0  0.21717  0.72453  0.97600  1.0000
  C   C73       1.0  0.27963  0.72946  0.56357  1.0000
  C   C74       1.0  0.40207  0.74056  0.73581  1.0000
  C   C75       1.0  0.19239  0.69380  0.94882  1.0000
  C   C76       1.0  0.18459  0.74787  0.92158  1.0000
  C   C77       1.0  0.53815  0.92323  0.75337  1.0000
  C   C78       1.0  0.71751  0.76862  0.92033  1.0000
  C   C79       1.0  0.76355  0.79823  0.65966  1.0000
  C   C80       1.0  0.84688  0.83258  0.00214  1.0000
  C   C81       1.0  0.69502  0.79925  0.89798  1.0000
  C   C82       1.0  0.70216  0.72408  0.78440  1.0000
  C   C83       1.0  0.04302  0.42409  0.75696  1.0000
  C   C84       1.0  0.22169  0.27758  0.96396  1.0000
  C   C85       1.0  0.27706  0.29558  0.64386  1.0000
  C   C86       1.0  0.36645  0.32940  0.97739  1.0000
  C   C87       1.0  0.19685  0.30915  0.94652  1.0000
  C   C88       1.0  0.20451  0.23342  0.82685  1.0000
  C   C89       1.0  0.47948  0.92716  0.73395  1.0000
  C   C90       1.0  0.27828  0.77909  0.53399  1.0000
  C   C91       1.0  0.21468  0.77518  0.95061  1.0000
  C   C92       1.0  0.09317  0.76275  0.77447  1.0000
  C   C93       1.0  0.30345  0.80913  0.55817  1.0000
  C   C94       1.0  0.31040  0.75600  0.59012  1.0000
  C   C95       1.0  0.98402  0.42694  0.73239  1.0000
  C   C96       1.0  0.78360  0.27617  0.51893  1.0000
  C   C97       1.0  0.72022  0.27216  0.95413  1.0000
  C   C98       1.0  0.59971  0.25993  0.77466  1.0000
  C   C99       1.0  0.80915  0.30595  0.54238  1.0000
  C   C100      1.0  0.81544  0.25260  0.57261  1.0000
  C   C101      1.0  0.49560  0.01417  0.74164  1.0000
  C   C102      1.0  0.99787  0.51395  0.73683  1.0000
  C   C103      1.0  0.50091  0.98527  0.75637  1.0000
  C   C104      1.0  0.00383  0.48507  0.75215  1.0000
  S   S1        1.0  0.43093  0.03888  0.20296  1.0000
  S   S2        1.0  0.92885  0.53731  0.20066  1.0000
  S   S3        1.0  0.55878  0.03384  0.26973  1.0000
  S   S4        1.0  0.05656  0.53116  0.26036  1.0000
  S   S5        1.0  0.57056  0.96312  0.29991  1.0000
  S   S6        1.0  0.06979  0.46006  0.28605  1.0000
  S   S7        1.0  0.44274  0.96949  0.23638  1.0000
  S   S8        1.0  0.94223  0.46554  0.22577  1.0000
  S   S9        1.0  0.42833  0.03881  0.70865  1.0000
  S   S10       1.0  0.93029  0.53852  0.70408  1.0000
  S   S11       1.0  0.55522  0.03033  0.75531  1.0000
  S   S12       1.0  0.05741  0.53096  0.75384  1.0000
  S   S13       1.0  0.56821  0.96041  0.78765  1.0000
  S   S14       1.0  0.07189  0.46169  0.79056  1.0000
  S   S15       1.0  0.44125  0.96890  0.74160  1.0000
  S   S16       1.0  0.94475  0.46801  0.73653  1.0000
  N   N1        1.0  0.32666  0.20106  0.20694  1.0000
  N   N2        1.0  0.82535  0.69587  0.17953  1.0000
  N   N3        1.0  0.64112  0.18557  0.38303  1.0000
  N   N4        1.0  0.13740  0.68506  0.38286  1.0000
  N   N5        1.0  0.67268  0.80248  0.30749  1.0000
  N   N6        1.0  0.16738  0.30073  0.30690  1.0000
  N   N7        1.0  0.35673  0.81810  0.11871  1.0000
  N   N8        1.0  0.86258  0.31217  0.10822  1.0000
  N   N9        1.0  0.34609  0.20571  0.73026  1.0000
  N   N10       1.0  0.83342  0.70465  0.72584  1.0000
  N   N11       1.0  0.64034  0.18594  0.89565  1.0000
  N   N12       1.0  0.13652  0.68737  0.88676  1.0000
  N   N13       1.0  0.65136  0.79275  0.76261  1.0000
  N   N14       1.0  0.17119  0.29882  0.78906  1.0000
  N   N15       1.0  0.35932  0.81609  0.62392  1.0000
  N   N16       1.0  0.86512  0.31208  0.60385  1.0000
  O   O1        1.0  0.33322  0.28084  0.33319  1.0000
  O   O2        1.0  0.82409  0.77636  0.30582  1.0000
  O   O3        1.0  0.63100  0.24331  0.35454  1.0000
  O   O4        1.0  0.12660  0.74158  0.34836  1.0000
  O   O5        1.0  0.67473  0.72040  0.17141  1.0000
  O   O6        1.0  0.16308  0.22340  0.20070  1.0000
  O   O7        1.0  0.36828  0.76198  0.15762  1.0000
  O   O8        1.0  0.87389  0.25563  0.14461  1.0000
  O   O9        1.0  0.34625  0.28623  0.85266  1.0000
  O   O10       1.0  0.83125  0.78785  0.86634  1.0000
  O   O11       1.0  0.63007  0.24049  0.84974  1.0000
  O   O12       1.0  0.12535  0.74181  0.84169  1.0000
  O   O13       1.0  0.66159  0.70853  0.61758  1.0000
  O   O14       1.0  0.15967  0.21967  0.66839  1.0000
  O   O15       1.0  0.36982  0.76102  0.66616  1.0000
  O   O16       1.0  0.87507  0.25637  0.64392  1.0000
  C  Sn1       1.0  0.41913  0.17724  0.36433  1.0000
  C   C105      1.0  0.36904  0.16920  0.22132  1.0000
  C  Sn2       1.0  0.33920  0.12989  0.08833  1.0000
  C  Sn3       1.0  0.35982  0.09793  0.09854  1.0000
  C   C106      1.0  0.40987  0.10598  0.24149  1.0000
  C  Sn4       1.0  0.43975  0.14529  0.37454  1.0000
  O  Te1       1.0  0.44826  0.21678  0.49579  1.0000
  O  Te2       1.0  0.38396  0.28221  0.94661  1.0000
  O  Te3       1.0  0.42536  0.21799  0.96692  1.0000
  O  Te4       1.0  0.48967  0.15259  0.51620  1.0000
  Mg  Mg1       1.0  0.35934  0.22327  0.80033  1.0000
  Mg  Mg2       1.0  0.51431  0.21152  0.66261  1.0000
  C  Sn5       1.0  0.86952  0.59313  0.02985  1.0000
  C   C107      1.0  0.91721  0.60233  0.17985  1.0000
  C  Sn6       1.0  0.92872  0.64509  0.35246  1.0000
  C  Sn7       1.0  0.89178  0.67938  0.37569  1.0000
  C   C108      1.0  0.84412  0.67018  0.22577  1.0000
  C  Sn8       1.0  0.83258  0.62742  0.05308  1.0000
  O  Te5       1.0  0.95355  0.70976  0.85855  1.0000
  O  Te6       1.0  0.97667  0.65347  0.50035  1.0000
  O  Te7       1.0  0.90251  0.72239  0.54718  1.0000
  O  Te8       1.0  0.87938  0.77865  0.90527  1.0000
  Mg  Mg3       1.0  0.97315  0.71737  0.70664  1.0000
  Mg  Mg4       1.0  0.88284  0.71476  0.69895  1.0000
  C  Sn9       1.0  0.54286  0.14664  0.25626  1.0000
  C   C109      1.0  0.59918  0.16352  0.37669  1.0000
  C  Sn10      1.0  0.63725  0.14552  0.44821  1.0000
  C  Sn11      1.0  0.61868  0.10987  0.39825  1.0000
  C   C110      1.0  0.56241  0.09300  0.27787  1.0000
  C  Sn12      1.0  0.52429  0.11099  0.20629  1.0000
  O  Te9       1.0  0.50553  0.16515  0.18641  1.0000
  O  Te10      1.0  0.69334  0.16296  0.56843  1.0000
  O  Te11      1.0  0.65607  0.09137  0.46822  1.0000
  O  Te12      1.0  0.46825  0.09356  0.08613  1.0000
  Mg  Mg5       1.0  0.72822  0.12653  0.62711  1.0000
  Mg  Mg6       1.0  0.43334  0.12995  0.02728  1.0000
  C  Sn13      1.0  0.11107  0.62926  0.47150  1.0000
  C   C111      1.0  0.05603  0.61060  0.34397  1.0000
  C  Sn14      1.0  0.03074  0.61066  0.20213  1.0000
  C  Sn15      1.0  0.06111  0.62975  0.18735  1.0000
  C   C112      1.0  0.11611  0.64839  0.31480  1.0000
  C  Sn16      1.0  0.14144  0.64835  0.45672  1.0000
  O  Te13      1.0  0.13552  0.62883  0.61218  1.0000
  O  Te14      1.0  0.97566  0.59181  0.07632  1.0000
  O  Te15      1.0  0.03661  0.63016  0.04652  1.0000
  O  Te16      1.0  0.19649  0.66718  0.58245  1.0000
  Mg  Mg7       1.0  0.05531  0.76004  0.90870  1.0000
  Mg  Mg8       1.0  0.21160  0.65856  0.75005  1.0000
  C  Sn17      1.0  0.64680  0.88914  0.47556  1.0000
  C   C113      1.0  0.64058  0.84403  0.34398  1.0000
  C  Sn18      1.0  0.60702  0.82188  0.15885  1.0000
  C  Sn19      1.0  0.57912  0.84530  0.10405  1.0000
  C   C114      1.0  0.58536  0.89038  0.23559  1.0000
  C  Sn20      1.0  0.61890  0.91256  0.42077  1.0000
  O  Te17      1.0  0.68056  0.91062  0.65987  1.0000
  O  Te18      1.0  0.60143  0.77678  0.02982  1.0000
  O  Te19      1.0  0.64006  0.98340  0.91957  1.0000
  O  Te20      1.0  0.62451  0.95764  0.54974  1.0000
  Mg  Mg9       1.0  0.64557  0.92176  0.79517  1.0000
  Mg  Mg10      1.0  0.67510  0.97230  0.78440  1.0000
  C  Sn21      1.0  0.06383  0.33907  0.11922  1.0000
  C   C115      1.0  0.07063  0.38404  0.24718  1.0000
  C  Sn22      1.0  0.12117  0.40414  0.40014  1.0000
  C  Sn23      1.0  0.16586  0.37878  0.42570  1.0000
  C   C116      1.0  0.15906  0.33384  0.29778  1.0000
  C  Sn24      1.0  0.10853  0.31370  0.14478  1.0000
  O  Te21      1.0  0.10767  0.47927  0.96731  1.0000
  O  Te22      1.0  0.12696  0.44915  0.52623  1.0000
  O  Te23      1.0  0.21677  0.39823  0.57777  1.0000
  O  Te24      1.0  0.10273  0.26872  0.01873  1.0000
  Mg  Mg11      1.0  0.20436  0.46058  0.71121  1.0000
  Mg  Mg12      1.0  0.12009  0.41687  0.83365  1.0000
  C  Sn25      1.0  0.37105  0.89577  0.11964  1.0000
  C   C117      1.0  0.42863  0.91037  0.23299  1.0000
  C  Sn26      1.0  0.46618  0.89041  0.29588  1.0000
  C  Sn27      1.0  0.44578  0.85511  0.24430  1.0000
  C   C118      1.0  0.38824  0.84053  0.13099  1.0000
  C  Sn28      1.0  0.35064  0.86047  0.06806  1.0000
  O  Te25      1.0  0.33427  0.91620  0.05838  1.0000
  O  Te26      1.0  0.52356  0.90559  0.40913  1.0000
  O  Te27      1.0  0.48262  0.83468  0.30567  1.0000
  O  Te28      1.0  0.38803  0.00492  0.95486  1.0000
  Mg  Mg13      1.0  0.55703  0.86710  0.45728  1.0000
  Mg  Mg14      1.0  0.35453  0.04336  0.90655  1.0000
  C  Sn29      1.0  0.96441  0.51166  0.99918  1.0000
  C   C119      1.0  0.88728  0.33624  0.08500  1.0000
  C  Sn30      1.0  0.93454  0.35501  0.24811  1.0000
  C  Sn31      1.0  0.96484  0.39032  0.32717  1.0000
  C   C120      1.0  0.94724  0.40611  0.24138  1.0000
  C  Sn32      1.0  0.89999  0.38736  0.07824  1.0000
  O  Te29      1.0  0.91704  0.49241  0.83621  1.0000
  O  Te30      1.0  0.95133  0.33863  0.33134  1.0000
  O  Te31      1.0  0.01225  0.40957  0.49027  1.0000
  O  Te32      1.0  0.97791  0.56334  0.99505  1.0000
  Mg  Mg15      1.0  0.01854  0.37578  0.55192  1.0000
  Mg  Mg16      1.0  0.91070  0.52623  0.77453  1.0000
  C  Sn33      1.0  0.42227  0.17993  0.90502  1.0000
  C   C121      1.0  0.38293  0.17361  0.75098  1.0000
  C  Sn34      1.0  0.35539  0.13353  0.59075  1.0000
  C  Sn35      1.0  0.36741  0.09905  0.58437  1.0000
  C   C122      1.0  0.86566  0.10538  0.73835  1.0000
  C  Sn36      1.0  0.43428  0.14545  0.89864  1.0000
  O  Te33      1.0  0.35457  0.06065  0.06376  1.0000
  O  Te34      1.0  0.31624  0.12799  0.43848  1.0000
  O  Te35      1.0  0.79929  0.05869  0.42546  1.0000
  O  Te36      1.0  0.83762  0.99139  0.05085  1.0000
  Mg  Mg17      1.0  0.29037  0.06705  0.25384  1.0000
  Mg  Mg18      1.0  0.40455  0.05231  0.23559  1.0000
  C  Sn37      1.0  0.87290  0.59901  0.54835  1.0000
  C   C123      1.0  0.91995  0.60573  0.69424  1.0000
  C  Sn38      1.0  0.93243  0.64746  0.87233  1.0000
  C  Sn39      1.0  0.89712  0.68322  0.90533  1.0000
  C   C124      1.0  0.85010  0.67650  0.75951  1.0000
  C  Sn40      1.0  0.83760  0.63477  0.58136  1.0000
  O  Te37      1.0  0.86123  0.55701  0.37144  1.0000
  O  Te38      1.0  0.88499  0.49376  0.01595  1.0000
  O  Te39      1.0  0.81411  0.56563  0.08243  1.0000
  O  Te40      1.0  0.79034  0.62885  0.43780  1.0000
  Mg  Mg19      1.0  0.88329  0.55715  0.23284  1.0000
  Mg  Mg20      1.0  0.79198  0.56548  0.22089  1.0000
  C  Sn41      1.0  0.54087  0.14917  0.77599  1.0000
  C   C125      1.0  0.59856  0.16352  0.88879  1.0000
  C  Sn42      1.0  0.09579  0.14201  0.94323  1.0000
  C  Sn43      1.0  0.07603  0.10538  0.88359  1.0000
  C   C126      1.0  0.01838  0.09103  0.77084  1.0000
  C  Sn44      1.0  0.98004  0.11253  0.71636  1.0000
  O  Te41      1.0  0.50334  0.17117  0.72325  1.0000
  O  Te42      1.0  0.05854  0.99736  0.05609  1.0000
  O  Te43      1.0  0.11361  0.08338  0.93644  1.0000
  O  Te44      1.0  0.46367  0.09758  0.60354  1.0000
  Mg  Mg21      1.0  0.09314  0.95651  0.09105  1.0000
  Mg  Mg22      1.0  0.42905  0.13839  0.56842  1.0000
  C  Sn45      1.0  0.03662  0.61047  0.65095  1.0000
  C   C127      1.0  0.05518  0.59230  0.72724  1.0000
  C  Sn46      1.0  0.10234  0.61022  0.89010  1.0000
  C  Sn47      1.0  0.13154  0.64709  0.97864  1.0000
  C   C128      1.0  0.11297  0.66525  0.90238  1.0000
  C  Sn48      1.0  0.06581  0.64734  0.73949  1.0000
  O  Te45      1.0  0.98936  0.59203  0.48804  1.0000
  O  Te46      1.0  0.12012  0.59148  0.96370  1.0000
  O  Te47      1.0  0.08411  0.50592  0.14167  1.0000
  O  Te48      1.0  0.04803  0.66607  0.66592  1.0000
  Mg  Mg23      1.0  0.09200  0.46874  0.18825  1.0000
  Mg  Mg24      1.0  0.98142  0.62923  0.44144  1.0000
  C  Sn49      1.0  0.59956  0.81780  0.56714  1.0000
  C   C129      1.0  0.63856  0.82439  0.72211  1.0000
  C  Sn50      1.0  0.64427  0.86556  0.90177  1.0000
  C  Sn51      1.0  0.61026  0.90089  0.92709  1.0000
  C   C130      1.0  0.57128  0.89429  0.77219  1.0000
  C  Sn52      1.0  0.56555  0.85312  0.59246  1.0000
  O  Te49      1.0  0.59456  0.77635  0.38882  1.0000
  O  Te50      1.0  0.58884  0.71174  0.05454  1.0000
  O  Te51      1.0  0.52057  0.78274  0.10560  1.0000
  O  Te52      1.0  0.52628  0.84732  0.43976  1.0000
  Mg  Mg25      1.0  0.58005  0.77431  0.26975  1.0000
  Mg  Mg26      1.0  0.53501  0.78476  0.22450  1.0000
  C  Sn53      1.0  0.06484  0.34036  0.61862  1.0000
  C   C131      1.0  0.07354  0.38516  0.74890  1.0000
  C  Sn54      1.0  0.12568  0.40378  0.89603  1.0000
  C  Sn55      1.0  0.17008  0.37706  0.91325  1.0000
  C   C132      1.0  0.16137  0.33228  0.78301  1.0000
  C  Sn56      1.0  0.10923  0.31364  0.63585  1.0000
  O  Te53      1.0  0.01237  0.32245  0.47265  1.0000
  O  Te54      1.0  0.03864  0.28904  0.02458  1.0000
  O  Te55      1.0  0.12785  0.23540  0.05938  1.0000
  O  Te56      1.0  0.10155  0.26879  0.50733  1.0000
  Mg  Mg27      1.0  0.11773  0.29818  0.19921  1.0000
  Mg  Mg28      1.0  0.02249  0.25962  0.33261  1.0000
  C  Sn57      1.0  0.44503  0.87343  0.82410  1.0000
  C   C133      1.0  0.38867  0.85658  0.70418  1.0000
  C  Sn58      1.0  0.36085  0.85894  0.56938  1.0000
  C  Sn59      1.0  0.38997  0.87853  0.55403  1.0000
  C   C134      1.0  0.44630  0.89536  0.67387  1.0000
  C  Sn60      1.0  0.47416  0.89302  0.80875  1.0000
  O  Te57      1.0  0.47201  0.87071  0.95782  1.0000
  O  Te58      1.0  0.30449  0.84188  0.45111  1.0000
  O  Te59      1.0  0.36294  0.88123  0.42016  1.0000
  O  Te60      1.0  0.53048  0.91006  0.92694  1.0000
  Mg  Mg29      1.0  0.28599  0.85333  0.29122  1.0000
  Mg  Mg30      1.0  0.45431  0.73899  0.08681  1.0000
  C  Sn61      1.0  0.94914  0.37136  0.81379  1.0000
  C   C135      1.0  0.89360  0.35345  0.68861  1.0000
  C  Sn62      1.0  0.86660  0.35601  0.55437  1.0000
  C  Sn63      1.0  0.89575  0.37689  0.54496  1.0000
  C   C136      1.0  0.95127  0.39478  0.67006  1.0000
  C  Sn64      1.0  0.97829  0.39224  0.80438  1.0000
  O  Te61      1.0  0.97530  0.36842  0.94684  1.0000
  O  Te62      1.0  0.81105  0.33788  0.43077  1.0000
  O  Te63      1.0  0.86954  0.37982  0.41176  1.0000
  O  Te64      1.0  0.03382  0.41035  0.92790  1.0000
  Mg  Mg31      1.0  0.79350  0.35013  0.27419  1.0000
  Mg  Mg32      1.0  0.95670  0.23848  0.08447  1.0000
