data_image0
_chemical_formula_structural       H64C112S16N16SnCSn2CSnTe4Mg2SnCSn2CSnTe4Mg2SnCSn2CSnTe4Mg2SnCSn2CSnTe4Mg2SnCSn2CSnTe4Mg2SnCSn2CSnTe4Mg2SnCSn2CSnTe4Mg2SnCSn2CSnTe4Mg2SnCSn2CSnTe4Mg2SnCSn2CSnTe4Mg2SnCSn2CSnTe4Mg2SnCSn2CSnTe4Mg2
_chemical_formula_sum              "H64 C136 S16 N16 Sn48 Te48 Mg24"
_cell_length_a       27.3573
_cell_length_b       42.5281
_cell_length_c       8.23423
_cell_angle_alpha    68.2548
_cell_angle_beta     112.345
_cell_angle_gamma    96.4489

_symmetry_space_group_name_H-M    'P1'
_space_group_IT_number       1

loop_
  _space_group_symop_operation_xyz
  'x, y, z'

loop_
  _atom_site_type_symbol
  _atom_site_label
  _atom_site_symmetry_multiplicity
  _atom_site_fract_x
  _atom_site_fract_y
  _atom_site_fract_z
  _atom_site_occupancy
  H   H1        1.0  0.52869  0.13610  0.11505  1.0000
  H   H2        1.0  0.98873  0.62658  0.35726  1.0000
  H   H3        1.0  0.50894  0.87198  0.15601  1.0000
  H   H4        1.0  0.47552  0.85760  0.40928  1.0000
  H   H5        1.0  0.96322  0.36555  0.42564  1.0000
  H   H6        1.0  0.59367  0.17897  0.17861  1.0000
  H   H7        1.0  0.92563  0.66904  0.30234  1.0000
  H   H8        1.0  0.57183  0.82890  0.21797  1.0000
  H   H9        1.0  0.41363  0.81542  0.31730  1.0000
  H   H10       1.0  0.89654  0.32333  0.36411  1.0000
  H   H11       1.0  0.30610  0.12400  0.41138  1.0000
  H   H12       1.0  0.68490  0.11336  0.16696  1.0000
  H   H13       1.0  0.80248  0.62668  0.42348  1.0000
  H   H14       1.0  0.70092  0.87418  0.07800  1.0000
  H   H15       1.0  0.19258  0.37259  0.10126  1.0000
  H   H16       1.0  0.37459  0.08102  0.49905  1.0000
  H   H17       1.0  0.61992  0.06811  0.13207  1.0000
  H   H18       1.0  0.86633  0.58336  0.48473  1.0000
  H   H19       1.0  0.63589  0.91547  0.03221  1.0000
  H   H20       1.0  0.12496  0.41568  0.02030  1.0000
  H   H21       1.0  0.76528  0.19051  0.14084  1.0000
  H   H22       1.0  0.24916  0.69310  0.23346  1.0000
  H   H23       1.0  0.36951  0.20107  0.23839  1.0000
  H   H24       1.0  0.66194  0.20590  0.23744  1.0000
  H   H25       1.0  0.86801  0.70464  0.20898  1.0000
  H   H26       1.0  0.13437  0.71844  0.28558  1.0000
  H   H27       1.0  0.63516  0.80115  0.25499  1.0000
  H   H28       1.0  0.34526  0.79037  0.25786  1.0000
  H   H29       1.0  0.12960  0.30015  0.25323  1.0000
  H   H30       1.0  0.86471  0.28749  0.20784  1.0000
  H   H31       1.0  0.31000  0.73709  0.32382  1.0000
  H   H32       1.0  0.83343  0.23047  0.24692  1.0000
  H   H33       1.0  0.48666  0.12912  0.85825  1.0000
  H   H34       1.0  0.52025  0.13888  0.60520  1.0000
  H   H35       1.0  0.98770  0.62572  0.85356  1.0000
  H   H36       1.0  0.51671  0.87790  0.63331  1.0000
  H   H37       1.0  0.01398  0.37340  0.62852  1.0000
  H   H38       1.0  0.42098  0.17324  0.75787  1.0000
  H   H39       1.0  0.58521  0.18299  0.63887  1.0000
  H   H40       1.0  0.92494  0.66959  0.78610  1.0000
  H   H41       1.0  0.58137  0.83762  0.67603  1.0000
  H   H42       1.0  0.07981  0.33069  0.70955  1.0000
  H   H43       1.0  0.68415  0.10571  0.71126  1.0000
  H   H44       1.0  0.80256  0.62734  0.93570  1.0000
  H   H45       1.0  0.69732  0.87699  0.54029  1.0000
  H   H46       1.0  0.31906  0.89378  0.81619  1.0000
  H   H47       1.0  0.82187  0.39111  0.79784  1.0000
  H   H48       1.0  0.61789  0.06222  0.64963  1.0000
  H   H49       1.0  0.86616  0.58379  0.99353  1.0000
  H   H50       1.0  0.63386  0.92061  0.47779  1.0000
  H   H51       1.0  0.38368  0.93636  0.90345  1.0000
  H   H52       1.0  0.89046  0.43359  0.85484  1.0000
  H   H53       1.0  0.25145  0.80643  0.75339  1.0000
  H   H54       1.0  0.72961  0.31494  0.83602  1.0000
  H   H55       1.0  0.35827  0.19855  0.71315  1.0000
  H   H56       1.0  0.62941  0.21819  0.77376  1.0000
  H   H57       1.0  0.86186  0.69702  0.75110  1.0000
  H   H58       1.0  0.15608  0.70781  0.72969  1.0000
  H   H59       1.0  0.63318  0.79772  0.80142  1.0000
  H   H60       1.0  0.37669  0.78243  0.70569  1.0000
  H   H61       1.0  0.13721  0.29865  0.79454  1.0000
  H   H62       1.0  0.85266  0.28388  0.79024  1.0000
  H   H63       1.0  0.66075  0.27499  0.73311  1.0000
  H   H64       1.0  0.18999  0.76282  0.66184  1.0000
  C   C1        1.0  0.47513  0.07313  0.26017  1.0000
  C   C2        1.0  0.52947  0.07016  0.34196  1.0000
  C   C3        1.0  0.97048  0.57653  0.20977  1.0000
  C   C4        1.0  0.02488  0.57590  0.27924  1.0000
  C   C5        1.0  0.52756  0.92446  0.28720  1.0000
  C   C6        1.0  0.47300  0.92563  0.21412  1.0000
  C   C7        1.0  0.02646  0.42675  0.25013  1.0000
  C   C8        1.0  0.97205  0.42857  0.17582  1.0000
  C   C9        1.0  0.56830  0.09594  0.37715  1.0000
  C   C10       1.0  0.93320  0.60210  0.17811  1.0000
  C   C11       1.0  0.56527  0.89946  0.31484  1.0000
  C   C12       1.0  0.43514  0.90027  0.16153  1.0000
  C   C13       1.0  0.93336  0.40231  0.14227  1.0000
  C   C14       1.0  0.56296  0.12926  0.24526  1.0000
  C   C15       1.0  0.94834  0.62695  0.26201  1.0000
  C   C16       1.0  0.54991  0.87306  0.24270  1.0000
  C   C17       1.0  0.44160  0.86571  0.27821  1.0000
  C   C18       1.0  0.93387  0.37087  0.28505  1.0000
  C   C19       1.0  0.59982  0.15333  0.28146  1.0000
  C   C20       1.0  0.91238  0.65119  0.22915  1.0000
  C   C21       1.0  0.58575  0.84838  0.27957  1.0000
  C   C22       1.0  0.40611  0.84197  0.22712  1.0000
  C   C23       1.0  0.89638  0.34687  0.25001  1.0000
  C   C24       1.0  0.64443  0.14506  0.45000  1.0000
  C   C25       1.0  0.85887  0.65145  0.11104  1.0000
  C   C26       1.0  0.63985  0.84918  0.39010  1.0000
  C   C27       1.0  0.36096  0.85175  0.05992  1.0000
  C   C28       1.0  0.85620  0.35364  0.07159  1.0000
  C   C29       1.0  0.65042  0.11165  0.58023  1.0000
  C   C30       1.0  0.84351  0.62648  0.02912  1.0000
  C   C31       1.0  0.65578  0.87625  0.45594  1.0000
  C   C32       1.0  0.35353  0.88633  0.94605  1.0000
  C   C33       1.0  0.85366  0.38578  0.93268  1.0000
  C   C34       1.0  0.61333  0.08759  0.54406  1.0000
  C   C35       1.0  0.87959  0.60221  0.06268  1.0000
  C   C36       1.0  0.61969  0.90082  0.41846  1.0000
  C   C37       1.0  0.38960  0.90999  0.99654  1.0000
  C   C38       1.0  0.89188  0.40940  0.96658  1.0000
  C   C39       1.0  0.28384  0.77476  0.04514  1.0000
  C   C40       1.0  0.78578  0.27543  0.04490  1.0000
  C   C41       1.0  0.75814  0.21782  0.07655  1.0000
  C   C42       1.0  0.24961  0.71792  0.12947  1.0000
  C   C43       1.0  0.33254  0.20016  0.12286  1.0000
  C   C44       1.0  0.68557  0.19753  0.38849  1.0000
  C   C45       1.0  0.82821  0.69956  0.12257  1.0000
  C   C46       1.0  0.17185  0.70553  0.39317  1.0000
  C   C47       1.0  0.67247  0.80293  0.36694  1.0000
  C   C48       1.0  0.32036  0.79941  0.10691  1.0000
  C   C49       1.0  0.16663  0.30019  0.36948  1.0000
  C   C50       1.0  0.82621  0.29872  0.10080  1.0000
  C   C51       1.0  0.28351  0.74238  0.17928  1.0000
  C   C52       1.0  0.79589  0.24013  0.13301  1.0000
  C   C53       1.0  0.49961  0.01153  0.31195  1.0000
  C   C54       1.0  0.99930  0.51811  0.22491  1.0000
  C   C55       1.0  0.49933  0.98200  0.28301  1.0000
  C   C56       1.0  0.99969  0.48810  0.20051  1.0000
  C   C57       1.0  0.47424  0.07357  0.75468  1.0000
  C   C58       1.0  0.52861  0.07251  0.83679  1.0000
  C   C59       1.0  0.96982  0.57584  0.70119  1.0000
  C   C60       1.0  0.02433  0.57455  0.77333  1.0000
  C   C61       1.0  0.53312  0.92448  0.80540  1.0000
  C   C62       1.0  0.47867  0.92543  0.72982  1.0000
  C   C63       1.0  0.02601  0.42568  0.75413  1.0000
  C   C64       1.0  0.97153  0.42707  0.67093  1.0000
  C   C65       1.0  0.43605  0.10115  0.68942  1.0000
  C   C66       1.0  0.56512  0.09985  0.86465  1.0000
  C   C67       1.0  0.93269  0.60126  0.67274  1.0000
  C   C68       1.0  0.57062  0.89959  0.83160  1.0000
  C   C69       1.0  0.06410  0.39830  0.81498  1.0000
  C   C70       1.0  0.44770  0.12809  0.75740  1.0000
  C   C71       1.0  0.55632  0.13302  0.72867  1.0000
  C   C72       1.0  0.94745  0.62601  0.75738  1.0000
  C   C73       1.0  0.55654  0.87682  0.73401  1.0000
  C   C74       1.0  0.05270  0.37318  0.73368  1.0000
  C   C75       1.0  0.40996  0.15304  0.70099  1.0000
  C   C76       1.0  0.59252  0.15817  0.75025  1.0000
  C   C77       1.0  0.91168  0.65078  0.71941  1.0000
  C   C78       1.0  0.59315  0.85364  0.76034  1.0000
  C   C79       1.0  0.09024  0.34875  0.78123  1.0000
  C   C80       1.0  0.35756  0.15155  0.57885  1.0000
  C   C81       1.0  0.63943  0.15132  0.91069  1.0000
  C   C82       1.0  0.85840  0.65142  0.59861  1.0000
  C   C83       1.0  0.64598  0.85224  0.88597  1.0000
  C   C84       1.0  0.14203  0.34853  0.91271  1.0000
  C   C85       1.0  0.34588  0.12489  0.50917  1.0000
  C   C86       1.0  0.64880  0.11823  0.04469  1.0000
  C   C87       1.0  0.84305  0.62602  0.51941  1.0000
  C   C88       1.0  0.66055  0.87550  0.97941  1.0000
  C   C89       1.0  0.15339  0.37333  0.99573  1.0000
  C   C90       1.0  0.38432  0.10047  0.56157  1.0000
  C   C91       1.0  0.61236  0.09313  0.02307  1.0000
  C   C92       1.0  0.87918  0.60155  0.55590  1.0000
  C   C93       1.0  0.62375  0.89866  0.95263  1.0000
  C   C94       1.0  0.11546  0.39762  0.94852  1.0000
  C   C95       1.0  0.70893  0.23009  0.93228  1.0000
  C   C96       1.0  0.21475  0.72506  0.94273  1.0000
  C   C97       1.0  0.24969  0.78185  0.85753  1.0000
  C   C98       1.0  0.73663  0.28767  0.90083  1.0000
  C   C99       1.0  0.32200  0.19713  0.59690  1.0000
  C   C100      1.0  0.66840  0.20684  0.87648  1.0000
  C   C101      1.0  0.82664  0.69740  0.62772  1.0000
  C   C102      1.0  0.17829  0.70017  0.88236  1.0000
  C   C103      1.0  0.67409  0.80352  0.87534  1.0000
  C   C104      1.0  0.33866  0.79482  0.59971  1.0000
  C   C105      1.0  0.17580  0.30219  0.89651  1.0000
  C   C106      1.0  0.82357  0.29460  0.64571  1.0000
  C   C107      1.0  0.69867  0.26540  0.84524  1.0000
  C   C108      1.0  0.21569  0.75737  0.80760  1.0000
  C   C109      1.0  0.50350  0.01220  0.81957  1.0000
  C   C110      1.0  0.99692  0.51727  0.71476  1.0000
  C   C111      1.0  0.50443  0.98219  0.79595  1.0000
  C   C112      1.0  0.99761  0.48696  0.69448  1.0000
  S   S1        1.0  0.44248  0.03508  0.24849  1.0000
  S   S2        1.0  0.55789  0.02939  0.42072  1.0000
  S   S3        1.0  0.94037  0.54045  0.15894  1.0000
  S   S4        1.0  0.05665  0.53873  0.31718  1.0000
  S   S5        1.0  0.55789  0.95909  0.35327  1.0000
  S   S6        1.0  0.44183  0.96262  0.18151  1.0000
  S   S7        1.0  0.05754  0.46540  0.26164  1.0000
  S   S8        1.0  0.94196  0.46868  0.10152  1.0000
  S   S9        1.0  0.44464  0.03455  0.74929  1.0000
  S   S10       1.0  0.56006  0.03226  0.92160  1.0000
  S   S11       1.0  0.93881  0.54070  0.64193  1.0000
  S   S12       1.0  0.05488  0.53678  0.81302  1.0000
  S   S13       1.0  0.56292  0.95912  0.87060  1.0000
  S   S14       1.0  0.44710  0.96276  0.69124  1.0000
  S   S15       1.0  0.05622  0.46413  0.76929  1.0000
  S   S16       1.0  0.94113  0.46764  0.58730  1.0000
  N   N1        1.0  0.32497  0.17814  0.04154  1.0000
  N   N2        1.0  0.68189  0.16771  0.50563  1.0000
  N   N3        1.0  0.81843  0.67409  0.06608  1.0000
  N   N4        1.0  0.17811  0.67279  0.46518  1.0000
  N   N5        1.0  0.67990  0.82570  0.44286  1.0000
  N   N6        1.0  0.32324  0.82974  0.99401  1.0000
  N   N7        1.0  0.17529  0.32188  0.45346  1.0000
  N   N8        1.0  0.81727  0.33124  0.02141  1.0000
  N   N9        1.0  0.31598  0.17460  0.51953  1.0000
  N   N10       1.0  0.67816  0.17434  0.95279  1.0000
  N   N11       1.0  0.81952  0.67570  0.54503  1.0000
  N   N12       1.0  0.17291  0.67052  0.99860  1.0000
  N   N13       1.0  0.68589  0.82975  0.92572  1.0000
  N   N14       1.0  0.33097  0.82752  0.52793  1.0000
  N   N15       1.0  0.18374  0.32582  0.96731  1.0000
  N   N16       1.0  0.82082  0.32639  0.54152  1.0000
  C  Sn1       1.0  0.14718  0.60579  0.00557  1.0000
  C   C113      1.0  0.24676  0.57678  0.91994  1.0000
  C  Sn2       1.0  0.19869  0.59309  0.78800  1.0000
  C  Sn3       1.0  0.15327  0.57375  0.74073  1.0000
  C   C114      1.0  0.15690  0.53851  0.82636  1.0000
  C  Sn4       1.0  0.20497  0.52218  0.95830  1.0000
  O  Te1       1.0  0.19564  0.59002  0.13709  1.0000
  O  Te2       1.0  0.19605  0.62838  0.70422  1.0000
  O  Te3       1.0  0.10479  0.58955  0.60909  1.0000
  O  Te4       1.0  0.10441  0.55119  0.04208  1.0000
  Mg  Mg1       1.0  0.12112  0.63821  0.53336  1.0000
  Mg  Mg2       1.0  0.17931  0.54134  0.21302  1.0000
  C  Sn5       1.0  0.72651  0.72928  0.89402  1.0000
  C   C115      1.0  0.67715  0.79218  0.00286  1.0000
  C  Sn6       1.0  0.69804  0.81571  0.09112  1.0000
  C  Sn7       1.0  0.66441  0.84115  0.07026  1.0000
  C   C116      1.0  0.71381  0.77824  0.96151  1.0000
  C  Sn8       1.0  0.69288  0.75471  0.87316  1.0000
  O  Te5       1.0  0.70648  0.70549  0.80707  1.0000
  O  Te6       1.0  0.75200  0.81383  0.19916  1.0000
  O  Te7       1.0  0.68449  0.86494  0.15732  1.0000
  O  Te8       1.0  0.63896  0.75659  0.76520  1.0000
  Mg  Mg3       1.0  0.76062  0.85194  0.29001  1.0000
  Mg  Mg4       1.0  0.63029  0.71848  0.67438  1.0000
  C  Sn9       1.0  0.28518  0.25061  0.64407  1.0000
  C   C117      1.0  0.27907  0.22304  0.58521  1.0000
  C  Sn10      1.0  0.23595  0.22224  0.42657  1.0000
  C  Sn11      1.0  0.19817  0.24958  0.32454  1.0000
  C   C118      1.0  0.20430  0.27713  0.38339  1.0000
  C  Sn12      1.0  0.24740  0.27795  0.54205  1.0000
  O  Te9       1.0  0.32860  0.25088  0.80307  1.0000
  O  Te10      1.0  0.23068  0.19440  0.37048  1.0000
  O  Te11      1.0  0.15474  0.24929  0.16544  1.0000
  O  Te12      1.0  0.25269  0.30577  0.59811  1.0000
  Mg  Mg5       1.0  0.16482  0.20576  0.14467  1.0000
  Mg  Mg6       1.0  0.31855  0.29445  0.82384  1.0000
  C  Sn13      1.0  0.73546  0.26018  0.31427  1.0000
  C   C119      1.0  0.73212  0.22606  0.41761  1.0000
  C  Sn14      1.0  0.75441  0.21396  0.61376  1.0000
  C  Sn15      1.0  0.78057  0.23645  0.70864  1.0000
  C   C120      1.0  0.78390  0.27055  0.60532  1.0000
  C  Sn16      1.0  0.76162  0.28267  0.40914  1.0000
  O  Te13      1.0  0.71289  0.27172  0.11827  1.0000
  O  Te14      1.0  0.75058  0.17974  0.71403  1.0000
  O  Te15      1.0  0.80316  0.22488  0.90480  1.0000
  O  Te16      1.0  0.76544  0.31687  0.30890  1.0000
  Mg  Mg7       1.0  0.78760  0.17610  0.97916  1.0000
  Mg  Mg8       1.0  0.72842  0.32054  0.04378  1.0000
  C  Sn17      1.0  0.28460  0.27893  0.05969  1.0000
  C   C121      1.0  0.33589  0.21848  0.93013  1.0000
  C  Sn18      1.0  0.31095  0.19126  0.87864  1.0000
  C  Sn19      1.0  0.33845  0.15956  0.95837  1.0000
  C   C122      1.0  0.28713  0.22002  0.08786  1.0000
  C  Sn20      1.0  0.31211  0.24723  0.13942  1.0000
  O  Te17      1.0  0.30876  0.30648  0.10913  1.0000
  O  Te18      1.0  0.25903  0.19570  0.74879  1.0000
  O  Te19      1.0  0.31425  0.13200  0.90881  1.0000
  O  Te20      1.0  0.36399  0.24280  0.26921  1.0000
  Mg  Mg9       1.0  0.24306  0.15060  0.72618  1.0000
  Mg  Mg10      1.0  0.37999  0.28788  0.29199  1.0000
  C  Sn21      1.0  0.90958  0.34787  0.79852  1.0000
  C   C123      1.0  0.86080  0.35076  0.65212  1.0000
  C  Sn22      1.0  0.84877  0.37868  0.48447  1.0000
  C  Sn23      1.0  0.88629  0.40423  0.46263  1.0000
  C   C124      1.0  0.93504  0.40133  0.60896  1.0000
  C  Sn24      1.0  0.94710  0.37342  0.77668  1.0000
  O  Te21      1.0  0.92077  0.31975  0.96489  1.0000
  O  Te22      1.0  0.79974  0.38101  0.34012  1.0000
  O  Te23      1.0  0.87506  0.43237  0.29609  1.0000
  O  Te24      1.0  0.99611  0.37108  0.92095  1.0000
  Mg  Mg11      1.0  0.80292  0.42414  0.14008  1.0000
  Mg  Mg12      1.0  0.88977  0.39223  0.12102  1.0000
  C  Sn25      1.0  0.30302  0.72993  0.59429  1.0000
  C   C125      1.0  0.30142  0.76533  0.52237  1.0000
  C  Sn26      1.0  0.25300  0.78334  0.42178  1.0000
  C  Sn27      1.0  0.20518  0.76561  0.39255  1.0000
  C   C126      1.0  0.20679  0.73024  0.46448  1.0000
  C  Sn28      1.0  0.25520  0.71220  0.56506  1.0000
  O  Te25      1.0  0.35188  0.71244  0.69444  1.0000
  O  Te26      1.0  0.25240  0.81872  0.35118  1.0000
  O  Te27      1.0  0.15630  0.78313  0.29231  1.0000
  O  Te28      1.0  0.25581  0.67684  0.63566  1.0000
  Mg  Mg13      1.0  0.17601  0.83121  0.22400  1.0000
  Mg  Mg14      1.0  0.33218  0.66433  0.76294  1.0000
  C  Sn29      1.0  0.14662  0.60809  0.51100  1.0000
  C   C127      1.0  0.14574  0.64257  0.40557  1.0000
  C  Sn30      1.0  0.09951  0.65861  0.25815  1.0000
  C  Sn31      1.0  0.05318  0.63981  0.21528  1.0000
  C   C128      1.0  0.05407  0.60535  0.32069  1.0000
  C  Sn32      1.0  0.10029  0.58929  0.46813  1.0000
  O  Te29      1.0  0.19327  0.59257  0.65776  1.0000
  O  Te30      1.0  0.09960  0.69310  0.15471  1.0000
  O  Te31      1.0  0.00651  0.65536  0.06838  1.0000
  O  Te32      1.0  0.10021  0.55482  0.57156  1.0000
  Mg  Mg15      1.0  0.12957  0.63860  0.96825  1.0000
  Mg  Mg16      1.0  0.17341  0.54502  0.75810  1.0000
  C  Sn33      1.0  0.41761  0.84515  0.80160  1.0000
  C   C129      1.0  0.37102  0.84964  0.64443  1.0000
  C  Sn34      1.0  0.36102  0.87958  0.48790  1.0000
  C  Sn35      1.0  0.39837  0.90556  0.48839  1.0000
  C   C130      1.0  0.44493  0.90106  0.64547  1.0000
  C  Sn36      1.0  0.45497  0.87113  0.80210  1.0000
  O  Te33      1.0  0.42679  0.81501  0.95654  1.0000
  O  Te34      1.0  0.31415  0.88349  0.33244  1.0000
  O  Te35      1.0  0.38915  0.93571  0.33328  1.0000
  O  Te36      1.0  0.50180  0.86720  0.95747  1.0000
  Mg  Mg17      1.0  0.31957  0.92911  0.15501  1.0000
  Mg  Mg18      1.0  0.39323  0.88587  0.13492  1.0000
  C  Sn37      1.0  0.78669  0.75065  0.67161  1.0000
  C   C131      1.0  0.78270  0.72401  0.60699  1.0000
  C  Sn38      1.0  0.74459  0.72553  0.43319  1.0000
  C  Sn39      1.0  0.70975  0.75429  0.32159  1.0000
  C   C132      1.0  0.71375  0.78091  0.38620  1.0000
  C  Sn40      1.0  0.75185  0.77940  0.56000  1.0000
  O  Te37      1.0  0.82509  0.74859  0.84579  1.0000
  O  Te38      1.0  0.74135  0.69859  0.37159  1.0000
  O  Te39      1.0  0.67132  0.75633  0.14728  1.0000
  O  Te40      1.0  0.75509  0.80633  0.62159  1.0000
  Mg  Mg19      1.0  0.68249  0.71322  0.12430  1.0000
  Mg  Mg20      1.0  0.81396  0.79173  0.86880  1.0000
  C  Sn41      1.0  0.14426  0.37468  0.50881  1.0000
  C   C133      1.0  0.13519  0.34666  0.45243  1.0000
  C  Sn42      1.0  0.08922  0.34545  0.30321  1.0000
  C  Sn43      1.0  0.05154  0.37283  0.20829  1.0000
  C   C134      1.0  0.06062  0.40083  0.26466  1.0000
  C  Sn44      1.0  0.10658  0.40206  0.41389  1.0000
  O  Te41      1.0  0.19050  0.37535  0.65834  1.0000
  O  Te42      1.0  0.08101  0.31716  0.24944  1.0000
  O  Te43      1.0  0.00528  0.37214  0.05866  1.0000
  O  Te44      1.0  0.11480  0.43033  0.46765  1.0000
  Mg  Mg21      1.0  0.01196  0.32808  0.03750  1.0000
  Mg  Mg22      1.0  0.18385  0.41945  0.67949  1.0000
  C  Sn45      1.0  0.44433  0.12999  0.30926  1.0000
  C   C135      1.0  0.43641  0.10219  0.25141  1.0000
  C  Sn46      1.0  0.39289  0.10192  0.09265  1.0000
  C  Sn47      1.0  0.45975  0.06575  0.98948  1.0000
  C   C136      1.0  0.36448  0.15781  0.04732  1.0000
  C  Sn48      1.0  0.40798  0.15810  0.20609  1.0000
  O  Te45      1.0  0.48811  0.12972  0.46839  1.0000
  O  Te46      1.0  0.38580  0.07383  0.03759  1.0000
  O  Te47      1.0  0.41595  0.06600  0.83025  1.0000
  O  Te48      1.0  0.41509  0.18617  0.26114  1.0000
  Mg  Mg23      1.0  0.42333  0.02186  0.81113  1.0000
  Mg  Mg24      1.0  0.48076  0.17390  0.48750  1.0000
