data_image0
_chemical_formula_structural       H112C152S16N16O16C2Sn2C2HTe2HMgC2Sn2C2HTe2HMgC2Sn2C2HTe2HMgC2Sn2C2HTe2HMgC2Sn2C2HTe2HMgC2Sn2C2HTe2HMgC2Sn2C2HTe2HMgC2Sn2C2HTe2HMg
_chemical_formula_sum              "H128 C184 S16 N16 O16 Sn16 Te16 Mg8"
_cell_length_a       25.0733
_cell_length_b       44.2944
_cell_length_c       10.8331
_cell_angle_alpha    136.036
_cell_angle_beta     114.779
_cell_angle_gamma    72.1651

_symmetry_space_group_name_H-M    'P1'
_space_group_IT_number       1

loop_
  _space_group_symop_operation_xyz
  'x, y, z'

loop_
  _atom_site_type_symbol
  _atom_site_label
  _atom_site_symmetry_multiplicity
  _atom_site_fract_x
  _atom_site_fract_y
  _atom_site_fract_z
  _atom_site_occupancy
  H   H1        1.0  0.21452  0.18269  0.32262  1.0000
  H   H2        1.0  0.16671  0.15156  0.46999  1.0000
  H   H3        1.0  0.09578  0.17572  0.44654  1.0000
  H   H4        1.0  0.12392  0.17742  0.14429  1.0000
  H   H5        1.0  0.26973  0.17273  0.51033  1.0000
  H   H6        1.0  0.96731  0.66221  0.49517  1.0000
  H   H7        1.0  0.90783  0.71379  0.46217  1.0000
  H   H8        1.0  0.80311  0.61734  0.45598  1.0000
  H   H9        1.0  0.85883  0.56237  0.46819  1.0000
  H   H10       1.0  0.73306  0.67547  0.27091  1.0000
  H   H11       1.0  0.68479  0.64230  0.43742  1.0000
  H   H12       1.0  0.61334  0.65836  0.36118  1.0000
  H   H13       1.0  0.64159  0.66776  0.08477  1.0000
  H   H14       1.0  0.80537  0.66147  0.43470  1.0000
  H   H15       1.0  0.80770  0.20687  0.08828  1.0000
  H   H16       1.0  0.89382  0.24557  0.32206  1.0000
  H   H17       1.0  0.95253  0.24283  0.26152  1.0000
  H   H18       1.0  0.90201  0.19847  0.09298  1.0000
  H   H19       1.0  0.72873  0.17023  0.97079  1.0000
  H   H20       1.0  0.18301  0.65278  0.04865  1.0000
  H   H21       1.0  0.30281  0.71251  0.09781  1.0000
  H   H22       1.0  0.38274  0.75157  0.33081  1.0000
  H   H23       1.0  0.44520  0.75323  0.29667  1.0000
  H   H24       1.0  0.39943  0.70593  0.11391  1.0000
  H   H25       1.0  0.22513  0.67543  0.98090  1.0000
  H   H26       1.0  0.53248  0.83821  0.99755  1.0000
  H   H27       1.0  0.59154  0.78568  0.02484  1.0000
  H   H28       1.0  0.67353  0.88158  0.05655  1.0000
  H   H29       1.0  0.62720  0.93639  0.03815  1.0000
  H   H30       1.0  0.77056  0.81923  0.19451  1.0000
  H   H31       1.0  0.80899  0.85431  0.04596  1.0000
  H   H32       1.0  0.88023  0.83788  0.12132  1.0000
  H   H33       1.0  0.85793  0.83032  0.40252  1.0000
  H   H34       1.0  0.71937  0.83012  0.01228  1.0000
  H   H35       1.0  0.03669  0.33407  0.97863  1.0000
  H   H36       1.0  0.09364  0.28258  0.01494  1.0000
  H   H37       1.0  0.19986  0.38650  0.05337  1.0000
  H   H38       1.0  0.14276  0.43977  0.03105  1.0000
  H   H39       1.0  0.27628  0.32700  0.23835  1.0000
  H   H40       1.0  0.33071  0.35345  0.02368  1.0000
  H   H41       1.0  0.40025  0.33511  0.09703  1.0000
  H   H42       1.0  0.36880  0.33248  0.41753  1.0000
  H   H43       1.0  0.20137  0.34316  0.08155  1.0000
  H   H44       1.0  0.19309  0.79069  0.40821  1.0000
  H   H45       1.0  0.11103  0.75129  0.17209  1.0000
  H   H46       1.0  0.04933  0.75141  0.21463  1.0000
  H   H47       1.0  0.09679  0.79773  0.39254  1.0000
  H   H48       1.0  0.27077  0.82637  0.51970  1.0000
  H   H49       1.0  0.01670  0.39490  0.39367  1.0000
  H   H50       1.0  0.96281  0.34420  0.32905  1.0000
  H   H51       1.0  0.87048  0.39373  0.99566  1.0000
  H   H52       1.0  0.69812  0.29051  0.40622  1.0000
  H   H53       1.0  0.61443  0.25426  0.18190  1.0000
  H   H54       1.0  0.55359  0.25562  0.23107  1.0000
  H   H55       1.0  0.60344  0.30064  0.40782  1.0000
  H   H56       1.0  0.77658  0.32413  0.50894  1.0000
  H   H57       1.0  0.22101  0.17245  0.75525  1.0000
  H   H58       1.0  0.17819  0.15615  0.02952  1.0000
  H   H59       1.0  0.10829  0.17456  0.95878  1.0000
  H   H60       1.0  0.12533  0.17332  0.62112  1.0000
  H   H61       1.0  0.29774  0.15653  0.91483  1.0000
  H   H62       1.0  0.97076  0.66273  0.01415  1.0000
  H   H63       1.0  0.91463  0.71789  0.00066  1.0000
  H   H64       1.0  0.79821  0.60843  0.92783  1.0000
  H   H65       1.0  0.85722  0.55715  0.95987  1.0000
  H   H66       1.0  0.72111  0.66385  0.71929  1.0000
  H   H67       1.0  0.69849  0.65448  0.99198  1.0000
  H   H68       1.0  0.62684  0.67011  0.91429  1.0000
  H   H69       1.0  0.62802  0.65617  0.53167  1.0000
  H   H70       1.0  0.79582  0.65040  0.88698  1.0000
  H   H71       1.0  0.80782  0.20967  0.59439  1.0000
  H   H72       1.0  0.88984  0.24882  0.82686  1.0000
  H   H73       1.0  0.95186  0.24650  0.77909  1.0000
  H   H74       1.0  0.90307  0.20099  0.60614  1.0000
  H   H75       1.0  0.72923  0.17573  0.49072  1.0000
  H   H76       1.0  0.98310  0.60314  0.59177  1.0000
  H   H77       1.0  0.03626  0.65570  0.66589  1.0000
  H   H78       1.0  0.12957  0.60208  0.98256  1.0000
  H   H79       1.0  0.30332  0.71199  0.60700  1.0000
  H   H80       1.0  0.38721  0.75211  0.84636  1.0000
  H   H81       1.0  0.44769  0.75057  0.79517  1.0000
  H   H82       1.0  0.39921  0.70492  0.62278  1.0000
  H   H83       1.0  0.22548  0.67650  0.49626  1.0000
  H   H84       1.0  0.53597  0.83571  0.45786  1.0000
  H   H85       1.0  0.58502  0.77989  0.47369  1.0000
  H   H86       1.0  0.69922  0.89035  0.56744  1.0000
  H   H87       1.0  0.64065  0.94259  0.54057  1.0000
  H   H88       1.0  0.77109  0.83306  0.76827  1.0000
  H   H89       1.0  0.79595  0.84126  0.47256  1.0000
  H   H90       1.0  0.86618  0.82825  0.56922  1.0000
  H   H91       1.0  0.86543  0.83964  0.94929  1.0000
  H   H92       1.0  0.69924  0.84669  0.59947  1.0000
  H   H93       1.0  0.03694  0.33631  0.47948  1.0000
  H   H94       1.0  0.09364  0.28292  0.50420  1.0000
  H   H95       1.0  0.19277  0.38949  0.57101  1.0000
  H   H96       1.0  0.13717  0.44028  0.53461  1.0000
  H   H97       1.0  0.29355  0.32784  0.73440  1.0000
  H   H98       1.0  0.31381  0.34752  0.51995  1.0000
  H   H99       1.0  0.38497  0.32940  0.58592  1.0000
  H   H100      1.0  0.38603  0.33255  0.91317  1.0000
  H   H101      1.0  0.23164  0.34123  0.56563  1.0000
  H   H102      1.0  0.19033  0.79294  0.90905  1.0000
  H   H103      1.0  0.11051  0.75390  0.67385  1.0000
  H   H104      1.0  0.04829  0.75045  0.70291  1.0000
  H   H105      1.0  0.09310  0.79826  0.89089  1.0000
  H   H106      1.0  0.26786  0.82972  0.02371  1.0000
  H   H107      1.0  0.81614  0.34516  0.94058  1.0000
  H   H108      1.0  0.69626  0.29087  0.91711  1.0000
  H   H109      1.0  0.61631  0.24743  0.66548  1.0000
  H   H110      1.0  0.55381  0.25029  0.71250  1.0000
  H   H111      1.0  0.60285  0.29556  0.88486  1.0000
  H   H112      1.0  0.77396  0.32777  0.03599  1.0000
  C   C1        1.0  0.46062  0.07675  0.23996  1.0000
  C   C2        1.0  0.27485  0.22206  0.03133  1.0000
  C   C3        1.0  0.23174  0.21460  0.41128  1.0000
  C   C4        1.0  0.14270  0.18034  0.07784  1.0000
  C   C5        1.0  0.30089  0.19058  0.04911  1.0000
  C   C6        1.0  0.29096  0.26650  0.17017  1.0000
  C   C7        1.0  0.95848  0.57430  0.23201  1.0000
  C   C8        1.0  0.91793  0.60564  0.22621  1.0000
  C   C9        1.0  0.93048  0.65044  0.37073  1.0000
  C   C10       1.0  0.89785  0.67926  0.35249  1.0000
  C   C11       1.0  0.85164  0.66454  0.18870  1.0000
  C   C12       1.0  0.83546  0.62043  0.05193  1.0000
  C   C13       1.0  0.86824  0.59153  0.07072  1.0000
  C   C14       1.0  0.77106  0.71528  0.99881  1.0000
  C   C15       1.0  0.74098  0.71025  0.37930  1.0000
  C   C16       1.0  0.65998  0.67544  0.03383  1.0000
  C   C17       1.0  0.79860  0.68462  0.02025  1.0000
  C   C18       1.0  0.78478  0.76016  0.13691  1.0000
  C   C19       1.0  0.51997  0.07439  0.26983  1.0000
  C   C20       1.0  0.72253  0.22279  0.47556  1.0000
  C   C21       1.0  0.78366  0.22514  0.04915  1.0000
  C   C22       1.0  0.90670  0.23398  0.20822  1.0000
  C   C23       1.0  0.69695  0.19288  0.45130  1.0000
  C   C24       1.0  0.69065  0.24665  0.42332  1.0000
  C   C25       1.0  0.01776  0.57165  0.26034  1.0000
  C   C26       1.0  0.21816  0.72371  0.48159  1.0000
  C   C27       1.0  0.27863  0.73022  0.05584  1.0000
  C   C28       1.0  0.40005  0.74158  0.22775  1.0000
  C   C29       1.0  0.19302  0.69322  0.45488  1.0000
  C   C30       1.0  0.18601  0.74687  0.42596  1.0000
  C   C31       1.0  0.54020  0.92606  0.26627  1.0000
  C   C32       1.0  0.58063  0.89448  0.27090  1.0000
  C   C33       1.0  0.56867  0.84963  0.12276  1.0000
  C   C34       1.0  0.60117  0.82026  0.13769  1.0000
  C   C35       1.0  0.64668  0.83446  0.30196  1.0000
  C   C36       1.0  0.66237  0.87875  0.44293  1.0000
  C   C37       1.0  0.62982  0.90818  0.42708  1.0000
  C   C38       1.0  0.72482  0.78153  0.48346  1.0000
  C   C39       1.0  0.75923  0.78515  0.09272  1.0000
  C   C40       1.0  0.83639  0.82175  0.44405  1.0000
  C   C41       1.0  0.69764  0.81279  0.46507  1.0000
  C   C42       1.0  0.71340  0.73619  0.34048  1.0000
  C   C43       1.0  0.04063  0.42235  0.25131  1.0000
  C   C44       1.0  0.08168  0.39104  0.25653  1.0000
  C   C45       1.0  0.07134  0.34603  0.10727  1.0000
  C   C46       1.0  0.10260  0.31726  0.12717  1.0000
  C   C47       1.0  0.14554  0.33206  0.29591  1.0000
  C   C48       1.0  0.15958  0.37672  0.43902  1.0000
  C   C49       1.0  0.12832  0.40559  0.41899  1.0000
  C   C50       1.0  0.23065  0.28022  0.47956  1.0000
  C   C51       1.0  0.26447  0.29292  0.13347  1.0000
  C   C52       1.0  0.35068  0.32518  0.47037  1.0000
  C   C53       1.0  0.20916  0.30958  0.45028  1.0000
  C   C54       1.0  0.20794  0.23828  0.36026  1.0000
  C   C55       1.0  0.48077  0.92892  0.23704  1.0000
  C   C56       1.0  0.27622  0.78085  0.03013  1.0000
  C   C57       1.0  0.21677  0.77343  0.45264  1.0000
  C   C58       1.0  0.09484  0.76209  0.27882  1.0000
  C   C59       1.0  0.30089  0.81162  0.05690  1.0000
  C   C60       1.0  0.30883  0.75708  0.08256  1.0000
  C   C61       1.0  0.98141  0.42465  0.22292  1.0000
  C   C62       1.0  0.94787  0.39767  0.19723  1.0000
  C   C63       1.0  0.97332  0.38368  0.29276  1.0000
  C   C64       1.0  0.94344  0.35563  0.25814  1.0000
  C   C65       1.0  0.88603  0.34173  0.13424  1.0000
  C   C66       1.0  0.85945  0.35677  0.04293  1.0000
  C   C67       1.0  0.89017  0.38413  0.07399  1.0000
  C   C68       1.0  0.78184  0.27667  0.02905  1.0000
  C   C69       1.0  0.72181  0.27226  0.44572  1.0000
  C   C70       1.0  0.59949  0.26513  0.29098  1.0000
  C   C71       1.0  0.80675  0.30758  0.05736  1.0000
  C   C72       1.0  0.81427  0.25178  0.07560  1.0000
  C   C73       1.0  0.49855  0.01568  0.24466  1.0000
  C   C74       1.0  0.99646  0.51329  0.23736  1.0000
  C   C75       1.0  0.50336  0.98668  0.25852  1.0000
  C   C76       1.0  0.00190  0.48374  0.24863  1.0000
  C   C77       1.0  0.45835  0.07583  0.74195  1.0000
  C   C78       1.0  0.27838  0.22982  0.57453  1.0000
  C   C79       1.0  0.23232  0.20665  0.86135  1.0000
  C   C80       1.0  0.13617  0.17756  0.54583  1.0000
  C   C81       1.0  0.29865  0.20084  0.60602  1.0000
  C   C82       1.0  0.30150  0.27154  0.69304  1.0000
  C   C83       1.0  0.95977  0.57537  0.73451  1.0000
  C   C84       1.0  0.92022  0.60836  0.73879  1.0000
  C   C85       1.0  0.93425  0.65278  0.89162  1.0000
  C   C86       1.0  0.90353  0.68361  0.88433  1.0000
  C   C87       1.0  0.85796  0.67135  0.72356  1.0000
  C   C88       1.0  0.84023  0.62745  0.57778  1.0000
  C   C89       1.0  0.87101  0.59649  0.58550  1.0000
  C   C90       1.0  0.78019  0.72683  0.55460  1.0000
  C   C91       1.0  0.73014  0.69843  0.82471  1.0000
  C   C92       1.0  0.64661  0.66367  0.48049  1.0000
  C   C93       1.0  0.80765  0.69519  0.57031  1.0000
  C   C94       1.0  0.79166  0.77218  0.69786  1.0000
  C   C95       1.0  0.51715  0.07215  0.76306  1.0000
  C   C96       1.0  0.72191  0.22069  0.97444  1.0000
  C   C97       1.0  0.78425  0.22718  0.55117  1.0000
  C   C98       1.0  0.90604  0.23666  0.71746  1.0000
  C   C99       1.0  0.69639  0.19023  0.94756  1.0000
  C   C100      1.0  0.68963  0.24506  0.92504  1.0000
  C   C101      1.0  0.01869  0.57195  0.75726  1.0000
  C   C102      1.0  0.05223  0.59901  0.78358  1.0000
  C   C103      1.0  0.02649  0.61415  0.69272  1.0000
  C   C104      1.0  0.05597  0.64327  0.73274  1.0000
  C   C105      1.0  0.11322  0.65727  0.85793  1.0000
  C   C106      1.0  0.13998  0.64116  0.94485  1.0000
  C   C107      1.0  0.10981  0.61254  0.90761  1.0000
  C   C108      1.0  0.21717  0.72453  0.97600  1.0000
  C   C109      1.0  0.27963  0.72946  0.56357  1.0000
  C   C110      1.0  0.40207  0.74056  0.73581  1.0000
  C   C111      1.0  0.19239  0.69380  0.94882  1.0000
  C   C112      1.0  0.18459  0.74787  0.92158  1.0000
  C   C113      1.0  0.53815  0.92323  0.75337  1.0000
  C   C114      1.0  0.57723  0.88999  0.74863  1.0000
  C   C115      1.0  0.56703  0.84551  0.58763  1.0000
  C   C116      1.0  0.59398  0.81430  0.59598  1.0000
  C   C117      1.0  0.63220  0.82632  0.76473  1.0000
  C   C118      1.0  0.64559  0.87085  0.92248  1.0000
  C   C119      1.0  0.61919  0.90202  0.91330  1.0000
  C   C120      1.0  0.71751  0.76862  0.92033  1.0000
  C   C121      1.0  0.76355  0.79823  0.65966  1.0000
  C   C122      1.0  0.84688  0.83258  0.00214  1.0000
  C   C123      1.0  0.69502  0.79925  0.89798  1.0000
  C   C124      1.0  0.70216  0.72408  0.78440  1.0000
  C   C125      1.0  0.04302  0.42409  0.75696  1.0000
  C   C126      1.0  0.08376  0.39206  0.75768  1.0000
  C   C127      1.0  0.07202  0.34730  0.60601  1.0000
  C   C128      1.0  0.10329  0.31746  0.61927  1.0000
  C   C129      1.0  0.14743  0.33116  0.78458  1.0000
  C   C130      1.0  0.16361  0.37538  0.92847  1.0000
  C   C131      1.0  0.13204  0.40535  0.91520  1.0000
  C   C132      1.0  0.22169  0.27758  0.96396  1.0000
  C   C133      1.0  0.27706  0.29558  0.64386  1.0000
  C   C134      1.0  0.36645  0.32940  0.97739  1.0000
  C   C135      1.0  0.19685  0.30915  0.94652  1.0000
  C   C136      1.0  0.20451  0.23342  0.82685  1.0000
  C   C137      1.0  0.47948  0.92716  0.73395  1.0000
  C   C138      1.0  0.27828  0.77909  0.53399  1.0000
  C   C139      1.0  0.21468  0.77518  0.95061  1.0000
  C   C140      1.0  0.09317  0.76275  0.77447  1.0000
  C   C141      1.0  0.30345  0.80913  0.55817  1.0000
  C   C142      1.0  0.31040  0.75600  0.59012  1.0000
  C   C143      1.0  0.98402  0.42694  0.73239  1.0000
  C   C144      1.0  0.78360  0.27617  0.51893  1.0000
  C   C145      1.0  0.72022  0.27216  0.95413  1.0000
  C   C146      1.0  0.59971  0.25993  0.77466  1.0000
  C   C147      1.0  0.80915  0.30595  0.54238  1.0000
  C   C148      1.0  0.81544  0.25260  0.57261  1.0000
  C   C149      1.0  0.49560  0.01417  0.74164  1.0000
  C   C150      1.0  0.99787  0.51395  0.73683  1.0000
  C   C151      1.0  0.50091  0.98527  0.75637  1.0000
  C   C152      1.0  0.00383  0.48507  0.75215  1.0000
  S   S1        1.0  0.43093  0.03888  0.20296  1.0000
  S   S2        1.0  0.92885  0.53731  0.20066  1.0000
  S   S3        1.0  0.55878  0.03384  0.26973  1.0000
  S   S4        1.0  0.05656  0.53116  0.26036  1.0000
  S   S5        1.0  0.57056  0.96312  0.29991  1.0000
  S   S6        1.0  0.06979  0.46006  0.28605  1.0000
  S   S7        1.0  0.44274  0.96949  0.23638  1.0000
  S   S8        1.0  0.94223  0.46554  0.22577  1.0000
  S   S9        1.0  0.42833  0.03881  0.70865  1.0000
  S   S10       1.0  0.93029  0.53852  0.70408  1.0000
  S   S11       1.0  0.55522  0.03033  0.75531  1.0000
  S   S12       1.0  0.05741  0.53096  0.75384  1.0000
  S   S13       1.0  0.56821  0.96041  0.78765  1.0000
  S   S14       1.0  0.07189  0.46169  0.79056  1.0000
  S   S15       1.0  0.44125  0.96890  0.74160  1.0000
  S   S16       1.0  0.94475  0.46801  0.73653  1.0000
  N   N1        1.0  0.32666  0.20106  0.20694  1.0000
  N   N2        1.0  0.82535  0.69587  0.17953  1.0000
  N   N3        1.0  0.64112  0.18557  0.38303  1.0000
  N   N4        1.0  0.13740  0.68506  0.38286  1.0000
  N   N5        1.0  0.67268  0.80248  0.30749  1.0000
  N   N6        1.0  0.16738  0.30073  0.30690  1.0000
  N   N7        1.0  0.35673  0.81810  0.11871  1.0000
  N   N8        1.0  0.86258  0.31217  0.10822  1.0000
  N   N9        1.0  0.34609  0.20571  0.73026  1.0000
  N   N10       1.0  0.83342  0.70465  0.72584  1.0000
  N   N11       1.0  0.64034  0.18594  0.89565  1.0000
  N   N12       1.0  0.13652  0.68737  0.88676  1.0000
  N   N13       1.0  0.65136  0.79275  0.76261  1.0000
  N   N14       1.0  0.17119  0.29882  0.78906  1.0000
  N   N15       1.0  0.35932  0.81609  0.62392  1.0000
  N   N16       1.0  0.86512  0.31208  0.60385  1.0000
  O   O1        1.0  0.33322  0.28084  0.33319  1.0000
  O   O2        1.0  0.82409  0.77636  0.30582  1.0000
  O   O3        1.0  0.63100  0.24331  0.35454  1.0000
  O   O4        1.0  0.12660  0.74158  0.34836  1.0000
  O   O5        1.0  0.67473  0.72040  0.17141  1.0000
  O   O6        1.0  0.16308  0.22340  0.20070  1.0000
  O   O7        1.0  0.36828  0.76198  0.15762  1.0000
  O   O8        1.0  0.87389  0.25563  0.14461  1.0000
  O   O9        1.0  0.34625  0.28623  0.85266  1.0000
  O   O10       1.0  0.83125  0.78785  0.86634  1.0000
  O   O11       1.0  0.63007  0.24049  0.84974  1.0000
  O   O12       1.0  0.12535  0.74181  0.84169  1.0000
  O   O13       1.0  0.66159  0.70853  0.61758  1.0000
  O   O14       1.0  0.15967  0.21967  0.66839  1.0000
  O   O15       1.0  0.36982  0.76102  0.66616  1.0000
  O   O16       1.0  0.87507  0.25637  0.64392  1.0000
  C   C153      1.0  0.37390  0.88214  0.56686  1.0000
  C   C154      1.0  0.42954  0.90029  0.68930  1.0000
  C  Sn1       1.0  0.46421  0.88893  0.79109  1.0000
  C  Sn2       1.0  0.44267  0.85882  0.76956  1.0000
  C   C155      1.0  0.38696  0.84082  0.64662  1.0000
  C   C156      1.0  0.35262  0.85242  0.54549  1.0000
  H   H113      1.0  0.34734  0.89109  0.48853  1.0000
  O  Te1       1.0  0.51969  0.90739  0.91286  1.0000
  O  Te2       1.0  0.47641  0.84689  0.86953  1.0000
  H   H114      1.0  0.30956  0.83834  0.45061  1.0000
  Mg  Mg1       1.0  0.45449  0.72127  0.01838  1.0000
  C   C157      1.0  0.40951  0.18220  0.93072  1.0000
  C   C158      1.0  0.37495  0.17662  0.77541  1.0000
  C  Sn3       1.0  0.35912  0.13492  0.59912  1.0000
  C  Sn4       1.0  0.37829  0.09820  0.57838  1.0000
  C   C159      1.0  0.87174  0.10413  0.73465  1.0000
  C   C160      1.0  0.42841  0.14600  0.91040  1.0000
  H   H115      1.0  0.32684  0.05498  0.06673  1.0000
  O  Te3       1.0  0.32459  0.12992  0.44541  1.0000
  O  Te4       1.0  0.82202  0.05616  0.40381  1.0000
  H   H116      1.0  0.81935  0.99070  0.03064  1.0000
  Mg  Mg2       1.0  0.31533  0.06607  0.23636  1.0000
  C   C161      1.0  0.96058  0.36078  0.77716  1.0000
  C   C162      1.0  0.90290  0.34591  0.66766  1.0000
  C  Sn5       1.0  0.86831  0.35769  0.56743  1.0000
  C  Sn6       1.0  0.89203  0.38484  0.57725  1.0000
  C   C163      1.0  0.94980  0.39952  0.68710  1.0000
  C   C164      1.0  0.98401  0.38755  0.78687  1.0000
  H   H117      1.0  0.98706  0.35150  0.85429  1.0000
  O  Te5       1.0  0.81077  0.34256  0.45876  1.0000
  O  Te6       1.0  0.85844  0.39710  0.47845  1.0000
  H   H118      1.0  0.02868  0.39904  0.87154  1.0000
  Mg  Mg3       1.0  0.78234  0.36819  0.34967  1.0000
  C   C165      1.0  0.54710  0.13485  0.20225  1.0000
  C   C166      1.0  0.60065  0.15567  0.33527  1.0000
  C  Sn7       1.0  0.63346  0.14680  0.44716  1.0000
  C  Sn8       1.0  0.61217  0.11651  0.42511  1.0000
  C   C167      1.0  0.55857  0.09583  0.29155  1.0000
  C   C168      1.0  0.52608  0.10496  0.18036  1.0000
  H   H119      1.0  0.52198  0.14189  0.11615  1.0000
  O  Te7       1.0  0.68686  0.16790  0.57944  1.0000
  O  Te8       1.0  0.64409  0.10703  0.53505  1.0000
  H   H120      1.0  0.48465  0.08881  0.07730  1.0000
  Mg  Mg4       1.0  0.71438  0.14413  0.69616  1.0000
  C   C169      1.0  0.37424  0.88398  0.06392  1.0000
  C   C170      1.0  0.42937  0.90259  0.19069  1.0000
  C  Sn9       1.0  0.46248  0.89185  0.29556  1.0000
  C  Sn10      1.0  0.43987  0.86190  0.27277  1.0000
  C   C171      1.0  0.38469  0.84344  0.14549  1.0000
  C   C172      1.0  0.35192  0.85443  0.04130  1.0000
  H   H121      1.0  0.44362  0.05208  0.98323  1.0000
  O  Te9       1.0  0.51746  0.91075  0.42165  1.0000
  O  Te10      1.0  0.47205  0.85058  0.37575  1.0000
  H   H122      1.0  0.40398  0.99961  0.94307  1.0000
  Mg  Mg5       1.0  0.54472  0.88502  0.53009  1.0000
  C   C173      1.0  0.52579  0.12448  0.70626  1.0000
  C   C174      1.0  0.00368  0.10098  0.75864  1.0000
  C  Sn11      1.0  0.06000  0.10730  0.87956  1.0000
  C  Sn12      1.0  0.09794  0.13775  0.94914  1.0000
  C   C175      1.0  0.61960  0.16113  0.89601  1.0000
  C   C176      1.0  0.56317  0.15453  0.77489  1.0000
  H   H123      1.0  0.48211  0.11940  0.61263  1.0000
  O  Te11      1.0  0.07825  0.08353  0.93041  1.0000
  O  Te12      1.0  0.05972  0.98510  0.07024  1.0000
  H   H124      1.0  0.54848  0.17276  0.73446  1.0000
  Mg  Mg6       1.0  0.06450  0.94487  0.09889  1.0000
  C   C177      1.0  0.13829  0.63551  0.46333  1.0000
  C   C178      1.0  0.12390  0.64982  0.37276  1.0000
  C  Sn13      1.0  0.06992  0.63892  0.23581  1.0000
  C  Sn14      1.0  0.02969  0.61324  0.18899  1.0000
  C   C179      1.0  0.04448  0.59911  0.28049  1.0000
  C   C180      1.0  0.09862  0.61018  0.41728  1.0000
  H   H125      1.0  0.18016  0.64409  0.56924  1.0000
  O  Te13      1.0  0.05626  0.65348  0.14665  1.0000
  O  Te14      1.0  0.97543  0.60189  0.05268  1.0000
  H   H126      1.0  0.10973  0.59912  0.48746  1.0000
  Mg  Mg7       1.0  0.07162  0.78913  0.97035  1.0000
  C   C181      1.0  0.43045  0.16461  0.40601  1.0000
  C   C182      1.0  0.42157  0.12013  0.28429  1.0000
  C  Sn15      1.0  0.37593  0.09896  0.11658  1.0000
  C  Sn16      1.0  0.33856  0.12285  0.07021  1.0000
  C   C183      1.0  0.34783  0.16733  0.19287  1.0000
  C   C184      1.0  0.39362  0.18819  0.36036  1.0000
  H   H127      1.0  0.46590  0.18075  0.53556  1.0000
  O  Te15      1.0  0.46239  0.21412  0.99660  1.0000
  O  Te16      1.0  0.38734  0.26211  0.90346  1.0000
  H   H128      1.0  0.40051  0.22263  0.45451  1.0000
  Mg  Mg8       1.0  0.39377  0.20095  0.78564  1.0000
