data_image0
_chemical_formula_structural       H16C40S16N16SnCSn2CSnTe4Mg2SnCSn2CSnTe4Mg2SnCSn2CSnTe4Mg2SnCSn2CSnTe4Mg2SnCSn2CSnTe4Mg2SnCSn2CSnTe4Mg2SnCSn2CSnTe4Mg2SnCSn2CSnTe4Mg2SnCSn2CSnTe4Mg2SnCSn2CSnTe4Mg2SnCSn2CSnTe4Mg2SnCSn2CSnTe4Mg2SnCSn2CSnTe4Mg2SnCSn2CSnTe4Mg2SnCSn2CSnTe4Mg2SnCSn2CSnTe4Mg2SnCSn2CSnTe4Mg2SnCSn2CSnTe4Mg2SnCSn2CSnTe4Mg2SnCSn2CSnTe4Mg2SnCSn2CSnTe4Mg2SnCSn2CSnTe4Mg2SnCSn2CSnTe4Mg2SnCSn2CSnTe4Mg2
_chemical_formula_sum              "H16 C88 S16 N16 Sn96 Te96 Mg48"
_cell_length_a       27.3573
_cell_length_b       42.5281
_cell_length_c       8.23423
_cell_angle_alpha    68.2548
_cell_angle_beta     112.345
_cell_angle_gamma    96.4489

_symmetry_space_group_name_H-M    'P1'
_space_group_IT_number       1

loop_
  _space_group_symop_operation_xyz
  'x, y, z'

loop_
  _atom_site_type_symbol
  _atom_site_label
  _atom_site_symmetry_multiplicity
  _atom_site_fract_x
  _atom_site_fract_y
  _atom_site_fract_z
  _atom_site_occupancy
  H   H1        1.0  0.36951  0.20107  0.23839  1.0000
  H   H2        1.0  0.66194  0.20590  0.23744  1.0000
  H   H3        1.0  0.86801  0.70464  0.20898  1.0000
  H   H4        1.0  0.13437  0.71844  0.28558  1.0000
  H   H5        1.0  0.63516  0.80115  0.25499  1.0000
  H   H6        1.0  0.34526  0.79037  0.25786  1.0000
  H   H7        1.0  0.12960  0.30015  0.25323  1.0000
  H   H8        1.0  0.86471  0.28749  0.20784  1.0000
  H   H9        1.0  0.35827  0.19855  0.71315  1.0000
  H   H10       1.0  0.62941  0.21819  0.77376  1.0000
  H   H11       1.0  0.86186  0.69702  0.75110  1.0000
  H   H12       1.0  0.15608  0.70781  0.72969  1.0000
  H   H13       1.0  0.63318  0.79772  0.80142  1.0000
  H   H14       1.0  0.37669  0.78243  0.70569  1.0000
  H   H15       1.0  0.13721  0.29865  0.79454  1.0000
  H   H16       1.0  0.85266  0.28388  0.79024  1.0000
  C   C1        1.0  0.47513  0.07313  0.26017  1.0000
  C   C2        1.0  0.52947  0.07016  0.34196  1.0000
  C   C3        1.0  0.97048  0.57653  0.20977  1.0000
  C   C4        1.0  0.02488  0.57590  0.27924  1.0000
  C   C5        1.0  0.52756  0.92446  0.28720  1.0000
  C   C6        1.0  0.47300  0.92563  0.21412  1.0000
  C   C7        1.0  0.02646  0.42675  0.25013  1.0000
  C   C8        1.0  0.97205  0.42857  0.17582  1.0000
  C   C9        1.0  0.33254  0.20016  0.12286  1.0000
  C   C10       1.0  0.68557  0.19753  0.38849  1.0000
  C   C11       1.0  0.82821  0.69956  0.12257  1.0000
  C   C12       1.0  0.17185  0.70553  0.39317  1.0000
  C   C13       1.0  0.67247  0.80293  0.36694  1.0000
  C   C14       1.0  0.32036  0.79941  0.10691  1.0000
  C   C15       1.0  0.16663  0.30019  0.36948  1.0000
  C   C16       1.0  0.82621  0.29872  0.10080  1.0000
  C   C17       1.0  0.49961  0.01153  0.31195  1.0000
  C   C18       1.0  0.99930  0.51811  0.22491  1.0000
  C   C19       1.0  0.49933  0.98200  0.28301  1.0000
  C   C20       1.0  0.99969  0.48810  0.20051  1.0000
  C   C21       1.0  0.47424  0.07357  0.75468  1.0000
  C   C22       1.0  0.52861  0.07251  0.83679  1.0000
  C   C23       1.0  0.96982  0.57584  0.70119  1.0000
  C   C24       1.0  0.02433  0.57455  0.77333  1.0000
  C   C25       1.0  0.53312  0.92448  0.80540  1.0000
  C   C26       1.0  0.47867  0.92543  0.72982  1.0000
  C   C27       1.0  0.02601  0.42568  0.75413  1.0000
  C   C28       1.0  0.97153  0.42707  0.67093  1.0000
  C   C29       1.0  0.32200  0.19713  0.59690  1.0000
  C   C30       1.0  0.66840  0.20684  0.87648  1.0000
  C   C31       1.0  0.82664  0.69740  0.62772  1.0000
  C   C32       1.0  0.17829  0.70017  0.88236  1.0000
  C   C33       1.0  0.67409  0.80352  0.87534  1.0000
  C   C34       1.0  0.33866  0.79482  0.59971  1.0000
  C   C35       1.0  0.17580  0.30219  0.89651  1.0000
  C   C36       1.0  0.82357  0.29460  0.64571  1.0000
  C   C37       1.0  0.50350  0.01220  0.81957  1.0000
  C   C38       1.0  0.99692  0.51727  0.71476  1.0000
  C   C39       1.0  0.50443  0.98219  0.79595  1.0000
  C   C40       1.0  0.99761  0.48696  0.69448  1.0000
  S   S1        1.0  0.44248  0.03508  0.24849  1.0000
  S   S2        1.0  0.55789  0.02939  0.42072  1.0000
  S   S3        1.0  0.94037  0.54045  0.15894  1.0000
  S   S4        1.0  0.05665  0.53873  0.31718  1.0000
  S   S5        1.0  0.55789  0.95909  0.35327  1.0000
  S   S6        1.0  0.44183  0.96262  0.18151  1.0000
  S   S7        1.0  0.05754  0.46540  0.26164  1.0000
  S   S8        1.0  0.94196  0.46868  0.10152  1.0000
  S   S9        1.0  0.44464  0.03455  0.74929  1.0000
  S   S10       1.0  0.56006  0.03226  0.92160  1.0000
  S   S11       1.0  0.93881  0.54070  0.64193  1.0000
  S   S12       1.0  0.05488  0.53678  0.81302  1.0000
  S   S13       1.0  0.56292  0.95912  0.87060  1.0000
  S   S14       1.0  0.44710  0.96276  0.69124  1.0000
  S   S15       1.0  0.05622  0.46413  0.76929  1.0000
  S   S16       1.0  0.94113  0.46764  0.58730  1.0000
  N   N1        1.0  0.32497  0.17814  0.04154  1.0000
  N   N2        1.0  0.68189  0.16771  0.50563  1.0000
  N   N3        1.0  0.81843  0.67409  0.06608  1.0000
  N   N4        1.0  0.17811  0.67279  0.46518  1.0000
  N   N5        1.0  0.67990  0.82570  0.44286  1.0000
  N   N6        1.0  0.32324  0.82974  0.99401  1.0000
  N   N7        1.0  0.17529  0.32188  0.45346  1.0000
  N   N8        1.0  0.81727  0.33124  0.02141  1.0000
  N   N9        1.0  0.31598  0.17460  0.51953  1.0000
  N   N10       1.0  0.67816  0.17434  0.95279  1.0000
  N   N11       1.0  0.81952  0.67570  0.54503  1.0000
  N   N12       1.0  0.17291  0.67052  0.99860  1.0000
  N   N13       1.0  0.68589  0.82975  0.92572  1.0000
  N   N14       1.0  0.33097  0.82752  0.52793  1.0000
  N   N15       1.0  0.18374  0.32582  0.96731  1.0000
  N   N16       1.0  0.82082  0.32639  0.54152  1.0000
  C  Sn1       1.0  0.35163  0.11596  0.06732  1.0000
  C   C41       1.0  0.35928  0.14344  0.12774  1.0000
  C  Sn2       1.0  0.41034  0.15311  0.21274  1.0000
  C  Sn3       1.0  0.45468  0.13497  0.23776  1.0000
  C   C42       1.0  0.44701  0.10752  0.17733  1.0000
  C  Sn4       1.0  0.39596  0.09782  0.09234  1.0000
  O  Te1       1.0  0.40344  0.04246  0.98269  1.0000
  O  Te2       1.0  0.41700  0.18066  0.27205  1.0000
  O  Te3       1.0  0.50610  0.14422  0.32248  1.0000
  O  Te4       1.0  0.38930  0.07030  0.03302  1.0000
  Mg  Mg1       1.0  0.49483  0.18351  0.37966  1.0000
  Mg  Mg2       1.0  0.41470  0.00316  0.92532  1.0000
  C  Sn5       1.0  0.58162  0.15255  0.28616  1.0000
  C   C43       1.0  0.62813  0.14863  0.44295  1.0000
  C  Sn6       1.0  0.64909  0.11631  0.56680  1.0000
  C  Sn7       1.0  0.62303  0.08731  0.53318  1.0000
  C   C44       1.0  0.57655  0.09124  0.37646  1.0000
  C  Sn8       1.0  0.55556  0.12355  0.25255  1.0000
  O  Te5       1.0  0.56137  0.18510  0.16422  1.0000
  O  Te6       1.0  0.69564  0.11303  0.72262  1.0000
  O  Te7       1.0  0.64332  0.05475  0.65530  1.0000
  O  Te8       1.0  0.50905  0.12683  0.09679  1.0000
  Mg  Mg3       1.0  0.70774  0.06336  0.84803  1.0000
  Mg  Mg4       1.0  0.60013  0.11222  0.97125  1.0000
  C  Sn9       1.0  0.93980  0.62670  0.30785  1.0000
  C   C45       1.0  0.93136  0.60147  0.23024  1.0000
  C  Sn10      1.0  0.88608  0.60283  0.07331  1.0000
  C  Sn11      1.0  0.95167  0.56571  0.99217  1.0000
  C   C46       1.0  0.85691  0.65520  0.06975  1.0000
  C  Sn12      1.0  0.90218  0.65385  0.22671  1.0000
  O  Te9       1.0  0.98535  0.62483  0.46474  1.0000
  O  Te10      1.0  0.98171  0.51303  0.99825  1.0000
  O  Te11      1.0  0.90609  0.56756  0.83516  1.0000
  O  Te12      1.0  0.90977  0.67936  0.30174  1.0000
  Mg  Mg5       1.0  0.91346  0.52676  0.78375  1.0000
  Mg  Mg6       1.0  0.97802  0.66566  0.51617  1.0000
  C  Sn13      1.0  0.07592  0.65914  0.24412  1.0000
  C   C47       1.0  0.12290  0.65427  0.40020  1.0000
  C  Sn14      1.0  0.14323  0.62159  0.51915  1.0000
  C  Sn15      1.0  0.11607  0.59318  0.48125  1.0000
  C   C48       1.0  0.06913  0.59804  0.32525  1.0000
  C  Sn16      1.0  0.04875  0.63072  0.20623  1.0000
  O  Te13      1.0  0.05632  0.69204  0.12711  1.0000
  O  Te14      1.0  0.19026  0.61737  0.67435  1.0000
  O  Te15      1.0  0.13571  0.56026  0.59843  1.0000
  O  Te16      1.0  0.00177  0.63495  0.05109  1.0000
  Mg  Mg7       1.0  0.20116  0.56754  0.79228  1.0000
  Mg  Mg8       1.0  0.09405  0.62049  0.93303  1.0000
  C  Sn17      1.0  0.55201  0.86099  0.29025  1.0000
  C   C49       1.0  0.56154  0.88915  0.34561  1.0000
  C  Sn18      1.0  0.61303  0.90001  0.41178  1.0000
  C  Sn19      1.0  0.65589  0.88238  0.42276  1.0000
  C   C50       1.0  0.64635  0.85425  0.36740  1.0000
  C  Sn20      1.0  0.59487  0.84336  0.30123  1.0000
  O  Te17      1.0  0.50021  0.85058  0.22453  1.0000
  O  Te18      1.0  0.62158  0.92821  0.46637  1.0000
  O  Te19      1.0  0.70771  0.89281  0.48856  1.0000
  O  Te20      1.0  0.58631  0.81518  0.24663  1.0000
  Mg  Mg9       1.0  0.69923  0.93264  0.54632  1.0000
  Mg  Mg10      1.0  0.50868  0.81074  0.16658  1.0000
  C  Sn21      1.0  0.36750  0.89146  0.91749  1.0000
  C   C51       1.0  0.26468  0.92110  0.01888  1.0000
  C  Sn22      1.0  0.29703  0.90763  0.20859  1.0000
  C  Sn23      1.0  0.32967  0.92923  0.29889  1.0000
  C   C52       1.0  0.32927  0.96385  0.19753  1.0000
  C  Sn24      1.0  0.29693  0.97735  0.00780  1.0000
  O  Te21      1.0  0.33484  0.90438  0.72797  1.0000
  O  Te22      1.0  0.29675  0.87291  0.30700  1.0000
  O  Te23      1.0  0.36234  0.91629  0.48856  1.0000
  O  Te24      1.0  0.22580  0.94777  0.90941  1.0000
  Mg  Mg11      1.0  0.34809  0.86732  0.56278  1.0000
  Mg  Mg12      1.0  0.34906  0.95338  0.65367  1.0000
  C  Sn25      1.0  0.14426  0.37468  0.50881  1.0000
  C   C53       1.0  0.13519  0.34666  0.45243  1.0000
  C  Sn26      1.0  0.08922  0.34545  0.30321  1.0000
  C  Sn27      1.0  0.05154  0.37283  0.20829  1.0000
  C   C54       1.0  0.06062  0.40083  0.26466  1.0000
  C  Sn28      1.0  0.10658  0.40206  0.41389  1.0000
  O  Te25      1.0  0.19050  0.37535  0.65834  1.0000
  O  Te26      1.0  0.08101  0.31716  0.24944  1.0000
  O  Te27      1.0  0.00528  0.37214  0.05866  1.0000
  O  Te28      1.0  0.11480  0.43033  0.46765  1.0000
  Mg  Mg13      1.0  0.01196  0.32808  0.03750  1.0000
  Mg  Mg14      1.0  0.18385  0.41945  0.67949  1.0000
  C  Sn29      1.0  0.89663  0.35446  0.28596  1.0000
  C   C55       1.0  0.85533  0.35653  0.11719  1.0000
  C  Sn30      1.0  0.95812  0.31688  0.94773  1.0000
  C  Sn31      1.0  0.99986  0.33989  0.94691  1.0000
  C   C56       1.0  0.93792  0.40208  0.11559  1.0000
  C  Sn32      1.0  0.93837  0.37747  0.28514  1.0000
  O  Te29      1.0  0.89624  0.32964  0.45372  1.0000
  O  Te30      1.0  0.91640  0.31846  0.78081  1.0000
  O  Te31      1.0  0.00021  0.36472  0.77896  1.0000
  O  Te32      1.0  0.98006  0.37588  0.45197  1.0000
  Mg  Mg15      1.0  0.93465  0.35671  0.58815  1.0000
  Mg  Mg16      1.0  0.96186  0.33763  0.64469  1.0000
  C  Sn33      1.0  0.27304  0.27633  0.52489  1.0000
  C   C57       1.0  0.21991  0.27883  0.40676  1.0000
  C  Sn34      1.0  0.19517  0.25092  0.36266  1.0000
  C  Sn35      1.0  0.22412  0.21984  0.43830  1.0000
  C   C58       1.0  0.27721  0.21735  0.55637  1.0000
  C  Sn36      1.0  0.30199  0.24525  0.60052  1.0000
  O  Te33      1.0  0.29698  0.30456  0.56709  1.0000
  O  Te34      1.0  0.14202  0.25404  0.24420  1.0000
  O  Te35      1.0  0.20014  0.19160  0.39599  1.0000
  O  Te36      1.0  0.35510  0.24214  0.71893  1.0000
  Mg  Mg17      1.0  0.12693  0.20842  0.22815  1.0000
  Mg  Mg18      1.0  0.37023  0.28773  0.73515  1.0000
  C  Sn37      1.0  0.76232  0.22031  0.13643  1.0000
  C   C59       1.0  0.81602  0.16414  0.99096  1.0000
  C  Sn38      1.0  0.80411  0.19695  0.85794  1.0000
  C  Sn39      1.0  0.84248  0.22219  0.87050  1.0000
  C   C60       1.0  0.78874  0.27836  0.01589  1.0000
  C  Sn40      1.0  0.80069  0.24556  0.14900  1.0000
  O  Te37      1.0  0.77337  0.18735  0.26785  1.0000
  O  Te38      1.0  0.75434  0.20444  0.71381  1.0000
  O  Te39      1.0  0.83138  0.25518  0.73893  1.0000
  O  Te40      1.0  0.85042  0.23806  0.29303  1.0000
  Mg  Mg19      1.0  0.75804  0.25299  0.56847  1.0000
  Mg  Mg20      1.0  0.84677  0.18952  0.43838  1.0000
  C  Sn41      1.0  0.78669  0.75065  0.67161  1.0000
  C   C61       1.0  0.78270  0.72401  0.60699  1.0000
  C  Sn42      1.0  0.74459  0.72553  0.43319  1.0000
  C  Sn43      1.0  0.70975  0.75429  0.32159  1.0000
  C   C62       1.0  0.71375  0.78091  0.38620  1.0000
  C  Sn44      1.0  0.75185  0.77940  0.56000  1.0000
  O  Te41      1.0  0.82509  0.74859  0.84579  1.0000
  O  Te42      1.0  0.74135  0.69859  0.37159  1.0000
  O  Te43      1.0  0.67132  0.75633  0.14728  1.0000
  O  Te44      1.0  0.75509  0.80633  0.62159  1.0000
  Mg  Mg21      1.0  0.68249  0.71322  0.12430  1.0000
  Mg  Mg22      1.0  0.81396  0.79173  0.86880  1.0000
  C  Sn45      1.0  0.28888  0.73216  0.17070  1.0000
  C   C63       1.0  0.29378  0.76531  0.05754  1.0000
  C  Sn46      1.0  0.35796  0.71601  0.88056  1.0000
  C  Sn47      1.0  0.31308  0.69749  0.81535  1.0000
  C   C64       1.0  0.30819  0.66436  0.92849  1.0000
  C  Sn48      1.0  0.24400  0.71363  0.10549  1.0000
  O  Te45      1.0  0.32837  0.71768  0.34715  1.0000
  O  Te46      1.0  0.36375  0.74919  0.76994  1.0000
  O  Te47      1.0  0.27358  0.71199  0.63875  1.0000
  O  Te48      1.0  0.23822  0.68048  0.21609  1.0000
  Mg  Mg23      1.0  0.29932  0.75788  0.53991  1.0000
  Mg  Mg24      1.0  0.30260  0.67177  0.44618  1.0000
  C  Sn49      1.0  0.79611  0.75846  0.13562  1.0000
  C   C65       1.0  0.78747  0.72730  0.11020  1.0000
  C  Sn50      1.0  0.84410  0.65797  0.97456  1.0000
  C  Sn51      1.0  0.80537  0.68463  0.86187  1.0000
  C   C66       1.0  0.81402  0.71577  0.88729  1.0000
  C  Sn52      1.0  0.75738  0.78511  0.02294  1.0000
  O  Te49      1.0  0.84296  0.76294  0.27206  1.0000
  O  Te50      1.0  0.83634  0.62660  0.95178  1.0000
  O  Te51      1.0  0.75849  0.68012  0.72536  1.0000
  O  Te52      1.0  0.76515  0.81647  0.04572  1.0000
  Mg  Mg25      1.0  0.76613  0.63283  0.74727  1.0000
  Mg  Mg26      1.0  0.83536  0.81027  0.25011  1.0000
  C  Sn53      1.0  0.27042  0.71798  0.64885  1.0000
  C   C67       1.0  0.21936  0.72664  0.51399  1.0000
  C  Sn54      1.0  0.20740  0.75913  0.37746  1.0000
  C  Sn55      1.0  0.24731  0.78348  0.37560  1.0000
  C   C68       1.0  0.29834  0.77482  0.51038  1.0000
  C  Sn56      1.0  0.31033  0.74233  0.64700  1.0000
  O  Te53      1.0  0.28150  0.68535  0.78402  1.0000
  O  Te54      1.0  0.15606  0.76719  0.24413  1.0000
  O  Te55      1.0  0.23620  0.81614  0.24028  1.0000
  O  Te56      1.0  0.36164  0.73427  0.78025  1.0000
  Mg  Mg27      1.0  0.16040  0.81498  0.08834  1.0000
  Mg  Mg28      1.0  0.35735  0.68648  0.93603  1.0000
  C  Sn57      1.0  0.29477  0.25344  0.17495  1.0000
  C   C69       1.0  0.28884  0.22562  0.11820  1.0000
  C  Sn58      1.0  0.35038  0.16093  0.95517  1.0000
  C  Sn59      1.0  0.31389  0.18891  0.84653  1.0000
  C   C70       1.0  0.31983  0.21670  0.90327  1.0000
  C  Sn60      1.0  0.25828  0.28142  0.06631  1.0000
  O  Te57      1.0  0.33672  0.25331  0.33842  1.0000
  O  Te58      1.0  0.34526  0.13283  0.90130  1.0000
  O  Te59      1.0  0.27192  0.18901  0.68295  1.0000
  O  Te60      1.0  0.26341  0.30949  0.12017  1.0000
  Mg  Mg29      1.0  0.28163  0.14492  0.66754  1.0000
  Mg  Mg30      1.0  0.32704  0.29745  0.35384  1.0000
  C  Sn61      1.0  0.79635  0.22706  0.68330  1.0000
  C   C71       1.0  0.79912  0.26132  0.58080  1.0000
  C  Sn62      1.0  0.75808  0.27757  0.41155  1.0000
  C  Sn63      1.0  0.71332  0.25920  0.34337  1.0000
  C   C72       1.0  0.71057  0.22497  0.44586  1.0000
  C  Sn64      1.0  0.75160  0.20870  0.61512  1.0000
  O  Te61      1.0  0.83784  0.21133  0.85216  1.0000
  O  Te62      1.0  0.76175  0.31183  0.31153  1.0000
  O  Te63      1.0  0.67182  0.27496  0.17436  1.0000
  O  Te64      1.0  0.74794  0.17446  0.71514  1.0000
  Mg  Mg31      1.0  0.69509  0.32203  0.08893  1.0000
  Mg  Mg32      1.0  0.81455  0.16424  0.93778  1.0000
  C  Sn65      1.0  0.43767  0.12911  0.79646  1.0000
  C   C73       1.0  0.43251  0.10123  0.74068  1.0000
  C  Sn66      1.0  0.39002  0.09991  0.58167  1.0000
  C  Sn67      1.0  0.35190  0.12704  0.47613  1.0000
  C   C74       1.0  0.35707  0.15489  0.53190  1.0000
  C  Sn68      1.0  0.39955  0.15623  0.69092  1.0000
  O  Te65      1.0  0.48048  0.12989  0.95589  1.0000
  O  Te66      1.0  0.38569  0.07177  0.52870  1.0000
  O  Te67      1.0  0.30907  0.12624  0.31659  1.0000
  O  Te68      1.0  0.40389  0.18435  0.74388  1.0000
  Mg  Mg33      1.0  0.32039  0.08245  0.30089  1.0000
  Mg  Mg34      1.0  0.46920  0.17371  0.97159  1.0000
  C  Sn69      1.0  0.56918  0.13691  0.69407  1.0000
  C   C75       1.0  0.57107  0.10378  0.81960  1.0000
  C  Sn70      1.0  0.50361  0.15862  0.00527  1.0000
  C  Sn71      1.0  0.53816  0.18280  0.06680  1.0000
  C   C76       1.0  0.63946  0.15163  0.94131  1.0000
  C  Sn72      1.0  0.60374  0.16110  0.75560  1.0000
  O  Te69      1.0  0.53313  0.14579  0.50910  1.0000
  O  Te70      1.0  0.50477  0.12534  0.12816  1.0000
  O  Te71      1.0  0.57423  0.17389  0.25193  1.0000
  O  Te72      1.0  0.60256  0.19435  0.63275  1.0000
  Mg  Mg35      1.0  0.56081  0.12548  0.36645  1.0000
  Mg  Mg36      1.0  0.54651  0.19424  0.39447  1.0000
  C  Sn73      1.0  0.84417  0.61366  0.56262  1.0000
  C   C77       1.0  0.85287  0.64020  0.63080  1.0000
  C  Sn74      1.0  0.90430  0.64967  0.71321  1.0000
  C  Sn75      1.0  0.94793  0.63228  0.72768  1.0000
  C   C78       1.0  0.93922  0.60576  0.65951  1.0000
  C  Sn76      1.0  0.88781  0.59626  0.57710  1.0000
  O  Te73      1.0  0.79243  0.60462  0.48075  1.0000
  O  Te74      1.0  0.91200  0.67628  0.78041  1.0000
  O  Te75      1.0  0.99970  0.64134  0.80964  1.0000
  O  Te76      1.0  0.88010  0.56968  0.50990  1.0000
  Mg  Mg37      1.0  0.98992  0.67923  0.88035  1.0000
  Mg  Mg38      1.0  0.80220  0.56671  0.40985  1.0000
  C  Sn77      1.0  0.00776  0.65812  0.03712  1.0000
  C   C79       1.0  0.06394  0.59967  0.88052  1.0000
  C  Sn78      1.0  0.05344  0.63087  0.73236  1.0000
  C  Sn79      1.0  0.09074  0.65679  0.74082  1.0000
  C   C80       1.0  0.13774  0.65096  0.89733  1.0000
  C  Sn80      1.0  0.04507  0.68404  0.04558  1.0000
  O  Te77      1.0  0.01743  0.62674  0.18361  1.0000
  O  Te78      1.0  0.00614  0.63609  0.57730  1.0000
  O  Te79      1.0  0.08103  0.68819  0.59415  1.0000
  O  Te80      1.0  0.09234  0.67881  0.20055  1.0000
  Mg  Mg39      1.0  0.01097  0.68312  0.41295  1.0000
  Mg  Mg40      1.0  0.08756  0.63179  0.36493  1.0000
  C  Sn81      1.0  0.58656  0.86464  0.70413  1.0000
  C   C81       1.0  0.63959  0.85915  0.82444  1.0000
  C  Sn82      1.0  0.65887  0.87196  0.97009  1.0000
  C  Sn83      1.0  0.62442  0.89061  0.99613  1.0000
  C   C82       1.0  0.57141  0.89608  0.87589  1.0000
  C  Sn84      1.0  0.55210  0.88329  0.73016  1.0000
  O  Te81      1.0  0.56814  0.85161  0.55946  1.0000
  O  Te82      1.0  0.60885  0.93043  0.08853  1.0000
  O  Te83      1.0  0.53968  0.96792  0.14094  1.0000
  O  Te84      1.0  0.49895  0.88908  0.61180  1.0000
  Mg  Mg41      1.0  0.61526  0.95331  0.26552  1.0000
  Mg  Mg42      1.0  0.49249  0.86620  0.43483  1.0000
  C  Sn85      1.0  0.37358  0.88960  0.44289  1.0000
  C   C83       1.0  0.37613  0.85482  0.54409  1.0000
  C  Sn86      1.0  0.41039  0.84157  0.73146  1.0000
  C  Sn87      1.0  0.44275  0.86354  0.81958  1.0000
  C   C84       1.0  0.44018  0.89830  0.71842  1.0000
  C  Sn88      1.0  0.40594  0.91158  0.53101  1.0000
  O  Te85      1.0  0.33904  0.90230  0.25573  1.0000
  O  Te86      1.0  0.41226  0.80671  0.82973  1.0000
  O  Te87      1.0  0.37410  0.91509  0.00690  1.0000
  O  Te88      1.0  0.40406  0.94642  0.43278  1.0000
  Mg  Mg43      1.0  0.36242  0.86580  0.08189  1.0000
  Mg  Mg44      1.0  0.35068  0.95162  0.18066  1.0000
  C  Sn89      1.0  0.05331  0.36082  0.77626  1.0000
  C   C85       1.0  0.05868  0.38734  0.84275  1.0000
  C  Sn90      1.0  0.10879  0.39686  0.93795  1.0000
  C  Sn91      1.0  0.15450  0.37953  0.96719  1.0000
  C   C86       1.0  0.14912  0.35303  0.90069  1.0000
  C  Sn92      1.0  0.09902  0.34348  0.80550  1.0000
  O  Te89      1.0  0.00283  0.35173  0.68145  1.0000
  O  Te90      1.0  0.00995  0.48772  0.00318  1.0000
  O  Te91      1.0  0.10180  0.45292  0.06209  1.0000
  O  Te92      1.0  0.09465  0.31692  0.74027  1.0000
  Mg  Mg45      1.0  0.08731  0.49076  0.12424  1.0000
  Mg  Mg46      1.0  0.01731  0.31387  0.61910  1.0000
  C  Sn93      1.0  0.86805  0.40682  0.50936  1.0000
  C   C87       1.0  0.91850  0.40332  0.64804  1.0000
  C  Sn94      1.0  0.94205  0.37120  0.76256  1.0000
  C  Sn95      1.0  0.91462  0.34197  0.73789  1.0000
  C   C88       1.0  0.86420  0.34548  0.59927  1.0000
  C  Sn96      1.0  0.84061  0.37759  0.48469  1.0000
  O  Te93      1.0  0.84527  0.43917  0.39646  1.0000
  O  Te94      1.0  0.99252  0.36834  0.90030  1.0000
  O  Te95      1.0  0.93744  0.30960  0.85094  1.0000
  O  Te96      1.0  0.79018  0.38045  0.34701  1.0000
  Mg  Mg47      1.0  0.90373  0.38306  0.01913  1.0000
  Mg  Mg48      1.0  0.77574  0.42999  0.22804  1.0000
