data_image0
_chemical_formula_structural       H36C72N6F18SnCSn2CSnTe4Mg2SnCSn2CSnTe4Mg2SnCSn2CSnTe4Mg2SnCSn2CSnTe4Mg2SnCSn2CSnTe4Mg2SnCSn2CSnTe4Mg2
_chemical_formula_sum              "H36 C84 N6 F18 Sn24 Te24 Mg12"
_cell_length_a       26.1039
_cell_length_b       26.2297
_cell_length_c       8.99974
_cell_angle_alpha    90.7665
_cell_angle_beta     89.9936
_cell_angle_gamma    120.671

_symmetry_space_group_name_H-M    'P1'
_space_group_IT_number       1

loop_
  _space_group_symop_operation_xyz
  'x, y, z'

loop_
  _atom_site_type_symbol
  _atom_site_label
  _atom_site_symmetry_multiplicity
  _atom_site_fract_x
  _atom_site_fract_y
  _atom_site_fract_z
  _atom_site_occupancy
  H   H1        1.0  0.05605  0.11183  0.28175  1.0000
  H   H2        1.0  0.88856  0.94726  0.28843  1.0000
  H   H3        1.0  0.05275  0.94631  0.28443  1.0000
  H   H4        1.0  0.53251  0.31784  0.35184  1.0000
  H   H5        1.0  0.68241  0.21306  0.35080  1.0000
  H   H6        1.0  0.78911  0.47245  0.35795  1.0000
  H   H7        1.0  0.42536  0.11757  0.12621  1.0000
  H   H8        1.0  0.88217  0.30601  0.12901  1.0000
  H   H9        1.0  0.69728  0.57254  0.10751  1.0000
  H   H10       1.0  0.53326  0.18135  0.08457  1.0000
  H   H11       1.0  0.82014  0.35086  0.09045  1.0000
  H   H12       1.0  0.65337  0.46480  0.07242  1.0000
  H   H13       1.0  0.33561  0.09520  0.22578  1.0000
  H   H14       1.0  0.90427  0.23976  0.24136  1.0000
  H   H15       1.0  0.76071  0.66271  0.22006  1.0000
  H   H16       1.0  0.60225  0.37542  0.19941  1.0000
  H   H17       1.0  0.62544  0.22456  0.20010  1.0000
  H   H18       1.0  0.77851  0.40088  0.20162  1.0000
  H   H19       1.0  0.05803  0.11065  0.76110  1.0000
  H   H20       1.0  0.88805  0.94873  0.76317  1.0000
  H   H21       1.0  0.04960  0.94275  0.76938  1.0000
  H   H22       1.0  0.53210  0.31458  0.85473  1.0000
  H   H23       1.0  0.68712  0.21542  0.84616  1.0000
  H   H24       1.0  0.79131  0.47357  0.84811  1.0000
  H   H25       1.0  0.42578  0.11493  0.62617  1.0000
  H   H26       1.0  0.88339  0.30996  0.60547  1.0000
  H   H27       1.0  0.68537  0.56859  0.64747  1.0000
  H   H28       1.0  0.53376  0.17893  0.58611  1.0000
  H   H29       1.0  0.81927  0.35294  0.57425  1.0000
  H   H30       1.0  0.64388  0.46164  0.60492  1.0000
  H   H31       1.0  0.33551  0.09248  0.72539  1.0000
  H   H32       1.0  0.90858  0.24537  0.70859  1.0000
  H   H33       1.0  0.75302  0.66043  0.74519  1.0000
  H   H34       1.0  0.59974  0.37235  0.70715  1.0000
  H   H35       1.0  0.62730  0.22425  0.69196  1.0000
  H   H36       1.0  0.77766  0.40206  0.70171  1.0000
  C   C1        1.0  0.06201  0.03280  0.28351  1.0000
  C   C2        1.0  0.96857  0.03342  0.28499  1.0000
  C   C3        1.0  0.96672  0.93918  0.28719  1.0000
  C   C4        1.0  0.03107  0.06362  0.28339  1.0000
  C   C5        1.0  0.93700  0.97116  0.28711  1.0000
  C   C6        1.0  0.02923  0.97063  0.28499  1.0000
  C   C7        1.0  0.60619  0.29519  0.19836  1.0000
  C   C8        1.0  0.70660  0.30979  0.19993  1.0000
  C   C9        1.0  0.69327  0.39559  0.19812  1.0000
  C   C10       1.0  0.54115  0.25532  0.21370  1.0000
  C   C11       1.0  0.74552  0.28443  0.21535  1.0000
  C   C12       1.0  0.71888  0.46046  0.21063  1.0000
  C   C13       1.0  0.50874  0.27448  0.29845  1.0000
  C   C14       1.0  0.72548  0.23254  0.29738  1.0000
  C   C15       1.0  0.76998  0.49469  0.29887  1.0000
  C   C16       1.0  0.44761  0.23959  0.32023  1.0000
  C   C17       1.0  0.75949  0.20599  0.31733  1.0000
  C   C18       1.0  0.79559  0.55573  0.31906  1.0000
  C   C19       1.0  0.41595  0.18149  0.25689  1.0000
  C   C20       1.0  0.81725  0.23212  0.25499  1.0000
  C   C21       1.0  0.76960  0.58533  0.24819  1.0000
  C   C22       1.0  0.44912  0.16182  0.17625  1.0000
  C   C23       1.0  0.83797  0.28545  0.17772  1.0000
  C   C24       1.0  0.71747  0.55040  0.16307  1.0000
  C   C25       1.0  0.51007  0.19771  0.15274  1.0000
  C   C26       1.0  0.80309  0.31093  0.15604  1.0000
  C   C27       1.0  0.69258  0.48955  0.14305  1.0000
  C   C28       1.0  0.35119  0.14145  0.25948  1.0000
  C   C29       1.0  0.85668  0.20749  0.25887  1.0000
  C   C30       1.0  0.79305  0.64944  0.25137  1.0000
  C   C31       1.0  0.41912  0.26703  0.41378  1.0000
  C   C32       1.0  0.73128  0.15025  0.40940  1.0000
  C   C33       1.0  0.84951  0.58609  0.42214  1.0000
  C   C34       1.0  0.63132  0.35701  0.19678  1.0000
  C   C35       1.0  0.64440  0.27232  0.19757  1.0000
  C   C36       1.0  0.73043  0.37135  0.19841  1.0000
  C   C37       1.0  0.06148  0.03029  0.76472  1.0000
  C   C38       1.0  0.96954  0.03381  0.76151  1.0000
  C   C39       1.0  0.96466  0.93811  0.76672  1.0000
  C   C40       1.0  0.03194  0.06247  0.76198  1.0000
  C   C41       1.0  0.93647  0.97153  0.76327  1.0000
  C   C42       1.0  0.02724  0.96817  0.76664  1.0000
  C   C43       1.0  0.60593  0.29351  0.69856  1.0000
  C   C44       1.0  0.70715  0.31053  0.69508  1.0000
  C   C45       1.0  0.69146  0.39491  0.70338  1.0000
  C   C46       1.0  0.54108  0.25292  0.71393  1.0000
  C   C47       1.0  0.74731  0.28639  0.70565  1.0000
  C   C48       1.0  0.71534  0.45934  0.72103  1.0000
  C   C49       1.0  0.50846  0.27164  0.79917  1.0000
  C   C50       1.0  0.72940  0.23509  0.78874  1.0000
  C   C51       1.0  0.76893  0.49466  0.79932  1.0000
  C   C52       1.0  0.44733  0.23659  0.81993  1.0000
  C   C53       1.0  0.76457  0.20959  0.80499  1.0000
  C   C54       1.0  0.79395  0.55557  0.82020  1.0000
  C   C55       1.0  0.41578  0.17888  0.75493  1.0000
  C   C56       1.0  0.82143  0.23634  0.73680  1.0000
  C   C57       1.0  0.76411  0.58384  0.76339  1.0000
  C   C58       1.0  0.44929  0.15926  0.67571  1.0000
  C   C59       1.0  0.83995  0.28904  0.65834  1.0000
  C   C60       1.0  0.70899  0.54765  0.69088  1.0000
  C   C61       1.0  0.51030  0.19526  0.65327  1.0000
  C   C62       1.0  0.80393  0.31351  0.64093  1.0000
  C   C63       1.0  0.68528  0.48712  0.66743  1.0000
  C   C64       1.0  0.35099  0.13904  0.75535  1.0000
  C   C65       1.0  0.86189  0.21289  0.73547  1.0000
  C   C66       1.0  0.78669  0.64783  0.76620  1.0000
  C   C67       1.0  0.41942  0.26370  0.91624  1.0000
  C   C68       1.0  0.73898  0.15491  0.90119  1.0000
  C   C69       1.0  0.85330  0.58740  0.90239  1.0000
  C   C70       1.0  0.62979  0.35513  0.70157  1.0000
  C   C71       1.0  0.64514  0.27187  0.69309  1.0000
  C   C72       1.0  0.72970  0.37189  0.69847  1.0000
  N   N1        1.0  0.31592  0.16052  0.29241  1.0000
  N   N2        1.0  0.83632  0.15193  0.27716  1.0000
  N   N3        1.0  0.84777  0.68674  0.28414  1.0000
  N   N4        1.0  0.31553  0.15843  0.78266  1.0000
  N   N5        1.0  0.84282  0.15794  0.75990  1.0000
  N   N6        1.0  0.84225  0.68575  0.78639  1.0000
  F   F1        1.0  0.46266  0.31026  0.00044  1.0000
  F   F2        1.0  0.69499  0.15234  0.99232  1.0000
  F   F3        1.0  0.86259  0.54735  0.97813  1.0000
  F   F4        1.0  0.38254  0.23010  0.51951  1.0000
  F   F5        1.0  0.76984  0.14732  0.50442  1.0000
  F   F6        1.0  0.84756  0.62516  0.51861  1.0000
  F   F7        1.0  0.38762  0.28526  0.33255  1.0000
  F   F8        1.0  0.70489  0.09968  0.32493  1.0000
  F   F9        1.0  0.90226  0.61474  0.34804  1.0000
  F   F10       1.0  0.46225  0.31726  0.48877  1.0000
  F   F11       1.0  0.68626  0.14742  0.49649  1.0000
  F   F12       1.0  0.85266  0.54496  0.51037  1.0000
  F   F13       1.0  0.37986  0.22516  0.01502  1.0000
  F   F14       1.0  0.77994  0.15488  0.99351  1.0000
  F   F15       1.0  0.85758  0.62729  0.00700  1.0000
  F   F16       1.0  0.39238  0.28740  0.83666  1.0000
  F   F17       1.0  0.71259  0.10282  0.82195  1.0000
  F   F18       1.0  0.90011  0.61516  0.80764  1.0000
  C  Sn1       1.0  0.20797  0.07472  0.15780  1.0000
  C   C73       1.0  0.24752  0.12526  0.24038  1.0000
  C  Sn2       1.0  0.22725  0.14402  0.36099  1.0000
  C  Sn3       1.0  0.16619  0.11158  0.39993  1.0000
  C   C74       1.0  0.12669  0.06106  0.31740  1.0000
  C  Sn4       1.0  0.14691  0.04227  0.19675  1.0000
  O  Te1       1.0  0.22921  0.05677  0.03768  1.0000
  O  Te2       1.0  0.26763  0.19470  0.44184  1.0000
  O  Te3       1.0  0.14498  0.12957  0.52017  1.0000
  O  Te4       1.0  0.61914  0.99162  0.11594  1.0000
  Mg  Mg1       1.0  0.21725  0.20142  0.59619  1.0000
  Mg  Mg2       1.0  0.67260  0.99102  0.96162  1.0000
  C  Sn5       1.0  0.92490  0.13378  0.15454  1.0000
  C   C75       1.0  0.87374  0.12135  0.23321  1.0000
  C  Sn6       1.0  0.85542  0.08321  0.35397  1.0000
  C  Sn7       1.0  0.88896  0.05699  0.39707  1.0000
  C   C76       1.0  0.94009  0.06944  0.31845  1.0000
  C  Sn8       1.0  0.95844  0.10756  0.19764  1.0000
  O  Te5       1.0  0.94239  0.17204  0.03417  1.0000
  O  Te6       1.0  0.80410  0.07144  0.43087  1.0000
  O  Te7       1.0  0.87142  0.01871  0.51754  1.0000
  O  Te8       1.0  0.00973  0.11935  0.12078  1.0000
  Mg  Mg3       1.0  0.79837  0.01642  0.58727  1.0000
  Mg  Mg4       1.0  0.01865  0.18055  0.96443  1.0000
  C  Sn9       1.0  0.86434  0.79208  0.15993  1.0000
  C   C77       1.0  0.87775  0.75473  0.23865  1.0000
  C  Sn10      1.0  0.91714  0.77665  0.35951  1.0000
  C  Sn11      1.0  0.94365  0.83715  0.40267  1.0000
  C   C78       1.0  0.93022  0.87446  0.32399  1.0000
  C  Sn12      1.0  0.89084  0.85259  0.20309  1.0000
  O  Te9       1.0  0.82484  0.76921  0.03946  1.0000
  O  Te10      1.0  0.92988  0.73845  0.43646  1.0000
  O  Te11      1.0  0.98317  0.86000  0.52324  1.0000
  O  Te12      1.0  0.87810  0.89074  0.12618  1.0000
  Mg  Mg5       1.0  0.98644  0.79046  0.59300  1.0000
  Mg  Mg6       1.0  0.82465  0.84495  0.96968  1.0000
  C  Sn13      1.0  0.17173  0.03400  0.71794  1.0000
  C   C79       1.0  0.13397  0.04972  0.78858  1.0000
  C  Sn14      1.0  0.15643  0.10706  0.84586  1.0000
  C  Sn15      1.0  0.21789  0.14959  0.83218  1.0000
  C   C80       1.0  0.25561  0.13386  0.76156  1.0000
  C  Sn16      1.0  0.23320  0.07652  0.70426  1.0000
  O  Te13      1.0  0.66088  0.97642  0.66150  1.0000
  O  Te14      1.0  0.11781  0.12173  0.91607  1.0000
  O  Te15      1.0  0.24129  0.20720  0.88870  1.0000
  O  Te16      1.0  0.27177  0.06185  0.63407  1.0000
  Mg  Mg7       1.0  0.17086  0.20587  0.97487  1.0000
  Mg  Mg8       1.0  0.73133  0.97773  0.57516  1.0000
  C  Sn17      1.0  0.86693  0.04209  0.80903  1.0000
  C   C81       1.0  0.92116  0.05688  0.74306  1.0000
  C  Sn18      1.0  0.95840  0.11384  0.68901  1.0000
  C  Sn19      1.0  0.94108  0.15693  0.70124  1.0000
  C   C82       1.0  0.88688  0.14213  0.76720  1.0000
  C  Sn20      1.0  0.84961  0.08517  0.82126  1.0000
  O  Te17      1.0  0.34297  0.98487  0.86230  1.0000
  O  Te18      1.0  0.01240  0.12759  0.62346  1.0000
  O  Te19      1.0  0.97765  0.21418  0.64790  1.0000
  O  Te20      1.0  0.79564  0.07143  0.88680  1.0000
  Mg  Mg9       1.0  0.04689  0.21155  0.56767  1.0000
  Mg  Mg10      1.0  0.27370  0.98749  0.94269  1.0000
  C  Sn21      1.0  0.95704  0.82958  0.83263  1.0000
  C   C83       1.0  0.94158  0.86617  0.75751  1.0000
  C  Sn22      1.0  0.88437  0.84297  0.69809  1.0000
  C  Sn23      1.0  0.84169  0.78194  0.71417  1.0000
  C   C84       1.0  0.85714  0.74539  0.78927  1.0000
  C  Sn24      1.0  0.91436  0.76855  0.84871  1.0000
  O  Te21      1.0  0.01450  0.85373  0.89115  1.0000
  O  Te22      1.0  0.86997  0.88042  0.62340  1.0000
  O  Te23      1.0  0.78419  0.75781  0.65557  1.0000
  O  Te24      1.0  0.92876  0.73114  0.92338  1.0000
  Mg  Mg11      1.0  0.78589  0.82672  0.56324  1.0000
  Mg  Mg12      1.0  0.01281  0.78480  0.98365  1.0000
