data_image0
_chemical_formula_structural       H30C66N12F18SnCSn2CSnTe4Mg2SnCSn2CSnTe4Mg2SnCSn2CSnTe4Mg2SnCSn2CSnTe4Mg2SnCSn2CSnTe4Mg2SnCSn2CSnTe4Mg2
_chemical_formula_sum              "H30 C78 N12 F18 Sn24 Te24 Mg12"
_cell_length_a       25.9041
_cell_length_b       25.8608
_cell_length_c       8.78026
_cell_angle_alpha    90.5055
_cell_angle_beta     89.6881
_cell_angle_gamma    119.957

_symmetry_space_group_name_H-M    'P1'
_space_group_IT_number       1

loop_
  _space_group_symop_operation_xyz
  'x, y, z'

loop_
  _atom_site_type_symbol
  _atom_site_label
  _atom_site_symmetry_multiplicity
  _atom_site_fract_x
  _atom_site_fract_y
  _atom_site_fract_z
  _atom_site_occupancy
  H   H1        1.0  0.53097  0.31834  0.31707  1.0000
  H   H2        1.0  0.68431  0.21203  0.30345  1.0000
  H   H3        1.0  0.79044  0.47354  0.31123  1.0000
  H   H4        1.0  0.42352  0.12104  0.06881  1.0000
  H   H5        1.0  0.88446  0.30879  0.07294  1.0000
  H   H6        1.0  0.69161  0.57511  0.08418  1.0000
  H   H7        1.0  0.53223  0.18212  0.03637  1.0000
  H   H8        1.0  0.82002  0.35253  0.03439  1.0000
  H   H9        1.0  0.64773  0.46661  0.04804  1.0000
  H   H10       1.0  0.33374  0.10241  0.14487  1.0000
  H   H11       1.0  0.90910  0.24257  0.19286  1.0000
  H   H12       1.0  0.76253  0.66673  0.15593  1.0000
  H   H13       1.0  0.60022  0.37629  0.16396  1.0000
  H   H14       1.0  0.62556  0.22427  0.15347  1.0000
  H   H15       1.0  0.77731  0.40172  0.15626  1.0000
  H   H16       1.0  0.52774  0.31965  0.81442  1.0000
  H   H17       1.0  0.68302  0.20974  0.80191  1.0000
  H   H18       1.0  0.78864  0.47039  0.82177  1.0000
  H   H19       1.0  0.42507  0.11538  0.60528  1.0000
  H   H20       1.0  0.88227  0.30982  0.56694  1.0000
  H   H21       1.0  0.69105  0.57681  0.61765  1.0000
  H   H22       1.0  0.53331  0.17841  0.56741  1.0000
  H   H23       1.0  0.81833  0.35481  0.54349  1.0000
  H   H24       1.0  0.64611  0.46871  0.57013  1.0000
  H   H25       1.0  0.33517  0.09517  0.68330  1.0000
  H   H26       1.0  0.89942  0.23457  0.61412  1.0000
  H   H27       1.0  0.75886  0.66634  0.73402  1.0000
  H   H28       1.0  0.59834  0.37560  0.67674  1.0000
  H   H29       1.0  0.62472  0.22420  0.66669  1.0000
  H   H30       1.0  0.77565  0.40182  0.66561  1.0000
  C   C1        1.0  0.05927  0.02892  0.26175  1.0000
  C   C2        1.0  0.97256  0.03151  0.26744  1.0000
  C   C3        1.0  0.97013  0.94244  0.28160  1.0000
  C   C4        1.0  0.60522  0.29552  0.15754  1.0000
  C   C5        1.0  0.70619  0.31005  0.15287  1.0000
  C   C6        1.0  0.69156  0.39656  0.15958  1.0000
  C   C7        1.0  0.54005  0.25601  0.17202  1.0000
  C   C8        1.0  0.74616  0.28465  0.16396  1.0000
  C   C9        1.0  0.71621  0.46166  0.17605  1.0000
  C   C10       1.0  0.50726  0.27557  0.25903  1.0000
  C   C11       1.0  0.72738  0.23211  0.24744  1.0000
  C   C12       1.0  0.76905  0.49584  0.25886  1.0000
  C   C13       1.0  0.44580  0.24177  0.27818  1.0000
  C   C14       1.0  0.76273  0.20602  0.26694  1.0000
  C   C15       1.0  0.79482  0.55725  0.27866  1.0000
  C   C16       1.0  0.41378  0.18452  0.20756  1.0000
  C   C17       1.0  0.82066  0.23342  0.20194  1.0000
  C   C18       1.0  0.76703  0.58764  0.21457  1.0000
  C   C19       1.0  0.44734  0.16458  0.12433  1.0000
  C   C20       1.0  0.84000  0.28717  0.12262  1.0000
  C   C21       1.0  0.71323  0.55262  0.13525  1.0000
  C   C22       1.0  0.50881  0.19895  0.10582  1.0000
  C   C23       1.0  0.80379  0.31215  0.10158  1.0000
  C   C24       1.0  0.68819  0.49130  0.11505  1.0000
  C   C25       1.0  0.34890  0.14530  0.20444  1.0000
  C   C26       1.0  0.86154  0.20957  0.20823  1.0000
  C   C27       1.0  0.79099  0.65241  0.21361  1.0000
  C   C28       1.0  0.41770  0.26966  0.37714  1.0000
  C   C29       1.0  0.73542  0.14930  0.36113  1.0000
  C   C30       1.0  0.85286  0.58809  0.36733  1.0000
  C   C31       1.0  0.62976  0.35776  0.15899  1.0000
  C   C32       1.0  0.64400  0.27237  0.15266  1.0000
  C   C33       1.0  0.72929  0.37205  0.15461  1.0000
  C   C34       1.0  0.05816  0.02853  0.75517  1.0000
  C   C35       1.0  0.97165  0.03124  0.74215  1.0000
  C   C36       1.0  0.96878  0.94189  0.75268  1.0000
  C   C37       1.0  0.60383  0.29504  0.67062  1.0000
  C   C38       1.0  0.70495  0.31020  0.66391  1.0000
  C   C39       1.0  0.68977  0.39626  0.67116  1.0000
  C   C40       1.0  0.53887  0.25488  0.68641  1.0000
  C   C41       1.0  0.74538  0.28547  0.67193  1.0000
  C   C42       1.0  0.71495  0.46130  0.68991  1.0000
  C   C43       1.0  0.50493  0.27518  0.76500  1.0000
  C   C44       1.0  0.72667  0.23164  0.74903  1.0000
  C   C45       1.0  0.76827  0.49403  0.77147  1.0000
  C   C46       1.0  0.44356  0.24054  0.78498  1.0000
  C   C47       1.0  0.76179  0.20513  0.76158  1.0000
  C   C48       1.0  0.79514  0.55537  0.79497  1.0000
  C   C49       1.0  0.41314  0.18130  0.72573  1.0000
  C   C50       1.0  0.81989  0.23382  0.69630  1.0000
  C   C51       1.0  0.76761  0.58689  0.73810  1.0000
  C   C52       1.0  0.44790  0.16057  0.65164  1.0000
  C   C53       1.0  0.83850  0.28816  0.62048  1.0000
  C   C54       1.0  0.71277  0.55330  0.66196  1.0000
  C   C55       1.0  0.50908  0.19608  0.63026  1.0000
  C   C56       1.0  0.80257  0.31376  0.60743  1.0000
  C   C57       1.0  0.68718  0.49220  0.63542  1.0000
  C   C58       1.0  0.34863  0.14053  0.72452  1.0000
  C   C59       1.0  0.86042  0.20975  0.68882  1.0000
  C   C60       1.0  0.79203  0.65176  0.74519  1.0000
  C   C61       1.0  0.41407  0.27095  0.86761  1.0000
  C   C62       1.0  0.73328  0.14521  0.84166  1.0000
  C   C63       1.0  0.85364  0.58393  0.88105  1.0000
  C   C64       1.0  0.62803  0.35726  0.67131  1.0000
  C   C65       1.0  0.64286  0.27224  0.66545  1.0000
  C   C66       1.0  0.72767  0.37203  0.66493  1.0000
  N   N1        1.0  0.03223  0.06193  0.25185  1.0000
  N   N2        1.0  0.93946  0.97196  0.28628  1.0000
  N   N3        1.0  0.03009  0.96895  0.27347  1.0000
  N   N4        1.0  0.31265  0.16126  0.25823  1.0000
  N   N5        1.0  0.84195  0.15376  0.22969  1.0000
  N   N6        1.0  0.84267  0.68891  0.26818  1.0000
  N   N7        1.0  0.03163  0.06194  0.74685  1.0000
  N   N8        1.0  0.93804  0.97110  0.74108  1.0000
  N   N9        1.0  0.02869  0.96847  0.76182  1.0000
  N   N10       1.0  0.31148  0.15798  0.75996  1.0000
  N   N11       1.0  0.84857  0.16129  0.75711  1.0000
  N   N12       1.0  0.84823  0.68833  0.75799  1.0000
  F   F1        1.0  0.46093  0.31780  0.45890  1.0000
  F   F2        1.0  0.68982  0.14571  0.45134  1.0000
  F   F3        1.0  0.86457  0.54697  0.43598  1.0000
  F   F4        1.0  0.37998  0.23161  0.48231  1.0000
  F   F5        1.0  0.77358  0.14584  0.45976  1.0000
  F   F6        1.0  0.85176  0.62255  0.48251  1.0000
  F   F7        1.0  0.38817  0.29161  0.29599  1.0000
  F   F8        1.0  0.71077  0.09889  0.27363  1.0000
  F   F9        1.0  0.90081  0.62190  0.27605  1.0000
  F   F10       1.0  0.45685  0.32214  0.94079  1.0000
  F   F11       1.0  0.67728  0.13025  0.89656  1.0000
  F   F12       1.0  0.85947  0.54157  0.96267  1.0000
  F   F13       1.0  0.37510  0.23727  0.97763  1.0000
  F   F14       1.0  0.76511  0.14545  0.96376  1.0000
  F   F15       1.0  0.85945  0.62534  0.98520  1.0000
  F   F16       1.0  0.38549  0.28916  0.77054  1.0000
  F   F17       1.0  0.72395  0.09899  0.74813  1.0000
  F   F18       1.0  0.90128  0.60941  0.78509  1.0000
  C  Sn1       1.0  0.20618  0.05216  0.20485  1.0000
  C   C67       1.0  0.24417  0.11389  0.21401  1.0000
  C  Sn2       1.0  0.22231  0.15116  0.26038  1.0000
  C  Sn3       1.0  0.16121  0.12622  0.29848  1.0000
  C   C68       1.0  0.12326  0.06452  0.28933  1.0000
  C  Sn4       1.0  0.14508  0.02721  0.24294  1.0000
  O  Te1       1.0  0.22900  0.01574  0.15822  1.0000
  O  Te2       1.0  0.26115  0.21274  0.26861  1.0000
  O  Te3       1.0  0.13841  0.16269  0.34512  1.0000
  O  Te4       1.0  0.60479  0.96567  0.23473  1.0000
  Mg  Mg1       1.0  0.20894  0.24384  0.33837  1.0000
  Mg  Mg2       1.0  0.65695  0.93452  0.16507  1.0000
  C  Sn5       1.0  0.86783  0.07641  0.37279  1.0000
  C   C69       1.0  0.88333  0.12767  0.28820  1.0000
  C  Sn6       1.0  0.92657  0.14577  0.17401  1.0000
  C  Sn7       1.0  0.95489  0.11190  0.14367  1.0000
  C   C70       1.0  0.93939  0.06067  0.22821  1.0000
  C  Sn8       1.0  0.89615  0.04254  0.34245  1.0000
  O  Te5       1.0  0.82448  0.05915  0.48640  1.0000
  O  Te6       1.0  0.94133  0.19719  0.09099  1.0000
  O  Te7       1.0  0.99827  0.12921  0.02996  1.0000
  O  Te8       1.0  0.37990  0.99115  0.42542  1.0000
  Mg  Mg3       1.0  0.00261  0.20528  0.94778  1.0000
  Mg  Mg4       1.0  0.31813  0.98576  0.56860  1.0000
  C  Sn9       1.0  0.96339  0.83011  0.24996  1.0000
  C   C71       1.0  0.94203  0.87007  0.24098  1.0000
  C  Sn10      1.0  0.88147  0.85018  0.26169  1.0000
  C  Sn11      1.0  0.84142  0.78908  0.29211  1.0000
  C   C72       1.0  0.86278  0.74916  0.30110  1.0000
  C  Sn12      1.0  0.92333  0.76901  0.28038  1.0000
  O  Te9       1.0  0.02410  0.85097  0.22888  1.0000
  O  Te10      1.0  0.86117  0.89097  0.25213  1.0000
  O  Te11      1.0  0.78066  0.76823  0.31319  1.0000
  O  Te12      1.0  0.94364  0.72826  0.28995  1.0000
  Mg  Mg5       1.0  0.77449  0.84100  0.28934  1.0000
  Mg  Mg6       1.0  0.03031  0.77818  0.25285  1.0000
  C  Sn13      1.0  0.16822  0.02917  0.77687  1.0000
  C   C73       1.0  0.13085  0.05330  0.79563  1.0000
  C  Sn14      1.0  0.15338  0.11462  0.78076  1.0000
  C  Sn15      1.0  0.21452  0.15263  0.74632  1.0000
  C   C74       1.0  0.25185  0.12850  0.72755  1.0000
  C  Sn16      1.0  0.22937  0.06718  0.74243  1.0000
  O  Te13      1.0  0.64325  0.96773  0.79225  1.0000
  O  Te14      1.0  0.11515  0.13770  0.80008  1.0000
  O  Te15      1.0  0.23798  0.21411  0.73095  1.0000
  O  Te16      1.0  0.26755  0.04410  0.72310  1.0000
  Mg  Mg7       1.0  0.16814  0.22433  0.76769  1.0000
  Mg  Mg8       1.0  0.71312  0.95747  0.75538  1.0000
  C  Sn17      1.0  0.97432  0.14231  0.74203  1.0000
  C   C75       1.0  0.95029  0.08193  0.77654  1.0000
  C  Sn18      1.0  0.88861  0.04429  0.78425  1.0000
  C  Sn19      1.0  0.85015  0.06747  0.75680  1.0000
  C   C76       1.0  0.87418  0.12781  0.72230  1.0000
  C  Sn20      1.0  0.93586  0.16549  0.71459  1.0000
  O  Te17      1.0  0.03611  0.17913  0.73492  1.0000
  O  Te18      1.0  0.36415  0.98409  0.81900  1.0000
  O  Te19      1.0  0.78832  0.03060  0.76395  1.0000
  O  Te20      1.0  0.95883  0.22566  0.67984  1.0000
  Mg  Mg9       1.0  0.27691  0.95177  0.81538  1.0000
  Mg  Mg10      1.0  0.04605  0.25801  0.68335  1.0000
  C  Sn21      1.0  0.96505  0.83178  0.79234  1.0000
  C   C77       1.0  0.94694  0.86965  0.72966  1.0000
  C  Sn22      1.0  0.88749  0.84760  0.68871  1.0000
  C  Sn23      1.0  0.84525  0.78644  0.71097  1.0000
  C   C78       1.0  0.86337  0.74862  0.77364  1.0000
  C  Sn24      1.0  0.92282  0.77063  0.81460  1.0000
  O  Te21      1.0  0.02471  0.85479  0.83245  1.0000
  O  Te22      1.0  0.87045  0.88632  0.62620  1.0000
  O  Te23      1.0  0.78556  0.76346  0.67080  1.0000
  O  Te24      1.0  0.93986  0.73195  0.87710  1.0000
  Mg  Mg11      1.0  0.78404  0.83387  0.58978  1.0000
  Mg  Mg12      1.0  0.02624  0.78435  0.91363  1.0000
