data_image0
_chemical_formula_structural       H36C60N12O6C2Sn2C2HTe2HMgC2Sn2C2HTe2HMgC2Sn2C2HTe2HMgC2Sn2C2HTe2HMgC2Sn2C2HTe2HMgC2Sn2C2HTe2HMg
_chemical_formula_sum              "H48 C84 N12 O6 Sn12 Te12 Mg6"
_cell_length_a       25.7447
_cell_length_b       25.8615
_cell_length_c       7.87903
_cell_angle_alpha    92.3479
_cell_angle_beta     88.5665
_cell_angle_gamma    120.25

_symmetry_space_group_name_H-M    'P1'
_space_group_IT_number       1

loop_
  _space_group_symop_operation_xyz
  'x, y, z'

loop_
  _atom_site_type_symbol
  _atom_site_label
  _atom_site_symmetry_multiplicity
  _atom_site_fract_x
  _atom_site_fract_y
  _atom_site_fract_z
  _atom_site_occupancy
  H   H1        1.0  0.33318  0.23903  0.18254  1.0000
  H   H2        1.0  0.76897  0.10209  0.12945  1.0000
  H   H3        1.0  0.90294  0.67159  0.16997  1.0000
  H   H4        1.0  0.51843  0.20366  0.38107  1.0000
  H   H5        1.0  0.79981  0.31768  0.39950  1.0000
  H   H6        1.0  0.68983  0.48598  0.42689  1.0000
  H   H7        1.0  0.54529  0.36594  0.16058  1.0000
  H   H8        1.0  0.64351  0.18764  0.11553  1.0000
  H   H9        1.0  0.82145  0.46058  0.14142  1.0000
  H   H10       1.0  0.43556  0.32234  0.14704  1.0000
  H   H11       1.0  0.68709  0.12175  0.08765  1.0000
  H   H12       1.0  0.88614  0.57011  0.12484  1.0000
  H   H13       1.0  0.60088  0.22714  0.26133  1.0000
  H   H14       1.0  0.77999  0.37854  0.27916  1.0000
  H   H15       1.0  0.62882  0.40562  0.28425  1.0000
  H   H16       1.0  0.36058  0.13887  0.34975  1.0000
  H   H17       1.0  0.86526  0.22561  0.34447  1.0000
  H   H18       1.0  0.77740  0.64286  0.38378  1.0000
  H   H19       1.0  0.32834  0.21565  0.65686  1.0000
  H   H20       1.0  0.77562  0.10574  0.61552  1.0000
  H   H21       1.0  0.89304  0.66614  0.66545  1.0000
  H   H22       1.0  0.51855  0.20319  0.93124  1.0000
  H   H23       1.0  0.79656  0.31415  0.91217  1.0000
  H   H24       1.0  0.68164  0.47967  0.92824  1.0000
  H   H25       1.0  0.53838  0.34683  0.62454  1.0000
  H   H26       1.0  0.64651  0.18643  0.60445  1.0000
  H   H27       1.0  0.81394  0.45659  0.63882  1.0000
  H   H28       1.0  0.42793  0.29815  0.60557  1.0000
  H   H29       1.0  0.69340  0.12346  0.57102  1.0000
  H   H30       1.0  0.87697  0.56637  0.62022  1.0000
  H   H31       1.0  0.59925  0.22060  0.76998  1.0000
  H   H32       1.0  0.77636  0.37546  0.77866  1.0000
  H   H33       1.0  0.62092  0.39648  0.78730  1.0000
  H   H34       1.0  0.35927  0.13007  0.89539  1.0000
  H   H35       1.0  0.86673  0.22641  0.85587  1.0000
  H   H36       1.0  0.76901  0.63763  0.88234  1.0000
  C   C1        1.0  0.05901  0.03212  0.23038  1.0000
  C   C2        1.0  0.96997  0.03054  0.21461  1.0000
  C   C3        1.0  0.97068  0.94300  0.22669  1.0000
  C   C4        1.0  0.35021  0.21208  0.23755  1.0000
  C   C5        1.0  0.79453  0.14479  0.20107  1.0000
  C   C6        1.0  0.85993  0.65436  0.23825  1.0000
  C   C7        1.0  0.41419  0.23817  0.25277  1.0000
  C   C8        1.0  0.76821  0.18206  0.22460  1.0000
  C   C9        1.0  0.82423  0.59075  0.25938  1.0000
  C   C10       1.0  0.43904  0.20464  0.31836  1.0000
  C   C11       1.0  0.80040  0.23901  0.31137  1.0000
  C   C12       1.0  0.76758  0.56558  0.34517  1.0000
  C   C13       1.0  0.50159  0.23022  0.32621  1.0000
  C   C14       1.0  0.77459  0.27540  0.32879  1.0000
  C   C15       1.0  0.73192  0.50340  0.35670  1.0000
  C   C16       1.0  0.54068  0.28799  0.27031  1.0000
  C   C17       1.0  0.71817  0.25746  0.26046  1.0000
  C   C18       1.0  0.75003  0.46502  0.28219  1.0000
  C   C19       1.0  0.51589  0.32141  0.20760  1.0000
  C   C20       1.0  0.68624  0.20095  0.17510  1.0000
  C   C21       1.0  0.80697  0.48985  0.20143  1.0000
  C   C22       1.0  0.45417  0.29675  0.19898  1.0000
  C   C23       1.0  0.71110  0.16444  0.15765  1.0000
  C   C24       1.0  0.84296  0.55138  0.19051  1.0000
  C   C25       1.0  0.60661  0.31321  0.27558  1.0000
  C   C26       1.0  0.69319  0.29791  0.27191  1.0000
  C   C27       1.0  0.70905  0.39948  0.28347  1.0000
  C   C28       1.0  0.63097  0.27529  0.26976  1.0000
  C   C29       1.0  0.73163  0.36022  0.27956  1.0000
  C   C30       1.0  0.64646  0.37528  0.28260  1.0000
  C   C31       1.0  0.05654  0.02467  0.71375  1.0000
  C   C32       1.0  0.96942  0.02694  0.69835  1.0000
  C   C33       1.0  0.96647  0.93746  0.70822  1.0000
  C   C34       1.0  0.34601  0.19377  0.73499  1.0000
  C   C35       1.0  0.79975  0.14716  0.69361  1.0000
  C   C36       1.0  0.85034  0.64912  0.73542  1.0000
  C   C37       1.0  0.41006  0.22309  0.75600  1.0000
  C   C38       1.0  0.77180  0.18293  0.71996  1.0000
  C   C39       1.0  0.81536  0.58565  0.75966  1.0000
  C   C40       1.0  0.43666  0.19605  0.84807  1.0000
  C   C41       1.0  0.80100  0.23804  0.81662  1.0000
  C   C42       1.0  0.75913  0.56011  0.84735  1.0000
  C   C43       1.0  0.49942  0.22418  0.85804  1.0000
  C   C44       1.0  0.77372  0.27310  0.83476  1.0000
  C   C45       1.0  0.72401  0.49772  0.85914  1.0000
  C   C46       1.0  0.53648  0.27843  0.77917  1.0000
  C   C47       1.0  0.71813  0.25499  0.76032  1.0000
  C   C48       1.0  0.74293  0.45989  0.78435  1.0000
  C   C49       1.0  0.51006  0.30592  0.69159  1.0000
  C   C50       1.0  0.68873  0.19984  0.66727  1.0000
  C   C51       1.0  0.79951  0.48544  0.70176  1.0000
  C   C52       1.0  0.44814  0.27827  0.67966  1.0000
  C   C53       1.0  0.71539  0.16499  0.64723  1.0000
  C   C54       1.0  0.83456  0.54695  0.68983  1.0000
  C   C55       1.0  0.60258  0.30553  0.78225  1.0000
  C   C56       1.0  0.69106  0.29365  0.77452  1.0000
  C   C57       1.0  0.70347  0.39404  0.78580  1.0000
  C   C58       1.0  0.62847  0.26897  0.77622  1.0000
  C   C59       1.0  0.72784  0.35619  0.78080  1.0000
  C   C60       1.0  0.64063  0.36787  0.78615  1.0000
  N   N1        1.0  0.03048  0.06354  0.22191  1.0000
  N   N2        1.0  0.93802  0.97022  0.21375  1.0000
  N   N3        1.0  0.03124  0.97192  0.23434  1.0000
  N   N4        1.0  0.31385  0.15707  0.28204  1.0000
  N   N5        1.0  0.84828  0.16238  0.25817  1.0000
  N   N6        1.0  0.84072  0.69024  0.29163  1.0000
  N   N7        1.0  0.03001  0.05801  0.70521  1.0000
  N   N8        1.0  0.93563  0.96662  0.69734  1.0000
  N   N9        1.0  0.02688  0.96436  0.71505  1.0000
  N   N10       1.0  0.30990  0.14175  0.79910  1.0000
  N   N11       1.0  0.85274  0.16406  0.75533  1.0000
  N   N12       1.0  0.83120  0.68518  0.78756  1.0000
  O   O1        1.0  0.40388  0.14901  0.37402  1.0000
  O   O2        1.0  0.85508  0.25860  0.37633  1.0000
  O   O3        1.0  0.74703  0.60004  0.41613  1.0000
  O   O4        1.0  0.40280  0.14364  0.92466  1.0000
  O   O5        1.0  0.85438  0.25728  0.89110  1.0000
  O   O6        1.0  0.73883  0.59491  0.91738  1.0000
  C   C61       1.0  0.20625  0.05315  0.21399  1.0000
  C   C62       1.0  0.24473  0.11425  0.24830  1.0000
  C  Sn1       1.0  0.22121  0.15162  0.28774  1.0000
  C  Sn2       1.0  0.15799  0.12722  0.29285  1.0000
  C   C63       1.0  0.11988  0.06602  0.25844  1.0000
  C   C64       1.0  0.14388  0.02904  0.21907  1.0000
  H   H37       1.0  0.22482  0.02452  0.18361  1.0000
  O  Te1       1.0  0.26030  0.21257  0.32163  1.0000
  O  Te2       1.0  0.13329  0.16354  0.33198  1.0000
  H   H38       1.0  0.62014  0.98172  0.19261  1.0000
  Mg  Mg1       1.0  0.20504  0.24384  0.36863  1.0000
  C   C65       1.0  0.95273  0.15798  0.21047  1.0000
  C   C66       1.0  0.89095  0.13600  0.22617  1.0000
  C  Sn3       1.0  0.85124  0.07476  0.24376  1.0000
  C  Sn4       1.0  0.87394  0.03490  0.24567  1.0000
  C   C67       1.0  0.93582  0.05733  0.23000  1.0000
  C   C68       1.0  0.97515  0.11869  0.21241  1.0000
  H   H39       1.0  0.98317  0.20545  0.19695  1.0000
  O  Te3       1.0  0.78965  0.05356  0.25924  1.0000
  O  Te4       1.0  0.34132  0.97349  0.26315  1.0000
  H   H40       1.0  0.02298  0.13569  0.20037  1.0000
  Mg  Mg2       1.0  0.26102  0.96615  0.28005  1.0000
  C   C69       1.0  0.96782  0.83431  0.30584  1.0000
  C   C70       1.0  0.94728  0.87044  0.24222  1.0000
  C  Sn5       1.0  0.88684  0.84581  0.19925  1.0000
  C  Sn6       1.0  0.84630  0.78385  0.22055  1.0000
  C   C71       1.0  0.86728  0.74810  0.28441  1.0000
  C   C72       1.0  0.92786  0.77320  0.32695  1.0000
  H   H41       1.0  0.01468  0.85374  0.33885  1.0000
  O  Te5       1.0  0.86708  0.88254  0.13579  1.0000
  O  Te6       1.0  0.78565  0.75808  0.17867  1.0000
  H   H42       1.0  0.94374  0.74523  0.37631  1.0000
  Mg  Mg3       1.0  0.78026  0.82659  0.09678  1.0000
  C   C73       1.0  0.20255  0.14691  0.80410  1.0000
  C   C74       1.0  0.24046  0.12279  0.79421  1.0000
  C  Sn7       1.0  0.21804  0.06313  0.74085  1.0000
  C  Sn8       1.0  0.15651  0.02706  0.69660  1.0000
  C   C75       1.0  0.11896  0.05162  0.70681  1.0000
  C   C76       1.0  0.14186  0.11137  0.76042  1.0000
  H   H43       1.0  0.22027  0.19314  0.84549  1.0000
  O  Te7       1.0  0.25653  0.03975  0.73175  1.0000
  O  Te8       1.0  0.63899  0.96731  0.64281  1.0000
  H   H44       1.0  0.11251  0.13004  0.76796  1.0000
  Mg  Mg4       1.0  0.70934  0.95585  0.65126  1.0000
  C   C77       1.0  0.97103  0.13867  0.67920  1.0000
  C   C78       1.0  0.94813  0.07776  0.70446  1.0000
  C  Sn9       1.0  0.88705  0.04036  0.73946  1.0000
  C  Sn10      1.0  0.84828  0.06452  0.74922  1.0000
  C   C79       1.0  0.87162  0.12551  0.72364  1.0000
  C   C80       1.0  0.93281  0.16253  0.68874  1.0000
  H   H45       1.0  0.01837  0.16731  0.65211  1.0000
  O  Te9       1.0  0.37099  0.97961  0.76442  1.0000
  O  Te10      1.0  0.78705  0.02815  0.78395  1.0000
  H   H46       1.0  0.95052  0.20968  0.66909  1.0000
  Mg  Mg5       1.0  0.28425  0.94819  0.80846  1.0000
  C   C81       1.0  0.83752  0.79127  0.69540  1.0000
  C   C82       1.0  0.85811  0.75309  0.74130  1.0000
  C  Sn11      1.0  0.91818  0.77645  0.78650  1.0000
  C  Sn12      1.0  0.95827  0.83922  0.78565  1.0000
  C   C83       1.0  0.93723  0.87705  0.73965  1.0000
  C   C84       1.0  0.87703  0.85320  0.69459  1.0000
  H   H47       1.0  0.79094  0.77283  0.66062  1.0000
  O  Te11      1.0  0.93800  0.73766  0.83196  1.0000
  O  Te12      1.0  0.01853  0.86377  0.83033  1.0000
  H   H48       1.0  0.86110  0.88277  0.65917  1.0000
  Mg  Mg6       1.0  0.02419  0.79255  0.88280  1.0000
