data_image0
_chemical_formula_structural       H48C78N12O6C2Sn2C2HTe2HMgC2Sn2C2HTe2HMgC2Sn2C2HTe2HMg
_chemical_formula_sum              "H54 C90 N12 O6 Sn6 Te6 Mg3"
_cell_length_a       25.7447
_cell_length_b       25.8615
_cell_length_c       7.87903
_cell_angle_alpha    92.3479
_cell_angle_beta     88.5665
_cell_angle_gamma    120.25

_symmetry_space_group_name_H-M    'P1'
_space_group_IT_number       1

loop_
  _space_group_symop_operation_xyz
  'x, y, z'

loop_
  _atom_site_type_symbol
  _atom_site_label
  _atom_site_symmetry_multiplicity
  _atom_site_fract_x
  _atom_site_fract_y
  _atom_site_fract_z
  _atom_site_occupancy
  H   H1        1.0  0.01634  0.14838  0.17819  1.0000
  H   H2        1.0  0.85279  0.86658  0.16677  1.0000
  H   H3        1.0  0.96175  0.20594  0.20295  1.0000
  H   H4        1.0  0.79692  0.75516  0.19662  1.0000
  H   H5        1.0  0.79588  0.04165  0.28270  1.0000
  H   H6        1.0  0.95984  0.76375  0.35442  1.0000
  H   H7        1.0  0.85087  0.98487  0.25691  1.0000
  H   H8        1.0  0.01520  0.87476  0.32140  1.0000
  H   H9        1.0  0.33318  0.23903  0.18254  1.0000
  H   H10       1.0  0.76897  0.10209  0.12945  1.0000
  H   H11       1.0  0.90294  0.67159  0.16997  1.0000
  H   H12       1.0  0.51843  0.20366  0.38107  1.0000
  H   H13       1.0  0.79981  0.31768  0.39950  1.0000
  H   H14       1.0  0.68983  0.48598  0.42689  1.0000
  H   H15       1.0  0.54529  0.36594  0.16058  1.0000
  H   H16       1.0  0.64351  0.18764  0.11553  1.0000
  H   H17       1.0  0.82145  0.46058  0.14142  1.0000
  H   H18       1.0  0.43556  0.32234  0.14704  1.0000
  H   H19       1.0  0.68709  0.12175  0.08765  1.0000
  H   H20       1.0  0.88614  0.57011  0.12484  1.0000
  H   H21       1.0  0.60088  0.22714  0.26133  1.0000
  H   H22       1.0  0.77999  0.37854  0.27916  1.0000
  H   H23       1.0  0.62882  0.40562  0.28425  1.0000
  H   H24       1.0  0.36058  0.13887  0.34975  1.0000
  H   H25       1.0  0.86526  0.22561  0.34447  1.0000
  H   H26       1.0  0.77740  0.64286  0.38378  1.0000
  H   H27       1.0  0.84910  0.86241  0.63581  1.0000
  H   H28       1.0  0.79014  0.75152  0.67362  1.0000
  H   H29       1.0  0.94912  0.75693  0.85311  1.0000
  H   H30       1.0  0.00758  0.86743  0.81331  1.0000
  H   H31       1.0  0.32834  0.21565  0.65686  1.0000
  H   H32       1.0  0.77562  0.10574  0.61552  1.0000
  H   H33       1.0  0.89304  0.66614  0.66545  1.0000
  H   H34       1.0  0.51855  0.20319  0.93124  1.0000
  H   H35       1.0  0.79656  0.31415  0.91217  1.0000
  H   H36       1.0  0.68164  0.47967  0.92824  1.0000
  H   H37       1.0  0.53838  0.34683  0.62454  1.0000
  H   H38       1.0  0.64651  0.18643  0.60445  1.0000
  H   H39       1.0  0.81394  0.45659  0.63882  1.0000
  H   H40       1.0  0.42793  0.29815  0.60557  1.0000
  H   H41       1.0  0.69340  0.12346  0.57102  1.0000
  H   H42       1.0  0.87697  0.56637  0.62022  1.0000
  H   H43       1.0  0.59925  0.22060  0.76998  1.0000
  H   H44       1.0  0.77636  0.37546  0.77866  1.0000
  H   H45       1.0  0.62092  0.39648  0.78730  1.0000
  H   H46       1.0  0.35927  0.13007  0.89539  1.0000
  H   H47       1.0  0.86673  0.22641  0.85587  1.0000
  H   H48       1.0  0.76901  0.63763  0.88234  1.0000
  C   C1        1.0  0.05901  0.03212  0.23038  1.0000
  C   C2        1.0  0.96997  0.03054  0.21461  1.0000
  C   C3        1.0  0.97068  0.94300  0.22669  1.0000
  C   C4        1.0  0.93679  0.06317  0.21446  1.0000
  C   C5        1.0  0.93789  0.87725  0.23801  1.0000
  C   C6        1.0  0.96804  0.12568  0.19868  1.0000
  C   C7        1.0  0.87588  0.84342  0.20454  1.0000
  C   C8        1.0  0.93794  0.15748  0.21277  1.0000
  C   C9        1.0  0.84484  0.78182  0.22205  1.0000
  C   C10       1.0  0.87538  0.12732  0.23982  1.0000
  C   C11       1.0  0.87500  0.75222  0.27170  1.0000
  C   C12       1.0  0.84384  0.06470  0.25481  1.0000
  C   C13       1.0  0.93692  0.78597  0.30734  1.0000
  C   C14       1.0  0.87432  0.03306  0.24192  1.0000
  C   C15       1.0  0.96776  0.84776  0.29020  1.0000
  C   C16       1.0  0.35021  0.21208  0.23755  1.0000
  C   C17       1.0  0.79453  0.14479  0.20107  1.0000
  C   C18       1.0  0.85993  0.65436  0.23825  1.0000
  C   C19       1.0  0.41419  0.23817  0.25277  1.0000
  C   C20       1.0  0.76821  0.18206  0.22460  1.0000
  C   C21       1.0  0.82423  0.59075  0.25938  1.0000
  C   C22       1.0  0.43904  0.20464  0.31836  1.0000
  C   C23       1.0  0.80040  0.23901  0.31137  1.0000
  C   C24       1.0  0.76758  0.56558  0.34517  1.0000
  C   C25       1.0  0.50159  0.23022  0.32621  1.0000
  C   C26       1.0  0.77459  0.27540  0.32879  1.0000
  C   C27       1.0  0.73192  0.50340  0.35670  1.0000
  C   C28       1.0  0.54068  0.28799  0.27031  1.0000
  C   C29       1.0  0.71817  0.25746  0.26046  1.0000
  C   C30       1.0  0.75003  0.46502  0.28219  1.0000
  C   C31       1.0  0.51589  0.32141  0.20760  1.0000
  C   C32       1.0  0.68624  0.20095  0.17510  1.0000
  C   C33       1.0  0.80697  0.48985  0.20143  1.0000
  C   C34       1.0  0.45417  0.29675  0.19898  1.0000
  C   C35       1.0  0.71110  0.16444  0.15765  1.0000
  C   C36       1.0  0.84296  0.55138  0.19051  1.0000
  C   C37       1.0  0.60661  0.31321  0.27558  1.0000
  C   C38       1.0  0.69319  0.29791  0.27191  1.0000
  C   C39       1.0  0.70905  0.39948  0.28347  1.0000
  C   C40       1.0  0.63097  0.27529  0.26976  1.0000
  C   C41       1.0  0.73163  0.36022  0.27956  1.0000
  C   C42       1.0  0.64646  0.37528  0.28260  1.0000
  C   C43       1.0  0.05654  0.02467  0.71375  1.0000
  C   C44       1.0  0.96942  0.02694  0.69835  1.0000
  C   C45       1.0  0.96647  0.93746  0.70822  1.0000
  C   C46       1.0  0.93204  0.87175  0.72176  1.0000
  C   C47       1.0  0.87045  0.83875  0.68286  1.0000
  C   C48       1.0  0.83774  0.77726  0.70411  1.0000
  C   C49       1.0  0.86601  0.74700  0.76315  1.0000
  C   C50       1.0  0.92767  0.77992  0.80178  1.0000
  C   C51       1.0  0.96017  0.84148  0.78105  1.0000
  C   C52       1.0  0.34601  0.19377  0.73499  1.0000
  C   C53       1.0  0.79975  0.14716  0.69361  1.0000
  C   C54       1.0  0.85034  0.64912  0.73542  1.0000
  C   C55       1.0  0.41006  0.22309  0.75600  1.0000
  C   C56       1.0  0.77180  0.18293  0.71996  1.0000
  C   C57       1.0  0.81536  0.58565  0.75966  1.0000
  C   C58       1.0  0.43666  0.19605  0.84807  1.0000
  C   C59       1.0  0.80100  0.23804  0.81662  1.0000
  C   C60       1.0  0.75913  0.56011  0.84735  1.0000
  C   C61       1.0  0.49942  0.22418  0.85804  1.0000
  C   C62       1.0  0.77372  0.27310  0.83476  1.0000
  C   C63       1.0  0.72401  0.49772  0.85914  1.0000
  C   C64       1.0  0.53648  0.27843  0.77917  1.0000
  C   C65       1.0  0.71813  0.25499  0.76032  1.0000
  C   C66       1.0  0.74293  0.45989  0.78435  1.0000
  C   C67       1.0  0.51006  0.30592  0.69159  1.0000
  C   C68       1.0  0.68873  0.19984  0.66727  1.0000
  C   C69       1.0  0.79951  0.48544  0.70176  1.0000
  C   C70       1.0  0.44814  0.27827  0.67966  1.0000
  C   C71       1.0  0.71539  0.16499  0.64723  1.0000
  C   C72       1.0  0.83456  0.54695  0.68983  1.0000
  C   C73       1.0  0.60258  0.30553  0.78225  1.0000
  C   C74       1.0  0.69106  0.29365  0.77452  1.0000
  C   C75       1.0  0.70347  0.39404  0.78580  1.0000
  C   C76       1.0  0.62847  0.26897  0.77622  1.0000
  C   C77       1.0  0.72784  0.35619  0.78080  1.0000
  C   C78       1.0  0.64063  0.36787  0.78615  1.0000
  N   N1        1.0  0.03048  0.06354  0.22191  1.0000
  N   N2        1.0  0.93802  0.97022  0.21375  1.0000
  N   N3        1.0  0.03124  0.97192  0.23434  1.0000
  N   N4        1.0  0.31385  0.15707  0.28204  1.0000
  N   N5        1.0  0.84828  0.16238  0.25817  1.0000
  N   N6        1.0  0.84072  0.69024  0.29163  1.0000
  N   N7        1.0  0.03001  0.05801  0.70521  1.0000
  N   N8        1.0  0.93563  0.96662  0.69734  1.0000
  N   N9        1.0  0.02688  0.96436  0.71505  1.0000
  N   N10       1.0  0.30990  0.14175  0.79910  1.0000
  N   N11       1.0  0.85274  0.16406  0.75533  1.0000
  N   N12       1.0  0.83120  0.68518  0.78756  1.0000
  O   O1        1.0  0.40388  0.14901  0.37402  1.0000
  O   O2        1.0  0.85508  0.25860  0.37633  1.0000
  O   O3        1.0  0.74703  0.60004  0.41613  1.0000
  O   O4        1.0  0.40280  0.14364  0.92466  1.0000
  O   O5        1.0  0.85438  0.25728  0.89110  1.0000
  O   O6        1.0  0.73883  0.59491  0.91738  1.0000
  C   C79       1.0  0.20111  0.03931  0.71591  1.0000
  C   C80       1.0  0.24107  0.09970  0.75572  1.0000
  C  Sn1       1.0  0.21949  0.13886  0.79218  1.0000
  C  Sn2       1.0  0.15671  0.11702  0.78866  1.0000
  C   C81       1.0  0.11710  0.05652  0.74881  1.0000
  C   C82       1.0  0.13918  0.01773  0.71248  1.0000
  H   H49       1.0  0.21819  0.00929  0.68789  1.0000
  O  Te1       1.0  0.26004  0.19906  0.83164  1.0000
  O  Te2       1.0  0.13392  0.15518  0.82465  1.0000
  H   H50       1.0  0.61429  0.97097  0.68177  1.0000
  Mg  Mg1       1.0  0.20716  0.23352  0.87136  1.0000
  C   C83       1.0  0.17275  0.03713  0.19747  1.0000
  C   C84       1.0  0.13189  0.05620  0.23985  1.0000
  C  Sn3       1.0  0.15253  0.11558  0.29297  1.0000
  C  Sn4       1.0  0.21526  0.15652  0.30368  1.0000
  C   C85       1.0  0.25577  0.13702  0.26089  1.0000
  C   C86       1.0  0.23463  0.07749  0.20794  1.0000
  H   H51       1.0  0.66247  0.99109  0.15642  1.0000
  O  Te3       1.0  0.11108  0.13387  0.33489  1.0000
  O  Te4       1.0  0.23711  0.21613  0.35633  1.0000
  H   H52       1.0  0.26628  0.06275  0.17504  1.0000
  Mg  Mg2       1.0  0.16286  0.21967  0.39988  1.0000
  C   C87       1.0  0.97103  0.13867  0.67920  1.0000
  C   C88       1.0  0.94813  0.07776  0.70446  1.0000
  C  Sn5       1.0  0.88705  0.04036  0.73946  1.0000
  C  Sn6       1.0  0.84828  0.06452  0.74922  1.0000
  C   C89       1.0  0.87162  0.12551  0.72364  1.0000
  C   C90       1.0  0.93281  0.16253  0.68874  1.0000
  H   H53       1.0  0.01837  0.16731  0.65211  1.0000
  O  Te5       1.0  0.37099  0.97961  0.76442  1.0000
  O  Te6       1.0  0.78705  0.02815  0.78395  1.0000
  H   H54       1.0  0.95052  0.20968  0.66909  1.0000
  Mg  Mg3       1.0  0.28425  0.94819  0.80846  1.0000
