data_image0
_chemical_formula_structural       H48C84S12N12SnCSn2CSnTe4Mg2SnCSn2CSnTe4Mg2SnCSn2CSnTe4Mg2SnCSn2CSnTe4Mg2SnCSn2CSnTe4Mg2SnCSn2CSnTe4Mg2SnCSn2CSnTe4Mg2SnCSn2CSnTe4Mg2SnCSn2CSnTe4Mg2SnCSn2CSnTe4Mg2SnCSn2CSnTe4Mg2SnCSn2CSnTe4Mg2
_chemical_formula_sum              "H48 C108 S12 N12 Sn48 Te48 Mg24"
_cell_length_a       42.7425
_cell_length_b       42.7603
_cell_length_c       8.17953
_cell_angle_alpha    61.902
_cell_angle_beta     114.539
_cell_angle_gamma    119.927

_symmetry_space_group_name_H-M    'P1'
_space_group_IT_number       1

loop_
  _space_group_symop_operation_xyz
  'x, y, z'

loop_
  _atom_site_type_symbol
  _atom_site_label
  _atom_site_symmetry_multiplicity
  _atom_site_fract_x
  _atom_site_fract_y
  _atom_site_fract_z
  _atom_site_occupancy
  H   H1        1.0  0.29604  0.59784  0.98084  1.0000
  H   H2        1.0  0.39542  0.69869  0.93627  1.0000
  H   H3        1.0  0.30209  0.69686  0.02448  1.0000
  H   H4        1.0  0.70785  0.39452  0.04100  1.0000
  H   H5        1.0  0.60011  0.30481  0.02167  1.0000
  H   H6        1.0  0.68956  0.29280  0.97505  1.0000
  H   H7        1.0  0.64105  0.49782  0.02665  1.0000
  H   H8        1.0  0.50013  0.13492  0.02323  1.0000
  H   H9        1.0  0.85535  0.36626  0.93071  1.0000
  H   H10       1.0  0.59279  0.58243  0.01955  1.0000
  H   H11       1.0  0.41576  0.00475  0.01376  1.0000
  H   H12       1.0  0.98822  0.40832  0.96772  1.0000
  H   H13       1.0  0.63966  0.55914  0.02210  1.0000
  H   H14       1.0  0.44019  0.07413  0.02121  1.0000
  H   H15       1.0  0.91710  0.36539  0.93841  1.0000
  H   H16       1.0  0.42657  0.49602  0.00773  1.0000
  H   H17       1.0  0.49684  0.92680  0.95839  1.0000
  H   H18       1.0  0.07416  0.56656  0.06266  1.0000
  H   H19       1.0  0.47378  0.47346  0.00544  1.0000
  H   H20       1.0  0.52112  0.99740  0.95319  1.0000
  H   H21       1.0  0.00385  0.52123  0.05939  1.0000
  H   H22       1.0  0.47328  0.60221  0.00527  1.0000
  H   H23       1.0  0.39581  0.86429  0.04212  1.0000
  H   H24       1.0  0.12612  0.52564  0.95861  1.0000
  H   H25       1.0  0.30077  0.60194  0.50572  1.0000
  H   H26       1.0  0.39984  0.70335  0.46443  1.0000
  H   H27       1.0  0.29958  0.70630  0.44855  1.0000
  H   H28       1.0  0.70842  0.40233  0.48770  1.0000
  H   H29       1.0  0.60403  0.30814  0.53240  1.0000
  H   H30       1.0  0.69569  0.29294  0.53150  1.0000
  H   H31       1.0  0.63980  0.50136  0.49706  1.0000
  H   H32       1.0  0.50268  0.14055  0.51835  1.0000
  H   H33       1.0  0.86007  0.36660  0.45266  1.0000
  H   H34       1.0  0.59413  0.58565  0.50897  1.0000
  H   H35       1.0  0.41721  0.01038  0.50609  1.0000
  H   H36       1.0  0.99274  0.40967  0.48840  1.0000
  H   H37       1.0  0.63979  0.56148  0.50626  1.0000
  H   H38       1.0  0.44175  0.07976  0.51426  1.0000
  H   H39       1.0  0.92180  0.36616  0.46204  1.0000
  H   H40       1.0  0.42860  0.50087  0.51224  1.0000
  H   H41       1.0  0.49938  0.93044  0.47741  1.0000
  H   H42       1.0  0.07523  0.57375  0.51011  1.0000
  H   H43       1.0  0.47460  0.47713  0.50733  1.0000
  H   H44       1.0  0.52351  0.00175  0.46290  1.0000
  H   H45       1.0  0.00400  0.52985  0.48349  1.0000
  H   H46       1.0  0.47642  0.60739  0.50463  1.0000
  H   H47       1.0  0.39517  0.87154  0.51988  1.0000
  H   H48       1.0  0.13377  0.52166  0.54826  1.0000
  C   C1        1.0  0.34845  0.64537  0.96810  1.0000
  C   C2        1.0  0.35113  0.70328  0.97630  1.0000
  C   C3        1.0  0.29354  0.64563  0.99502  1.0000
  C   C4        1.0  0.31119  0.62720  0.97986  1.0000
  C   C5        1.0  0.36750  0.68381  0.95925  1.0000
  C   C6        1.0  0.31436  0.68333  0.99755  1.0000
  C   C7        1.0  0.65167  0.35339  0.02301  1.0000
  C   C8        1.0  0.64206  0.29330  0.00509  1.0000
  C   C9        1.0  0.70339  0.34555  0.00748  1.0000
  C   C10       1.0  0.68915  0.36688  0.02441  1.0000
  C   C11       1.0  0.62886  0.31618  0.01709  1.0000
  C   C12       1.0  0.67932  0.30893  0.99639  1.0000
  C   C13       1.0  0.61105  0.48298  0.01883  1.0000
  C   C14       1.0  0.51509  0.12251  0.00455  1.0000
  C   C15       1.0  0.87149  0.39279  0.96607  1.0000
  C   C16       1.0  0.54942  0.52649  0.01498  1.0000
  C   C17       1.0  0.47088  0.01830  0.99388  1.0000
  C   C18       1.0  0.97754  0.45036  0.99564  1.0000
  C   C19       1.0  0.58541  0.55433  0.01758  1.0000
  C   C20       1.0  0.44373  0.02584  0.00530  1.0000
  C   C21       1.0  0.96813  0.41596  0.97413  1.0000
  C   C22       1.0  0.61046  0.54180  0.02083  1.0000
  C   C23       1.0  0.45661  0.06292  0.00827  1.0000
  C   C24       1.0  0.93013  0.39303  0.95783  1.0000
  C   C25       1.0  0.59394  0.50433  0.01946  1.0000
  C   C26       1.0  0.49369  0.08441  0.99809  1.0000
  C   C27       1.0  0.91012  0.40926  0.96938  1.0000
  C   C28       1.0  0.47224  0.55010  0.01770  1.0000
  C   C29       1.0  0.44480  0.91620  0.99779  1.0000
  C   C30       1.0  0.08009  0.52425  0.01426  1.0000
  C   C31       1.0  0.45594  0.51296  0.01275  1.0000
  C   C32       1.0  0.48107  0.93829  0.97459  1.0000
  C   C33       1.0  0.06074  0.53903  0.04176  1.0000
  C   C34       1.0  0.48110  0.50124  0.01099  1.0000
  C   C35       1.0  0.49373  0.97580  0.97101  1.0000
  C   C36       1.0  0.02331  0.51488  0.03855  1.0000
  C   C37       1.0  0.51716  0.52908  0.01401  1.0000
  C   C38       1.0  0.46742  0.98350  0.98970  1.0000
  C   C39       1.0  0.01328  0.48102  0.00930  1.0000
  C   C40       1.0  0.45551  0.57216  0.01674  1.0000
  C   C41       1.0  0.42236  0.87729  0.00260  1.0000
  C   C42       1.0  0.11799  0.54106  0.00027  1.0000
  C   C43       1.0  0.35219  0.65064  0.47808  1.0000
  C   C44       1.0  0.35251  0.70967  0.46089  1.0000
  C   C45       1.0  0.29535  0.65178  0.47754  1.0000
  C   C46       1.0  0.31467  0.63234  0.48553  1.0000
  C   C47       1.0  0.37068  0.68917  0.46730  1.0000
  C   C48       1.0  0.31457  0.69068  0.46080  1.0000
  C   C49       1.0  0.65457  0.35771  0.51629  1.0000
  C   C50       1.0  0.64622  0.29602  0.52206  1.0000
  C   C51       1.0  0.70710  0.34923  0.51443  1.0000
  C   C52       1.0  0.69157  0.37227  0.50637  1.0000
  C   C53       1.0  0.63254  0.31961  0.52379  1.0000
  C   C54       1.0  0.68404  0.31112  0.52430  1.0000
  C   C55       1.0  0.61078  0.48515  0.50939  1.0000
  C   C56       1.0  0.51735  0.12760  0.50160  1.0000
  C   C57       1.0  0.87493  0.39530  0.46561  1.0000
  C   C58       1.0  0.55052  0.52930  0.51468  1.0000
  C   C59       1.0  0.47263  0.02350  0.49235  1.0000
  C   C60       1.0  0.98101  0.45335  0.49363  1.0000
  C   C61       1.0  0.58639  0.55716  0.51072  1.0000
  C   C62       1.0  0.44533  0.03132  0.50026  1.0000
  C   C63       1.0  0.97224  0.41777  0.48714  1.0000
  C   C64       1.0  0.61082  0.54422  0.51087  1.0000
  C   C65       1.0  0.45828  0.06847  0.50266  1.0000
  C   C66       1.0  0.93428  0.39461  0.47179  1.0000
  C   C67       1.0  0.59404  0.50639  0.51453  1.0000
  C   C68       1.0  0.49550  0.08961  0.49515  1.0000
  C   C69       1.0  0.91360  0.41192  0.46847  1.0000
  C   C70       1.0  0.47467  0.55471  0.51943  1.0000
  C   C71       1.0  0.44661  0.92104  0.50361  1.0000
  C   C72       1.0  0.08420  0.52613  0.53115  1.0000
  C   C73       1.0  0.45795  0.51742  0.51605  1.0000
  C   C74       1.0  0.48331  0.94254  0.48653  1.0000
  C   C75       1.0  0.06287  0.54439  0.51242  1.0000
  C   C76       1.0  0.48251  0.50507  0.51323  1.0000
  C   C77       1.0  0.49593  0.98036  0.47860  1.0000
  C   C78       1.0  0.02506  0.52092  0.49805  1.0000
  C   C79       1.0  0.51871  0.53254  0.51499  1.0000
  C   C80       1.0  0.46926  0.98864  0.48995  1.0000
  C   C81       1.0  0.01657  0.48427  0.50512  1.0000
  C   C82       1.0  0.45843  0.57724  0.51875  1.0000
  C   C83       1.0  0.42349  0.88248  0.50415  1.0000
  C   C84       1.0  0.12315  0.54123  0.53972  1.0000
  S   S1        1.0  0.54706  0.48454  0.01636  1.0000
  S   S2        1.0  0.51279  0.05796  0.98813  1.0000
  S   S3        1.0  0.93874  0.45370  0.99767  1.0000
  S   S4        1.0  0.51909  0.57025  0.01802  1.0000
  S   S5        1.0  0.42671  0.94291  0.01359  1.0000
  S   S6        1.0  0.05120  0.47987  0.98557  1.0000
  S   S7        1.0  0.54769  0.48668  0.52098  1.0000
  S   S8        1.0  0.51469  0.06285  0.48864  1.0000
  S   S9        1.0  0.94164  0.45749  0.48331  1.0000
  S   S10       1.0  0.52141  0.57421  0.51818  1.0000
  S   S11       1.0  0.42811  0.94862  0.50830  1.0000
  S   S12       1.0  0.05658  0.47941  0.53196  1.0000
  N   N1        1.0  0.59182  0.44860  0.00988  1.0000
  N   N2        1.0  0.54952  0.14026  0.99237  1.0000
  N   N3        1.0  0.85694  0.40872  0.00142  1.0000
  N   N4        1.0  0.42093  0.55755  0.02234  1.0000
  N   N5        1.0  0.43372  0.85892  0.96385  1.0000
  N   N6        1.0  0.14069  0.57328  0.03016  1.0000
  N   N7        1.0  0.59254  0.44972  0.51576  1.0000
  N   N8        1.0  0.55186  0.14464  0.49053  1.0000
  N   N9        1.0  0.85954  0.41281  0.48358  1.0000
  N   N10       1.0  0.42410  0.56286  0.52776  1.0000
  N   N11       1.0  0.43571  0.86279  0.48092  1.0000
  N   N12       1.0  0.14393  0.57636  0.53444  1.0000
  C  Sn1       1.0  0.66155  0.41955  0.07544  1.0000
  C   C85       1.0  0.64227  0.38197  0.07359  1.0000
  C  Sn2       1.0  0.60348  0.36679  0.02233  1.0000
  C  Sn3       1.0  0.62948  0.32248  0.97173  1.0000
  C   C86       1.0  0.64876  0.36004  0.97356  1.0000
  C  Sn4       1.0  0.64160  0.44242  0.02484  1.0000
  O  Te1       1.0  0.70033  0.43414  0.12714  1.0000
  O  Te2       1.0  0.58483  0.32914  0.02161  1.0000
  O  Te3       1.0  0.59067  0.30786  0.92001  1.0000
  O  Te4       1.0  0.66026  0.48005  0.02554  1.0000
  Mg  Mg1       1.0  0.57781  0.25499  0.94068  1.0000
  Mg  Mg2       1.0  0.71321  0.48705  0.10635  1.0000
  C  Sn5       1.0  0.55653  0.21366  0.94252  1.0000
  C   C87       1.0  0.56528  0.18628  0.94207  1.0000
  C  Sn6       1.0  0.60231  0.19091  0.98730  1.0000
  C  Sn7       1.0  0.58525  0.29075  0.03408  1.0000
  C   C88       1.0  0.57649  0.31810  0.03455  1.0000
  C  Sn8       1.0  0.58541  0.24632  0.98930  1.0000
  O  Te5       1.0  0.51931  0.20845  0.89686  1.0000
  O  Te6       1.0  0.61038  0.16316  0.98583  1.0000
  O  Te7       1.0  0.62248  0.29594  0.07976  1.0000
  O  Te8       1.0  0.57734  0.27405  0.99080  1.0000
  Mg  Mg3       1.0  0.61940  0.25023  0.05821  1.0000
  Mg  Mg4       1.0  0.52238  0.25418  0.91854  1.0000
  C  Sn9       1.0  0.77082  0.40836  0.91620  1.0000
  C   C89       1.0  0.74503  0.37073  0.94135  1.0000
  C  Sn10      1.0  0.71103  0.40764  0.02045  1.0000
  C  Sn11      1.0  0.74956  0.41512  0.07569  1.0000
  C   C90       1.0  0.77533  0.45273  0.05057  1.0000
  C  Sn12      1.0  0.80936  0.41584  0.97144  1.0000
  O  Te9       1.0  0.75825  0.43818  0.83684  1.0000
  O  Te10      1.0  0.68472  0.37027  0.04413  1.0000
  O  Te11      1.0  0.76212  0.38526  0.15510  1.0000
  O  Te12      1.0  0.83565  0.45319  0.94779  1.0000
  Mg  Mg5       1.0  0.71556  0.33927  0.15874  1.0000
  Mg  Mg6       1.0  0.80484  0.48420  0.83330  1.0000
  C  Sn13      1.0  0.41398  0.63840  0.00271  1.0000
  C   C91       1.0  0.42180  0.56326  0.94292  1.0000
  C  Sn14      1.0  0.39641  0.52722  0.93035  1.0000
  C  Sn15      1.0  0.40940  0.49852  0.97866  1.0000
  C   C92       1.0  0.40156  0.57366  0.03844  1.0000
  C  Sn16      1.0  0.42698  0.60969  0.05102  1.0000
  O  Te13      1.0  0.43887  0.67463  0.01423  1.0000
  O  Te14      1.0  0.35841  0.51994  0.87015  1.0000
  O  Te15      1.0  0.38448  0.46227  0.96708  1.0000
  O  Te16      1.0  0.46494  0.61697  0.11121  1.0000
  Mg  Mg7       1.0  0.33543  0.46617  0.87763  1.0000
  Mg  Mg8       1.0  0.48795  0.67073  0.10388  1.0000
  C  Sn17      1.0  0.42524  0.79553  0.91688  1.0000
  C   C93       1.0  0.41165  0.82008  0.90850  1.0000
  C  Sn18      1.0  0.37752  0.80546  0.95154  1.0000
  C  Sn19      1.0  0.31061  0.83264  0.00417  1.0000
  C   C94       1.0  0.32421  0.80811  0.01256  1.0000
  C  Sn20      1.0  0.40428  0.75552  0.96951  1.0000
  O  Te17      1.0  0.45943  0.81077  0.87327  1.0000
  O  Te18      1.0  0.36450  0.83058  0.94210  1.0000
  O  Te19      1.0  0.27641  0.81741  0.04778  1.0000
  O  Te20      1.0  0.41730  0.73043  0.97896  1.0000
  Mg  Mg9       1.0  0.27044  0.86323  0.01462  1.0000
  Mg  Mg10      1.0  0.46542  0.76493  0.90657  1.0000
  C  Sn21      1.0  0.18368  0.70964  0.04523  1.0000
  C   C95       1.0  0.20683  0.69410  0.05640  1.0000
  C  Sn22      1.0  0.19183  0.65826  0.03677  1.0000
  C  Sn23      1.0  0.15286  0.63752  0.00520  1.0000
  C   C96       1.0  0.17568  0.58588  0.99401  1.0000
  C  Sn24      1.0  0.14471  0.68890  0.01366  1.0000
  O  Te21      1.0  0.19928  0.74552  0.06526  1.0000
  O  Te22      1.0  0.21554  0.64332  0.04854  1.0000
  O  Te23      1.0  0.18322  0.53444  0.98518  1.0000
  O  Te24      1.0  0.12102  0.70385  0.00187  1.0000
  Mg  Mg11      1.0  0.18103  0.59335  0.01203  1.0000
  Mg  Mg12      1.0  0.15549  0.75382  0.03826  1.0000
  C  Sn25      1.0  0.59446  0.38007  0.42297  1.0000
  C   C97       1.0  0.63154  0.38603  0.45687  1.0000
  C  Sn26      1.0  0.66005  0.41277  0.54365  1.0000
  C  Sn27      1.0  0.65130  0.43397  0.59779  1.0000
  C   C98       1.0  0.61423  0.42800  0.56392  1.0000
  C  Sn28      1.0  0.58571  0.40127  0.47711  1.0000
  O  Te25      1.0  0.56641  0.35320  0.33603  1.0000
  O  Te26      1.0  0.69692  0.41824  0.57601  1.0000
  O  Te27      1.0  0.67939  0.46086  0.68478  1.0000
  O  Te28      1.0  0.54886  0.39580  0.44477  1.0000
  Mg  Mg13      1.0  0.72534  0.45807  0.69884  1.0000
  Mg  Mg14      1.0  0.52042  0.35596  0.32206  1.0000
  C  Sn29      1.0  0.57970  0.22944  0.57618  1.0000
  C   C99       1.0  0.61690  0.24917  0.56578  1.0000
  C  Sn30      1.0  0.63256  0.23664  0.50015  1.0000
  C  Sn31      1.0  0.61058  0.20371  0.44362  1.0000
  C   C100      1.0  0.57341  0.18400  0.45401  1.0000
  C  Sn32      1.0  0.55772  0.19651  0.51965  1.0000
  O  Te29      1.0  0.56462  0.24249  0.64222  1.0000
  O  Te30      1.0  0.66981  0.25683  0.49108  1.0000
  O  Te31      1.0  0.62570  0.19067  0.37755  1.0000
  O  Te32      1.0  0.52050  0.17634  0.52870  1.0000
  Mg  Mg15      1.0  0.67772  0.22784  0.39119  1.0000
  Mg  Mg16      1.0  0.51255  0.20532  0.62847  1.0000
  C  Sn33      1.0  0.80463  0.40652  0.59747  1.0000
  C   C101      1.0  0.82101  0.39293  0.54189  1.0000
  C  Sn34      1.0  0.79894  0.36605  0.44787  1.0000
  C  Sn35      1.0  0.75968  0.35247  0.40846  1.0000
  C   C102      1.0  0.74332  0.36606  0.46399  1.0000
  C  Sn36      1.0  0.76537  0.39294  0.55805  1.0000
  O  Te33      1.0  0.82723  0.43340  0.69128  1.0000
  O  Te34      1.0  0.81595  0.35288  0.39376  1.0000
  O  Te35      1.0  0.73708  0.32557  0.31456  1.0000
  O  Te36      1.0  0.74838  0.40612  0.61212  1.0000
  Mg  Mg17      1.0  0.77330  0.31629  0.26933  1.0000
  Mg  Mg18      1.0  0.79100  0.44272  0.73646  1.0000
  C  Sn37      1.0  0.41802  0.64378  0.51253  1.0000
  C   C103      1.0  0.37994  0.63606  0.45333  1.0000
  C  Sn38      1.0  0.35433  0.60017  0.43941  1.0000
  C  Sn39      1.0  0.36706  0.57138  0.48573  1.0000
  C   C104      1.0  0.40512  0.57911  0.54491  1.0000
  C  Sn40      1.0  0.43075  0.61500  0.55885  1.0000
  O  Te37      1.0  0.44312  0.67986  0.52543  1.0000
  O  Te38      1.0  0.31639  0.59313  0.37983  1.0000
  O  Te39      1.0  0.34192  0.53528  0.47277  1.0000
  O  Te40      1.0  0.46866  0.62204  0.61841  1.0000
  Mg  Mg19      1.0  0.29305  0.53948  0.38488  1.0000
  Mg  Mg20      1.0  0.49203  0.67566  0.61351  1.0000
  C  Sn41      1.0  0.42126  0.80537  0.37006  1.0000
  C   C105      1.0  0.41123  0.82525  0.42271  1.0000
  C  Sn42      1.0  0.38230  0.80585  0.51514  1.0000
  C  Sn43      1.0  0.36300  0.76574  0.55592  1.0000
  C   C106      1.0  0.37303  0.74588  0.50331  1.0000
  C  Sn44      1.0  0.40195  0.76526  0.41084  1.0000
  O  Te41      1.0  0.45027  0.82535  0.27779  1.0000
  O  Te42      1.0  0.37277  0.82634  0.56632  1.0000
  O  Te43      1.0  0.33396  0.74576  0.64826  1.0000
  O  Te44      1.0  0.41149  0.74479  0.35970  1.0000
  Mg  Mg21      1.0  0.33129  0.78633  0.68956  1.0000
  Mg  Mg22      1.0  0.45297  0.78476  0.23655  1.0000
  C  Sn45      1.0  0.22233  0.59663  0.40152  1.0000
  C   C107      1.0  0.24862  0.63019  0.44105  1.0000
  C  Sn46      1.0  0.24241  0.64413  0.54395  1.0000
  C  Sn47      1.0  0.20922  0.62410  0.60882  1.0000
  C   C108      1.0  0.18295  0.59056  0.56932  1.0000
  C  Sn48      1.0  0.18914  0.57660  0.46639  1.0000
  O  Te45      1.0  0.22912  0.58321  0.29841  1.0000
  O  Te46      1.0  0.26910  0.67775  0.58166  1.0000
  O  Te47      1.0  0.20245  0.63755  0.71200  1.0000
  O  Te48      1.0  0.16248  0.54300  0.42871  1.0000
  Mg  Mg23      1.0  0.24717  0.68458  0.72759  1.0000
  Mg  Mg24      1.0  0.18439  0.53613  0.28288  1.0000
