data_image0
_chemical_formula_structural       H60C96S6N12SnCSn2CSnTe4Mg2SnCSn2CSnTe4Mg2SnCSn2CSnTe4Mg2SnCSn2CSnTe4Mg2SnCSn2CSnTe4Mg2SnCSn2CSnTe4Mg2
_chemical_formula_sum              "H60 C108 S6 N12 Sn24 Te24 Mg12"
_cell_length_a       35.9535
_cell_length_b       35.9419
_cell_length_c       8.17524
_cell_angle_alpha    86.4518
_cell_angle_beta     67.1647
_cell_angle_gamma    120.165

_symmetry_space_group_name_H-M    'P1'
_space_group_IT_number       1

loop_
  _space_group_symop_operation_xyz
  'x, y, z'

loop_
  _atom_site_type_symbol
  _atom_site_label
  _atom_site_symmetry_multiplicity
  _atom_site_fract_x
  _atom_site_fract_y
  _atom_site_fract_z
  _atom_site_occupancy
  H   H1        1.0  0.31286  0.71922  0.95824  1.0000
  H   H2        1.0  0.28882  0.58904  0.00586  1.0000
  H   H3        1.0  0.41612  0.69816  0.00906  1.0000
  H   H4        1.0  0.46062  0.76410  0.94789  1.0000
  H   H5        1.0  0.50786  0.84199  0.94577  1.0000
  H   H6        1.0  0.38990  0.85356  0.01523  1.0000
  H   H7        1.0  0.34108  0.77429  0.02431  1.0000
  H   H8        1.0  0.52001  0.89224  0.08247  1.0000
  H   H9        1.0  0.11038  0.63512  0.00437  1.0000
  H   H10       1.0  0.36816  0.46909  0.98760  1.0000
  H   H11       1.0  0.72319  0.31320  0.04348  1.0000
  H   H12       1.0  0.69051  0.41183  0.00782  1.0000
  H   H13       1.0  0.59851  0.27964  0.97887  1.0000
  H   H14       1.0  0.57017  0.21021  0.14603  1.0000
  H   H15       1.0  0.79803  0.37294  0.88791  1.0000
  H   H16       1.0  0.55388  0.13549  0.13104  1.0000
  H   H17       1.0  0.87518  0.43029  0.88007  1.0000
  H   H18       1.0  0.70922  0.19535  0.84856  1.0000
  H   H19       1.0  0.81072  0.49949  0.12900  1.0000
  H   H20       1.0  0.72596  0.27111  0.85492  1.0000
  H   H21       1.0  0.73206  0.44043  0.14580  1.0000
  H   H22       1.0  0.56297  0.09301  0.93945  1.0000
  H   H23       1.0  0.91833  0.46475  0.01428  1.0000
  H   H24       1.0  0.53558  0.45132  0.02271  1.0000
  H   H25       1.0  0.36734  0.39707  0.97693  1.0000
  H   H26       1.0  0.59560  0.96198  0.07376  1.0000
  H   H27       1.0  0.04283  0.64036  0.98725  1.0000
  H   H28       1.0  0.42141  0.36635  0.96740  1.0000
  H   H29       1.0  0.63628  0.04967  0.03180  1.0000
  H   H30       1.0  0.95850  0.58953  0.98226  1.0000
  H   H31       1.0  0.30180  0.71379  0.46136  1.0000
  H   H32       1.0  0.28222  0.58566  0.48763  1.0000
  H   H33       1.0  0.40579  0.69441  0.51302  1.0000
  H   H34       1.0  0.43266  0.74984  0.57181  1.0000
  H   H35       1.0  0.29447  0.54414  0.58714  1.0000
  H   H36       1.0  0.47829  0.82604  0.58166  1.0000
  H   H37       1.0  0.32303  0.49555  0.59601  1.0000
  H   H38       1.0  0.39422  0.85718  0.41944  1.0000
  H   H39       1.0  0.46389  0.61128  0.47927  1.0000
  H   H40       1.0  0.34747  0.77945  0.40784  1.0000
  H   H41       1.0  0.43637  0.66112  0.45970  1.0000
  H   H42       1.0  0.51534  0.89021  0.55826  1.0000
  H   H43       1.0  0.10197  0.63161  0.50303  1.0000
  H   H44       1.0  0.37257  0.47686  0.43930  1.0000
  H   H45       1.0  0.71292  0.30794  0.54897  1.0000
  H   H46       1.0  0.68397  0.40874  0.49555  1.0000
  H   H47       1.0  0.58600  0.27451  0.50072  1.0000
  H   H48       1.0  0.55870  0.20564  0.64801  1.0000
  H   H49       1.0  0.54197  0.13095  0.63093  1.0000
  H   H50       1.0  0.69667  0.18851  0.37729  1.0000
  H   H51       1.0  0.71395  0.26426  0.38475  1.0000
  H   H52       1.0  0.55184  0.08853  0.44377  1.0000
  H   H53       1.0  0.91128  0.46142  0.50913  1.0000
  H   H54       1.0  0.52759  0.44852  0.54020  1.0000
  H   H55       1.0  0.36768  0.40118  0.44186  1.0000
  H   H56       1.0  0.58710  0.95886  0.56707  1.0000
  H   H57       1.0  0.03484  0.63720  0.48183  1.0000
  H   H58       1.0  0.41940  0.36875  0.44559  1.0000
  H   H59       1.0  0.62598  0.04624  0.53074  1.0000
  H   H60       1.0  0.95069  0.58653  0.47532  1.0000
  C   C1        1.0  0.29545  0.65201  0.98341  1.0000
  C   C2        1.0  0.35540  0.64040  0.00300  1.0000
  C   C3        1.0  0.36788  0.71461  0.98659  1.0000
  C   C4        1.0  0.32476  0.69741  0.97313  1.0000
  C   C5        1.0  0.31135  0.62413  0.99856  1.0000
  C   C6        1.0  0.38286  0.68563  0.99919  1.0000
  C   C7        1.0  0.44384  0.78269  0.96773  1.0000
  C   C8        1.0  0.47093  0.82723  0.96630  1.0000
  C   C9        1.0  0.45166  0.85355  0.98696  1.0000
  C   C10       1.0  0.40473  0.83332  0.00285  1.0000
  C   C11       1.0  0.37764  0.78855  0.00697  1.0000
  C   C12       1.0  0.39623  0.76173  0.98903  1.0000
  C   C13       1.0  0.51033  0.91377  0.03476  1.0000
  C   C14       1.0  0.09139  0.59944  0.00820  1.0000
  C   C15       1.0  0.40073  0.48522  0.00739  1.0000
  C   C16       1.0  0.71265  0.36698  0.02196  1.0000
  C   C17       1.0  0.63906  0.34695  0.99823  1.0000
  C   C18       1.0  0.65958  0.29148  0.00998  1.0000
  C   C19       1.0  0.70083  0.32323  0.02449  1.0000
  C   C20       1.0  0.68097  0.37782  0.01175  1.0000
  C   C21       1.0  0.62922  0.30382  0.99737  1.0000
  C   C22       1.0  0.60097  0.20759  0.07523  1.0000
  C   C23       1.0  0.79984  0.39961  0.94777  1.0000
  C   C24       1.0  0.59164  0.16540  0.06685  1.0000
  C   C25       1.0  0.84364  0.43222  0.94183  1.0000
  C   C26       1.0  0.63068  0.16040  0.98468  1.0000
  C   C27       1.0  0.84825  0.46890  0.00738  1.0000
  C   C28       1.0  0.67915  0.19924  0.91142  1.0000
  C   C29       1.0  0.80730  0.47137  0.07746  1.0000
  C   C30       1.0  0.68816  0.24138  0.91709  1.0000
  C   C31       1.0  0.76341  0.43820  0.08599  1.0000
  C   C32       1.0  0.64934  0.24657  0.00094  1.0000
  C   C33       1.0  0.75843  0.40142  0.02140  1.0000
  C   C34       1.0  0.58743  0.08714  0.96771  1.0000
  C   C35       1.0  0.92336  0.49780  0.00338  1.0000
  C   C36       1.0  0.50759  0.42421  0.99722  1.0000
  C   C37       1.0  0.42055  0.45903  0.00312  1.0000
  C   C38       1.0  0.53907  0.96017  0.02680  1.0000
  C   C39       1.0  0.04635  0.58154  0.00259  1.0000
  C   C40       1.0  0.40097  0.41544  0.98648  1.0000
  C   C41       1.0  0.58157  0.98079  0.04497  1.0000
  C   C42       1.0  0.02561  0.60509  0.99153  1.0000
  C   C43       1.0  0.42940  0.39907  0.98082  1.0000
  C   C44       1.0  0.60346  0.02721  0.02163  1.0000
  C   C45       1.0  0.98118  0.57858  0.98902  1.0000
  C   C46       1.0  0.47117  0.43007  0.99267  1.0000
  C   C47       1.0  0.57746  0.04245  0.98717  1.0000
  C   C48       1.0  0.96745  0.53433  0.99720  1.0000
  C   C49       1.0  0.28656  0.64754  0.47819  1.0000
  C   C50       1.0  0.34644  0.63656  0.50159  1.0000
  C   C51       1.0  0.35857  0.71081  0.48091  1.0000
  C   C52       1.0  0.31520  0.69293  0.46896  1.0000
  C   C53       1.0  0.30313  0.62005  0.49079  1.0000
  C   C54       1.0  0.37323  0.68183  0.49802  1.0000
  C   C55       1.0  0.42421  0.77300  0.53335  1.0000
  C   C56       1.0  0.33228  0.55975  0.55722  1.0000
  C   C57       1.0  0.45040  0.81675  0.53959  1.0000
  C   C58       1.0  0.34847  0.53200  0.56205  1.0000
  C   C59       1.0  0.44011  0.84812  0.49841  1.0000
  C   C60       1.0  0.39680  0.55046  0.52886  1.0000
  C   C61       1.0  0.40205  0.83306  0.45297  1.0000
  C   C62       1.0  0.42722  0.59733  0.49784  1.0000
  C   C63       1.0  0.37588  0.78907  0.44710  1.0000
  C   C64       1.0  0.41107  0.62492  0.48906  1.0000
  C   C65       1.0  0.38637  0.75774  0.48569  1.0000
  C   C66       1.0  0.36332  0.60712  0.51646  1.0000
  C   C67       1.0  0.50191  0.90993  0.52872  1.0000
  C   C68       1.0  0.08263  0.59587  0.50766  1.0000
  C   C69       1.0  0.39976  0.48826  0.48860  1.0000
  C   C70       1.0  0.70408  0.36253  0.52073  1.0000
  C   C71       1.0  0.62999  0.34289  0.50298  1.0000
  C   C72       1.0  0.64878  0.28638  0.51947  1.0000
  C   C73       1.0  0.69095  0.31827  0.52852  1.0000
  C   C74       1.0  0.67312  0.37409  0.50821  1.0000
  C   C75       1.0  0.61841  0.29901  0.50935  1.0000
  C   C76       1.0  0.58936  0.20262  0.58224  1.0000
  C   C77       1.0  0.57978  0.16039  0.57314  1.0000
  C   C78       1.0  0.61858  0.15486  0.49731  1.0000
  C   C79       1.0  0.66691  0.19299  0.43338  1.0000
  C   C80       1.0  0.67616  0.23514  0.43940  1.0000
  C   C81       1.0  0.63774  0.24109  0.51449  1.0000
  C   C82       1.0  0.57608  0.08235  0.47238  1.0000
  C   C83       1.0  0.91555  0.49414  0.49850  1.0000
  C   C84       1.0  0.50180  0.42338  0.50060  1.0000
  C   C85       1.0  0.41753  0.46052  0.49255  1.0000
  C   C86       1.0  0.52992  0.95618  0.52219  1.0000
  C   C87       1.0  0.03781  0.57818  0.50045  1.0000
  C   C88       1.0  0.39927  0.41809  0.46490  1.0000
  C   C89       1.0  0.57259  0.97727  0.53924  1.0000
  C   C90       1.0  0.01736  0.60184  0.48732  1.0000
  C   C91       1.0  0.42645  0.40073  0.46624  1.0000
  C   C92       1.0  0.59342  0.02341  0.51950  1.0000
  C   C93       1.0  0.97303  0.57533  0.48379  1.0000
  C   C94       1.0  0.46605  0.42995  0.49326  1.0000
  C   C95       1.0  0.56670  0.03799  0.48733  1.0000
  C   C96       1.0  0.95926  0.53103  0.49312  1.0000
  S   S1        1.0  0.47494  0.47976  0.00933  1.0000
  S   S2        1.0  0.52632  0.99896  0.98144  1.0000
  S   S3        1.0  0.01023  0.52610  0.00778  1.0000
  S   S4        1.0  0.46877  0.47871  0.52001  1.0000
  S   S5        1.0  0.51572  0.99412  0.48178  1.0000
  S   S6        1.0  0.00180  0.52275  0.50595  1.0000
  N   N1        1.0  0.47584  0.89838  0.98861  1.0000
  N   N2        1.0  0.10833  0.57545  0.01923  1.0000
  N   N3        1.0  0.42036  0.52473  0.03152  1.0000
  N   N4        1.0  0.62404  0.11871  0.98322  1.0000
  N   N5        1.0  0.89089  0.50404  0.00256  1.0000
  N   N6        1.0  0.50587  0.38799  0.97490  1.0000
  N   N7        1.0  0.46470  0.89322  0.49777  1.0000
  N   N8        1.0  0.09891  0.57143  0.52111  1.0000
  N   N9        1.0  0.41612  0.52524  0.53307  1.0000
  N   N10       1.0  0.61197  0.11331  0.49303  1.0000
  N   N11       1.0  0.88276  0.49972  0.49680  1.0000
  N   N12       1.0  0.50184  0.38877  0.46340  1.0000
  C  Sn1       1.0  0.15747  0.56929  0.65273  1.0000
  C   C97       1.0  0.14394  0.59074  0.56298  1.0000
  C  Sn2       1.0  0.17986  0.63174  0.41554  1.0000
  C  Sn3       1.0  0.23035  0.65170  0.35648  1.0000
  C   C98       1.0  0.24386  0.63025  0.44618  1.0000
  C  Sn4       1.0  0.20796  0.58925  0.59367  1.0000
  O  Te1       1.0  0.12094  0.52833  0.79981  1.0000
  O  Te2       1.0  0.16543  0.65255  0.32802  1.0000
  O  Te3       1.0  0.26689  0.69269  0.20927  1.0000
  O  Te4       1.0  0.22236  0.56844  0.68114  1.0000
  Mg  Mg1       1.0  0.22884  0.70801  0.13418  1.0000
  Mg  Mg2       1.0  0.15899  0.51297  0.87493  1.0000
  C  Sn5       1.0  0.42367  0.62289  0.01562  1.0000
  C   C99       1.0  0.26001  0.53940  0.97327  1.0000
  C  Sn6       1.0  0.22635  0.49742  0.96860  1.0000
  C  Sn7       1.0  0.35634  0.53811  0.00718  1.0000
  C   C100      1.0  0.39246  0.54343  0.04954  1.0000
  C  Sn8       1.0  0.42615  0.58541  0.05421  1.0000
  O  Te5       1.0  0.45694  0.66517  0.01951  1.0000
  O  Te6       1.0  0.19055  0.49294  0.92584  1.0000
  O  Te7       1.0  0.32303  0.49581  0.00326  1.0000
  O  Te8       1.0  0.46192  0.58990  0.09697  1.0000
  Mg  Mg3       1.0  0.15345  0.42848  0.93792  1.0000
  Mg  Mg4       1.0  0.49902  0.65433  0.08502  1.0000
  C  Sn9       1.0  0.22585  0.66273  0.94048  1.0000
  C   C101      1.0  0.36785  0.71860  0.01985  1.0000
  C  Sn10      1.0  0.34017  0.67116  0.08288  1.0000
  C  Sn11      1.0  0.29711  0.64547  0.06612  1.0000
  C   C102      1.0  0.15513  0.58960  0.98676  1.0000
  C  Sn12      1.0  0.18279  0.63704  0.92372  1.0000
  O  Te9       1.0  0.25409  0.71019  0.87841  1.0000
  O  Te10      1.0  0.35538  0.64963  0.16180  1.0000
  O  Te11      1.0  0.26887  0.59797  0.12828  1.0000
  O  Te12      1.0  0.16760  0.65857  0.84482  1.0000
  Mg  Mg5       1.0  0.30466  0.58427  0.22573  1.0000
  Mg  Mg6       1.0  0.21830  0.72392  0.78076  1.0000
  C  Sn13      1.0  0.52601  0.32872  0.48586  1.0000
  C   C103      1.0  0.52600  0.36643  0.51844  1.0000
  C  Sn14      1.0  0.56641  0.40340  0.51986  1.0000
  C  Sn15      1.0  0.60770  0.40267  0.48794  1.0000
  C   C104      1.0  0.60770  0.36498  0.45536  1.0000
  C  Sn16      1.0  0.56730  0.32799  0.45394  1.0000
  O  Te13      1.0  0.48521  0.29214  0.48506  1.0000
  O  Te14      1.0  0.56555  0.44071  0.55280  1.0000
  O  Te15      1.0  0.64851  0.43929  0.48877  1.0000
  O  Te16      1.0  0.56815  0.29070  0.42099  1.0000
  Mg  Mg7       1.0  0.62993  0.48234  0.54003  1.0000
  Mg  Mg8       1.0  0.50381  0.24906  0.43364  1.0000
  C  Sn17      1.0  0.79688  0.39204  0.49461  1.0000
  C   C105      1.0  0.75391  0.39050  0.55457  1.0000
  C  Sn18      1.0  0.75453  0.42896  0.57765  1.0000
  C  Sn19      1.0  0.79903  0.46982  0.53990  1.0000
  C   C106      1.0  0.84197  0.47135  0.47995  1.0000
  C  Sn20      1.0  0.84138  0.43291  0.45686  1.0000
  O  Te17      1.0  0.79541  0.35319  0.47249  1.0000
  O  Te18      1.0  0.71109  0.42658  0.63780  1.0000
  O  Te19      1.0  0.80047  0.50869  0.56208  1.0000
  O  Te20      1.0  0.88478  0.43527  0.39672  1.0000
  Mg  Mg9       1.0  0.73177  0.48856  0.64698  1.0000
  Mg  Mg10      1.0  0.86416  0.37333  0.38739  1.0000
  C  Sn21      1.0  0.60052  0.41889  0.92800  1.0000
  C   C107      1.0  0.55670  0.39188  0.92219  1.0000
  C  Sn22      1.0  0.53372  0.34501  0.96185  1.0000
  C  Sn23      1.0  0.68247  0.40287  0.00841  1.0000
  C   C108      1.0  0.72625  0.42987  0.01424  1.0000
  C  Sn24      1.0  0.62175  0.39858  0.97456  1.0000
  O  Te21      1.0  0.62286  0.46567  0.88785  1.0000
  O  Te22      1.0  0.48995  0.31871  0.95508  1.0000
  O  Te23      1.0  0.66009  0.35605  0.04857  1.0000
  O  Te24      1.0  0.66549  0.42487  0.98135  1.0000
  Mg  Mg11      1.0  0.60090  0.33459  0.02104  1.0000
  Mg  Mg12      1.0  0.68207  0.48716  0.91551  1.0000
