data_image0
_chemical_formula_structural       H36C60S6N12SnCSn2CSnTe4Mg2SnCSn2CSnTe4Mg2SnCSn2CSnTe4Mg2SnCSn2CSnTe4Mg2SnCSn2CSnTe4Mg2SnCSn2CSnTe4Mg2SnCSn2CSnTe4Mg2SnCSn2CSnTe4Mg2SnCSn2CSnTe4Mg2SnCSn2CSnTe4Mg2SnCSn2CSnTe4Mg2SnCSn2CSnTe4Mg2
_chemical_formula_sum              "H36 C84 S6 N12 Sn48 Te48 Mg24"
_cell_length_a       35.9535
_cell_length_b       35.9419
_cell_length_c       8.17524
_cell_angle_alpha    86.4518
_cell_angle_beta     67.1647
_cell_angle_gamma    120.165

_symmetry_space_group_name_H-M    'P1'
_space_group_IT_number       1

loop_
  _space_group_symop_operation_xyz
  'x, y, z'

loop_
  _atom_site_type_symbol
  _atom_site_label
  _atom_site_symmetry_multiplicity
  _atom_site_fract_x
  _atom_site_fract_y
  _atom_site_fract_z
  _atom_site_occupancy
  H   H1        1.0  0.31286  0.71922  0.95824  1.0000
  H   H2        1.0  0.28882  0.58904  0.00586  1.0000
  H   H3        1.0  0.41612  0.69816  0.00906  1.0000
  H   H4        1.0  0.52001  0.89224  0.08247  1.0000
  H   H5        1.0  0.11038  0.63512  0.00437  1.0000
  H   H6        1.0  0.36816  0.46909  0.98760  1.0000
  H   H7        1.0  0.72319  0.31320  0.04348  1.0000
  H   H8        1.0  0.69051  0.41183  0.00782  1.0000
  H   H9        1.0  0.59851  0.27964  0.97887  1.0000
  H   H10       1.0  0.56297  0.09301  0.93945  1.0000
  H   H11       1.0  0.91833  0.46475  0.01428  1.0000
  H   H12       1.0  0.53558  0.45132  0.02271  1.0000
  H   H13       1.0  0.36734  0.39707  0.97693  1.0000
  H   H14       1.0  0.59560  0.96198  0.07376  1.0000
  H   H15       1.0  0.04283  0.64036  0.98725  1.0000
  H   H16       1.0  0.42141  0.36635  0.96740  1.0000
  H   H17       1.0  0.63628  0.04967  0.03180  1.0000
  H   H18       1.0  0.95850  0.58953  0.98226  1.0000
  H   H19       1.0  0.30180  0.71379  0.46136  1.0000
  H   H20       1.0  0.28222  0.58566  0.48763  1.0000
  H   H21       1.0  0.40579  0.69441  0.51302  1.0000
  H   H22       1.0  0.51534  0.89021  0.55826  1.0000
  H   H23       1.0  0.10197  0.63161  0.50303  1.0000
  H   H24       1.0  0.37257  0.47686  0.43930  1.0000
  H   H25       1.0  0.71292  0.30794  0.54897  1.0000
  H   H26       1.0  0.68397  0.40874  0.49555  1.0000
  H   H27       1.0  0.58600  0.27451  0.50072  1.0000
  H   H28       1.0  0.55184  0.08853  0.44377  1.0000
  H   H29       1.0  0.91128  0.46142  0.50913  1.0000
  H   H30       1.0  0.52759  0.44852  0.54020  1.0000
  H   H31       1.0  0.36768  0.40118  0.44186  1.0000
  H   H32       1.0  0.58710  0.95886  0.56707  1.0000
  H   H33       1.0  0.03484  0.63720  0.48183  1.0000
  H   H34       1.0  0.41940  0.36875  0.44559  1.0000
  H   H35       1.0  0.62598  0.04624  0.53074  1.0000
  H   H36       1.0  0.95069  0.58653  0.47532  1.0000
  C   C1        1.0  0.29545  0.65201  0.98341  1.0000
  C   C2        1.0  0.35540  0.64040  0.00300  1.0000
  C   C3        1.0  0.36788  0.71461  0.98659  1.0000
  C   C4        1.0  0.32476  0.69741  0.97313  1.0000
  C   C5        1.0  0.31135  0.62413  0.99856  1.0000
  C   C6        1.0  0.38286  0.68563  0.99919  1.0000
  C   C7        1.0  0.51033  0.91377  0.03476  1.0000
  C   C8        1.0  0.09139  0.59944  0.00820  1.0000
  C   C9        1.0  0.40073  0.48522  0.00739  1.0000
  C   C10       1.0  0.71265  0.36698  0.02196  1.0000
  C   C11       1.0  0.63906  0.34695  0.99823  1.0000
  C   C12       1.0  0.65958  0.29148  0.00998  1.0000
  C   C13       1.0  0.70083  0.32323  0.02449  1.0000
  C   C14       1.0  0.68097  0.37782  0.01175  1.0000
  C   C15       1.0  0.62922  0.30382  0.99737  1.0000
  C   C16       1.0  0.58743  0.08714  0.96771  1.0000
  C   C17       1.0  0.92336  0.49780  0.00338  1.0000
  C   C18       1.0  0.50759  0.42421  0.99722  1.0000
  C   C19       1.0  0.42055  0.45903  0.00312  1.0000
  C   C20       1.0  0.53907  0.96017  0.02680  1.0000
  C   C21       1.0  0.04635  0.58154  0.00259  1.0000
  C   C22       1.0  0.40097  0.41544  0.98648  1.0000
  C   C23       1.0  0.58157  0.98079  0.04497  1.0000
  C   C24       1.0  0.02561  0.60509  0.99153  1.0000
  C   C25       1.0  0.42940  0.39907  0.98082  1.0000
  C   C26       1.0  0.60346  0.02721  0.02163  1.0000
  C   C27       1.0  0.98118  0.57858  0.98902  1.0000
  C   C28       1.0  0.47117  0.43007  0.99267  1.0000
  C   C29       1.0  0.57746  0.04245  0.98717  1.0000
  C   C30       1.0  0.96745  0.53433  0.99720  1.0000
  C   C31       1.0  0.28656  0.64754  0.47819  1.0000
  C   C32       1.0  0.34644  0.63656  0.50159  1.0000
  C   C33       1.0  0.35857  0.71081  0.48091  1.0000
  C   C34       1.0  0.31520  0.69293  0.46896  1.0000
  C   C35       1.0  0.30313  0.62005  0.49079  1.0000
  C   C36       1.0  0.37323  0.68183  0.49802  1.0000
  C   C37       1.0  0.50191  0.90993  0.52872  1.0000
  C   C38       1.0  0.08263  0.59587  0.50766  1.0000
  C   C39       1.0  0.39976  0.48826  0.48860  1.0000
  C   C40       1.0  0.70408  0.36253  0.52073  1.0000
  C   C41       1.0  0.62999  0.34289  0.50298  1.0000
  C   C42       1.0  0.64878  0.28638  0.51947  1.0000
  C   C43       1.0  0.69095  0.31827  0.52852  1.0000
  C   C44       1.0  0.67312  0.37409  0.50821  1.0000
  C   C45       1.0  0.61841  0.29901  0.50935  1.0000
  C   C46       1.0  0.57608  0.08235  0.47238  1.0000
  C   C47       1.0  0.91555  0.49414  0.49850  1.0000
  C   C48       1.0  0.50180  0.42338  0.50060  1.0000
  C   C49       1.0  0.41753  0.46052  0.49255  1.0000
  C   C50       1.0  0.52992  0.95618  0.52219  1.0000
  C   C51       1.0  0.03781  0.57818  0.50045  1.0000
  C   C52       1.0  0.39927  0.41809  0.46490  1.0000
  C   C53       1.0  0.57259  0.97727  0.53924  1.0000
  C   C54       1.0  0.01736  0.60184  0.48732  1.0000
  C   C55       1.0  0.42645  0.40073  0.46624  1.0000
  C   C56       1.0  0.59342  0.02341  0.51950  1.0000
  C   C57       1.0  0.97303  0.57533  0.48379  1.0000
  C   C58       1.0  0.46605  0.42995  0.49326  1.0000
  C   C59       1.0  0.56670  0.03799  0.48733  1.0000
  C   C60       1.0  0.95926  0.53103  0.49312  1.0000
  S   S1        1.0  0.47494  0.47976  0.00933  1.0000
  S   S2        1.0  0.52632  0.99896  0.98144  1.0000
  S   S3        1.0  0.01023  0.52610  0.00778  1.0000
  S   S4        1.0  0.46877  0.47871  0.52001  1.0000
  S   S5        1.0  0.51572  0.99412  0.48178  1.0000
  S   S6        1.0  0.00180  0.52275  0.50595  1.0000
  N   N1        1.0  0.47584  0.89838  0.98861  1.0000
  N   N2        1.0  0.10833  0.57545  0.01923  1.0000
  N   N3        1.0  0.42036  0.52473  0.03152  1.0000
  N   N4        1.0  0.62404  0.11871  0.98322  1.0000
  N   N5        1.0  0.89089  0.50404  0.00256  1.0000
  N   N6        1.0  0.50587  0.38799  0.97490  1.0000
  N   N7        1.0  0.46470  0.89322  0.49777  1.0000
  N   N8        1.0  0.09891  0.57143  0.52111  1.0000
  N   N9        1.0  0.41612  0.52524  0.53307  1.0000
  N   N10       1.0  0.61197  0.11331  0.49303  1.0000
  N   N11       1.0  0.88276  0.49972  0.49680  1.0000
  N   N12       1.0  0.50184  0.38877  0.46340  1.0000
  C  Sn1       1.0  0.25914  0.72440  0.95100  1.0000
  C   C61       1.0  0.27157  0.69318  0.94148  1.0000
  C  Sn2       1.0  0.31083  0.70145  0.96800  1.0000
  C  Sn3       1.0  0.46573  0.81994  0.00493  1.0000
  C   C62       1.0  0.45330  0.85113  0.01447  1.0000
  C  Sn4       1.0  0.28654  0.76472  0.98793  1.0000
  O  Te1       1.0  0.21975  0.71543  0.92405  1.0000
  O  Te2       1.0  0.32256  0.66974  0.95776  1.0000
  O  Te3       1.0  0.50515  0.82889  0.03188  1.0000
  O  Te4       1.0  0.27480  0.79640  0.99819  1.0000
  Mg  Mg1       1.0  0.50689  0.77537  0.00449  1.0000
  Mg  Mg2       1.0  0.21797  0.76896  0.95159  1.0000
  C  Sn5       1.0  0.16711  0.57297  0.14791  1.0000
  C   C63       1.0  0.15333  0.59477  0.06139  1.0000
  C  Sn6       1.0  0.06151  0.55830  0.91781  1.0000
  C  Sn7       1.0  0.11204  0.57863  0.85938  1.0000
  C   C64       1.0  0.12580  0.55684  0.94585  1.0000
  C  Sn8       1.0  0.21764  0.59331  0.08948  1.0000
  O  Te5       1.0  0.13081  0.53130  0.29115  1.0000
  O  Te6       1.0  0.04683  0.57945  0.83347  1.0000
  O  Te7       1.0  0.14835  0.62034  0.71601  1.0000
  O  Te8       1.0  0.23230  0.57216  0.17376  1.0000
  Mg  Mg3       1.0  0.11000  0.63588  0.64429  1.0000
  Mg  Mg4       1.0  0.16917  0.51572  0.36288  1.0000
  C  Sn9       1.0  0.37128  0.55200  0.91476  1.0000
  C   C65       1.0  0.40422  0.55521  0.97324  1.0000
  C  Sn10      1.0  0.54658  0.66304  0.07249  1.0000
  C  Sn11      1.0  0.52811  0.69004  0.11427  1.0000
  C   C66       1.0  0.49519  0.68682  0.05584  1.0000
  C  Sn12      1.0  0.35281  0.57900  0.95654  1.0000
  O  Te9       1.0  0.35693  0.52212  0.81572  1.0000
  O  Te10      1.0  0.57956  0.66567  0.12942  1.0000
  O  Te11      1.0  0.54250  0.71994  0.21339  1.0000
  O  Te12      1.0  0.31985  0.57636  0.89966  1.0000
  Mg  Mg5       1.0  0.58812  0.71142  0.26084  1.0000
  Mg  Mg6       1.0  0.31125  0.53060  0.76832  1.0000
  C  Sn13      1.0  0.68436  0.20739  0.95544  1.0000
  C   C67       1.0  0.76640  0.24398  0.02299  1.0000
  C  Sn14      1.0  0.72404  0.24266  0.06683  1.0000
  C  Sn15      1.0  0.72720  0.28376  0.04254  1.0000
  C   C68       1.0  0.64515  0.24713  0.97501  1.0000
  C  Sn16      1.0  0.68752  0.24849  0.93116  1.0000
  O  Te13      1.0  0.72622  0.20790  0.91251  1.0000
  O  Te14      1.0  0.67899  0.20068  0.13420  1.0000
  O  Te15      1.0  0.68529  0.28321  0.08555  1.0000
  O  Te16      1.0  0.73255  0.29044  0.86379  1.0000
  Mg  Mg7       1.0  0.63235  0.21761  0.17298  1.0000
  Mg  Mg8       1.0  0.77921  0.27354  0.82488  1.0000
  C  Sn17      1.0  0.77584  0.45413  0.03795  1.0000
  C   C69       1.0  0.63706  0.33705  0.98466  1.0000
  C  Sn18      1.0  0.66733  0.32178  0.95286  1.0000
  C  Sn19      1.0  0.70972  0.34588  0.97489  1.0000
  C   C70       1.0  0.84847  0.46294  0.02818  1.0000
  C  Sn20      1.0  0.81823  0.47824  0.05998  1.0000
  O  Te17      1.0  0.74506  0.46878  0.06901  1.0000
  O  Te18      1.0  0.65532  0.28279  0.89963  1.0000
  O  Te19      1.0  0.74050  0.33120  0.94377  1.0000
  O  Te20      1.0  0.83022  0.51719  0.11320  1.0000
  Mg  Mg9       1.0  0.70867  0.27627  0.87350  1.0000
  Mg  Mg10      1.0  0.77688  0.52373  0.13946  1.0000
  C  Sn21      1.0  0.65708  0.40702  0.02321  1.0000
  C   C71       1.0  0.66090  0.44762  0.02595  1.0000
  C  Sn22      1.0  0.57789  0.40901  0.98793  1.0000
  C  Sn23      1.0  0.61945  0.40799  0.94619  1.0000
  C   C72       1.0  0.61562  0.36741  0.94343  1.0000
  C  Sn24      1.0  0.57113  0.32783  0.98147  1.0000
  O  Te21      1.0  0.61223  0.36789  0.06163  1.0000
  O  Te22      1.0  0.58081  0.44918  0.99156  1.0000
  O  Te23      1.0  0.66432  0.44717  0.90775  1.0000
  O  Te24      1.0  0.56820  0.28768  0.97782  1.0000
  Mg  Mg11      1.0  0.64995  0.49362  0.92963  1.0000
  Mg  Mg12      1.0  0.62660  0.32140  0.03963  1.0000
  C  Sn25      1.0  0.45666  0.81094  0.48728  1.0000
  C   C73       1.0  0.45086  0.84583  0.45427  1.0000
  C  Sn26      1.0  0.40841  0.83633  0.45140  1.0000
  C  Sn27      1.0  0.37096  0.79100  0.48227  1.0000
  C   C74       1.0  0.37676  0.75614  0.51529  1.0000
  C  Sn28      1.0  0.41920  0.76562  0.51815  1.0000
  O  Te25      1.0  0.49940  0.82123  0.48953  1.0000
  O  Te26      1.0  0.40346  0.87178  0.41805  1.0000
  O  Te27      1.0  0.32820  0.78074  0.47999  1.0000
  O  Te28      1.0  0.42416  0.73020  0.55151  1.0000
  Mg  Mg13      1.0  0.33848  0.84066  0.42871  1.0000
  Mg  Mg14      1.0  0.48910  0.76127  0.54097  1.0000
  C  Sn29      1.0  0.21711  0.65847  0.43627  1.0000
  C   C75       1.0  0.23147  0.63631  0.51722  1.0000
  C  Sn30      1.0  0.20311  0.58887  0.58543  1.0000
  C  Sn31      1.0  0.15950  0.56305  0.57235  1.0000
  C   C76       1.0  0.14516  0.58521  0.49141  1.0000
  C  Sn32      1.0  0.17349  0.63265  0.42319  1.0000
  O  Te29      1.0  0.24602  0.70592  0.36900  1.0000
  O  Te30      1.0  0.21822  0.56748  0.66583  1.0000
  O  Te31      1.0  0.13058  0.51556  0.63971  1.0000
  O  Te32      1.0  0.15841  0.65404  0.34280  1.0000
  Mg  Mg15      1.0  0.16648  0.50207  0.73729  1.0000
  Mg  Mg16      1.0  0.21013  0.71944  0.27121  1.0000
  C  Sn33      1.0  0.34655  0.53728  0.50825  1.0000
  C   C77       1.0  0.39232  0.54940  0.48404  1.0000
  C  Sn34      1.0  0.42454  0.59147  0.49284  1.0000
  C  Sn35      1.0  0.41072  0.62205  0.52665  1.0000
  C   C78       1.0  0.36497  0.60992  0.55087  1.0000
  C  Sn36      1.0  0.33273  0.56786  0.54206  1.0000
  O  Te33      1.0  0.31492  0.49504  0.49890  1.0000
  O  Te34      1.0  0.47011  0.60284  0.46813  1.0000
  O  Te35      1.0  0.44240  0.66431  0.53599  1.0000
  O  Te36      1.0  0.28718  0.55649  0.56678  1.0000
  Mg  Mg17      1.0  0.50047  0.66428  0.49336  1.0000
  Mg  Mg18      1.0  0.25679  0.49504  0.54168  1.0000
  C  Sn37      1.0  0.67887  0.23010  0.38127  1.0000
  C   C79       1.0  0.64522  0.24149  0.45329  1.0000
  C  Sn38      1.0  0.59525  0.20758  0.57100  1.0000
  C  Sn39      1.0  0.57858  0.16132  0.61781  1.0000
  C   C80       1.0  0.61222  0.14995  0.54584  1.0000
  C  Sn40      1.0  0.66220  0.18384  0.42808  1.0000
  O  Te37      1.0  0.72865  0.26456  0.26386  1.0000
  O  Te38      1.0  0.56230  0.21980  0.64123  1.0000
  O  Te39      1.0  0.52875  0.12686  0.73532  1.0000
  O  Te40      1.0  0.69514  0.17164  0.35790  1.0000
  Mg  Mg19      1.0  0.49813  0.16058  0.79585  1.0000
  Mg  Mg20      1.0  0.75932  0.23084  0.20335  1.0000
  C  Sn41      1.0  0.79688  0.39204  0.49461  1.0000
  C   C81       1.0  0.75391  0.39050  0.55457  1.0000
  C  Sn42      1.0  0.75453  0.42896  0.57765  1.0000
  C  Sn43      1.0  0.79903  0.46982  0.53990  1.0000
  C   C82       1.0  0.84197  0.47135  0.47995  1.0000
  C  Sn44      1.0  0.84138  0.43291  0.45686  1.0000
  O  Te41      1.0  0.79541  0.35319  0.47249  1.0000
  O  Te42      1.0  0.71109  0.42658  0.63780  1.0000
  O  Te43      1.0  0.80047  0.50869  0.56208  1.0000
  O  Te44      1.0  0.88478  0.43527  0.39672  1.0000
  Mg  Mg21      1.0  0.73177  0.48856  0.64698  1.0000
  Mg  Mg22      1.0  0.86416  0.37333  0.38739  1.0000
  C  Sn45      1.0  0.52601  0.32872  0.48586  1.0000
  C   C83       1.0  0.52600  0.36643  0.51844  1.0000
  C  Sn46      1.0  0.56641  0.40340  0.51986  1.0000
  C  Sn47      1.0  0.60770  0.40267  0.48794  1.0000
  C   C84       1.0  0.60770  0.36498  0.45536  1.0000
  C  Sn48      1.0  0.56730  0.32799  0.45394  1.0000
  O  Te45      1.0  0.48521  0.29214  0.48506  1.0000
  O  Te46      1.0  0.56555  0.44071  0.55280  1.0000
  O  Te47      1.0  0.64851  0.43929  0.48877  1.0000
  O  Te48      1.0  0.56815  0.29070  0.42099  1.0000
  Mg  Mg23      1.0  0.62993  0.48234  0.54003  1.0000
  Mg  Mg24      1.0  0.50381  0.24906  0.43364  1.0000
