data_image0
_chemical_formula_structural       H36C60S6N12C2Sn2C2HTe2HMgC2Sn2C2HTe2HMgC2Sn2C2HTe2HMgC2Sn2C2HTe2HMgC2Sn2C2HTe2HMgC2Sn2C2HTe2HMgC2Sn2C2HTe2HMgC2Sn2C2HTe2HMgC2Sn2C2HTe2HMgC2Sn2C2HTe2HMgC2Sn2C2HTe2HMgC2Sn2C2HTe2HMg
_chemical_formula_sum              "H60 C108 S6 N12 Sn24 Te24 Mg12"
_cell_length_a       35.9535
_cell_length_b       35.9419
_cell_length_c       8.17524
_cell_angle_alpha    86.4518
_cell_angle_beta     67.1647
_cell_angle_gamma    120.165

_symmetry_space_group_name_H-M    'P1'
_space_group_IT_number       1

loop_
  _space_group_symop_operation_xyz
  'x, y, z'

loop_
  _atom_site_type_symbol
  _atom_site_label
  _atom_site_symmetry_multiplicity
  _atom_site_fract_x
  _atom_site_fract_y
  _atom_site_fract_z
  _atom_site_occupancy
  H   H1        1.0  0.31286  0.71922  0.95824  1.0000
  H   H2        1.0  0.28882  0.58904  0.00586  1.0000
  H   H3        1.0  0.41612  0.69816  0.00906  1.0000
  H   H4        1.0  0.52001  0.89224  0.08247  1.0000
  H   H5        1.0  0.11038  0.63512  0.00437  1.0000
  H   H6        1.0  0.36816  0.46909  0.98760  1.0000
  H   H7        1.0  0.72319  0.31320  0.04348  1.0000
  H   H8        1.0  0.69051  0.41183  0.00782  1.0000
  H   H9        1.0  0.59851  0.27964  0.97887  1.0000
  H   H10       1.0  0.56297  0.09301  0.93945  1.0000
  H   H11       1.0  0.91833  0.46475  0.01428  1.0000
  H   H12       1.0  0.53558  0.45132  0.02271  1.0000
  H   H13       1.0  0.36734  0.39707  0.97693  1.0000
  H   H14       1.0  0.59560  0.96198  0.07376  1.0000
  H   H15       1.0  0.04283  0.64036  0.98725  1.0000
  H   H16       1.0  0.42141  0.36635  0.96740  1.0000
  H   H17       1.0  0.63628  0.04967  0.03180  1.0000
  H   H18       1.0  0.95850  0.58953  0.98226  1.0000
  H   H19       1.0  0.30180  0.71379  0.46136  1.0000
  H   H20       1.0  0.28222  0.58566  0.48763  1.0000
  H   H21       1.0  0.40579  0.69441  0.51302  1.0000
  H   H22       1.0  0.51534  0.89021  0.55826  1.0000
  H   H23       1.0  0.10197  0.63161  0.50303  1.0000
  H   H24       1.0  0.37257  0.47686  0.43930  1.0000
  H   H25       1.0  0.71292  0.30794  0.54897  1.0000
  H   H26       1.0  0.68397  0.40874  0.49555  1.0000
  H   H27       1.0  0.58600  0.27451  0.50072  1.0000
  H   H28       1.0  0.55184  0.08853  0.44377  1.0000
  H   H29       1.0  0.91128  0.46142  0.50913  1.0000
  H   H30       1.0  0.52759  0.44852  0.54020  1.0000
  H   H31       1.0  0.36768  0.40118  0.44186  1.0000
  H   H32       1.0  0.58710  0.95886  0.56707  1.0000
  H   H33       1.0  0.03484  0.63720  0.48183  1.0000
  H   H34       1.0  0.41940  0.36875  0.44559  1.0000
  H   H35       1.0  0.62598  0.04624  0.53074  1.0000
  H   H36       1.0  0.95069  0.58653  0.47532  1.0000
  C   C1        1.0  0.29545  0.65201  0.98341  1.0000
  C   C2        1.0  0.35540  0.64040  0.00300  1.0000
  C   C3        1.0  0.36788  0.71461  0.98659  1.0000
  C   C4        1.0  0.32476  0.69741  0.97313  1.0000
  C   C5        1.0  0.31135  0.62413  0.99856  1.0000
  C   C6        1.0  0.38286  0.68563  0.99919  1.0000
  C   C7        1.0  0.51033  0.91377  0.03476  1.0000
  C   C8        1.0  0.09139  0.59944  0.00820  1.0000
  C   C9        1.0  0.40073  0.48522  0.00739  1.0000
  C   C10       1.0  0.71265  0.36698  0.02196  1.0000
  C   C11       1.0  0.63906  0.34695  0.99823  1.0000
  C   C12       1.0  0.65958  0.29148  0.00998  1.0000
  C   C13       1.0  0.70083  0.32323  0.02449  1.0000
  C   C14       1.0  0.68097  0.37782  0.01175  1.0000
  C   C15       1.0  0.62922  0.30382  0.99737  1.0000
  C   C16       1.0  0.58743  0.08714  0.96771  1.0000
  C   C17       1.0  0.92336  0.49780  0.00338  1.0000
  C   C18       1.0  0.50759  0.42421  0.99722  1.0000
  C   C19       1.0  0.42055  0.45903  0.00312  1.0000
  C   C20       1.0  0.53907  0.96017  0.02680  1.0000
  C   C21       1.0  0.04635  0.58154  0.00259  1.0000
  C   C22       1.0  0.40097  0.41544  0.98648  1.0000
  C   C23       1.0  0.58157  0.98079  0.04497  1.0000
  C   C24       1.0  0.02561  0.60509  0.99153  1.0000
  C   C25       1.0  0.42940  0.39907  0.98082  1.0000
  C   C26       1.0  0.60346  0.02721  0.02163  1.0000
  C   C27       1.0  0.98118  0.57858  0.98902  1.0000
  C   C28       1.0  0.47117  0.43007  0.99267  1.0000
  C   C29       1.0  0.57746  0.04245  0.98717  1.0000
  C   C30       1.0  0.96745  0.53433  0.99720  1.0000
  C   C31       1.0  0.28656  0.64754  0.47819  1.0000
  C   C32       1.0  0.34644  0.63656  0.50159  1.0000
  C   C33       1.0  0.35857  0.71081  0.48091  1.0000
  C   C34       1.0  0.31520  0.69293  0.46896  1.0000
  C   C35       1.0  0.30313  0.62005  0.49079  1.0000
  C   C36       1.0  0.37323  0.68183  0.49802  1.0000
  C   C37       1.0  0.50191  0.90993  0.52872  1.0000
  C   C38       1.0  0.08263  0.59587  0.50766  1.0000
  C   C39       1.0  0.39976  0.48826  0.48860  1.0000
  C   C40       1.0  0.70408  0.36253  0.52073  1.0000
  C   C41       1.0  0.62999  0.34289  0.50298  1.0000
  C   C42       1.0  0.64878  0.28638  0.51947  1.0000
  C   C43       1.0  0.69095  0.31827  0.52852  1.0000
  C   C44       1.0  0.67312  0.37409  0.50821  1.0000
  C   C45       1.0  0.61841  0.29901  0.50935  1.0000
  C   C46       1.0  0.57608  0.08235  0.47238  1.0000
  C   C47       1.0  0.91555  0.49414  0.49850  1.0000
  C   C48       1.0  0.50180  0.42338  0.50060  1.0000
  C   C49       1.0  0.41753  0.46052  0.49255  1.0000
  C   C50       1.0  0.52992  0.95618  0.52219  1.0000
  C   C51       1.0  0.03781  0.57818  0.50045  1.0000
  C   C52       1.0  0.39927  0.41809  0.46490  1.0000
  C   C53       1.0  0.57259  0.97727  0.53924  1.0000
  C   C54       1.0  0.01736  0.60184  0.48732  1.0000
  C   C55       1.0  0.42645  0.40073  0.46624  1.0000
  C   C56       1.0  0.59342  0.02341  0.51950  1.0000
  C   C57       1.0  0.97303  0.57533  0.48379  1.0000
  C   C58       1.0  0.46605  0.42995  0.49326  1.0000
  C   C59       1.0  0.56670  0.03799  0.48733  1.0000
  C   C60       1.0  0.95926  0.53103  0.49312  1.0000
  S   S1        1.0  0.47494  0.47976  0.00933  1.0000
  S   S2        1.0  0.52632  0.99896  0.98144  1.0000
  S   S3        1.0  0.01023  0.52610  0.00778  1.0000
  S   S4        1.0  0.46877  0.47871  0.52001  1.0000
  S   S5        1.0  0.51572  0.99412  0.48178  1.0000
  S   S6        1.0  0.00180  0.52275  0.50595  1.0000
  N   N1        1.0  0.47584  0.89838  0.98861  1.0000
  N   N2        1.0  0.10833  0.57545  0.01923  1.0000
  N   N3        1.0  0.42036  0.52473  0.03152  1.0000
  N   N4        1.0  0.62404  0.11871  0.98322  1.0000
  N   N5        1.0  0.89089  0.50404  0.00256  1.0000
  N   N6        1.0  0.50587  0.38799  0.97490  1.0000
  N   N7        1.0  0.46470  0.89322  0.49777  1.0000
  N   N8        1.0  0.09891  0.57143  0.52111  1.0000
  N   N9        1.0  0.41612  0.52524  0.53307  1.0000
  N   N10       1.0  0.61197  0.11331  0.49303  1.0000
  N   N11       1.0  0.88276  0.49972  0.49680  1.0000
  N   N12       1.0  0.50184  0.38877  0.46340  1.0000
  C   C61       1.0  0.37811  0.79895  0.01389  1.0000
  C   C62       1.0  0.26410  0.69045  0.98539  1.0000
  C  Sn1       1.0  0.30992  0.70266  0.96072  1.0000
  C  Sn2       1.0  0.34275  0.74605  0.96478  1.0000
  C   C63       1.0  0.32888  0.77613  0.99352  1.0000
  C   C64       1.0  0.41046  0.84174  0.01799  1.0000
  H   H37       1.0  0.34256  0.78923  0.03293  1.0000
  O  Te1       1.0  0.32283  0.67196  0.93232  1.0000
  O  Te2       1.0  0.38876  0.75911  0.94058  1.0000
  H   H38       1.0  0.40001  0.86521  0.04018  1.0000
  Mg  Mg1       1.0  0.38959  0.70543  0.90625  1.0000
  C   C65       1.0  0.23146  0.66179  0.88197  1.0000
  C   C66       1.0  0.24521  0.64147  0.97571  1.0000
  C  Sn3       1.0  0.34002  0.67372  0.08407  1.0000
  C  Sn4       1.0  0.29271  0.64774  0.09854  1.0000
  C   C67       1.0  0.27932  0.66837  0.00412  1.0000
  C   C68       1.0  0.18481  0.63619  0.89612  1.0000
  H   H39       1.0  0.25699  0.69736  0.79832  1.0000
  O  Te3       1.0  0.35435  0.65395  0.17686  1.0000
  O  Te4       1.0  0.25932  0.60177  0.20584  1.0000
  H   H40       1.0  0.17416  0.65191  0.82346  1.0000
  Mg  Mg2       1.0  0.29590  0.59017  0.30612  1.0000
  C   C69       1.0  0.41470  0.61670  0.07879  1.0000
  C   C70       1.0  0.38245  0.61462  0.01858  1.0000
  C  Sn5       1.0  0.22977  0.49973  0.96355  1.0000
  C  Sn6       1.0  0.23709  0.46449  0.96910  1.0000
  C   C71       1.0  0.39692  0.54505  0.02968  1.0000
  C   C72       1.0  0.42193  0.58195  0.08438  1.0000
  H   H41       1.0  0.43403  0.64524  0.12121  1.0000
  O  Te5       1.0  0.19770  0.49820  0.90369  1.0000
  O  Te6       1.0  0.21240  0.42740  0.91495  1.0000
  H   H42       1.0  0.44687  0.58353  0.13111  1.0000
  Mg  Mg3       1.0  0.17251  0.44065  0.84390  1.0000
  C   C73       1.0  0.58667  0.17206  0.08631  1.0000
  C   C74       1.0  0.49241  0.08298  0.99539  1.0000
  C  Sn7       1.0  0.54304  0.11625  0.90824  1.0000
  C  Sn8       1.0  0.56061  0.16125  0.91246  1.0000
  C   C75       1.0  0.65455  0.24998  0.00390  1.0000
  C   C76       1.0  0.60396  0.21643  0.09061  1.0000
  H   H43       1.0  0.54752  0.14609  0.15349  1.0000
  O  Te7       1.0  0.57576  0.10478  0.81796  1.0000
  O  Te8       1.0  0.61102  0.19516  0.82655  1.0000
  H   H44       1.0  0.57822  0.22488  0.16110  1.0000
  Mg  Mg4       1.0  0.64106  0.16284  0.72119  1.0000
  C   C77       1.0  0.81316  0.40457  0.93096  1.0000
  C   C78       1.0  0.89551  0.47749  0.00930  1.0000
  C  Sn9       1.0  0.89086  0.50965  0.08524  1.0000
  C  Sn10      1.0  0.93227  0.54775  0.08245  1.0000
  C   C79       1.0  0.97731  0.55271  0.00363  1.0000
  C   C80       1.0  0.85403  0.44215  0.92809  1.0000
  H   H45       1.0  0.81645  0.37952  0.87242  1.0000
  O  Te9       1.0  0.84546  0.50388  0.16302  1.0000
  O  Te10      1.0  0.92866  0.58042  0.15731  1.0000
  H   H46       1.0  0.88902  0.44624  0.86733  1.0000
  Mg  Mg5       1.0  0.85895  0.55756  0.24774  1.0000
  C   C81       1.0  0.55263  0.32479  0.97185  1.0000
  C   C82       1.0  0.59792  0.35200  0.96688  1.0000
  C  Sn11      1.0  0.61511  0.39605  0.97470  1.0000
  C  Sn12      1.0  0.58634  0.41306  0.98778  1.0000
  C   C83       1.0  0.54107  0.38555  0.99280  1.0000
  C   C84       1.0  0.52422  0.34153  0.98483  1.0000
  H   H47       1.0  0.53958  0.29072  0.96579  1.0000
  O  Te11      1.0  0.66045  0.42279  0.96950  1.0000
  O  Te12      1.0  0.60264  0.45695  0.99588  1.0000
  H   H48       1.0  0.48914  0.32046  0.98881  1.0000
  Mg  Mg6       1.0  0.66689  0.48038  0.98431  1.0000
  C   C85       1.0  0.44725  0.80494  0.55039  1.0000
  C   C86       1.0  0.44563  0.84172  0.49944  1.0000
  C  Sn13      1.0  0.41111  0.83606  0.44596  1.0000
  C  Sn14      1.0  0.37762  0.79272  0.44362  1.0000
  C   C87       1.0  0.37951  0.75612  0.49497  1.0000
  C   C88       1.0  0.41422  0.76217  0.54820  1.0000
  H   H49       1.0  0.47409  0.80961  0.59167  1.0000
  O  Te13      1.0  0.41001  0.87317  0.39541  1.0000
  O  Te14      1.0  0.34272  0.78610  0.39082  1.0000
  H   H50       1.0  0.41545  0.73368  0.58775  1.0000
  Mg  Mg7       1.0  0.35573  0.84713  0.33380  1.0000
  C   C89       1.0  0.18589  0.57316  0.61161  1.0000
  C   C90       1.0  0.22989  0.61610  0.50527  1.0000
  C  Sn15      1.0  0.23117  0.64907  0.39863  1.0000
  C  Sn16      1.0  0.18753  0.63876  0.39878  1.0000
  C   C91       1.0  0.14369  0.59571  0.50574  1.0000
  C   C92       1.0  0.14283  0.56298  0.61190  1.0000
  H   H51       1.0  0.18521  0.54784  0.69383  1.0000
  O  Te15      1.0  0.27545  0.69179  0.29313  1.0000
  O  Te16      1.0  0.18777  0.67108  0.29353  1.0000
  H   H52       1.0  0.10875  0.52975  0.69431  1.0000
  Mg  Mg8       1.0  0.25714  0.72446  0.17244  1.0000
  C   C93       1.0  0.33007  0.54835  0.55876  1.0000
  C   C94       1.0  0.35372  0.59454  0.54044  1.0000
  C  Sn17      1.0  0.40215  0.62028  0.50820  1.0000
  C  Sn18      1.0  0.42728  0.59930  0.49405  1.0000
  C   C95       1.0  0.40332  0.55308  0.51245  1.0000
  C   C96       1.0  0.35485  0.52764  0.54476  1.0000
  H   H53       1.0  0.29258  0.52867  0.58366  1.0000
  O  Te17      1.0  0.42521  0.66638  0.49031  1.0000
  O  Te18      1.0  0.47571  0.62423  0.46181  1.0000
  H   H54       1.0  0.33656  0.49189  0.55881  1.0000
  Mg  Mg9       1.0  0.49145  0.68603  0.44736  1.0000
  C   C97       1.0  0.68086  0.22783  0.43145  1.0000
  C   C98       1.0  0.64848  0.24097  0.48469  1.0000
  C  Sn19      1.0  0.59799  0.20860  0.55897  1.0000
  C  Sn20      1.0  0.57969  0.16224  0.58022  1.0000
  C   C99       1.0  0.61238  0.14944  0.52666  1.0000
  C   C100      1.0  0.66284  0.18210  0.45243  1.0000
  H   H55       1.0  0.71990  0.25309  0.37411  1.0000
  O  Te19      1.0  0.56616  0.22232  0.61138  1.0000
  O  Te20      1.0  0.52940  0.12919  0.65414  1.0000
  H   H56       1.0  0.68790  0.17191  0.41134  1.0000
  Mg  Mg10      1.0  0.50068  0.16467  0.70516  1.0000
  C   C101      1.0  0.80437  0.39901  0.43231  1.0000
  C   C102      1.0  0.75941  0.39416  0.50917  1.0000
  C  Sn21      1.0  0.75524  0.42692  0.58133  1.0000
  C  Sn22      1.0  0.79692  0.46522  0.57620  1.0000
  C   C103      1.0  0.84174  0.46978  0.49889  1.0000
  C   C104      1.0  0.84550  0.43678  0.42714  1.0000
  H   H57       1.0  0.80729  0.37349  0.37670  1.0000
  O  Te21      1.0  0.71004  0.42154  0.65768  1.0000
  O  Te22      1.0  0.79378  0.49848  0.64728  1.0000
  H   H58       1.0  0.88032  0.44056  0.36752  1.0000
  Mg  Mg11      1.0  0.72419  0.47600  0.73706  1.0000
  C   C105      1.0  0.60083  0.40488  0.52133  1.0000
  C   C106      1.0  0.59885  0.36554  0.50486  1.0000
  C  Sn23      1.0  0.56537  0.33357  0.45712  1.0000
  C  Sn24      1.0  0.53332  0.34123  0.42531  1.0000
  C   C107      1.0  0.53561  0.38071  0.44200  1.0000
  C   C108      1.0  0.56925  0.41248  0.48991  1.0000
  H   H59       1.0  0.62687  0.42947  0.55829  1.0000
  O  Te23      1.0  0.56386  0.29443  0.44133  1.0000
  O  Te24      1.0  0.49952  0.30985  0.37735  1.0000
  H   H60       1.0  0.57079  0.44295  0.50253  1.0000
  Mg  Mg12      1.0  0.51143  0.26170  0.37282  1.0000
