data_image0
_chemical_formula_structural       H60C96S6N12C2Sn2C2HTe2HMgC2Sn2C2HTe2HMgC2Sn2C2HTe2HMgC2Sn2C2HTe2HMgC2Sn2C2HTe2HMgC2Sn2C2HTe2HMg
_chemical_formula_sum              "H72 C120 S6 N12 Sn12 Te12 Mg6"
_cell_length_a       35.9535
_cell_length_b       35.9419
_cell_length_c       8.17524
_cell_angle_alpha    86.4518
_cell_angle_beta     67.1647
_cell_angle_gamma    120.165

_symmetry_space_group_name_H-M    'P1'
_space_group_IT_number       1

loop_
  _space_group_symop_operation_xyz
  'x, y, z'

loop_
  _atom_site_type_symbol
  _atom_site_label
  _atom_site_symmetry_multiplicity
  _atom_site_fract_x
  _atom_site_fract_y
  _atom_site_fract_z
  _atom_site_occupancy
  H   H1        1.0  0.31286  0.71922  0.95824  1.0000
  H   H2        1.0  0.28882  0.58904  0.00586  1.0000
  H   H3        1.0  0.41612  0.69816  0.00906  1.0000
  H   H4        1.0  0.32501  0.56176  0.91665  1.0000
  H   H5        1.0  0.34966  0.51085  0.93254  1.0000
  H   H6        1.0  0.45067  0.59924  0.11103  1.0000
  H   H7        1.0  0.42364  0.64999  0.10604  1.0000
  H   H8        1.0  0.52001  0.89224  0.08247  1.0000
  H   H9        1.0  0.11038  0.63512  0.00437  1.0000
  H   H10       1.0  0.36816  0.46909  0.98760  1.0000
  H   H11       1.0  0.72319  0.31320  0.04348  1.0000
  H   H12       1.0  0.69051  0.41183  0.00782  1.0000
  H   H13       1.0  0.59851  0.27964  0.97887  1.0000
  H   H14       1.0  0.57017  0.21021  0.14603  1.0000
  H   H15       1.0  0.79803  0.37294  0.88791  1.0000
  H   H16       1.0  0.55388  0.13549  0.13104  1.0000
  H   H17       1.0  0.87518  0.43029  0.88007  1.0000
  H   H18       1.0  0.70922  0.19535  0.84856  1.0000
  H   H19       1.0  0.81072  0.49949  0.12900  1.0000
  H   H20       1.0  0.72596  0.27111  0.85492  1.0000
  H   H21       1.0  0.73206  0.44043  0.14580  1.0000
  H   H22       1.0  0.56297  0.09301  0.93945  1.0000
  H   H23       1.0  0.91833  0.46475  0.01428  1.0000
  H   H24       1.0  0.53558  0.45132  0.02271  1.0000
  H   H25       1.0  0.36734  0.39707  0.97693  1.0000
  H   H26       1.0  0.59560  0.96198  0.07376  1.0000
  H   H27       1.0  0.04283  0.64036  0.98725  1.0000
  H   H28       1.0  0.42141  0.36635  0.96740  1.0000
  H   H29       1.0  0.63628  0.04967  0.03180  1.0000
  H   H30       1.0  0.95850  0.58953  0.98226  1.0000
  H   H31       1.0  0.30180  0.71379  0.46136  1.0000
  H   H32       1.0  0.28222  0.58566  0.48763  1.0000
  H   H33       1.0  0.40579  0.69441  0.51302  1.0000
  H   H34       1.0  0.29447  0.54414  0.58714  1.0000
  H   H35       1.0  0.32303  0.49555  0.59601  1.0000
  H   H36       1.0  0.46389  0.61128  0.47927  1.0000
  H   H37       1.0  0.43637  0.66112  0.45970  1.0000
  H   H38       1.0  0.51534  0.89021  0.55826  1.0000
  H   H39       1.0  0.10197  0.63161  0.50303  1.0000
  H   H40       1.0  0.37257  0.47686  0.43930  1.0000
  H   H41       1.0  0.71292  0.30794  0.54897  1.0000
  H   H42       1.0  0.68397  0.40874  0.49555  1.0000
  H   H43       1.0  0.58600  0.27451  0.50072  1.0000
  H   H44       1.0  0.78903  0.36700  0.39203  1.0000
  H   H45       1.0  0.63048  0.41710  0.56370  1.0000
  H   H46       1.0  0.86633  0.42459  0.38151  1.0000
  H   H47       1.0  0.57800  0.43880  0.54473  1.0000
  H   H48       1.0  0.80340  0.49563  0.61972  1.0000
  H   H49       1.0  0.50272  0.32080  0.39501  1.0000
  H   H50       1.0  0.72435  0.43638  0.63923  1.0000
  H   H51       1.0  0.55778  0.29981  0.40374  1.0000
  H   H52       1.0  0.55184  0.08853  0.44377  1.0000
  H   H53       1.0  0.91128  0.46142  0.50913  1.0000
  H   H54       1.0  0.52759  0.44852  0.54020  1.0000
  H   H55       1.0  0.36768  0.40118  0.44186  1.0000
  H   H56       1.0  0.58710  0.95886  0.56707  1.0000
  H   H57       1.0  0.03484  0.63720  0.48183  1.0000
  H   H58       1.0  0.41940  0.36875  0.44559  1.0000
  H   H59       1.0  0.62598  0.04624  0.53074  1.0000
  H   H60       1.0  0.95069  0.58653  0.47532  1.0000
  C   C1        1.0  0.29545  0.65201  0.98341  1.0000
  C   C2        1.0  0.35540  0.64040  0.00300  1.0000
  C   C3        1.0  0.36788  0.71461  0.98659  1.0000
  C   C4        1.0  0.32476  0.69741  0.97313  1.0000
  C   C5        1.0  0.31135  0.62413  0.99856  1.0000
  C   C6        1.0  0.38286  0.68563  0.99919  1.0000
  C   C7        1.0  0.35117  0.56975  0.96702  1.0000
  C   C8        1.0  0.36554  0.54070  0.97474  1.0000
  C   C9        1.0  0.40192  0.55081  0.02610  1.0000
  C   C10       1.0  0.42275  0.59123  0.07041  1.0000
  C   C11       1.0  0.40759  0.61989  0.06534  1.0000
  C   C12       1.0  0.37149  0.61007  0.01312  1.0000
  C   C13       1.0  0.51033  0.91377  0.03476  1.0000
  C   C14       1.0  0.09139  0.59944  0.00820  1.0000
  C   C15       1.0  0.40073  0.48522  0.00739  1.0000
  C   C16       1.0  0.71265  0.36698  0.02196  1.0000
  C   C17       1.0  0.63906  0.34695  0.99823  1.0000
  C   C18       1.0  0.65958  0.29148  0.00998  1.0000
  C   C19       1.0  0.70083  0.32323  0.02449  1.0000
  C   C20       1.0  0.68097  0.37782  0.01175  1.0000
  C   C21       1.0  0.62922  0.30382  0.99737  1.0000
  C   C22       1.0  0.60097  0.20759  0.07523  1.0000
  C   C23       1.0  0.79984  0.39961  0.94777  1.0000
  C   C24       1.0  0.59164  0.16540  0.06685  1.0000
  C   C25       1.0  0.84364  0.43222  0.94183  1.0000
  C   C26       1.0  0.63068  0.16040  0.98468  1.0000
  C   C27       1.0  0.84825  0.46890  0.00738  1.0000
  C   C28       1.0  0.67915  0.19924  0.91142  1.0000
  C   C29       1.0  0.80730  0.47137  0.07746  1.0000
  C   C30       1.0  0.68816  0.24138  0.91709  1.0000
  C   C31       1.0  0.76341  0.43820  0.08599  1.0000
  C   C32       1.0  0.64934  0.24657  0.00094  1.0000
  C   C33       1.0  0.75843  0.40142  0.02140  1.0000
  C   C34       1.0  0.58743  0.08714  0.96771  1.0000
  C   C35       1.0  0.92336  0.49780  0.00338  1.0000
  C   C36       1.0  0.50759  0.42421  0.99722  1.0000
  C   C37       1.0  0.42055  0.45903  0.00312  1.0000
  C   C38       1.0  0.53907  0.96017  0.02680  1.0000
  C   C39       1.0  0.04635  0.58154  0.00259  1.0000
  C   C40       1.0  0.40097  0.41544  0.98648  1.0000
  C   C41       1.0  0.58157  0.98079  0.04497  1.0000
  C   C42       1.0  0.02561  0.60509  0.99153  1.0000
  C   C43       1.0  0.42940  0.39907  0.98082  1.0000
  C   C44       1.0  0.60346  0.02721  0.02163  1.0000
  C   C45       1.0  0.98118  0.57858  0.98902  1.0000
  C   C46       1.0  0.47117  0.43007  0.99267  1.0000
  C   C47       1.0  0.57746  0.04245  0.98717  1.0000
  C   C48       1.0  0.96745  0.53433  0.99720  1.0000
  C   C49       1.0  0.28656  0.64754  0.47819  1.0000
  C   C50       1.0  0.34644  0.63656  0.50159  1.0000
  C   C51       1.0  0.35857  0.71081  0.48091  1.0000
  C   C52       1.0  0.31520  0.69293  0.46896  1.0000
  C   C53       1.0  0.30313  0.62005  0.49079  1.0000
  C   C54       1.0  0.37323  0.68183  0.49802  1.0000
  C   C55       1.0  0.33228  0.55975  0.55722  1.0000
  C   C56       1.0  0.34847  0.53200  0.56205  1.0000
  C   C57       1.0  0.39680  0.55046  0.52886  1.0000
  C   C58       1.0  0.42722  0.59733  0.49784  1.0000
  C   C59       1.0  0.41107  0.62492  0.48906  1.0000
  C   C60       1.0  0.36332  0.60712  0.51646  1.0000
  C   C61       1.0  0.50191  0.90993  0.52872  1.0000
  C   C62       1.0  0.08263  0.59587  0.50766  1.0000
  C   C63       1.0  0.39976  0.48826  0.48860  1.0000
  C   C64       1.0  0.70408  0.36253  0.52073  1.0000
  C   C65       1.0  0.62999  0.34289  0.50298  1.0000
  C   C66       1.0  0.64878  0.28638  0.51947  1.0000
  C   C67       1.0  0.69095  0.31827  0.52852  1.0000
  C   C68       1.0  0.67312  0.37409  0.50821  1.0000
  C   C69       1.0  0.61841  0.29901  0.50935  1.0000
  C   C70       1.0  0.79106  0.39411  0.44906  1.0000
  C   C71       1.0  0.60349  0.39607  0.52191  1.0000
  C   C72       1.0  0.83502  0.42688  0.44169  1.0000
  C   C73       1.0  0.57314  0.40824  0.51317  1.0000
  C   C74       1.0  0.84015  0.46419  0.50300  1.0000
  C   C75       1.0  0.53540  0.38073  0.47149  1.0000
  C   C76       1.0  0.79944  0.46700  0.57135  1.0000
  C   C77       1.0  0.53067  0.34133  0.43354  1.0000
  C   C78       1.0  0.75543  0.43375  0.58135  1.0000
  C   C79       1.0  0.56163  0.32964  0.44010  1.0000
  C   C80       1.0  0.75006  0.39655  0.51950  1.0000
  C   C81       1.0  0.59846  0.35623  0.48700  1.0000
  C   C82       1.0  0.57608  0.08235  0.47238  1.0000
  C   C83       1.0  0.91555  0.49414  0.49850  1.0000
  C   C84       1.0  0.50180  0.42338  0.50060  1.0000
  C   C85       1.0  0.41753  0.46052  0.49255  1.0000
  C   C86       1.0  0.52992  0.95618  0.52219  1.0000
  C   C87       1.0  0.03781  0.57818  0.50045  1.0000
  C   C88       1.0  0.39927  0.41809  0.46490  1.0000
  C   C89       1.0  0.57259  0.97727  0.53924  1.0000
  C   C90       1.0  0.01736  0.60184  0.48732  1.0000
  C   C91       1.0  0.42645  0.40073  0.46624  1.0000
  C   C92       1.0  0.59342  0.02341  0.51950  1.0000
  C   C93       1.0  0.97303  0.57533  0.48379  1.0000
  C   C94       1.0  0.46605  0.42995  0.49326  1.0000
  C   C95       1.0  0.56670  0.03799  0.48733  1.0000
  C   C96       1.0  0.95926  0.53103  0.49312  1.0000
  S   S1        1.0  0.47494  0.47976  0.00933  1.0000
  S   S2        1.0  0.52632  0.99896  0.98144  1.0000
  S   S3        1.0  0.01023  0.52610  0.00778  1.0000
  S   S4        1.0  0.46877  0.47871  0.52001  1.0000
  S   S5        1.0  0.51572  0.99412  0.48178  1.0000
  S   S6        1.0  0.00180  0.52275  0.50595  1.0000
  N   N1        1.0  0.47584  0.89838  0.98861  1.0000
  N   N2        1.0  0.10833  0.57545  0.01923  1.0000
  N   N3        1.0  0.42036  0.52473  0.03152  1.0000
  N   N4        1.0  0.62404  0.11871  0.98322  1.0000
  N   N5        1.0  0.89089  0.50404  0.00256  1.0000
  N   N6        1.0  0.50587  0.38799  0.97490  1.0000
  N   N7        1.0  0.46470  0.89322  0.49777  1.0000
  N   N8        1.0  0.09891  0.57143  0.52111  1.0000
  N   N9        1.0  0.41612  0.52524  0.53307  1.0000
  N   N10       1.0  0.61197  0.11331  0.49303  1.0000
  N   N11       1.0  0.88276  0.49972  0.49680  1.0000
  N   N12       1.0  0.50184  0.38877  0.46340  1.0000
  C   C97       1.0  0.23146  0.66179  0.88197  1.0000
  C   C98       1.0  0.24521  0.64147  0.97571  1.0000
  C  Sn1       1.0  0.34002  0.67372  0.08407  1.0000
  C  Sn2       1.0  0.29271  0.64774  0.09854  1.0000
  C   C99       1.0  0.27932  0.66837  0.00412  1.0000
  C   C100      1.0  0.18481  0.63619  0.89612  1.0000
  H   H61       1.0  0.25699  0.69736  0.79832  1.0000
  O  Te1       1.0  0.35435  0.65395  0.17686  1.0000
  O  Te2       1.0  0.25932  0.60177  0.20584  1.0000
  H   H62       1.0  0.17416  0.65191  0.82346  1.0000
  Mg  Mg1       1.0  0.29590  0.59017  0.30612  1.0000
  C   C101      1.0  0.44725  0.80494  0.55039  1.0000
  C   C102      1.0  0.44563  0.84172  0.49944  1.0000
  C  Sn3       1.0  0.41111  0.83606  0.44596  1.0000
  C  Sn4       1.0  0.37762  0.79272  0.44362  1.0000
  C   C103      1.0  0.37951  0.75612  0.49497  1.0000
  C   C104      1.0  0.41422  0.76217  0.54820  1.0000
  H   H63       1.0  0.47409  0.80961  0.59167  1.0000
  O  Te3       1.0  0.41001  0.87317  0.39541  1.0000
  O  Te4       1.0  0.34272  0.78610  0.39082  1.0000
  H   H64       1.0  0.41545  0.73368  0.58775  1.0000
  Mg  Mg2       1.0  0.35573  0.84713  0.33380  1.0000
  C   C105      1.0  0.19676  0.64814  0.39348  1.0000
  C   C106      1.0  0.15492  0.60337  0.47720  1.0000
  C  Sn5       1.0  0.15388  0.57019  0.58125  1.0000
  C  Sn6       1.0  0.19556  0.58217  0.60167  1.0000
  C   C107      1.0  0.23723  0.62707  0.51748  1.0000
  C   C108      1.0  0.23788  0.65999  0.41361  1.0000
  H   H65       1.0  0.19726  0.67363  0.31319  1.0000
  O  Te5       1.0  0.11179  0.52561  0.66391  1.0000
  O  Te6       1.0  0.19551  0.54969  0.70497  1.0000
  H   H66       1.0  0.27027  0.69466  0.34891  1.0000
  Mg  Mg3       1.0  0.12948  0.49347  0.79103  1.0000
  C   C109      1.0  0.53656  0.33127  0.96073  1.0000
  C   C110      1.0  0.53684  0.36964  0.98275  1.0000
  C  Sn7       1.0  0.57545  0.40592  0.99581  1.0000
  C  Sn8       1.0  0.61446  0.40365  0.98656  1.0000
  C   C111      1.0  0.61386  0.36512  0.96438  1.0000
  C   C112      1.0  0.57503  0.32901  0.95152  1.0000
  H   H67       1.0  0.50653  0.30333  0.95067  1.0000
  O  Te7       1.0  0.70265  0.52216  0.01786  1.0000
  O  Te8       1.0  0.65351  0.43943  0.99918  1.0000
  H   H68       1.0  0.57484  0.29931  0.93434  1.0000
  Mg  Mg4       1.0  0.76405  0.56223  0.02844  1.0000
  C   C113      1.0  0.39357  0.82390  0.00250  1.0000
  C   C114      1.0  0.31195  0.77062  0.99453  1.0000
  C  Sn9       1.0  0.33864  0.75177  0.97466  1.0000
  C  Sn10      1.0  0.31893  0.70719  0.96253  1.0000
  C   C115      1.0  0.27301  0.68258  0.97051  1.0000
  C   C116      1.0  0.24660  0.70176  0.99047  1.0000
  H   H69       1.0  0.37314  0.83875  0.01783  1.0000
  O  Te9       1.0  0.38443  0.77710  0.96701  1.0000
  O  Te10      1.0  0.34484  0.68754  0.94256  1.0000
  H   H70       1.0  0.21108  0.68249  0.99651  1.0000
  Mg  Mg5       1.0  0.40574  0.73557  0.93899  1.0000
  C   C117      1.0  0.57483  0.16712  0.59172  1.0000
  C   C118      1.0  0.60795  0.15572  0.50672  1.0000
  C  Sn11      1.0  0.65854  0.18830  0.42841  1.0000
  C  Sn12      1.0  0.67618  0.23311  0.43559  1.0000
  C   C119      1.0  0.64273  0.24417  0.52105  1.0000
  C   C120      1.0  0.59219  0.21130  0.59892  1.0000
  H   H71       1.0  0.53572  0.14169  0.65206  1.0000
  O  Te11      1.0  0.69112  0.17634  0.34397  1.0000
  O  Te12      1.0  0.72654  0.26633  0.35848  1.0000
  H   H72       1.0  0.56655  0.22014  0.66483  1.0000
  Mg  Mg6       1.0  0.75640  0.23353  0.25854  1.0000
