data_image0
_chemical_formula_structural       H72C120S12N12SnCSn2CSnTe4Mg2SnCSn2CSnTe4Mg2SnCSn2CSnTe4Mg2SnCSn2CSnTe4Mg2SnCSn2CSnTe4Mg2SnCSn2CSnTe4Mg2
_chemical_formula_sum              "H72 C132 S12 N12 Sn24 Te24 Mg12"
_cell_length_a       42.7425
_cell_length_b       42.7603
_cell_length_c       8.17953
_cell_angle_alpha    61.902
_cell_angle_beta     114.539
_cell_angle_gamma    119.927

_symmetry_space_group_name_H-M    'P1'
_space_group_IT_number       1

loop_
  _space_group_symop_operation_xyz
  'x, y, z'

loop_
  _atom_site_type_symbol
  _atom_site_label
  _atom_site_symmetry_multiplicity
  _atom_site_fract_x
  _atom_site_fract_y
  _atom_site_fract_z
  _atom_site_occupancy
  H   H1        1.0  0.29604  0.59784  0.98084  1.0000
  H   H2        1.0  0.39542  0.69869  0.93627  1.0000
  H   H3        1.0  0.30209  0.69686  0.02448  1.0000
  H   H4        1.0  0.70785  0.39452  0.04100  1.0000
  H   H5        1.0  0.60011  0.30481  0.02167  1.0000
  H   H6        1.0  0.68956  0.29280  0.97505  1.0000
  H   H7        1.0  0.65911  0.24096  0.98743  1.0000
  H   H8        1.0  0.61798  0.17532  0.98677  1.0000
  H   H9        1.0  0.52763  0.19099  0.00240  1.0000
  H   H10       1.0  0.56783  0.25536  0.00532  1.0000
  H   H11       1.0  0.64105  0.49782  0.02665  1.0000
  H   H12       1.0  0.50013  0.13492  0.02323  1.0000
  H   H13       1.0  0.85535  0.36626  0.93071  1.0000
  H   H14       1.0  0.59279  0.58243  0.01955  1.0000
  H   H15       1.0  0.41576  0.00475  0.01376  1.0000
  H   H16       1.0  0.98822  0.40832  0.96772  1.0000
  H   H17       1.0  0.63966  0.55914  0.02210  1.0000
  H   H18       1.0  0.44019  0.07413  0.02121  1.0000
  H   H19       1.0  0.91710  0.36539  0.93841  1.0000
  H   H20       1.0  0.42657  0.49602  0.00773  1.0000
  H   H21       1.0  0.49684  0.92680  0.95839  1.0000
  H   H22       1.0  0.07416  0.56656  0.06266  1.0000
  H   H23       1.0  0.47378  0.47346  0.00544  1.0000
  H   H24       1.0  0.52112  0.99740  0.95319  1.0000
  H   H25       1.0  0.00385  0.52123  0.05939  1.0000
  H   H26       1.0  0.47328  0.60221  0.00527  1.0000
  H   H27       1.0  0.39581  0.86429  0.04212  1.0000
  H   H28       1.0  0.12612  0.52564  0.95861  1.0000
  H   H29       1.0  0.35810  0.81786  0.94936  1.0000
  H   H30       1.0  0.32468  0.75214  0.95411  1.0000
  H   H31       1.0  0.42555  0.74740  0.98696  1.0000
  H   H32       1.0  0.45877  0.81474  0.97214  1.0000
  H   H33       1.0  0.30077  0.60194  0.50572  1.0000
  H   H34       1.0  0.39984  0.70335  0.46443  1.0000
  H   H35       1.0  0.29958  0.70630  0.44855  1.0000
  H   H36       1.0  0.70842  0.40233  0.48770  1.0000
  H   H37       1.0  0.60403  0.30814  0.53240  1.0000
  H   H38       1.0  0.69569  0.29294  0.53150  1.0000
  H   H39       1.0  0.58121  0.34511  0.44960  1.0000
  H   H40       1.0  0.76417  0.41353  0.59047  1.0000
  H   H41       1.0  0.55651  0.38558  0.45723  1.0000
  H   H42       1.0  0.82899  0.43991  0.56921  1.0000
  H   H43       1.0  0.66768  0.46648  0.58082  1.0000
  H   H44       1.0  0.80404  0.34665  0.40474  1.0000
  H   H45       1.0  0.69239  0.42564  0.58390  1.0000
  H   H46       1.0  0.74011  0.32124  0.42005  1.0000
  H   H47       1.0  0.63980  0.50136  0.49706  1.0000
  H   H48       1.0  0.50268  0.14055  0.51835  1.0000
  H   H49       1.0  0.86007  0.36660  0.45266  1.0000
  H   H50       1.0  0.59413  0.58565  0.50897  1.0000
  H   H51       1.0  0.41721  0.01038  0.50609  1.0000
  H   H52       1.0  0.99274  0.40967  0.48840  1.0000
  H   H53       1.0  0.63979  0.56148  0.50626  1.0000
  H   H54       1.0  0.44175  0.07976  0.51426  1.0000
  H   H55       1.0  0.92180  0.36616  0.46204  1.0000
  H   H56       1.0  0.42860  0.50087  0.51224  1.0000
  H   H57       1.0  0.49938  0.93044  0.47741  1.0000
  H   H58       1.0  0.07523  0.57375  0.51011  1.0000
  H   H59       1.0  0.47460  0.47713  0.50733  1.0000
  H   H60       1.0  0.52351  0.00175  0.46290  1.0000
  H   H61       1.0  0.00400  0.52985  0.48349  1.0000
  H   H62       1.0  0.47642  0.60739  0.50463  1.0000
  H   H63       1.0  0.39517  0.87154  0.51988  1.0000
  H   H64       1.0  0.13377  0.52166  0.54826  1.0000
  H   H65       1.0  0.36488  0.81500  0.55275  1.0000
  H   H66       1.0  0.18003  0.55185  0.43190  1.0000
  H   H67       1.0  0.33144  0.75024  0.54414  1.0000
  H   H68       1.0  0.24427  0.58518  0.40722  1.0000
  H   H69       1.0  0.42088  0.76048  0.38127  1.0000
  H   H70       1.0  0.25698  0.67203  0.58370  1.0000
  H   H71       1.0  0.45551  0.82566  0.40000  1.0000
  H   H72       1.0  0.19135  0.63857  0.60256  1.0000
  C   C1        1.0  0.34845  0.64537  0.96810  1.0000
  C   C2        1.0  0.35113  0.70328  0.97630  1.0000
  C   C3        1.0  0.29354  0.64563  0.99502  1.0000
  C   C4        1.0  0.31119  0.62720  0.97986  1.0000
  C   C5        1.0  0.36750  0.68381  0.95925  1.0000
  C   C6        1.0  0.31436  0.68333  0.99755  1.0000
  C   C7        1.0  0.65167  0.35339  0.02301  1.0000
  C   C8        1.0  0.64206  0.29330  0.00509  1.0000
  C   C9        1.0  0.70339  0.34555  0.00748  1.0000
  C   C10       1.0  0.68915  0.36688  0.02441  1.0000
  C   C11       1.0  0.62886  0.31618  0.01709  1.0000
  C   C12       1.0  0.67932  0.30893  0.99639  1.0000
  C   C13       1.0  0.63048  0.23035  0.99312  1.0000
  C   C14       1.0  0.60754  0.19324  0.99249  1.0000
  C   C15       1.0  0.56998  0.17768  0.99663  1.0000
  C   C16       1.0  0.55644  0.20144  0.99955  1.0000
  C   C17       1.0  0.57956  0.23844  0.00083  1.0000
  C   C18       1.0  0.61739  0.25414  0.99857  1.0000
  C   C19       1.0  0.61105  0.48298  0.01883  1.0000
  C   C20       1.0  0.51509  0.12251  0.00455  1.0000
  C   C21       1.0  0.87149  0.39279  0.96607  1.0000
  C   C22       1.0  0.54942  0.52649  0.01498  1.0000
  C   C23       1.0  0.47088  0.01830  0.99388  1.0000
  C   C24       1.0  0.97754  0.45036  0.99564  1.0000
  C   C25       1.0  0.58541  0.55433  0.01758  1.0000
  C   C26       1.0  0.44373  0.02584  0.00530  1.0000
  C   C27       1.0  0.96813  0.41596  0.97413  1.0000
  C   C28       1.0  0.61046  0.54180  0.02083  1.0000
  C   C29       1.0  0.45661  0.06292  0.00827  1.0000
  C   C30       1.0  0.93013  0.39303  0.95783  1.0000
  C   C31       1.0  0.59394  0.50433  0.01946  1.0000
  C   C32       1.0  0.49369  0.08441  0.99809  1.0000
  C   C33       1.0  0.91012  0.40926  0.96938  1.0000
  C   C34       1.0  0.47224  0.55010  0.01770  1.0000
  C   C35       1.0  0.44480  0.91620  0.99779  1.0000
  C   C36       1.0  0.08009  0.52425  0.01426  1.0000
  C   C37       1.0  0.45594  0.51296  0.01275  1.0000
  C   C38       1.0  0.48107  0.93829  0.97459  1.0000
  C   C39       1.0  0.06074  0.53903  0.04176  1.0000
  C   C40       1.0  0.48110  0.50124  0.01099  1.0000
  C   C41       1.0  0.49373  0.97580  0.97101  1.0000
  C   C42       1.0  0.02331  0.51488  0.03855  1.0000
  C   C43       1.0  0.51716  0.52908  0.01401  1.0000
  C   C44       1.0  0.46742  0.98350  0.98970  1.0000
  C   C45       1.0  0.01328  0.48102  0.00930  1.0000
  C   C46       1.0  0.45551  0.57216  0.01674  1.0000
  C   C47       1.0  0.42236  0.87729  0.00260  1.0000
  C   C48       1.0  0.11799  0.54106  0.00027  1.0000
  C   C49       1.0  0.37331  0.80271  0.95843  1.0000
  C   C50       1.0  0.35429  0.76499  0.96220  1.0000
  C   C51       1.0  0.37204  0.74335  0.97474  1.0000
  C   C52       1.0  0.41029  0.76230  0.97947  1.0000
  C   C53       1.0  0.42943  0.80030  0.97206  1.0000
  C   C54       1.0  0.41169  0.82131  0.96538  1.0000
  C   C55       1.0  0.35219  0.65064  0.47808  1.0000
  C   C56       1.0  0.35251  0.70967  0.46089  1.0000
  C   C57       1.0  0.29535  0.65178  0.47754  1.0000
  C   C58       1.0  0.31467  0.63234  0.48553  1.0000
  C   C59       1.0  0.37068  0.68917  0.46730  1.0000
  C   C60       1.0  0.31457  0.69068  0.46080  1.0000
  C   C61       1.0  0.65457  0.35771  0.51629  1.0000
  C   C62       1.0  0.64622  0.29602  0.52206  1.0000
  C   C63       1.0  0.70710  0.34923  0.51443  1.0000
  C   C64       1.0  0.69157  0.37227  0.50637  1.0000
  C   C65       1.0  0.63254  0.31961  0.52379  1.0000
  C   C66       1.0  0.68404  0.31112  0.52430  1.0000
  C   C67       1.0  0.60054  0.37136  0.48142  1.0000
  C   C68       1.0  0.77239  0.39900  0.54602  1.0000
  C   C69       1.0  0.58628  0.39413  0.48292  1.0000
  C   C70       1.0  0.80910  0.41396  0.53577  1.0000
  C   C71       1.0  0.60974  0.42925  0.51543  1.0000
  C   C72       1.0  0.82199  0.39553  0.48792  1.0000
  C   C73       1.0  0.64839  0.44023  0.54870  1.0000
  C   C74       1.0  0.79607  0.36138  0.44924  1.0000
  C   C75       1.0  0.66242  0.41696  0.55012  1.0000
  C   C76       1.0  0.75940  0.34679  0.45818  1.0000
  C   C77       1.0  0.63904  0.38197  0.51536  1.0000
  C   C78       1.0  0.74634  0.36499  0.50684  1.0000
  C   C79       1.0  0.61078  0.48515  0.50939  1.0000
  C   C80       1.0  0.51735  0.12760  0.50160  1.0000
  C   C81       1.0  0.87493  0.39530  0.46561  1.0000
  C   C82       1.0  0.55052  0.52930  0.51468  1.0000
  C   C83       1.0  0.47263  0.02350  0.49235  1.0000
  C   C84       1.0  0.98101  0.45335  0.49363  1.0000
  C   C85       1.0  0.58639  0.55716  0.51072  1.0000
  C   C86       1.0  0.44533  0.03132  0.50026  1.0000
  C   C87       1.0  0.97224  0.41777  0.48714  1.0000
  C   C88       1.0  0.61082  0.54422  0.51087  1.0000
  C   C89       1.0  0.45828  0.06847  0.50266  1.0000
  C   C90       1.0  0.93428  0.39461  0.47179  1.0000
  C   C91       1.0  0.59404  0.50639  0.51453  1.0000
  C   C92       1.0  0.49550  0.08961  0.49515  1.0000
  C   C93       1.0  0.91360  0.41192  0.46847  1.0000
  C   C94       1.0  0.47467  0.55471  0.51943  1.0000
  C   C95       1.0  0.44661  0.92104  0.50361  1.0000
  C   C96       1.0  0.08420  0.52613  0.53115  1.0000
  C   C97       1.0  0.45795  0.51742  0.51605  1.0000
  C   C98       1.0  0.48331  0.94254  0.48653  1.0000
  C   C99       1.0  0.06287  0.54439  0.51242  1.0000
  C   C100      1.0  0.48251  0.50507  0.51323  1.0000
  C   C101      1.0  0.49593  0.98036  0.47860  1.0000
  C   C102      1.0  0.02506  0.52092  0.49805  1.0000
  C   C103      1.0  0.51871  0.53254  0.51499  1.0000
  C   C104      1.0  0.46926  0.98864  0.48995  1.0000
  C   C105      1.0  0.01657  0.48427  0.50512  1.0000
  C   C106      1.0  0.45843  0.57724  0.51875  1.0000
  C   C107      1.0  0.42349  0.88248  0.50415  1.0000
  C   C108      1.0  0.12315  0.54123  0.53972  1.0000
  C   C109      1.0  0.37739  0.80375  0.51231  1.0000
  C   C110      1.0  0.19695  0.57743  0.47220  1.0000
  C   C111      1.0  0.35817  0.76669  0.50653  1.0000
  C   C112      1.0  0.23365  0.59659  0.45767  1.0000
  C   C113      1.0  0.37302  0.74953  0.46150  1.0000
  C   C114      1.0  0.25638  0.63145  0.49451  1.0000
  C   C115      1.0  0.40854  0.77174  0.42266  1.0000
  C   C116      1.0  0.24025  0.64596  0.54773  1.0000
  C   C117      1.0  0.42823  0.80862  0.43149  1.0000
  C   C118      1.0  0.20341  0.62717  0.56037  1.0000
  C   C119      1.0  0.41321  0.82560  0.47627  1.0000
  C   C120      1.0  0.18092  0.59232  0.52415  1.0000
  S   S1        1.0  0.54706  0.48454  0.01636  1.0000
  S   S2        1.0  0.51279  0.05796  0.98813  1.0000
  S   S3        1.0  0.93874  0.45370  0.99767  1.0000
  S   S4        1.0  0.51909  0.57025  0.01802  1.0000
  S   S5        1.0  0.42671  0.94291  0.01359  1.0000
  S   S6        1.0  0.05120  0.47987  0.98557  1.0000
  S   S7        1.0  0.54769  0.48668  0.52098  1.0000
  S   S8        1.0  0.51469  0.06285  0.48864  1.0000
  S   S9        1.0  0.94164  0.45749  0.48331  1.0000
  S   S10       1.0  0.52141  0.57421  0.51818  1.0000
  S   S11       1.0  0.42811  0.94862  0.50830  1.0000
  S   S12       1.0  0.05658  0.47941  0.53196  1.0000
  N   N1        1.0  0.59182  0.44860  0.00988  1.0000
  N   N2        1.0  0.54952  0.14026  0.99237  1.0000
  N   N3        1.0  0.85694  0.40872  0.00142  1.0000
  N   N4        1.0  0.42093  0.55755  0.02234  1.0000
  N   N5        1.0  0.43372  0.85892  0.96385  1.0000
  N   N6        1.0  0.14069  0.57328  0.03016  1.0000
  N   N7        1.0  0.59254  0.44972  0.51576  1.0000
  N   N8        1.0  0.55186  0.14464  0.49053  1.0000
  N   N9        1.0  0.85954  0.41281  0.48358  1.0000
  N   N10       1.0  0.42410  0.56286  0.52776  1.0000
  N   N11       1.0  0.43571  0.86279  0.48092  1.0000
  N   N12       1.0  0.14393  0.57636  0.53444  1.0000
  C  Sn1       1.0  0.62030  0.20053  0.54690  1.0000
  C   C121      1.0  0.58272  0.18136  0.54995  1.0000
  C  Sn2       1.0  0.56186  0.20148  0.51650  1.0000
  C  Sn3       1.0  0.57891  0.24161  0.47910  1.0000
  C   C122      1.0  0.61647  0.26075  0.47603  1.0000
  C  Sn4       1.0  0.63736  0.24065  0.50951  1.0000
  O  Te1       1.0  0.64062  0.17983  0.58073  1.0000
  O  Te2       1.0  0.52434  0.18169  0.52034  1.0000
  O  Te3       1.0  0.55856  0.26230  0.44526  1.0000
  O  Te4       1.0  0.67486  0.26042  0.50564  1.0000
  Mg  Mg1       1.0  0.50832  0.22253  0.46553  1.0000
  Mg  Mg2       1.0  0.69090  0.21962  0.56033  1.0000
  C  Sn5       1.0  0.63738  0.30540  0.96015  1.0000
  C   C123      1.0  0.67368  0.31284  0.96865  1.0000
  C  Sn6       1.0  0.65730  0.41153  0.01630  1.0000
  C  Sn7       1.0  0.65043  0.43612  0.05641  1.0000
  C   C124      1.0  0.61414  0.42867  0.04793  1.0000
  C  Sn8       1.0  0.58456  0.39716  0.00026  1.0000
  O  Te5       1.0  0.60825  0.27372  0.91222  1.0000
  O  Te6       1.0  0.69335  0.41839  0.02382  1.0000
  O  Te7       1.0  0.67959  0.46781  0.10435  1.0000
  O  Te8       1.0  0.59447  0.32312  0.99276  1.0000
  Mg  Mg3       1.0  0.72381  0.46518  0.09595  1.0000
  Mg  Mg4       1.0  0.56399  0.27633  0.92075  1.0000
  C  Sn9       1.0  0.42173  0.61303  0.12048  1.0000
  C   C125      1.0  0.40693  0.58097  0.06605  1.0000
  C  Sn10      1.0  0.41736  0.50380  0.94717  1.0000
  C  Sn11      1.0  0.39619  0.52632  0.88122  1.0000
  C   C126      1.0  0.41099  0.55836  0.93562  1.0000
  C  Sn12      1.0  0.40057  0.63555  0.05453  1.0000
  O  Te9       1.0  0.45731  0.62249  0.23942  1.0000
  O  Te10      1.0  0.40315  0.47161  0.89473  1.0000
  O  Te11      1.0  0.36059  0.51683  0.76220  1.0000
  O  Te12      1.0  0.41478  0.66772  0.10694  1.0000
  Mg  Mg5       1.0  0.35335  0.47038  0.73020  1.0000
  Mg  Mg6       1.0  0.46458  0.66899  0.27137  1.0000
  C  Sn13      1.0  0.77082  0.40836  0.91620  1.0000
  C   C127      1.0  0.74503  0.37073  0.94135  1.0000
  C  Sn14      1.0  0.71103  0.40764  0.02045  1.0000
  C  Sn15      1.0  0.74956  0.41512  0.07569  1.0000
  C   C128      1.0  0.77533  0.45273  0.05057  1.0000
  C  Sn16      1.0  0.80936  0.41584  0.97144  1.0000
  O  Te13      1.0  0.75825  0.43818  0.83684  1.0000
  O  Te14      1.0  0.68472  0.37027  0.04413  1.0000
  O  Te15      1.0  0.76212  0.38526  0.15510  1.0000
  O  Te16      1.0  0.83565  0.45319  0.94779  1.0000
  Mg  Mg7       1.0  0.71556  0.33927  0.15874  1.0000
  Mg  Mg8       1.0  0.80484  0.48420  0.83330  1.0000
  C  Sn17      1.0  0.20848  0.56745  0.10337  1.0000
  C   C129      1.0  0.18448  0.58358  0.07664  1.0000
  C  Sn18      1.0  0.24004  0.55602  0.99670  1.0000
  C  Sn19      1.0  0.27434  0.58002  0.94223  1.0000
  C   C130      1.0  0.29831  0.56389  0.96893  1.0000
  C  Sn20      1.0  0.24278  0.59145  0.04889  1.0000
  O  Te17      1.0  0.19831  0.52778  0.18353  1.0000
  O  Te18      1.0  0.21559  0.57147  0.97144  1.0000
  O  Te19      1.0  0.28449  0.61972  0.86201  1.0000
  O  Te20      1.0  0.26720  0.57600  0.07412  1.0000
  Mg  Mg9       1.0  0.24187  0.62719  0.85624  1.0000
  Mg  Mg10      1.0  0.24094  0.52029  0.18922  1.0000
  C  Sn21      1.0  0.41802  0.64378  0.51253  1.0000
  C   C131      1.0  0.37994  0.63606  0.45333  1.0000
  C  Sn22      1.0  0.35433  0.60017  0.43941  1.0000
  C  Sn23      1.0  0.36706  0.57138  0.48573  1.0000
  C   C132      1.0  0.40512  0.57911  0.54491  1.0000
  C  Sn24      1.0  0.43075  0.61500  0.55885  1.0000
  O  Te21      1.0  0.44312  0.67986  0.52543  1.0000
  O  Te22      1.0  0.31639  0.59313  0.37983  1.0000
  O  Te23      1.0  0.34192  0.53528  0.47277  1.0000
  O  Te24      1.0  0.46866  0.62204  0.61841  1.0000
  Mg  Mg11      1.0  0.29305  0.53948  0.38488  1.0000
  Mg  Mg12      1.0  0.49203  0.67566  0.61351  1.0000
