data_image0
_chemical_formula_structural       H48C84S12N12C2Sn2C2HTe2HMgC2Sn2C2HTe2HMgC2Sn2C2HTe2HMgC2Sn2C2HTe2HMgC2Sn2C2HTe2HMgC2Sn2C2HTe2HMgC2Sn2C2HTe2HMgC2Sn2C2HTe2HMgC2Sn2C2HTe2HMgC2Sn2C2HTe2HMgC2Sn2C2HTe2HMgC2Sn2C2HTe2HMg
_chemical_formula_sum              "H72 C132 S12 N12 Sn24 Te24 Mg12"
_cell_length_a       42.7425
_cell_length_b       42.7603
_cell_length_c       8.17953
_cell_angle_alpha    61.902
_cell_angle_beta     114.539
_cell_angle_gamma    119.927

_symmetry_space_group_name_H-M    'P1'
_space_group_IT_number       1

loop_
  _space_group_symop_operation_xyz
  'x, y, z'

loop_
  _atom_site_type_symbol
  _atom_site_label
  _atom_site_symmetry_multiplicity
  _atom_site_fract_x
  _atom_site_fract_y
  _atom_site_fract_z
  _atom_site_occupancy
  H   H1        1.0  0.29604  0.59784  0.98084  1.0000
  H   H2        1.0  0.39542  0.69869  0.93627  1.0000
  H   H3        1.0  0.30209  0.69686  0.02448  1.0000
  H   H4        1.0  0.70785  0.39452  0.04100  1.0000
  H   H5        1.0  0.60011  0.30481  0.02167  1.0000
  H   H6        1.0  0.68956  0.29280  0.97505  1.0000
  H   H7        1.0  0.64105  0.49782  0.02665  1.0000
  H   H8        1.0  0.50013  0.13492  0.02323  1.0000
  H   H9        1.0  0.85535  0.36626  0.93071  1.0000
  H   H10       1.0  0.59279  0.58243  0.01955  1.0000
  H   H11       1.0  0.41576  0.00475  0.01376  1.0000
  H   H12       1.0  0.98822  0.40832  0.96772  1.0000
  H   H13       1.0  0.63966  0.55914  0.02210  1.0000
  H   H14       1.0  0.44019  0.07413  0.02121  1.0000
  H   H15       1.0  0.91710  0.36539  0.93841  1.0000
  H   H16       1.0  0.42657  0.49602  0.00773  1.0000
  H   H17       1.0  0.49684  0.92680  0.95839  1.0000
  H   H18       1.0  0.07416  0.56656  0.06266  1.0000
  H   H19       1.0  0.47378  0.47346  0.00544  1.0000
  H   H20       1.0  0.52112  0.99740  0.95319  1.0000
  H   H21       1.0  0.00385  0.52123  0.05939  1.0000
  H   H22       1.0  0.47328  0.60221  0.00527  1.0000
  H   H23       1.0  0.39581  0.86429  0.04212  1.0000
  H   H24       1.0  0.12612  0.52564  0.95861  1.0000
  H   H25       1.0  0.30077  0.60194  0.50572  1.0000
  H   H26       1.0  0.39984  0.70335  0.46443  1.0000
  H   H27       1.0  0.29958  0.70630  0.44855  1.0000
  H   H28       1.0  0.70842  0.40233  0.48770  1.0000
  H   H29       1.0  0.60403  0.30814  0.53240  1.0000
  H   H30       1.0  0.69569  0.29294  0.53150  1.0000
  H   H31       1.0  0.63980  0.50136  0.49706  1.0000
  H   H32       1.0  0.50268  0.14055  0.51835  1.0000
  H   H33       1.0  0.86007  0.36660  0.45266  1.0000
  H   H34       1.0  0.59413  0.58565  0.50897  1.0000
  H   H35       1.0  0.41721  0.01038  0.50609  1.0000
  H   H36       1.0  0.99274  0.40967  0.48840  1.0000
  H   H37       1.0  0.63979  0.56148  0.50626  1.0000
  H   H38       1.0  0.44175  0.07976  0.51426  1.0000
  H   H39       1.0  0.92180  0.36616  0.46204  1.0000
  H   H40       1.0  0.42860  0.50087  0.51224  1.0000
  H   H41       1.0  0.49938  0.93044  0.47741  1.0000
  H   H42       1.0  0.07523  0.57375  0.51011  1.0000
  H   H43       1.0  0.47460  0.47713  0.50733  1.0000
  H   H44       1.0  0.52351  0.00175  0.46290  1.0000
  H   H45       1.0  0.00400  0.52985  0.48349  1.0000
  H   H46       1.0  0.47642  0.60739  0.50463  1.0000
  H   H47       1.0  0.39517  0.87154  0.51988  1.0000
  H   H48       1.0  0.13377  0.52166  0.54826  1.0000
  C   C1        1.0  0.34845  0.64537  0.96810  1.0000
  C   C2        1.0  0.35113  0.70328  0.97630  1.0000
  C   C3        1.0  0.29354  0.64563  0.99502  1.0000
  C   C4        1.0  0.31119  0.62720  0.97986  1.0000
  C   C5        1.0  0.36750  0.68381  0.95925  1.0000
  C   C6        1.0  0.31436  0.68333  0.99755  1.0000
  C   C7        1.0  0.65167  0.35339  0.02301  1.0000
  C   C8        1.0  0.64206  0.29330  0.00509  1.0000
  C   C9        1.0  0.70339  0.34555  0.00748  1.0000
  C   C10       1.0  0.68915  0.36688  0.02441  1.0000
  C   C11       1.0  0.62886  0.31618  0.01709  1.0000
  C   C12       1.0  0.67932  0.30893  0.99639  1.0000
  C   C13       1.0  0.61105  0.48298  0.01883  1.0000
  C   C14       1.0  0.51509  0.12251  0.00455  1.0000
  C   C15       1.0  0.87149  0.39279  0.96607  1.0000
  C   C16       1.0  0.54942  0.52649  0.01498  1.0000
  C   C17       1.0  0.47088  0.01830  0.99388  1.0000
  C   C18       1.0  0.97754  0.45036  0.99564  1.0000
  C   C19       1.0  0.58541  0.55433  0.01758  1.0000
  C   C20       1.0  0.44373  0.02584  0.00530  1.0000
  C   C21       1.0  0.96813  0.41596  0.97413  1.0000
  C   C22       1.0  0.61046  0.54180  0.02083  1.0000
  C   C23       1.0  0.45661  0.06292  0.00827  1.0000
  C   C24       1.0  0.93013  0.39303  0.95783  1.0000
  C   C25       1.0  0.59394  0.50433  0.01946  1.0000
  C   C26       1.0  0.49369  0.08441  0.99809  1.0000
  C   C27       1.0  0.91012  0.40926  0.96938  1.0000
  C   C28       1.0  0.47224  0.55010  0.01770  1.0000
  C   C29       1.0  0.44480  0.91620  0.99779  1.0000
  C   C30       1.0  0.08009  0.52425  0.01426  1.0000
  C   C31       1.0  0.45594  0.51296  0.01275  1.0000
  C   C32       1.0  0.48107  0.93829  0.97459  1.0000
  C   C33       1.0  0.06074  0.53903  0.04176  1.0000
  C   C34       1.0  0.48110  0.50124  0.01099  1.0000
  C   C35       1.0  0.49373  0.97580  0.97101  1.0000
  C   C36       1.0  0.02331  0.51488  0.03855  1.0000
  C   C37       1.0  0.51716  0.52908  0.01401  1.0000
  C   C38       1.0  0.46742  0.98350  0.98970  1.0000
  C   C39       1.0  0.01328  0.48102  0.00930  1.0000
  C   C40       1.0  0.45551  0.57216  0.01674  1.0000
  C   C41       1.0  0.42236  0.87729  0.00260  1.0000
  C   C42       1.0  0.11799  0.54106  0.00027  1.0000
  C   C43       1.0  0.35219  0.65064  0.47808  1.0000
  C   C44       1.0  0.35251  0.70967  0.46089  1.0000
  C   C45       1.0  0.29535  0.65178  0.47754  1.0000
  C   C46       1.0  0.31467  0.63234  0.48553  1.0000
  C   C47       1.0  0.37068  0.68917  0.46730  1.0000
  C   C48       1.0  0.31457  0.69068  0.46080  1.0000
  C   C49       1.0  0.65457  0.35771  0.51629  1.0000
  C   C50       1.0  0.64622  0.29602  0.52206  1.0000
  C   C51       1.0  0.70710  0.34923  0.51443  1.0000
  C   C52       1.0  0.69157  0.37227  0.50637  1.0000
  C   C53       1.0  0.63254  0.31961  0.52379  1.0000
  C   C54       1.0  0.68404  0.31112  0.52430  1.0000
  C   C55       1.0  0.61078  0.48515  0.50939  1.0000
  C   C56       1.0  0.51735  0.12760  0.50160  1.0000
  C   C57       1.0  0.87493  0.39530  0.46561  1.0000
  C   C58       1.0  0.55052  0.52930  0.51468  1.0000
  C   C59       1.0  0.47263  0.02350  0.49235  1.0000
  C   C60       1.0  0.98101  0.45335  0.49363  1.0000
  C   C61       1.0  0.58639  0.55716  0.51072  1.0000
  C   C62       1.0  0.44533  0.03132  0.50026  1.0000
  C   C63       1.0  0.97224  0.41777  0.48714  1.0000
  C   C64       1.0  0.61082  0.54422  0.51087  1.0000
  C   C65       1.0  0.45828  0.06847  0.50266  1.0000
  C   C66       1.0  0.93428  0.39461  0.47179  1.0000
  C   C67       1.0  0.59404  0.50639  0.51453  1.0000
  C   C68       1.0  0.49550  0.08961  0.49515  1.0000
  C   C69       1.0  0.91360  0.41192  0.46847  1.0000
  C   C70       1.0  0.47467  0.55471  0.51943  1.0000
  C   C71       1.0  0.44661  0.92104  0.50361  1.0000
  C   C72       1.0  0.08420  0.52613  0.53115  1.0000
  C   C73       1.0  0.45795  0.51742  0.51605  1.0000
  C   C74       1.0  0.48331  0.94254  0.48653  1.0000
  C   C75       1.0  0.06287  0.54439  0.51242  1.0000
  C   C76       1.0  0.48251  0.50507  0.51323  1.0000
  C   C77       1.0  0.49593  0.98036  0.47860  1.0000
  C   C78       1.0  0.02506  0.52092  0.49805  1.0000
  C   C79       1.0  0.51871  0.53254  0.51499  1.0000
  C   C80       1.0  0.46926  0.98864  0.48995  1.0000
  C   C81       1.0  0.01657  0.48427  0.50512  1.0000
  C   C82       1.0  0.45843  0.57724  0.51875  1.0000
  C   C83       1.0  0.42349  0.88248  0.50415  1.0000
  C   C84       1.0  0.12315  0.54123  0.53972  1.0000
  S   S1        1.0  0.54706  0.48454  0.01636  1.0000
  S   S2        1.0  0.51279  0.05796  0.98813  1.0000
  S   S3        1.0  0.93874  0.45370  0.99767  1.0000
  S   S4        1.0  0.51909  0.57025  0.01802  1.0000
  S   S5        1.0  0.42671  0.94291  0.01359  1.0000
  S   S6        1.0  0.05120  0.47987  0.98557  1.0000
  S   S7        1.0  0.54769  0.48668  0.52098  1.0000
  S   S8        1.0  0.51469  0.06285  0.48864  1.0000
  S   S9        1.0  0.94164  0.45749  0.48331  1.0000
  S   S10       1.0  0.52141  0.57421  0.51818  1.0000
  S   S11       1.0  0.42811  0.94862  0.50830  1.0000
  S   S12       1.0  0.05658  0.47941  0.53196  1.0000
  N   N1        1.0  0.59182  0.44860  0.00988  1.0000
  N   N2        1.0  0.54952  0.14026  0.99237  1.0000
  N   N3        1.0  0.85694  0.40872  0.00142  1.0000
  N   N4        1.0  0.42093  0.55755  0.02234  1.0000
  N   N5        1.0  0.43372  0.85892  0.96385  1.0000
  N   N6        1.0  0.14069  0.57328  0.03016  1.0000
  N   N7        1.0  0.59254  0.44972  0.51576  1.0000
  N   N8        1.0  0.55186  0.14464  0.49053  1.0000
  N   N9        1.0  0.85954  0.41281  0.48358  1.0000
  N   N10       1.0  0.42410  0.56286  0.52776  1.0000
  N   N11       1.0  0.43571  0.86279  0.48092  1.0000
  N   N12       1.0  0.14393  0.57636  0.53444  1.0000
  C   C85       1.0  0.59150  0.36694  0.02293  1.0000
  C   C86       1.0  0.62662  0.37490  0.01168  1.0000
  C  Sn1       1.0  0.65496  0.41077  0.00765  1.0000
  C  Sn2       1.0  0.64792  0.43912  0.01508  1.0000
  C   C87       1.0  0.61270  0.43087  0.02645  1.0000
  C   C88       1.0  0.58454  0.39489  0.03034  1.0000
  H   H49       1.0  0.56972  0.33910  0.02604  1.0000
  O  Te1       1.0  0.73583  0.35107  0.99632  1.0000
  O  Te2       1.0  0.67574  0.47520  0.01133  1.0000
  H   H50       1.0  0.55736  0.38873  0.03917  1.0000
  Mg  Mg1       1.0  0.76474  0.40453  0.99513  1.0000
  C   C89       1.0  0.51199  0.27744  0.00581  1.0000
  C   C90       1.0  0.56499  0.18383  0.98559  1.0000
  C  Sn3       1.0  0.60055  0.19209  0.97900  1.0000
  C  Sn4       1.0  0.62953  0.22748  0.99301  1.0000
  C   C91       1.0  0.57625  0.32090  0.01334  1.0000
  C   C92       1.0  0.54057  0.31235  0.01971  1.0000
  H   H51       1.0  0.48439  0.27081  0.01084  1.0000
  O  Te3       1.0  0.60711  0.16536  0.95867  1.0000
  O  Te4       1.0  0.66533  0.23646  0.98690  1.0000
  H   H52       1.0  0.53512  0.33281  0.03549  1.0000
  Mg  Mg2       1.0  0.66051  0.19074  0.95758  1.0000
  C   C93       1.0  0.78847  0.34368  0.04057  1.0000
  C   C94       1.0  0.85983  0.31441  0.99941  1.0000
  C  Sn5       1.0  0.84979  0.34379  0.96569  1.0000
  C  Sn6       1.0  0.81363  0.33498  0.97347  1.0000
  C   C95       1.0  0.74247  0.36414  0.01490  1.0000
  C   C96       1.0  0.75280  0.33496  0.04835  1.0000
  H   H53       1.0  0.79646  0.32110  0.06655  1.0000
  O  Te5       1.0  0.87551  0.38150  0.92469  1.0000
  O  Te6       1.0  0.80287  0.36379  0.94043  1.0000
  H   H54       1.0  0.73313  0.30562  0.08034  1.0000
  Mg  Mg3       1.0  0.84777  0.41079  0.89005  1.0000
  C   C97       1.0  0.34777  0.58233  0.91775  1.0000
  C   C98       1.0  0.36181  0.61422  0.97236  1.0000
  C  Sn7       1.0  0.35388  0.69786  0.04782  1.0000
  C  Sn8       1.0  0.37823  0.68206  0.06877  1.0000
  C   C99       1.0  0.36391  0.65017  0.01358  1.0000
  C   C100      1.0  0.37176  0.56674  0.93830  1.0000
  H   H55       1.0  0.31830  0.56977  0.85940  1.0000
  O  Te7       1.0  0.36745  0.72970  0.10172  1.0000
  O  Te8       1.0  0.41635  0.69796  0.14371  1.0000
  H   H56       1.0  0.36090  0.54207  0.89591  1.0000
  Mg  Mg4       1.0  0.42153  0.74120  0.19665  1.0000
  C   C101      1.0  0.42983  0.79109  0.98050  1.0000
  C   C102      1.0  0.41613  0.81731  0.95236  1.0000
  C  Sn9       1.0  0.37872  0.80557  0.94356  1.0000
  C  Sn10      1.0  0.35464  0.76684  0.96339  1.0000
  C   C103      1.0  0.36862  0.74083  0.99163  1.0000
  C   C104      1.0  0.36016  0.82006  0.00015  1.0000
  H   H57       1.0  0.45884  0.80041  0.98720  1.0000
  O  Te9       1.0  0.36549  0.83215  0.91530  1.0000
  O  Te10      1.0  0.31713  0.75434  0.95523  1.0000
  H   H58       1.0  0.37076  0.79975  0.02206  1.0000
  Mg  Mg5       1.0  0.31221  0.80131  0.91433  1.0000
  C   C105      1.0  0.20593  0.56765  0.04347  1.0000
  C   C106      1.0  0.18245  0.58230  0.03684  1.0000
  C  Sn11      1.0  0.19488  0.62121  0.00683  1.0000
  C  Sn12      1.0  0.27746  0.57866  0.98302  1.0000
  C   C107      1.0  0.30073  0.56373  0.98976  1.0000
  C   C108      1.0  0.24206  0.59193  0.01993  1.0000
  H   H59       1.0  0.19608  0.53750  0.06671  1.0000
  O  Te11      1.0  0.17106  0.63537  0.00067  1.0000
  O  Te12      1.0  0.29059  0.61766  0.95276  1.0000
  H   H60       1.0  0.26024  0.58059  0.02493  1.0000
  Mg  Mg6       1.0  0.24768  0.62341  0.95588  1.0000
  C   C109      1.0  0.58445  0.38583  0.47098  1.0000
  C   C110      1.0  0.60340  0.41887  0.52148  1.0000
  C  Sn13      1.0  0.64219  0.43528  0.56259  1.0000
  C  Sn14      1.0  0.66229  0.41823  0.55279  1.0000
  C   C111      1.0  0.64306  0.38519  0.50200  1.0000
  C   C112      1.0  0.60425  0.36901  0.46121  1.0000
  H   H61       1.0  0.55442  0.37331  0.43931  1.0000
  O  Te13      1.0  0.66069  0.46829  0.61288  1.0000
  O  Te14      1.0  0.70106  0.43404  0.59309  1.0000
  H   H62       1.0  0.58958  0.34344  0.42199  1.0000
  Mg  Mg7       1.0  0.71372  0.47915  0.65498  1.0000
  C   C113      1.0  0.61936  0.20556  0.48326  1.0000
  C   C114      1.0  0.58292  0.18434  0.50577  1.0000
  C  Sn15      1.0  0.56403  0.20092  0.52433  1.0000
  C  Sn16      1.0  0.58202  0.23947  0.52018  1.0000
  C   C115      1.0  0.61846  0.26046  0.49746  1.0000
  C   C116      1.0  0.63711  0.24358  0.47908  1.0000
  H   H63       1.0  0.63378  0.19251  0.46893  1.0000
  O  Te15      1.0  0.52765  0.17932  0.54678  1.0000
  O  Te16      1.0  0.56378  0.25675  0.53834  1.0000
  H   H64       1.0  0.66531  0.26002  0.46153  1.0000
  Mg  Mg8       1.0  0.51440  0.21555  0.56590  1.0000
  C   C117      1.0  0.78212  0.40606  0.55558  1.0000
  C   C118      1.0  0.75192  0.37485  0.50791  1.0000
  C  Sn17      1.0  0.75699  0.35177  0.45190  1.0000
  C  Sn18      1.0  0.79299  0.36017  0.44366  1.0000
  C   C119      1.0  0.82302  0.39145  0.49176  1.0000
  C   C120      1.0  0.81764  0.41436  0.54756  1.0000
  H   H65       1.0  0.77796  0.42378  0.59885  1.0000
  O  Te17      1.0  0.72652  0.32070  0.40468  1.0000
  O  Te18      1.0  0.79884  0.33756  0.38822  1.0000
  H   H66       1.0  0.84103  0.43851  0.58458  1.0000
  Mg  Mg9       1.0  0.74856  0.29836  0.33754  1.0000
  C   C121      1.0  0.41929  0.63805  0.57632  1.0000
  C   C122      1.0  0.38188  0.63323  0.49948  1.0000
  C  Sn19      1.0  0.35645  0.60231  0.43521  1.0000
  C  Sn20      1.0  0.36879  0.57576  0.44836  1.0000
  C   C123      1.0  0.40627  0.58082  0.52558  1.0000
  C   C124      1.0  0.43148  0.61187  0.58940  1.0000
  H   H67       1.0  0.43880  0.66206  0.62581  1.0000
  O  Te19      1.0  0.31918  0.59793  0.35876  1.0000
  O  Te20      1.0  0.34396  0.54460  0.38526  1.0000
  H   H68       1.0  0.46044  0.61558  0.64901  1.0000
  Mg  Mg10      1.0  0.29596  0.55089  0.29195  1.0000
  C   C125      1.0  0.35894  0.77440  0.51944  1.0000
  C   C126      1.0  0.36799  0.75419  0.46391  1.0000
  C  Sn21      1.0  0.40203  0.77020  0.41733  1.0000
  C  Sn22      1.0  0.42743  0.80714  0.42669  1.0000
  C   C127      1.0  0.41812  0.82712  0.48254  1.0000
  C   C128      1.0  0.38398  0.81083  0.52878  1.0000
  H   H69       1.0  0.33253  0.76180  0.55532  1.0000
  O  Te21      1.0  0.41063  0.74962  0.36206  1.0000
  O  Te22      1.0  0.46165  0.82381  0.38097  1.0000
  H   H70       1.0  0.37699  0.82648  0.57189  1.0000
  Mg  Mg11      1.0  0.46069  0.78448  0.31357  1.0000
  C   C129      1.0  0.22497  0.58776  0.45808  1.0000
  C   C130      1.0  0.25060  0.62325  0.47764  1.0000
  C  Sn23      1.0  0.24141  0.64339  0.53292  1.0000
  C  Sn24      1.0  0.20588  0.62762  0.56925  1.0000
  C   C131      1.0  0.18045  0.59209  0.54941  1.0000
  C   C132      1.0  0.18993  0.57219  0.49396  1.0000
  H   H71       1.0  0.23231  0.57236  0.41528  1.0000
  O  Te23      1.0  0.26734  0.67882  0.55171  1.0000
  O  Te24      1.0  0.19597  0.64713  0.62476  1.0000
  H   H72       1.0  0.17009  0.54470  0.47895  1.0000
  Mg  Mg12      1.0  0.24084  0.69448  0.63079  1.0000
