data_image0
_chemical_formula_structural       H24C84N24C2Sn2C2HTe2HMgC2Sn2C2HTe2HMgC2Sn2C2HTe2HMgC2Sn2C2HTe2HMgC2Sn2C2HTe2HMgC2Sn2C2HTe2HMgC2Sn2C2HTe2HMgC2Sn2C2HTe2HMgC2Sn2C2HTe2HMgC2Sn2C2HTe2HMgC2Sn2C2HTe2HMgC2Sn2C2HTe2HMgC2Sn2C2HTe2HMgC2Sn2C2HTe2HMgC2Sn2C2HTe2HMgC2Sn2C2HTe2HMgC2Sn2C2HTe2HMgC2Sn2C2HTe2HMgC2Sn2C2HTe2HMgC2Sn2C2HTe2HMgC2Sn2C2HTe2HMgC2Sn2C2HTe2HMgC2Sn2C2HTe2HMgC2Sn2C2HTe2HMgC2Sn2C2HTe2HMgC2Sn2C2HTe2HMgC2Sn2C2HTe2HMgC2Sn2C2HTe2HMgC2Sn2C2HTe2HMgC2Sn2C2HTe2HMgC2Sn2C2HTe2HMgC2Sn2C2HTe2HMgC2Sn2C2HTe2HMgC2Sn2C2HTe2HMgC2Sn2C2HTe2HMgC2Sn2C2HTe2HMgC2Sn2C2HTe2HMgC2Sn2C2HTe2HMgC2Sn2C2HTe2HMgC2Sn2C2HTe2HMgC2Sn2C2HTe2HMgC2Sn2C2HTe2HMgC2Sn2C2HTe2HMgC2Sn2C2HTe2HMgC2Sn2C2HTe2HMgC2Sn2C2HTe2HMgC2Sn2C2HTe2HMgC2Sn2C2HTe2HMg
_chemical_formula_sum              "H120 C276 N24 Sn96 Te96 Mg48"
_cell_length_a       47.6599
_cell_length_b       47.7803
_cell_length_c       9.216
_cell_angle_alpha    79.076
_cell_angle_beta     88.8718
_cell_angle_gamma    60.422

_symmetry_space_group_name_H-M    'P1'
_space_group_IT_number       1

loop_
  _space_group_symop_operation_xyz
  'x, y, z'

loop_
  _atom_site_type_symbol
  _atom_site_label
  _atom_site_symmetry_multiplicity
  _atom_site_fract_x
  _atom_site_fract_y
  _atom_site_fract_z
  _atom_site_occupancy
  H   H1        1.0  0.37445  0.17965  0.05222  1.0000
  H   H2        1.0  0.18123  0.10936  0.09097  1.0000
  H   H3        1.0  0.99517  0.52566  0.01185  1.0000
  H   H4        1.0  0.01974  0.29057  0.39867  1.0000
  H   H5        1.0  0.05320  0.99231  0.11529  1.0000
  H   H6        1.0  0.03436  0.78016  0.50201  1.0000
  H   H7        1.0  0.88766  0.15120  0.06556  1.0000
  H   H8        1.0  0.62744  0.22172  0.44186  1.0000
  H   H9        1.0  0.83842  0.77994  0.03890  1.0000
  H   H10       1.0  0.64190  0.04286  0.45298  1.0000
  H   H11       1.0  0.13124  0.53428  0.39497  1.0000
  H   H12       1.0  0.39006  0.33529  0.96564  1.0000
  H   H13       1.0  0.37802  0.17331  0.56507  1.0000
  H   H14       1.0  0.18388  0.10448  0.60092  1.0000
  H   H15       1.0  0.99792  0.52492  0.51699  1.0000
  H   H16       1.0  0.01824  0.29166  0.89526  1.0000
  H   H17       1.0  0.05385  0.99233  0.61421  1.0000
  H   H18       1.0  0.02903  0.78311  0.00470  1.0000
  H   H19       1.0  0.88930  0.14793  0.54598  1.0000
  H   H20       1.0  0.62593  0.22232  0.96159  1.0000
  H   H21       1.0  0.83908  0.77560  0.54831  1.0000
  H   H22       1.0  0.64352  0.04432  0.96531  1.0000
  H   H23       1.0  0.12745  0.53583  0.89109  1.0000
  H   H24       1.0  0.39129  0.33679  0.44650  1.0000
  C   C1        1.0  0.38575  0.13790  0.44417  1.0000
  C   C2        1.0  0.17164  0.14713  0.20019  1.0000
  C   C3        1.0  0.39519  0.15713  0.49776  1.0000
  C   C4        1.0  0.16291  0.12710  0.14883  1.0000
  C   C5        1.0  0.14968  0.17248  0.27232  1.0000
  C   C6        1.0  0.40579  0.11436  0.35947  1.0000
  C   C7        1.0  0.04290  0.12998  0.04813  1.0000
  C   C8        1.0  0.01383  0.15980  0.02063  1.0000
  C   C9        1.0  0.97863  0.54608  0.44190  1.0000
  C   C10       1.0  0.96116  0.53876  0.35471  1.0000
  C   C11       1.0  0.93516  0.56346  0.24998  1.0000
  C   C12       1.0  0.97980  0.31573  0.02069  1.0000
  C   C13       1.0  0.00166  0.28808  0.46560  1.0000
  C   C14       1.0  0.95585  0.31594  0.11650  1.0000
  C   C15       1.0  0.03616  0.01364  0.03276  1.0000
  C   C16       1.0  0.01351  0.01010  0.46532  1.0000
  C   C17       1.0  0.98894  0.03591  0.35749  1.0000
  C   C18       1.0  0.99293  0.80503  0.14371  1.0000
  C   C19       1.0  0.01126  0.77997  0.07160  1.0000
  C   C20       1.0  0.96762  0.80578  0.23073  1.0000
  C   C21       1.0  0.00913  0.66390  0.49102  1.0000
  C   C22       1.0  0.97956  0.66468  0.48365  1.0000
  C   C23       1.0  0.88946  0.16745  0.46333  1.0000
  C   C24       1.0  0.86057  0.18881  0.38010  1.0000
  C   C25       1.0  0.85743  0.21372  0.25796  1.0000
  C   C26       1.0  0.65551  0.18287  0.13118  1.0000
  C   C27       1.0  0.62642  0.20289  0.04736  1.0000
  C   C28       1.0  0.65973  0.15738  0.25297  1.0000
  C   C29       1.0  0.50973  0.19780  0.47104  1.0000
  C   C30       1.0  0.51130  0.16740  0.49419  1.0000
  C   C31       1.0  0.85375  0.78085  0.46744  1.0000
  C   C32       1.0  0.84008  0.81275  0.38972  1.0000
  C   C33       1.0  0.85585  0.82193  0.27234  1.0000
  C   C34       1.0  0.63618  0.00948  0.10692  1.0000
  C   C35       1.0  0.62662  0.04138  0.03930  1.0000
  C   C36       1.0  0.61810  0.00188  0.21670  1.0000
  C   C37       1.0  0.13310  0.54911  0.46680  1.0000
  C   C38       1.0  0.16117  0.53751  0.02494  1.0000
  C   C39       1.0  0.16859  0.55423  0.11731  1.0000
  C   C40       1.0  0.35754  0.32953  0.34339  1.0000
  C   C41       1.0  0.38875  0.31983  0.39113  1.0000
  C   C42       1.0  0.35047  0.31034  0.26566  1.0000
  C   C43       1.0  0.38186  0.14172  0.94851  1.0000
  C   C44       1.0  0.17474  0.14430  0.69370  1.0000
  C   C45       1.0  0.39204  0.16109  0.99543  1.0000
  C   C46       1.0  0.16533  0.12402  0.64997  1.0000
  C   C47       1.0  0.15371  0.16983  0.76728  1.0000
  C   C48       1.0  0.40147  0.11734  0.86650  1.0000
  C   C49       1.0  0.04332  0.13002  0.55066  1.0000
  C   C50       1.0  0.01403  0.15966  0.52298  1.0000
  C   C51       1.0  0.97661  0.54711  0.93487  1.0000
  C   C52       1.0  0.95897  0.54055  0.84446  1.0000
  C   C53       1.0  0.93245  0.56576  0.74364  1.0000
  C   C54       1.0  0.98037  0.31546  0.51776  1.0000
  C   C55       1.0  0.00110  0.28854  0.96721  1.0000
  C   C56       1.0  0.95717  0.31523  0.61751  1.0000
  C   C57       1.0  0.03636  0.01389  0.53405  1.0000
  C   C58       1.0  0.01299  0.01001  0.96545  1.0000
  C   C59       1.0  0.98726  0.03667  0.86513  1.0000
  C   C60       1.0  0.99719  0.80367  0.63395  1.0000
  C   C61       1.0  0.01554  0.77814  0.56442  1.0000
  C   C62       1.0  0.97179  0.80457  0.72082  1.0000
  C   C63       1.0  0.00677  0.66506  0.99564  1.0000
  C   C64       1.0  0.97739  0.66555  0.98284  1.0000
  C   C65       1.0  0.88879  0.16862  0.97352  1.0000
  C   C66       1.0  0.86052  0.18895  0.88472  1.0000
  C   C67       1.0  0.85801  0.21293  0.75936  1.0000
  C   C68       1.0  0.65498  0.18398  0.62193  1.0000
  C   C69       1.0  0.62657  0.20400  0.53325  1.0000
  C   C70       1.0  0.65831  0.15882  0.74337  1.0000
  C   C71       1.0  0.50939  0.19753  0.97523  1.0000
  C   C72       1.0  0.51011  0.16755  0.99456  1.0000
  C   C73       1.0  0.85321  0.78411  0.95527  1.0000
  C   C74       1.0  0.84042  0.81587  0.87735  1.0000
  C   C75       1.0  0.85642  0.82478  0.76044  1.0000
  C   C76       1.0  0.63560  0.00843  0.60453  1.0000
  C   C77       1.0  0.62591  0.04014  0.53367  1.0000
  C   C78       1.0  0.61723  0.00136  0.71443  1.0000
  C   C79       1.0  0.13020  0.55019  0.96280  1.0000
  C   C80       1.0  0.16368  0.53726  0.53092  1.0000
  C   C81       1.0  0.17083  0.55491  0.61852  1.0000
  C   C82       1.0  0.35729  0.32876  0.85007  1.0000
  C   C83       1.0  0.38824  0.31916  0.90170  1.0000
  C   C84       1.0  0.35091  0.30926  0.77130  1.0000
  N   N1        1.0  0.13208  0.19347  0.33204  1.0000
  N   N2        1.0  0.42101  0.09516  0.28683  1.0000
  N   N3        1.0  0.91367  0.58259  0.16176  1.0000
  N   N4        1.0  0.93605  0.31785  0.19779  1.0000
  N   N5        1.0  0.96817  0.05619  0.26864  1.0000
  N   N6        1.0  0.94709  0.80719  0.30612  1.0000
  N   N7        1.0  0.85389  0.23388  0.15383  1.0000
  N   N8        1.0  0.66389  0.13659  0.35525  1.0000
  N   N9        1.0  0.86724  0.83072  0.17285  1.0000
  N   N10       1.0  0.60443  0.99489  0.31090  1.0000
  N   N11       1.0  0.17587  0.56705  0.19357  1.0000
  N   N12       1.0  0.34388  0.29523  0.20066  1.0000
  N   N13       1.0  0.13723  0.19050  0.83097  1.0000
  N   N14       1.0  0.41649  0.09757  0.79605  1.0000
  N   N15       1.0  0.91045  0.58523  0.65858  1.0000
  N   N16       1.0  0.93817  0.31669  0.70283  1.0000
  N   N17       1.0  0.96555  0.05777  0.78287  1.0000
  N   N18       1.0  0.95102  0.80609  0.79483  1.0000
  N   N19       1.0  0.85509  0.23227  0.65273  1.0000
  N   N20       1.0  0.66195  0.13830  0.84608  1.0000
  N   N21       1.0  0.86779  0.83346  0.66051  1.0000
  N   N22       1.0  0.60321  0.99492  0.80850  1.0000
  N   N23       1.0  0.17803  0.56832  0.69167  1.0000
  N   N24       1.0  0.34498  0.29398  0.70447  1.0000
  C   C85       1.0  0.30416  0.17213  0.54206  1.0000
  C   C86       1.0  0.29546  0.14819  0.54078  1.0000
  C  Sn1       1.0  0.31803  0.11761  0.51143  1.0000
  C  Sn2       1.0  0.34988  0.11094  0.48291  1.0000
  C   C87       1.0  0.35835  0.13504  0.48454  1.0000
  C   C88       1.0  0.33557  0.16556  0.51400  1.0000
  H   H25       1.0  0.28654  0.19574  0.56492  1.0000
  O  Te1       1.0  0.30893  0.09398  0.51053  1.0000
  O  Te2       1.0  0.37292  0.08058  0.45331  1.0000
  H   H26       1.0  0.34232  0.18408  0.51507  1.0000
  Mg  Mg1       1.0  0.34892  0.05632  0.46439  1.0000
  C   C89       1.0  0.31711  0.12514  0.92937  1.0000
  C   C90       1.0  0.27813  0.18432  0.03926  1.0000
  C  Sn3       1.0  0.28442  0.20237  0.12335  1.0000
  C  Sn4       1.0  0.31135  0.20713  0.09666  1.0000
  C   C91       1.0  0.35017  0.14786  0.98639  1.0000
  C   C92       1.0  0.34366  0.12983  0.90292  1.0000
  H   H27       1.0  0.31206  0.11121  0.86472  1.0000
  O  Te3       1.0  0.26410  0.21551  0.23275  1.0000
  O  Te4       1.0  0.31818  0.22507  0.17904  1.0000
  H   H28       1.0  0.35922  0.11953  0.81778  1.0000
  Mg  Mg2       1.0  0.28342  0.23811  0.31589  1.0000
  C   C93       1.0  0.25284  0.11352  0.09762  1.0000
  C   C94       1.0  0.26095  0.13806  0.09299  1.0000
  C  Sn5       1.0  0.23969  0.16712  0.13904  1.0000
  C  Sn6       1.0  0.20979  0.17162  0.19066  1.0000
  C   C95       1.0  0.20191  0.14691  0.19497  1.0000
  C   C96       1.0  0.22336  0.11794  0.14858  1.0000
  H   H29       1.0  0.26944  0.09109  0.06181  1.0000
  O  Te5       1.0  0.24816  0.19138  0.13363  1.0000
  O  Te6       1.0  0.18810  0.20042  0.23740  1.0000
  H   H30       1.0  0.21709  0.09893  0.15227  1.0000
  Mg  Mg3       1.0  0.21055  0.22633  0.20918  1.0000
  C   C97       1.0  0.44636  0.18594  0.57914  1.0000
  C   C98       1.0  0.47578  0.16827  0.51991  1.0000
  C  Sn7       1.0  0.47959  0.14542  0.43543  1.0000
  C  Sn8       1.0  0.45341  0.14023  0.40991  1.0000
  C   C99       1.0  0.42407  0.15805  0.46956  1.0000
  C   C100      1.0  0.42052  0.18084  0.55398  1.0000
  H   H31       1.0  0.44361  0.20359  0.64439  1.0000
  O  Te7       1.0  0.50916  0.12797  0.37713  1.0000
  O  Te8       1.0  0.45655  0.11755  0.32583  1.0000
  H   H32       1.0  0.39773  0.19454  0.59973  1.0000
  Mg  Mg4       1.0  0.50161  0.09974  0.26987  1.0000
  C   C101      1.0  0.42931  0.18755  0.07197  1.0000
  C   C102      1.0  0.42177  0.16852  0.00026  1.0000
  C  Sn9       1.0  0.46405  0.09969  0.92673  1.0000
  C  Sn10      1.0  0.49557  0.09574  0.92519  1.0000
  C   C103      1.0  0.50289  0.11488  0.99736  1.0000
  C   C104      1.0  0.46040  0.18366  0.07056  1.0000
  H   H33       1.0  0.41106  0.20528  0.12868  1.0000
  O  Te9       1.0  0.45610  0.08089  0.85560  1.0000
  O  Te10      1.0  0.51943  0.07295  0.85259  1.0000
  H   H34       1.0  0.46626  0.19838  0.12616  1.0000
  Mg  Mg5       1.0  0.49688  0.05307  0.77164  1.0000
  C   C105      1.0  0.08058  0.14937  0.20380  1.0000
  C   C106      1.0  0.07375  0.13282  0.11271  1.0000
  C  Sn11      1.0  0.09832  0.11063  0.04035  1.0000
  C  Sn12      1.0  0.13030  0.10494  0.05980  1.0000
  C   C107      1.0  0.13690  0.12160  0.15125  1.0000
  C   C108      1.0  0.11213  0.14377  0.22309  1.0000
  H   H35       1.0  0.06142  0.16651  0.25946  1.0000
  O  Te11      1.0  0.10995  0.04846  0.94969  1.0000
  O  Te12      1.0  0.17420  0.03703  0.98883  1.0000
  H   H36       1.0  0.11743  0.15656  0.29369  1.0000
  Mg  Mg6       1.0  0.15226  0.02074  0.87656  1.0000
  C   C109      1.0  0.95116  0.61704  0.35202  1.0000
  C   C110      1.0  0.97111  0.58438  0.42489  1.0000
  C  Sn13      1.0  0.99436  0.57664  0.53836  1.0000
  C  Sn14      1.0  0.99762  0.60212  0.57943  1.0000
  C   C111      1.0  0.97752  0.63471  0.50592  1.0000
  C   C112      1.0  0.95435  0.64218  0.39249  1.0000
  H   H37       1.0  0.93322  0.62282  0.26432  1.0000
  O  Te13      1.0  0.01410  0.54389  0.60997  1.0000
  O  Te14      1.0  0.02064  0.59508  0.69249  1.0000
  H   H38       1.0  0.93889  0.66747  0.33616  1.0000
  Mg  Mg7       1.0  0.04190  0.54666  0.75710  1.0000
  C   C113      1.0  0.94951  0.63303  0.85959  1.0000
  C   C114      1.0  0.96826  0.63666  0.96119  1.0000
  C  Sn15      1.0  0.97316  0.65499  0.05950  1.0000
  C  Sn16      1.0  0.97822  0.62329  0.05574  1.0000
  C   C115      1.0  0.97823  0.57406  0.95360  1.0000
  C   C116      1.0  0.95449  0.60176  0.85576  1.0000
  H   H39       1.0  0.93115  0.65445  0.78382  1.0000
  O  Te15      1.0  0.99167  0.65906  0.16034  1.0000
  O  Te16      1.0  0.00184  0.59537  0.15270  1.0000
  H   H40       1.0  0.93999  0.59894  0.77704  1.0000
  Mg  Mg8       1.0  0.02091  0.61354  0.26997  1.0000
  C   C117      1.0  0.95654  0.47384  0.23984  1.0000
  C   C118      1.0  0.97481  0.44547  0.34848  1.0000
  C  Sn17      1.0  0.98908  0.44707  0.47533  1.0000
  C  Sn18      1.0  0.98494  0.47769  0.49346  1.0000
  C   C119      1.0  0.96660  0.50594  0.38419  1.0000
  C   C120      1.0  0.95244  0.50405  0.25767  1.0000
  H   H41       1.0  0.94557  0.47239  0.14198  1.0000
  O  Te17      1.0  0.00726  0.41848  0.58276  1.0000
  O  Te18      1.0  0.99893  0.47999  0.61919  1.0000
  H   H42       1.0  0.93828  0.52603  0.17362  1.0000
  Mg  Mg9       1.0  0.02154  0.43417  0.73465  1.0000
  C   C121      1.0  0.99562  0.37747  0.31239  1.0000
  C   C122      1.0  0.98031  0.40414  0.38271  1.0000
  C  Sn19      1.0  0.96505  0.40171  0.51168  1.0000
  C  Sn20      1.0  0.96518  0.37199  0.57112  1.0000
  C   C123      1.0  0.98059  0.34544  0.50001  1.0000
  C   C124      1.0  0.99577  0.34815  0.37098  1.0000
  H   H43       1.0  0.00739  0.37955  0.21260  1.0000
  O  Te19      1.0  0.94985  0.42860  0.58050  1.0000
  O  Te20      1.0  0.95013  0.36889  0.69992  1.0000
  H   H44       1.0  0.00765  0.32748  0.31661  1.0000
  Mg  Mg10      1.0  0.93264  0.41239  0.75351  1.0000
  C   C125      1.0  0.01090  0.35496  0.93534  1.0000
  C   C126      1.0  0.98707  0.34730  0.98388  1.0000
  C  Sn21      1.0  0.95537  0.37237  0.98900  1.0000
  C  Sn22      1.0  0.94745  0.40571  0.94459  1.0000
  C   C127      1.0  0.97147  0.41312  0.89610  1.0000
  C   C128      1.0  0.00311  0.38784  0.89146  1.0000
  H   H45       1.0  0.03539  0.33540  0.93167  1.0000
  O  Te21      1.0  0.91297  0.41013  0.03784  1.0000
  O  Te22      1.0  0.91596  0.43126  0.94855  1.0000
  H   H46       1.0  0.02156  0.39377  0.85378  1.0000
  Mg  Mg11      1.0  0.87348  0.45363  0.02350  1.0000
  C   C129      1.0  0.97783  0.24265  0.06401  1.0000
  C   C130      1.0  0.99857  0.25449  0.01281  1.0000
  C  Sn23      1.0  0.04547  0.18909  0.94868  1.0000
  C  Sn24      1.0  0.05279  0.15711  0.93569  1.0000
  C   C131      1.0  0.03188  0.14549  0.98716  1.0000
  C   C132      1.0  0.98502  0.21111  0.05119  1.0000
  H   H47       1.0  0.95618  0.25795  0.11348  1.0000
  O  Te23      1.0  0.06594  0.20131  0.89815  1.0000
  O  Te24      1.0  0.08063  0.13706  0.87200  1.0000
  H   H48       1.0  0.96896  0.20194  0.09073  1.0000
  Mg  Mg12      1.0  0.10099  0.16468  0.81962  1.0000
  C   C133      1.0  0.03581  0.22246  0.42530  1.0000
  C   C134      1.0  0.01014  0.25070  0.46150  1.0000
  C  Sn25      1.0  0.98439  0.24933  0.53081  1.0000
  C  Sn26      1.0  0.98439  0.21909  0.56441  1.0000
  C   C135      1.0  0.01019  0.19097  0.52784  1.0000
  C   C136      1.0  0.03584  0.19262  0.45845  1.0000
  H   H49       1.0  0.05566  0.22373  0.37169  1.0000
  O  Te25      1.0  0.95893  0.27777  0.56616  1.0000
  O  Te26      1.0  0.95896  0.21703  0.63370  1.0000
  H   H50       1.0  0.05571  0.17075  0.43052  1.0000
  Mg  Mg13      1.0  0.92977  0.26253  0.65990  1.0000
  C   C137      1.0  0.06655  0.04477  0.64440  1.0000
  C   C138      1.0  0.04632  0.04146  0.54967  1.0000
  C  Sn27      1.0  0.02612  0.06773  0.43575  1.0000
  C  Sn28      1.0  0.02624  0.09785  0.41658  1.0000
  C   C139      1.0  0.04658  0.10091  0.51187  1.0000
  C   C140      1.0  0.06669  0.07447  0.62553  1.0000
  H   H51       1.0  0.08212  0.02431  0.73229  1.0000
  O  Te27      1.0  0.00606  0.06401  0.34213  1.0000
  O  Te28      1.0  0.00630  0.12450  0.30360  1.0000
  H   H52       1.0  0.08236  0.07703  0.69880  1.0000
  Mg  Mg14      1.0  0.98324  0.10740  0.20442  1.0000
  C   C141      1.0  0.02222  0.09478  0.89863  1.0000
  C   C142      1.0  0.02019  0.14537  0.00508  1.0000
  C  Sn29      1.0  0.04004  0.11932  0.12056  1.0000
  C  Sn30      1.0  0.04305  0.08797  0.12930  1.0000
  C   C143      1.0  0.02612  0.08348  0.02219  1.0000
  C   C144      1.0  0.02519  0.06386  0.90713  1.0000
  H   H53       1.0  0.00691  0.11507  0.80956  1.0000
  O  Te29      1.0  0.05669  0.12448  0.22602  1.0000
  O  Te30      1.0  0.06274  0.06151  0.24351  1.0000
  H   H54       1.0  0.01216  0.06018  0.82467  1.0000
  Mg  Mg15      1.0  0.08055  0.08078  0.36075  1.0000
  C   C145      1.0  0.99413  0.91547  0.99394  1.0000
  C   C146      1.0  0.99958  0.92849  0.03857  1.0000
  C  Sn31      1.0  0.03146  0.92061  0.07128  1.0000
  C  Sn32      1.0  0.03905  0.94614  0.05901  1.0000
  C   C147      1.0  0.01454  0.97891  0.01436  1.0000
  C   C148      1.0  0.00160  0.94066  0.98186  1.0000
  H   H55       1.0  0.96951  0.92135  0.96887  1.0000
  O  Te31      1.0  0.05547  0.88768  0.11566  1.0000
  O  Te32      1.0  0.07072  0.93896  0.09107  1.0000
  H   H56       1.0  0.47763  0.96608  0.94740  1.0000
  Mg  Mg16      1.0  0.09502  0.89033  0.14717  1.0000
  C   C149      1.0  0.99574  0.96578  0.37896  1.0000
  C   C150      1.0  0.50098  0.97922  0.47317  1.0000
  C  Sn33      1.0  0.01987  0.96167  0.61663  1.0000
  C  Sn34      1.0  0.02327  0.93009  0.66636  1.0000
  C   C151      1.0  0.01283  0.91685  0.57123  1.0000
  C   C152      1.0  0.99909  0.93463  0.42791  1.0000
  H   H57       1.0  0.98512  0.97952  0.26804  1.0000
  O  Te33      1.0  0.52496  0.97547  0.70933  1.0000
  O  Te34      1.0  0.03694  0.91202  0.80919  1.0000
  H   H58       1.0  0.99107  0.92421  0.35495  1.0000
  Mg  Mg17      1.0  0.04723  0.94129  0.89433  1.0000
  C   C153      1.0  0.03231  0.83599  0.09269  1.0000
  C   C154      1.0  0.00593  0.83217  0.13613  1.0000
  C  Sn35      1.0  0.97633  0.85951  0.15021  1.0000
  C  Sn36      1.0  0.97314  0.89124  0.12013  1.0000
  C   C155      1.0  0.99967  0.89481  0.07665  1.0000
  C   C156      1.0  0.02919  0.86727  0.06295  1.0000
  H   H59       1.0  0.05515  0.81469  0.08202  1.0000
  O  Te35      1.0  0.95022  0.85526  0.19377  1.0000
  O  Te36      1.0  0.94383  0.91899  0.13328  1.0000
  H   H60       1.0  0.04960  0.87024  0.02923  1.0000
  Mg  Mg18      1.0  0.91525  0.90060  0.19607  1.0000
  C   C157      1.0  0.01939  0.84661  0.47892  1.0000
  C   C158      1.0  0.00735  0.83297  0.59351  1.0000
  C  Sn37      1.0  0.99359  0.84924  0.70908  1.0000
  C  Sn38      1.0  0.99187  0.87973  0.70963  1.0000
  C   C159      1.0  0.00396  0.89317  0.59442  1.0000
  C   C160      1.0  0.01769  0.87668  0.47934  1.0000
  H   H61       1.0  0.02999  0.83386  0.38983  1.0000
  O  Te37      1.0  0.98169  0.83527  0.82273  1.0000
  O  Te38      1.0  0.97822  0.89651  0.82375  1.0000
  H   H62       1.0  0.02698  0.88725  0.39058  1.0000
  Mg  Mg19      1.0  0.96532  0.86750  0.95386  1.0000
  C   C161      1.0  0.03404  0.70794  0.94265  1.0000
  C   C162      1.0  0.99701  0.74001  0.00999  1.0000
  C  Sn39      1.0  0.97397  0.75584  0.10577  1.0000
  C  Sn40      1.0  0.96906  0.78602  0.13443  1.0000
  C   C163      1.0  0.98732  0.79962  0.06644  1.0000
  C   C164      1.0  0.02920  0.73772  0.97081  1.0000
  H   H63       1.0  0.05182  0.69553  0.86860  1.0000
  O  Te39      1.0  0.95606  0.74172  0.17216  1.0000
  O  Te40      1.0  0.94618  0.80237  0.22966  1.0000
  H   H64       1.0  0.04323  0.74840  0.91862  1.0000
  Mg  Mg20      1.0  0.92773  0.77332  0.29361  1.0000
  C   C165      1.0  0.98988  0.73376  0.64391  1.0000
  C   C166      1.0  0.00944  0.74630  0.58212  1.0000
  C  Sn41      1.0  0.03061  0.73168  0.47775  1.0000
  C  Sn42      1.0  0.03217  0.70400  0.43463  1.0000
  C   C167      1.0  0.01249  0.69166  0.49702  1.0000
  C   C168      1.0  0.99140  0.70647  0.60140  1.0000
  H   H65       1.0  0.97355  0.74523  0.72462  1.0000
  O  Te41      1.0  0.04999  0.74451  0.41715  1.0000
  O  Te42      1.0  0.05311  0.68892  0.33050  1.0000
  H   H66       1.0  0.97625  0.69677  0.64916  1.0000
  Mg  Mg21      1.0  0.07467  0.71542  0.27940  1.0000
  C   C169      1.0  0.94943  0.19097  0.37763  1.0000
  C   C170      1.0  0.97535  0.16948  0.48386  1.0000
  C  Sn43      1.0  0.97435  0.14399  0.58284  1.0000
  C  Sn44      1.0  0.94687  0.13999  0.57503  1.0000
  C   C171      1.0  0.92108  0.16160  0.46828  1.0000
  C   C172      1.0  0.92232  0.18703  0.36981  1.0000
  H   H67       1.0  0.95039  0.21063  0.30138  1.0000
  O  Te43      1.0  0.00045  0.12276  0.68832  1.0000
  O  Te44      1.0  0.94525  0.11471  0.67256  1.0000
  H   H68       1.0  0.90226  0.20364  0.28751  1.0000
  Mg  Mg22      1.0  0.98688  0.09207  0.79687  1.0000
  C   C173      1.0  0.95319  0.13661  0.09496  1.0000
  C   C174      1.0  0.92511  0.16165  0.00889  1.0000
  C  Sn45      1.0  0.94483  0.14130  0.90923  1.0000
  C  Sn46      1.0  0.97437  0.14166  0.89570  1.0000
  C   C175      1.0  0.00233  0.11648  0.98224  1.0000
  C   C176      1.0  0.98233  0.13694  0.08165  1.0000
  H   H69       1.0  0.95233  0.11695  0.17183  1.0000
  O  Te45      1.0  0.91656  0.16613  0.82412  1.0000
  O  Te46      1.0  0.97589  0.16684  0.79692  1.0000
  H   H70       1.0  0.00408  0.11754  0.14821  1.0000
  Mg  Mg23      1.0  0.93088  0.19517  0.70510  1.0000
  C   C177      1.0  0.80829  0.20102  0.01946  1.0000
  C   C178      1.0  0.83148  0.17955  0.92922  1.0000
  C  Sn47      1.0  0.80470  0.21002  0.86752  1.0000
  C  Sn48      1.0  0.77306  0.21612  0.89694  1.0000
  C   C179      1.0  0.76901  0.19157  0.98744  1.0000
  C   C180      1.0  0.77709  0.20702  0.04857  1.0000
  H   H71       1.0  0.82916  0.17750  0.06683  1.0000
  O  Te47      1.0  0.80944  0.23410  0.77758  1.0000
  O  Te48      1.0  0.74587  0.24635  0.83674  1.0000
  H   H72       1.0  0.77375  0.18816  0.11851  1.0000
  Mg  Mg24      1.0  0.76477  0.27137  0.72103  1.0000
  C   C181      1.0  0.79429  0.20771  0.30126  1.0000
  C   C182      1.0  0.82331  0.19423  0.38931  1.0000
  C  Sn49      1.0  0.82741  0.17570  0.53211  1.0000
  C  Sn50      1.0  0.80195  0.17059  0.58746  1.0000
  C   C183      1.0  0.77302  0.18415  0.49845  1.0000
  C   C184      1.0  0.76917  0.20267  0.35574  1.0000
  H   H73       1.0  0.79132  0.22202  0.19081  1.0000
  O  Te49      1.0  0.85656  0.16242  0.61863  1.0000
  O  Te50      1.0  0.80541  0.15215  0.72976  1.0000
  H   H74       1.0  0.74671  0.21308  0.28755  1.0000
  Mg  Mg25      1.0  0.84967  0.13911  0.80542  1.0000
  C   C185      1.0  0.69061  0.20584  0.93063  1.0000
  C   C186      1.0  0.66609  0.23447  0.05725  1.0000
  C  Sn51      1.0  0.68971  0.21712  0.17693  1.0000
  C  Sn52      1.0  0.71950  0.21707  0.16940  1.0000
  C   C187      1.0  0.72490  0.23439  0.04227  1.0000
  C   C188      1.0  0.71999  0.20581  0.92313  1.0000
  H   H75       1.0  0.67220  0.21921  0.83847  1.0000
  O  Te51      1.0  0.68369  0.20004  0.30257  1.0000
  O  Te52      1.0  0.74352  0.19995  0.28743  1.0000
  H   H76       1.0  0.72435  0.21915  0.82515  1.0000
  Mg  Mg26      1.0  0.72393  0.18037  0.43472  1.0000
  C   C189      1.0  0.70242  0.22012  0.47734  1.0000
  C   C190      1.0  0.73471  0.19576  0.51816  1.0000
  C  Sn53      1.0  0.74232  0.16445  0.59596  1.0000
  C  Sn54      1.0  0.71708  0.15747  0.63339  1.0000
  C   C191      1.0  0.68486  0.18200  0.59195  1.0000
  C   C192      1.0  0.67752  0.21325  0.51416  1.0000
  H   H77       1.0  0.69674  0.24430  0.41708  1.0000
  O  Te53      1.0  0.77470  0.14040  0.63594  1.0000
  O  Te54      1.0  0.72400  0.12638  0.71105  1.0000
  H   H78       1.0  0.65252  0.23210  0.48248  1.0000
  Mg  Mg27      1.0  0.77189  0.10177  0.74098  1.0000
  C   C193      1.0  0.57026  0.17479  0.13935  1.0000
  C   C194      1.0  0.54362  0.19539  0.03559  1.0000
  C  Sn55      1.0  0.56290  0.17413  0.92739  1.0000
  C  Sn56      1.0  0.59053  0.17809  0.92325  1.0000
  C   C195      1.0  0.59819  0.20319  0.02748  1.0000
  C   C196      1.0  0.59753  0.17868  0.13531  1.0000
  H   H79       1.0  0.56976  0.15582  0.22273  1.0000
  O  Te55      1.0  0.53607  0.19450  0.82460  1.0000
  O  Te56      1.0  0.59159  0.20245  0.81626  1.0000
  H   H80       1.0  0.61817  0.16272  0.21557  1.0000
  Mg  Mg28      1.0  0.54905  0.22414  0.70017  1.0000
  C   C197      1.0  0.56521  0.22753  0.38854  1.0000
  C   C198      1.0  0.58944  0.21098  0.50596  1.0000
  C  Sn57      1.0  0.58832  0.18785  0.62050  1.0000
  C  Sn58      1.0  0.56245  0.18121  0.61708  1.0000
  C   C199      1.0  0.53835  0.19788  0.49906  1.0000
  C   C200      1.0  0.53970  0.22099  0.38505  1.0000
  H   H81       1.0  0.56626  0.24539  0.30028  1.0000
  O  Te57      1.0  0.61272  0.17154  0.73701  1.0000
  O  Te58      1.0  0.56075  0.15820  0.73008  1.0000
  H   H82       1.0  0.52095  0.23379  0.29410  1.0000
  Mg  Mg29      1.0  0.59974  0.14234  0.86517  1.0000
  C   C201      1.0  0.92025  0.75082  0.38895  1.0000
  C   C202      1.0  0.89083  0.75362  0.43180  1.0000
  C  Sn59      1.0  0.88957  0.72586  0.50449  1.0000
  C  Sn60      1.0  0.91834  0.69475  0.53470  1.0000
  C   C203      1.0  0.94766  0.69221  0.49146  1.0000
  C   C204      1.0  0.94864  0.72015  0.41876  1.0000
  H   H83       1.0  0.92101  0.77244  0.33276  1.0000
  O  Te59      1.0  0.85997  0.72909  0.54649  1.0000
  O  Te60      1.0  0.91777  0.66661  0.60724  1.0000
  H   H84       1.0  0.97142  0.71797  0.38567  1.0000
  Mg  Mg30      1.0  0.87158  0.68356  0.64251  1.0000
  C   C205      1.0  0.93463  0.73579  0.87141  1.0000
  C   C206      1.0  0.94477  0.70400  0.95183  1.0000
  C  Sn61      1.0  0.90392  0.74266  0.02884  1.0000
  C  Sn62      1.0  0.87120  0.76781  0.02504  1.0000
  C   C207      1.0  0.88017  0.75368  0.94418  1.0000
  C   C208      1.0  0.90236  0.76061  0.86756  1.0000
  H   H85       1.0  0.95179  0.74115  0.81206  1.0000
  O  Te61      1.0  0.91446  0.71076  0.10868  1.0000
  O  Te62      1.0  0.84873  0.76129  0.10097  1.0000
  H   H86       1.0  0.89450  0.78522  0.80523  1.0000
  Mg  Mg31      1.0  0.87476  0.71401  0.19417  1.0000
  C   C209      1.0  0.78298  0.89921  0.87556  1.0000
  C   C210      1.0  0.75601  0.89982  0.94073  1.0000
  C  Sn63      1.0  0.75597  0.87050  0.99549  1.0000
  C  Sn64      1.0  0.78348  0.84004  0.98470  1.0000
  C   C211      1.0  0.81035  0.83969  0.91940  1.0000
  C   C212      1.0  0.81013  0.86917  0.86492  1.0000
  H   H87       1.0  0.78282  0.92202  0.83348  1.0000
  O  Te63      1.0  0.70994  0.91741  0.06022  1.0000
  O  Te64      1.0  0.76521  0.85622  0.03857  1.0000
  H   H88       1.0  0.83103  0.86869  0.81456  1.0000
  Mg  Mg32      1.0  0.72235  0.87040  0.11737  1.0000
  C   C213      1.0  0.77023  0.85444  0.58385  1.0000
  C   C214      1.0  0.75509  0.88745  0.51114  1.0000
  C  Sn65      1.0  0.76633  0.89695  0.38041  1.0000
  C  Sn66      1.0  0.79324  0.87288  0.32163  1.0000
  C   C215      1.0  0.80821  0.83991  0.39514  1.0000
  C   C216      1.0  0.79676  0.83068  0.52591  1.0000
  H   H89       1.0  0.76136  0.84729  0.68499  1.0000
  O  Te65      1.0  0.75093  0.93004  0.30921  1.0000
  O  Te66      1.0  0.80497  0.88169  0.19111  1.0000
  H   H90       1.0  0.80848  0.80512  0.58213  1.0000
  Mg  Mg33      1.0  0.77585  0.92989  0.13452  1.0000
  C   C217      1.0  0.19773  0.96647  0.90112  1.0000
  C   C218      1.0  0.72009  0.93413  0.98198  1.0000
  C  Sn67      1.0  0.68983  0.97029  0.11178  1.0000
  C  Sn68      1.0  0.15552  0.99346  0.16124  1.0000
  C   C219      1.0  0.13846  0.02576  0.07950  1.0000
  C   C220      1.0  0.16895  0.98935  0.94979  1.0000
  H   H91       1.0  0.20670  0.97377  0.80072  1.0000
  O  Te67      1.0  0.70733  0.93787  0.19126  1.0000
  O  Te68      1.0  0.64873  0.98443  0.29055  1.0000
  H   H92       1.0  0.15561  0.01439  0.88716  1.0000
  Mg  Mg34      1.0  0.68123  0.93739  0.36065  1.0000
  C   C221      1.0  0.19286  0.97967  0.48286  1.0000
  C   C222      1.0  0.16537  0.98166  0.54793  1.0000
  C  Sn69      1.0  0.66939  0.95306  0.60626  1.0000
  C  Sn70      1.0  0.69633  0.92193  0.59919  1.0000
  C   C223      1.0  0.72372  0.92020  0.53396  1.0000
  C   C224      1.0  0.72459  0.94898  0.47589  1.0000
  H   H93       1.0  0.19354  0.00193  0.43801  1.0000
  O  Te69      1.0  0.64173  0.95549  0.67083  1.0000
  O  Te70      1.0  0.69585  0.89295  0.65667  1.0000
  H   H94       1.0  0.74588  0.94743  0.42561  1.0000
  Mg  Mg35      1.0  0.65266  0.90900  0.73371  1.0000
  C   C225      1.0  0.54689  0.09782  0.12053  1.0000
  C   C226      1.0  0.54123  0.12871  0.04608  1.0000
  C  Sn71      1.0  0.58363  0.08574  0.96213  1.0000
  C  Sn72      1.0  0.61335  0.05710  0.95270  1.0000
  C   C227      1.0  0.59990  0.07215  0.02750  1.0000
  C   C228      1.0  0.57620  0.06956  0.11124  1.0000
  H   H95       1.0  0.52855  0.09581  0.18525  1.0000
  O  Te71      1.0  0.57758  0.11680  0.88850  1.0000
  O  Te72      1.0  0.63728  0.05926  0.86952  1.0000
  H   H96       1.0  0.58058  0.04563  0.16878  1.0000
  Mg  Mg36      1.0  0.61768  0.10708  0.78913  1.0000
  C   C229      1.0  0.57875  0.12555  0.44227  1.0000
  C   C230      1.0  0.54888  0.13485  0.50093  1.0000
  C  Sn73      1.0  0.54331  0.11129  0.59029  1.0000
  C  Sn74      1.0  0.56816  0.07780  0.62135  1.0000
  C   C231      1.0  0.59797  0.06875  0.56223  1.0000
  C   C232      1.0  0.60328  0.09254  0.47290  1.0000
  H   H97       1.0  0.58287  0.14396  0.37322  1.0000
  O  Te73      1.0  0.51332  0.12100  0.64795  1.0000
  O  Te74      1.0  0.56324  0.05374  0.71038  1.0000
  H   H98       1.0  0.62642  0.08533  0.42758  1.0000
  Mg  Mg37      1.0  0.51826  0.07914  0.76325  1.0000
  C   C233      1.0  0.04788  0.60780  0.86991  1.0000
  C   C234      1.0  0.03878  0.63088  0.95991  1.0000
  C  Sn75      1.0  0.04292  0.67488  0.05861  1.0000
  C  Sn76      1.0  0.07564  0.64943  0.06709  1.0000
  C   C235      1.0  0.10338  0.58062  0.97650  1.0000
  C   C236      1.0  0.08015  0.58269  0.87816  1.0000
  H   H99       1.0  0.02991  0.60941  0.79376  1.0000
  O  Te75      1.0  0.03341  0.69814  0.14777  1.0000
  O  Te76      1.0  0.09914  0.64702  0.16472  1.0000
  H   H100      1.0  0.08721  0.56483  0.80842  1.0000
  Mg  Mg38      1.0  0.07430  0.68453  0.26339  1.0000
  C   C237      1.0  0.07724  0.62368  0.57665  1.0000
  C   C238      1.0  0.04796  0.63465  0.49540  1.0000
  C  Sn77      1.0  0.04570  0.61598  0.40129  1.0000
  C  Sn78      1.0  0.07332  0.58575  0.38853  1.0000
  C   C239      1.0  0.10250  0.57498  0.47035  1.0000
  C   C240      1.0  0.10448  0.59387  0.56417  1.0000
  H   H101      1.0  0.07877  0.63828  0.64930  1.0000
  O  Te77      1.0  0.01627  0.62731  0.32088  1.0000
  O  Te78      1.0  0.07174  0.56659  0.29532  1.0000
  H   H102      1.0  0.12715  0.58535  0.62713  1.0000
  Mg  Mg39      1.0  0.02622  0.59247  0.20851  1.0000
  C   C241      1.0  0.20534  0.45686  0.45064  1.0000
  C   C242      1.0  0.23811  0.44770  0.45561  1.0000
  C  Sn79      1.0  0.24829  0.46809  0.49767  1.0000
  C  Sn80      1.0  0.22518  0.49819  0.53543  1.0000
  C   C243      1.0  0.19246  0.50711  0.53021  1.0000
  C   C244      1.0  0.18253  0.48653  0.48792  1.0000
  H   H103      1.0  0.19766  0.44092  0.41800  1.0000
  O  Te79      1.0  0.28112  0.45857  0.50199  1.0000
  O  Te80      1.0  0.23469  0.51902  0.57791  1.0000
  H   H104      1.0  0.15717  0.49362  0.48418  1.0000
  Mg  Mg40      1.0  0.28218  0.49529  0.56675  1.0000
  C   C245      1.0  0.22809  0.48706  0.09044  1.0000
  C   C246      1.0  0.19724  0.50501  0.01474  1.0000
  C  Sn81      1.0  0.20798  0.44731  0.90460  1.0000
  C  Sn82      1.0  0.23120  0.41690  0.86987  1.0000
  C   C247      1.0  0.26199  0.39911  0.94631  1.0000
  C   C248      1.0  0.25101  0.45706  0.05629  1.0000
  H   H105      1.0  0.23419  0.49640  0.17560  1.0000
  O  Te81      1.0  0.17705  0.46557  0.83002  1.0000
  O  Te82      1.0  0.22370  0.40448  0.76032  1.0000
  H   H106      1.0  0.27489  0.44314  0.11495  1.0000
  Mg  Mg41      1.0  0.17835  0.43837  0.68955  1.0000
  C   C249      1.0  0.28968  0.37809  0.29348  1.0000
  C   C250      1.0  0.32203  0.36292  0.34919  1.0000
  C  Sn83      1.0  0.33075  0.37404  0.46065  1.0000
  C  Sn84      1.0  0.30657  0.40086  0.51719  1.0000
  C   C251      1.0  0.27427  0.41587  0.46079  1.0000
  C   C252      1.0  0.26582  0.40454  0.34923  1.0000
  H   H107      1.0  0.28314  0.36932  0.20722  1.0000
  O  Te83      1.0  0.36318  0.35860  0.51502  1.0000
  O  Te84      1.0  0.31460  0.41247  0.62863  1.0000
  H   H108      1.0  0.24077  0.41628  0.30618  1.0000
  Mg  Mg42      1.0  0.36210  0.38335  0.66688  1.0000
  C   C253      1.0  0.27357  0.38456  0.86852  1.0000
  C   C254      1.0  0.27177  0.41121  0.91844  1.0000
  C  Sn85      1.0  0.29979  0.41286  0.94059  1.0000
  C  Sn86      1.0  0.33013  0.38733  0.91210  1.0000
  C   C255      1.0  0.33167  0.36079  0.86208  1.0000
  C   C256      1.0  0.30348  0.35938  0.84033  1.0000
  H   H109      1.0  0.25176  0.38348  0.85161  1.0000
  O  Te85      1.0  0.29756  0.43965  0.99056  1.0000
  O  Te86      1.0  0.35851  0.38837  0.93325  1.0000
  H   H110      1.0  0.30488  0.33876  0.80159  1.0000
  Mg  Mg43      1.0  0.32416  0.47581  0.00273  1.0000
  C   C257      1.0  0.45429  0.28011  0.49432  1.0000
  C   C258      1.0  0.42652  0.29036  0.40267  1.0000
  C  Sn87      1.0  0.42475  0.26880  0.32479  1.0000
  C  Sn88      1.0  0.45133  0.23638  0.33919  1.0000
  C   C259      1.0  0.47900  0.22635  0.43124  1.0000
  C   C260      1.0  0.48051  0.24813  0.50863  1.0000
  H   H111      1.0  0.45546  0.29695  0.55427  1.0000
  O  Te87      1.0  0.39682  0.27945  0.23366  1.0000
  O  Te88      1.0  0.45020  0.21432  0.26266  1.0000
  H   H112      1.0  0.50201  0.24017  0.57966  1.0000
  Mg  Mg44      1.0  0.40686  0.24034  0.15199  1.0000
  C   C261      1.0  0.44520  0.24141  0.82069  1.0000
  C   C262      1.0  0.47395  0.23209  0.90240  1.0000
  C  Sn89      1.0  0.47508  0.25262  0.98893  1.0000
  C  Sn90      1.0  0.44687  0.28303  0.99357  1.0000
  C   C263      1.0  0.41823  0.29213  0.91151  1.0000
  C   C264      1.0  0.41737  0.27140  0.82524  1.0000
  H   H113      1.0  0.44453  0.22537  0.75401  1.0000
  O  Te89      1.0  0.48512  0.28878  0.06984  1.0000
  O  Te90      1.0  0.42845  0.34987  0.07918  1.0000
  H   H114      1.0  0.39511  0.27861  0.76207  1.0000
  Mg  Mg45      1.0  0.47363  0.32581  0.16997  1.0000
  C   C265      1.0  0.23758  0.16409  0.70211  1.0000
  C   C266      1.0  0.26146  0.14479  0.61763  1.0000
  C  Sn91      1.0  0.25675  0.12430  0.54346  1.0000
  C  Sn92      1.0  0.22756  0.12319  0.55424  1.0000
  C   C267      1.0  0.20382  0.14261  0.63896  1.0000
  C   C268      1.0  0.20878  0.16301  0.71276  1.0000
  H   H115      1.0  0.24141  0.17989  0.75915  1.0000
  O  Te91      1.0  0.28086  0.10517  0.45957  1.0000
  O  Te92      1.0  0.22222  0.10294  0.48121  1.0000
  H   H116      1.0  0.19029  0.17797  0.77808  1.0000
  Mg  Mg46      1.0  0.26230  0.08147  0.38044  1.0000
  C   C269      1.0  0.09714  0.15055  0.70806  1.0000
  C   C270      1.0  0.12794  0.12967  0.66864  1.0000
  C  Sn93      1.0  0.13222  0.10692  0.58271  1.0000
  C  Sn94      1.0  0.10511  0.10510  0.53550  1.0000
  C   C271      1.0  0.07440  0.12611  0.57544  1.0000
  C   C272      1.0  0.07039  0.14879  0.66150  1.0000
  H   H117      1.0  0.09404  0.16811  0.77458  1.0000
  O  Te93      1.0  0.16316  0.08623  0.54436  1.0000
  O  Te94      1.0  0.10870  0.08259  0.44949  1.0000
  H   H118      1.0  0.04654  0.16497  0.69193  1.0000
  Mg  Mg47      1.0  0.15573  0.05963  0.42564  1.0000
  C   C273      1.0  0.00022  0.46958  0.91434  1.0000
  C   C274      1.0  0.97357  0.50005  0.85142  1.0000
  C  Sn95      1.0  0.94463  0.50216  0.80671  1.0000
  C  Sn96      1.0  0.94240  0.47317  0.82553  1.0000
  C   C275      1.0  0.96918  0.44280  0.88868  1.0000
  C   C276      1.0  0.99803  0.44098  0.93298  1.0000
  H   H119      1.0  0.02253  0.46816  0.94869  1.0000
  O  Te95      1.0  0.91824  0.53280  0.74400  1.0000
  O  Te96      1.0  0.91376  0.47458  0.78187  1.0000
  H   H120      1.0  0.01865  0.41738  0.98179  1.0000
  Mg  Mg48      1.0  0.88445  0.52206  0.70190  1.0000
