data_image0
_chemical_formula_structural       H24C60N12SnCSn2CSnTe4Mg2SnCSn2CSnTe4Mg2SnCSn2CSnTe4Mg2SnCSn2CSnTe4Mg2SnCSn2CSnTe4Mg2SnCSn2CSnTe4Mg2SnCSn2CSnTe4Mg2SnCSn2CSnTe4Mg2SnCSn2CSnTe4Mg2SnCSn2CSnTe4Mg2SnCSn2CSnTe4Mg2SnCSn2CSnTe4Mg2SnCSn2CSnTe4Mg2SnCSn2CSnTe4Mg2SnCSn2CSnTe4Mg2SnCSn2CSnTe4Mg2SnCSn2CSnTe4Mg2SnCSn2CSnTe4Mg2
_chemical_formula_sum              "H24 C96 N12 Sn72 Te72 Mg36"
_cell_length_a       38.3748
_cell_length_b       37.2568
_cell_length_c       8.01068
_cell_angle_alpha    80.9493
_cell_angle_beta     78.1671
_cell_angle_gamma    59.2876

_symmetry_space_group_name_H-M    'P1'
_space_group_IT_number       1

loop_
  _space_group_symop_operation_xyz
  'x, y, z'

loop_
  _atom_site_type_symbol
  _atom_site_label
  _atom_site_symmetry_multiplicity
  _atom_site_fract_x
  _atom_site_fract_y
  _atom_site_fract_z
  _atom_site_occupancy
  H   H1        1.0  0.82747  0.06101  0.22203  1.0000
  H   H2        1.0  0.01250  0.08420  0.08433  1.0000
  H   H3        1.0  0.81915  0.88304  0.05207  1.0000
  H   H4        1.0  0.71576  0.99497  0.45323  1.0000
  H   H5        1.0  0.71921  0.87911  0.42007  1.0000
  H   H6        1.0  0.13792  0.15208  0.50666  1.0000
  H   H7        1.0  0.01749  0.26879  0.06638  1.0000
  H   H8        1.0  0.13065  0.27232  0.45425  1.0000
  H   H9        1.0  0.32168  0.16221  0.38000  1.0000
  H   H10       1.0  0.89343  0.68463  0.39514  1.0000
  H   H11       1.0  0.94023  0.46681  0.15554  1.0000
  H   H12       1.0  0.54126  0.00388  0.21864  1.0000
  H   H13       1.0  0.82617  0.05811  0.72135  1.0000
  H   H14       1.0  0.00783  0.08507  0.57359  1.0000
  H   H15       1.0  0.82209  0.87725  0.55512  1.0000
  H   H16       1.0  0.71283  0.00151  0.95798  1.0000
  H   H17       1.0  0.71576  0.88651  0.91406  1.0000
  H   H18       1.0  0.13656  0.15884  0.01554  1.0000
  H   H19       1.0  0.02066  0.26433  0.56605  1.0000
  H   H20       1.0  0.12556  0.28051  0.97373  1.0000
  H   H21       1.0  0.32009  0.16650  0.90406  1.0000
  H   H22       1.0  0.88958  0.69009  0.92129  1.0000
  H   H23       1.0  0.94940  0.46075  0.64221  1.0000
  H   H24       1.0  0.53974  0.01174  0.71024  1.0000
  C   C1        1.0  0.95756  0.11690  0.24602  1.0000
  C   C2        1.0  0.88897  0.01497  0.16105  1.0000
  C   C3        1.0  0.99461  0.11163  0.15981  1.0000
  C   C4        1.0  0.84768  0.02895  0.18456  1.0000
  C   C5        1.0  0.93090  0.15126  0.35007  1.0000
  C   C6        1.0  0.91723  0.97617  0.08522  1.0000
  C   C7        1.0  0.76800  0.94551  0.01658  1.0000
  C   C8        1.0  0.78849  0.90160  0.01814  1.0000
  C   C9        1.0  0.73163  0.96106  0.46586  1.0000
  C   C10       1.0  0.77309  0.87384  0.48589  1.0000
  C   C11       1.0  0.71236  0.94037  0.42842  1.0000
  C   C12       1.0  0.73331  0.89636  0.44429  1.0000
  C   C13       1.0  0.07471  0.21071  0.04571  1.0000
  C   C14       1.0  0.11980  0.18603  0.50486  1.0000
  C   C15       1.0  0.05068  0.25442  0.04876  1.0000
  C   C16       1.0  0.13967  0.20984  0.47345  1.0000
  C   C17       1.0  0.06849  0.28001  0.02351  1.0000
  C   C18       1.0  0.11140  0.26099  0.99200  1.0000
  C   C19       1.0  0.31438  0.14204  0.32725  1.0000
  C   C20       1.0  0.34761  0.10837  0.24874  1.0000
  C   C21       1.0  0.34332  0.07902  0.17305  1.0000
  C   C22       1.0  0.86602  0.69371  0.48990  1.0000
  C   C23       1.0  0.85529  0.66793  0.09414  1.0000
  C   C24       1.0  0.81987  0.67642  0.21718  1.0000
  C   C25       1.0  0.97864  0.48638  0.45625  1.0000
  C   C26       1.0  0.51371  0.06492  0.29253  1.0000
  C   C27       1.0  0.51710  0.09631  0.35763  1.0000
  C   C28       1.0  0.01206  0.48023  0.32475  1.0000
  C   C29       1.0  0.96703  0.45917  0.05825  1.0000
  C   C30       1.0  0.54700  0.02572  0.26808  1.0000
  C   C31       1.0  0.95495  0.11693  0.74585  1.0000
  C   C32       1.0  0.88829  0.01309  0.66481  1.0000
  C   C33       1.0  0.99155  0.11156  0.65426  1.0000
  C   C34       1.0  0.84725  0.02615  0.68437  1.0000
  C   C35       1.0  0.92960  0.15056  0.85444  1.0000
  C   C36       1.0  0.91745  0.97379  0.59399  1.0000
  C   C37       1.0  0.77071  0.93946  0.51676  1.0000
  C   C38       1.0  0.79148  0.89551  0.52037  1.0000
  C   C39       1.0  0.72875  0.96758  0.96760  1.0000
  C   C40       1.0  0.76985  0.88025  0.98281  1.0000
  C   C41       1.0  0.70938  0.94722  0.92819  1.0000
  C   C42       1.0  0.73014  0.90324  0.94080  1.0000
  C   C43       1.0  0.07687  0.20529  0.54130  1.0000
  C   C44       1.0  0.11751  0.19271  0.01272  1.0000
  C   C45       1.0  0.05392  0.24903  0.54469  1.0000
  C   C46       1.0  0.13636  0.21743  0.98528  1.0000
  C   C47       1.0  0.07287  0.27358  0.51357  1.0000
  C   C48       1.0  0.11570  0.25350  0.47816  1.0000
  C   C49       1.0  0.31178  0.14786  0.84628  1.0000
  C   C50       1.0  0.34430  0.11457  0.76227  1.0000
  C   C51       1.0  0.33887  0.08621  0.68544  1.0000
  C   C52       1.0  0.86080  0.69992  0.00774  1.0000
  C   C53       1.0  0.86210  0.66108  0.57965  1.0000
  C   C54       1.0  0.82802  0.66854  0.70908  1.0000
  C   C55       1.0  0.97010  0.49272  0.97359  1.0000
  C   C56       1.0  0.51049  0.07181  0.79713  1.0000
  C   C57       1.0  0.51302  0.10312  0.86727  1.0000
  C   C58       1.0  0.00358  0.48666  0.84253  1.0000
  C   C59       1.0  0.97566  0.45289  0.54180  1.0000
  C   C60       1.0  0.54440  0.03326  0.76816  1.0000
  N   N1        1.0  0.90843  0.17844  0.44006  1.0000
  N   N2        1.0  0.94161  0.94224  0.53202  1.0000
  N   N3        1.0  0.34140  0.05433  0.10680  1.0000
  N   N4        1.0  0.79150  0.68261  0.32177  1.0000
  N   N5        1.0  0.03880  0.47618  0.21417  1.0000
  N   N6        1.0  0.51415  0.12938  0.92542  1.0000
  N   N7        1.0  0.90807  0.17730  0.94750  1.0000
  N   N8        1.0  0.94130  0.94544  0.01724  1.0000
  N   N9        1.0  0.33553  0.06265  0.61798  1.0000
  N   N10       1.0  0.80093  0.67358  0.81920  1.0000
  N   N11       1.0  0.03006  0.48307  0.73139  1.0000
  N   N12       1.0  0.51891  0.12250  0.41276  1.0000
  C  Sn1       1.0  0.88124  0.08881  0.26053  1.0000
  C   C61       1.0  0.89938  0.05218  0.17430  1.0000
  C  Sn2       1.0  0.94176  0.03024  0.12428  1.0000
  C  Sn3       1.0  0.96653  0.04521  0.16131  1.0000
  C   C62       1.0  0.94840  0.08181  0.24751  1.0000
  C  Sn4       1.0  0.90602  0.10378  0.29756  1.0000
  O  Te1       1.0  0.83882  0.11024  0.30934  1.0000
  O  Te2       1.0  0.46334  0.99371  0.03816  1.0000
  O  Te3       1.0  0.00899  0.02374  0.11241  1.0000
  O  Te4       1.0  0.88859  0.14028  0.38366  1.0000
  Mg  Mg1       1.0  0.48731  0.96022  0.99807  1.0000
  Mg  Mg2       1.0  0.82940  0.15849  0.42388  1.0000
  C  Sn5       1.0  0.99278  0.18892  0.17808  1.0000
  C   C63       1.0  0.00539  0.15039  0.11655  1.0000
  C  Sn6       1.0  0.04608  0.12541  0.04473  1.0000
  C  Sn7       1.0  0.07478  0.13921  0.03430  1.0000
  C   C64       1.0  0.06217  0.17771  0.09583  1.0000
  C  Sn8       1.0  0.02148  0.20272  0.16764  1.0000
  O  Te5       1.0  0.95194  0.21339  0.24937  1.0000
  O  Te6       1.0  0.02273  0.07172  0.98403  1.0000
  O  Te7       1.0  0.08042  0.09941  0.96292  1.0000
  O  Te8       1.0  0.00961  0.24109  0.22834  1.0000
  Mg  Mg3       1.0  0.08179  0.04956  0.89793  1.0000
  Mg  Mg4       1.0  0.95057  0.26327  0.31455  1.0000
  C  Sn9       1.0  0.01714  0.18605  0.73870  1.0000
  C   C65       1.0  0.05402  0.17674  0.63163  1.0000
  C  Sn10      1.0  0.06940  0.14782  0.50711  1.0000
  C  Sn11      1.0  0.04744  0.12780  0.48916  1.0000
  C   C66       1.0  0.01059  0.13712  0.59617  1.0000
  C  Sn12      1.0  0.99519  0.16603  0.72075  1.0000
  O  Te9       1.0  0.00235  0.21506  0.86229  1.0000
  O  Te10      1.0  0.10633  0.13902  0.40160  1.0000
  O  Te11      1.0  0.06227  0.09877  0.36544  1.0000
  O  Te12      1.0  0.95828  0.17484  0.82620  1.0000
  Mg  Mg5       1.0  0.11392  0.09723  0.25222  1.0000
  Mg  Mg6       1.0  0.95065  0.21663  0.97555  1.0000
  C  Sn13      1.0  0.77616  0.01765  0.01846  1.0000
  C   C67       1.0  0.29350  0.97494  0.02507  1.0000
  C  Sn14      1.0  0.32506  0.94626  0.11732  1.0000
  C  Sn15      1.0  0.34382  0.96058  0.20490  1.0000
  C   C68       1.0  0.82647  0.00327  0.19830  1.0000
  C  Sn16      1.0  0.79492  0.03196  0.10604  1.0000
  O  Te13      1.0  0.70933  0.03046  0.92546  1.0000
  O  Te14      1.0  0.33773  0.90372  0.12200  1.0000
  O  Te15      1.0  0.37544  0.93243  0.29794  1.0000
  O  Te16      1.0  0.78224  0.07449  0.10137  1.0000
  Mg  Mg7       1.0  0.38194  0.87760  0.26601  1.0000
  Mg  Mg8       1.0  0.70280  0.08533  0.95747  1.0000
  C  Sn17      1.0  0.83569  0.80312  0.86439  1.0000
  C   C69       1.0  0.79595  0.82985  0.94128  1.0000
  C  Sn18      1.0  0.81069  0.82955  0.06898  1.0000
  C  Sn19      1.0  0.83036  0.78634  0.12101  1.0000
  C   C70       1.0  0.87007  0.75964  0.04417  1.0000
  C  Sn20      1.0  0.85535  0.75992  0.91642  1.0000
  O  Te17      1.0  0.85557  0.81940  0.73698  1.0000
  O  Te18      1.0  0.77097  0.85687  0.14393  1.0000
  O  Te19      1.0  0.81043  0.77008  0.24853  1.0000
  O  Te20      1.0  0.89505  0.73262  0.84151  1.0000
  Mg  Mg9       1.0  0.75657  0.81980  0.31222  1.0000
  Mg  Mg10      1.0  0.90949  0.76966  0.67328  1.0000
  C  Sn21      1.0  0.85955  0.77200  0.43322  1.0000
  C   C71       1.0  0.84700  0.74369  0.51615  1.0000
  C  Sn22      1.0  0.80572  0.75751  0.57946  1.0000
  C  Sn23      1.0  0.77636  0.80051  0.55937  1.0000
  C   C72       1.0  0.78891  0.82880  0.47646  1.0000
  C  Sn24      1.0  0.83019  0.81501  0.41313  1.0000
  O  Te21      1.0  0.90098  0.75750  0.37093  1.0000
  O  Te22      1.0  0.79391  0.72862  0.66197  1.0000
  O  Te23      1.0  0.73491  0.81500  0.62175  1.0000
  O  Te24      1.0  0.84200  0.84387  0.33064  1.0000
  Mg  Mg11      1.0  0.73390  0.76358  0.72473  1.0000
  Mg  Mg12      1.0  0.90200  0.80894  0.26776  1.0000
  C  Sn25      1.0  0.62073  0.95436  0.31932  1.0000
  C   C73       1.0  0.08664  0.99610  0.34292  1.0000
  C  Sn26      1.0  0.09747  0.02500  0.37069  1.0000
  C  Sn27      1.0  0.13910  0.01190  0.37484  1.0000
  C   C74       1.0  0.67316  0.97017  0.35121  1.0000
  C  Sn28      1.0  0.66236  0.94126  0.32347  1.0000
  O  Te25      1.0  0.60920  0.92601  0.29174  1.0000
  O  Te26      1.0  0.06700  0.06656  0.39401  1.0000
  O  Te27      1.0  0.15061  0.04028  0.40245  1.0000
  O  Te28      1.0  0.69281  0.89972  0.30012  1.0000
  Mg  Mg13      1.0  0.09797  0.09347  0.42731  1.0000
  Mg  Mg14      1.0  0.66188  0.87279  0.26673  1.0000
  C  Sn29      1.0  0.27065  0.21356  0.02598  1.0000
  C   C75       1.0  0.26389  0.16309  0.93504  1.0000
  C  Sn30      1.0  0.25091  0.14602  0.83449  1.0000
  C  Sn31      1.0  0.20859  0.16450  0.82453  1.0000
  C   C76       1.0  0.18015  0.19965  0.91541  1.0000
  C  Sn32      1.0  0.22833  0.23204  0.01602  1.0000
  O  Te29      1.0  0.28432  0.23010  0.12570  1.0000
  O  Te30      1.0  0.27994  0.11083  0.74477  1.0000
  O  Te31      1.0  0.19493  0.14792  0.72471  1.0000
  O  Te32      1.0  0.19932  0.26720  0.10567  1.0000
  Mg  Mg15      1.0  0.24622  0.09976  0.62616  1.0000
  Mg  Mg16      1.0  0.23301  0.27831  0.22425  1.0000
  C  Sn33      1.0  0.21128  0.21535  0.43798  1.0000
  C   C77       1.0  0.18741  0.19928  0.40770  1.0000
  C  Sn34      1.0  0.20582  0.15798  0.36342  1.0000
  C  Sn35      1.0  0.24899  0.13218  0.34922  1.0000
  C   C78       1.0  0.27283  0.14825  0.37952  1.0000
  C  Sn36      1.0  0.25445  0.18955  0.42377  1.0000
  O  Te33      1.0  0.19222  0.25673  0.48209  1.0000
  O  Te34      1.0  0.18132  0.14262  0.33371  1.0000
  O  Te35      1.0  0.26804  0.09078  0.30506  1.0000
  O  Te36      1.0  0.27892  0.20491  0.45350  1.0000
  Mg  Mg17      1.0  0.22157  0.08418  0.27717  1.0000
  Mg  Mg18      1.0  0.23870  0.26334  0.51014  1.0000
  C  Sn37      1.0  0.42849  0.11250  0.37932  1.0000
  C   C79       1.0  0.46496  0.07818  0.31349  1.0000
  C  Sn38      1.0  0.46496  0.05496  0.19255  1.0000
  C  Sn39      1.0  0.42774  0.06628  0.13613  1.0000
  C   C80       1.0  0.39130  0.10058  0.20193  1.0000
  C  Sn40      1.0  0.39127  0.12382  0.32291  1.0000
  O  Te37      1.0  0.42921  0.13528  0.50012  1.0000
  O  Te38      1.0  0.50180  0.02077  0.12863  1.0000
  O  Te39      1.0  0.42705  0.04347  0.01524  1.0000
  O  Te40      1.0  0.35446  0.15800  0.38679  1.0000
  Mg  Mg19      1.0  0.95404  0.98421  0.96604  1.0000
  Mg  Mg20      1.0  0.37112  0.17930  0.54930  1.0000
  C  Sn41      1.0  0.99192  0.35348  0.10573  1.0000
  C   C81       1.0  0.03071  0.33004  0.01294  1.0000
  C  Sn42      1.0  0.01925  0.33334  0.94026  1.0000
  C  Sn43      1.0  0.00395  0.37625  0.96083  1.0000
  C   C82       1.0  0.00042  0.41495  0.05359  1.0000
  C  Sn44      1.0  0.97662  0.39639  0.12630  1.0000
  O  Te41      1.0  0.96869  0.33425  0.17728  1.0000
  O  Te42      1.0  0.05793  0.30928  0.84800  1.0000
  O  Te43      1.0  0.02722  0.39547  0.88918  1.0000
  O  Te44      1.0  0.93797  0.42042  0.21853  1.0000
  Mg  Mg21      1.0  0.07804  0.34961  0.77482  1.0000
  Mg  Mg22      1.0  0.91785  0.38012  0.29184  1.0000
  C  Sn45      1.0  0.06492  0.35427  0.43639  1.0000
  C   C83       1.0  0.05604  0.32437  0.53164  1.0000
  C  Sn46      1.0  0.01679  0.33623  0.62060  1.0000
  C  Sn47      1.0  0.98575  0.37887  0.61415  1.0000
  C   C84       1.0  0.99463  0.40874  0.51892  1.0000
  C  Sn48      1.0  0.03388  0.39691  0.42994  1.0000
  O  Te45      1.0  0.10438  0.34171  0.34845  1.0000
  O  Te46      1.0  0.00865  0.30577  0.71500  1.0000
  O  Te47      1.0  0.94627  0.39142  0.70220  1.0000
  O  Te48      1.0  0.04202  0.42734  0.33557  1.0000
  Mg  Mg23      1.0  0.95018  0.33836  0.81299  1.0000
  Mg  Mg24      1.0  0.10047  0.39479  0.23746  1.0000
  C  Sn49      1.0  0.95014  0.57749  0.95466  1.0000
  C   C85       1.0  0.98178  0.55802  0.02844  1.0000
  C  Sn50      1.0  0.94424  0.56308  0.11583  1.0000
  C  Sn51      1.0  0.90954  0.60374  0.12970  1.0000
  C   C86       1.0  0.91313  0.63847  0.05593  1.0000
  C  Sn52      1.0  0.91544  0.61814  0.96852  1.0000
  O  Te49      1.0  0.98797  0.57169  0.86787  1.0000
  O  Te50      1.0  0.94142  0.52786  0.18858  1.0000
  O  Te51      1.0  0.87170  0.60951  0.21658  1.0000
  O  Te52      1.0  0.91827  0.65334  0.89579  1.0000
  Mg  Mg25      1.0  0.88326  0.55184  0.29391  1.0000
  Mg  Mg26      1.0  0.97641  0.62939  0.79036  1.0000
  C  Sn53      1.0  0.93154  0.59694  0.38686  1.0000
  C   C87       1.0  0.89413  0.61457  0.49541  1.0000
  C  Sn54      1.0  0.88399  0.58958  0.62151  1.0000
  C  Sn55      1.0  0.91185  0.54606  0.63957  1.0000
  C   C88       1.0  0.94923  0.52846  0.53109  1.0000
  C  Sn56      1.0  0.95939  0.55342  0.40492  1.0000
  O  Te53      1.0  0.94103  0.62252  0.26169  1.0000
  O  Te54      1.0  0.84641  0.60792  0.72848  1.0000
  O  Te55      1.0  0.90232  0.52049  0.76486  1.0000
  O  Te56      1.0  0.99695  0.53511  0.29802  1.0000
  Mg  Mg27      1.0  0.84741  0.56004  0.87970  1.0000
  Mg  Mg28      1.0  0.99599  0.58296  0.14681  1.0000
  C  Sn57      1.0  0.95799  0.05116  0.59585  1.0000
  C   C89       1.0  0.93949  0.08789  0.68174  1.0000
  C  Sn58      1.0  0.90301  0.09953  0.79476  1.0000
  C  Sn59      1.0  0.88465  0.07392  0.82261  1.0000
  C   C90       1.0  0.90316  0.03722  0.73678  1.0000
  C  Sn60      1.0  0.93964  0.02555  0.62370  1.0000
  O  Te57      1.0  0.99446  0.04013  0.48344  1.0000
  O  Te58      1.0  0.88507  0.13639  0.87911  1.0000
  O  Te59      1.0  0.84815  0.08498  0.93513  1.0000
  O  Te60      1.0  0.46172  0.98871  0.53941  1.0000
  Mg  Mg29      1.0  0.87067  0.15340  0.01990  1.0000
  Mg  Mg30      1.0  0.51135  0.98696  0.39866  1.0000
  C  Sn61      1.0  0.77756  0.01238  0.51586  1.0000
  C   C91       1.0  0.29572  0.96948  0.52311  1.0000
  C  Sn62      1.0  0.32754  0.94142  0.61522  1.0000
  C  Sn63      1.0  0.34572  0.95654  0.70199  1.0000
  C   C92       1.0  0.82756  0.99942  0.69475  1.0000
  C  Sn64      1.0  0.79575  0.02751  0.60263  1.0000
  O  Te61      1.0  0.74572  0.03988  0.42301  1.0000
  O  Te62      1.0  0.34102  0.89866  0.62056  1.0000
  O  Te63      1.0  0.37759  0.92901  0.79488  1.0000
  O  Te64      1.0  0.78226  0.07024  0.59730  1.0000
  Mg  Mg31      1.0  0.38527  0.87360  0.76405  1.0000
  Mg  Mg32      1.0  0.73800  0.09533  0.45392  1.0000
  C  Sn65      1.0  0.61805  0.96208  0.81444  1.0000
  C   C93       1.0  0.08379  0.00356  0.84262  1.0000
  C  Sn66      1.0  0.09435  0.03206  0.87773  1.0000
  C  Sn67      1.0  0.13588  0.01883  0.88472  1.0000
  C   C94       1.0  0.67012  0.97738  0.85653  1.0000
  C  Sn68      1.0  0.65958  0.94885  0.82144  1.0000
  O  Te65      1.0  0.60679  0.93413  0.77954  1.0000
  O  Te66      1.0  0.06371  0.07336  0.90551  1.0000
  O  Te67      1.0  0.14712  0.04683  0.91966  1.0000
  O  Te68      1.0  0.69019  0.90758  0.79364  1.0000
  Mg  Mg33      1.0  0.09433  0.09977  0.94842  1.0000
  Mg  Mg34      1.0  0.65961  0.88115  0.75063  1.0000
  C  Sn69      1.0  0.45392  0.05851  0.66126  1.0000
  C   C95       1.0  0.46824  0.08260  0.70912  1.0000
  C  Sn70      1.0  0.44116  0.11896  0.79509  1.0000
  C  Sn71      1.0  0.39889  0.13150  0.83414  1.0000
  C   C96       1.0  0.38459  0.10741  0.78631  1.0000
  C  Sn72      1.0  0.41165  0.07104  0.70031  1.0000
  O  Te69      1.0  0.48154  0.02228  0.57542  1.0000
  O  Te70      1.0  0.45619  0.14254  0.84158  1.0000
  O  Te71      1.0  0.37126  0.16776  0.92004  1.0000
  O  Te72      1.0  0.39663  0.04747  0.65386  1.0000
  Mg  Mg35      1.0  0.40651  0.18941  0.95670  1.0000
  Mg  Mg36      1.0  0.44629  0.00058  0.53882  1.0000
