data_image0
_chemical_formula_structural       H24C60N12C2Sn2C2HTe2HMgC2Sn2C2HTe2HMgC2Sn2C2HTe2HMgC2Sn2C2HTe2HMgC2Sn2C2HTe2HMgC2Sn2C2HTe2HMgC2Sn2C2HTe2HMgC2Sn2C2HTe2HMgC2Sn2C2HTe2HMgC2Sn2C2HTe2HMgC2Sn2C2HTe2HMgC2Sn2C2HTe2HMgC2Sn2C2HTe2HMgC2Sn2C2HTe2HMgC2Sn2C2HTe2HMgC2Sn2C2HTe2HMgC2Sn2C2HTe2HMgC2Sn2C2HTe2HMg
_chemical_formula_sum              "H60 C132 N12 Sn36 Te36 Mg18"
_cell_length_a       38.3748
_cell_length_b       37.2568
_cell_length_c       8.01068
_cell_angle_alpha    80.9493
_cell_angle_beta     78.1671
_cell_angle_gamma    59.2876

_symmetry_space_group_name_H-M    'P1'
_space_group_IT_number       1

loop_
  _space_group_symop_operation_xyz
  'x, y, z'

loop_
  _atom_site_type_symbol
  _atom_site_label
  _atom_site_symmetry_multiplicity
  _atom_site_fract_x
  _atom_site_fract_y
  _atom_site_fract_z
  _atom_site_occupancy
  H   H1        1.0  0.82747  0.06101  0.22203  1.0000
  H   H2        1.0  0.01250  0.08420  0.08433  1.0000
  H   H3        1.0  0.81915  0.88304  0.05207  1.0000
  H   H4        1.0  0.71576  0.99497  0.45323  1.0000
  H   H5        1.0  0.71921  0.87911  0.42007  1.0000
  H   H6        1.0  0.13792  0.15208  0.50666  1.0000
  H   H7        1.0  0.01749  0.26879  0.06638  1.0000
  H   H8        1.0  0.13065  0.27232  0.45425  1.0000
  H   H9        1.0  0.32168  0.16221  0.38000  1.0000
  H   H10       1.0  0.89343  0.68463  0.39514  1.0000
  H   H11       1.0  0.94023  0.46681  0.15554  1.0000
  H   H12       1.0  0.54126  0.00388  0.21864  1.0000
  H   H13       1.0  0.82617  0.05811  0.72135  1.0000
  H   H14       1.0  0.00783  0.08507  0.57359  1.0000
  H   H15       1.0  0.82209  0.87725  0.55512  1.0000
  H   H16       1.0  0.71283  0.00151  0.95798  1.0000
  H   H17       1.0  0.71576  0.88651  0.91406  1.0000
  H   H18       1.0  0.13656  0.15884  0.01554  1.0000
  H   H19       1.0  0.02066  0.26433  0.56605  1.0000
  H   H20       1.0  0.12556  0.28051  0.97373  1.0000
  H   H21       1.0  0.32009  0.16650  0.90406  1.0000
  H   H22       1.0  0.88958  0.69009  0.92129  1.0000
  H   H23       1.0  0.94940  0.46075  0.64221  1.0000
  H   H24       1.0  0.53974  0.01174  0.71024  1.0000
  C   C1        1.0  0.95756  0.11690  0.24602  1.0000
  C   C2        1.0  0.88897  0.01497  0.16105  1.0000
  C   C3        1.0  0.99461  0.11163  0.15981  1.0000
  C   C4        1.0  0.84768  0.02895  0.18456  1.0000
  C   C5        1.0  0.93090  0.15126  0.35007  1.0000
  C   C6        1.0  0.91723  0.97617  0.08522  1.0000
  C   C7        1.0  0.76800  0.94551  0.01658  1.0000
  C   C8        1.0  0.78849  0.90160  0.01814  1.0000
  C   C9        1.0  0.73163  0.96106  0.46586  1.0000
  C   C10       1.0  0.77309  0.87384  0.48589  1.0000
  C   C11       1.0  0.71236  0.94037  0.42842  1.0000
  C   C12       1.0  0.73331  0.89636  0.44429  1.0000
  C   C13       1.0  0.07471  0.21071  0.04571  1.0000
  C   C14       1.0  0.11980  0.18603  0.50486  1.0000
  C   C15       1.0  0.05068  0.25442  0.04876  1.0000
  C   C16       1.0  0.13967  0.20984  0.47345  1.0000
  C   C17       1.0  0.06849  0.28001  0.02351  1.0000
  C   C18       1.0  0.11140  0.26099  0.99200  1.0000
  C   C19       1.0  0.31438  0.14204  0.32725  1.0000
  C   C20       1.0  0.34761  0.10837  0.24874  1.0000
  C   C21       1.0  0.34332  0.07902  0.17305  1.0000
  C   C22       1.0  0.86602  0.69371  0.48990  1.0000
  C   C23       1.0  0.85529  0.66793  0.09414  1.0000
  C   C24       1.0  0.81987  0.67642  0.21718  1.0000
  C   C25       1.0  0.97864  0.48638  0.45625  1.0000
  C   C26       1.0  0.51371  0.06492  0.29253  1.0000
  C   C27       1.0  0.51710  0.09631  0.35763  1.0000
  C   C28       1.0  0.01206  0.48023  0.32475  1.0000
  C   C29       1.0  0.96703  0.45917  0.05825  1.0000
  C   C30       1.0  0.54700  0.02572  0.26808  1.0000
  C   C31       1.0  0.95495  0.11693  0.74585  1.0000
  C   C32       1.0  0.88829  0.01309  0.66481  1.0000
  C   C33       1.0  0.99155  0.11156  0.65426  1.0000
  C   C34       1.0  0.84725  0.02615  0.68437  1.0000
  C   C35       1.0  0.92960  0.15056  0.85444  1.0000
  C   C36       1.0  0.91745  0.97379  0.59399  1.0000
  C   C37       1.0  0.77071  0.93946  0.51676  1.0000
  C   C38       1.0  0.79148  0.89551  0.52037  1.0000
  C   C39       1.0  0.72875  0.96758  0.96760  1.0000
  C   C40       1.0  0.76985  0.88025  0.98281  1.0000
  C   C41       1.0  0.70938  0.94722  0.92819  1.0000
  C   C42       1.0  0.73014  0.90324  0.94080  1.0000
  C   C43       1.0  0.07687  0.20529  0.54130  1.0000
  C   C44       1.0  0.11751  0.19271  0.01272  1.0000
  C   C45       1.0  0.05392  0.24903  0.54469  1.0000
  C   C46       1.0  0.13636  0.21743  0.98528  1.0000
  C   C47       1.0  0.07287  0.27358  0.51357  1.0000
  C   C48       1.0  0.11570  0.25350  0.47816  1.0000
  C   C49       1.0  0.31178  0.14786  0.84628  1.0000
  C   C50       1.0  0.34430  0.11457  0.76227  1.0000
  C   C51       1.0  0.33887  0.08621  0.68544  1.0000
  C   C52       1.0  0.86080  0.69992  0.00774  1.0000
  C   C53       1.0  0.86210  0.66108  0.57965  1.0000
  C   C54       1.0  0.82802  0.66854  0.70908  1.0000
  C   C55       1.0  0.97010  0.49272  0.97359  1.0000
  C   C56       1.0  0.51049  0.07181  0.79713  1.0000
  C   C57       1.0  0.51302  0.10312  0.86727  1.0000
  C   C58       1.0  0.00358  0.48666  0.84253  1.0000
  C   C59       1.0  0.97566  0.45289  0.54180  1.0000
  C   C60       1.0  0.54440  0.03326  0.76816  1.0000
  N   N1        1.0  0.90843  0.17844  0.44006  1.0000
  N   N2        1.0  0.94161  0.94224  0.53202  1.0000
  N   N3        1.0  0.34140  0.05433  0.10680  1.0000
  N   N4        1.0  0.79150  0.68261  0.32177  1.0000
  N   N5        1.0  0.03880  0.47618  0.21417  1.0000
  N   N6        1.0  0.51415  0.12938  0.92542  1.0000
  N   N7        1.0  0.90807  0.17730  0.94750  1.0000
  N   N8        1.0  0.94130  0.94544  0.01724  1.0000
  N   N9        1.0  0.33553  0.06265  0.61798  1.0000
  N   N10       1.0  0.80093  0.67358  0.81920  1.0000
  N   N11       1.0  0.03006  0.48307  0.73139  1.0000
  N   N12       1.0  0.51891  0.12250  0.41276  1.0000
  C   C61       1.0  0.89229  0.09748  0.31747  1.0000
  C   C62       1.0  0.93182  0.09119  0.25974  1.0000
  C  Sn1       1.0  0.96002  0.05797  0.15821  1.0000
  C  Sn2       1.0  0.94834  0.03060  0.11381  1.0000
  C   C63       1.0  0.90871  0.03718  0.17211  1.0000
  C   C64       1.0  0.88074  0.07051  0.27369  1.0000
  H   H25       1.0  0.87064  0.12328  0.39598  1.0000
  O  Te1       1.0  0.99940  0.05212  0.10168  1.0000
  O  Te2       1.0  0.48006  0.99717  0.01245  1.0000
  H   H26       1.0  0.85013  0.07540  0.31827  1.0000
  Mg  Mg1       1.0  0.99082  0.98681  0.96656  1.0000
  C   C65       1.0  0.99734  0.18461  0.22927  1.0000
  C   C66       1.0  0.00719  0.14834  0.15570  1.0000
  C  Sn3       1.0  0.04372  0.12812  0.04400  1.0000
  C  Sn4       1.0  0.07083  0.14457  0.00551  1.0000
  C   C67       1.0  0.06070  0.18085  0.07987  1.0000
  C   C68       1.0  0.02407  0.20085  0.19143  1.0000
  H   H27       1.0  0.96901  0.20007  0.31566  1.0000
  O  Te3       1.0  0.01786  0.07663  0.97157  1.0000
  O  Te4       1.0  0.07232  0.10968  0.89435  1.0000
  H   H28       1.0  0.01646  0.22891  0.24846  1.0000
  Mg  Mg2       1.0  0.07151  0.06117  0.82764  1.0000
  C   C69       1.0  0.05864  0.12259  0.50363  1.0000
  C   C70       1.0  0.02313  0.12986  0.61746  1.0000
  C  Sn5       1.0  0.00191  0.16539  0.71217  1.0000
  C  Sn6       1.0  0.01658  0.19411  0.69225  1.0000
  C   C71       1.0  0.05212  0.18657  0.57796  1.0000
  C   C72       1.0  0.07312  0.15092  0.48386  1.0000
  H   H29       1.0  0.07488  0.09502  0.43075  1.0000
  O  Te5       1.0  0.96649  0.17216  0.82538  1.0000
  O  Te6       1.0  0.99597  0.22988  0.78527  1.0000
  H   H30       1.0  0.10060  0.14532  0.39566  1.0000
  Mg  Mg3       1.0  0.94910  0.22541  0.92361  1.0000
  C   C73       1.0  0.77957  0.03145  0.08435  1.0000
  C   C74       1.0  0.81552  0.01412  0.15643  1.0000
  C  Sn7       1.0  0.34369  0.97076  0.18094  1.0000
  C  Sn8       1.0  0.33143  0.94433  0.13222  1.0000
  C   C75       1.0  0.29542  0.96197  0.06011  1.0000
  C   C76       1.0  0.76746  0.00541  0.03620  1.0000
  H   H31       1.0  0.76115  0.06506  0.06576  1.0000
  O  Te7       1.0  0.37951  0.95396  0.25318  1.0000
  O  Te8       1.0  0.35487  0.90088  0.15523  1.0000
  H   H32       1.0  0.70442  0.00352  0.98029  1.0000
  Mg  Mg4       1.0  0.40117  0.89288  0.25886  1.0000
  C   C77       1.0  0.84293  0.80201  0.90478  1.0000
  C   C78       1.0  0.80198  0.82946  0.96535  1.0000
  C  Sn9       1.0  0.81206  0.82926  0.05747  1.0000
  C  Sn10      1.0  0.82830  0.78545  0.08939  1.0000
  C   C79       1.0  0.86932  0.75824  0.02835  1.0000
  C   C80       1.0  0.85899  0.75879  0.93626  1.0000
  H   H33       1.0  0.86220  0.81426  0.83361  1.0000
  O  Te9       1.0  0.77121  0.85713  0.11700  1.0000
  O  Te10      1.0  0.80386  0.76911  0.18116  1.0000
  H   H34       1.0  0.89070  0.73752  0.88948  1.0000
  Mg  Mg5       1.0  0.75009  0.81974  0.23581  1.0000
  C   C81       1.0  0.84542  0.79677  0.38759  1.0000
  C   C82       1.0  0.80531  0.82337  0.46117  1.0000
  C  Sn11      1.0  0.78207  0.80685  0.56392  1.0000
  C  Sn12      1.0  0.79941  0.76286  0.59337  1.0000
  C   C83       1.0  0.83958  0.73651  0.51928  1.0000
  C   C84       1.0  0.86256  0.75338  0.41662  1.0000
  H   H35       1.0  0.86321  0.80982  0.30824  1.0000
  O  Te11      1.0  0.74203  0.83387  0.63639  1.0000
  O  Te12      1.0  0.77688  0.74550  0.69559  1.0000
  H   H36       1.0  0.89363  0.73278  0.35977  1.0000
  Mg  Mg6       1.0  0.72357  0.79523  0.76612  1.0000
  C   C85       1.0  0.61243  0.02770  0.39155  1.0000
  C   C86       1.0  0.59297  0.01459  0.30601  1.0000
  C  Sn13      1.0  0.11693  0.97337  0.25873  1.0000
  C  Sn14      1.0  0.15694  0.94482  0.29804  1.0000
  C   C87       1.0  0.17613  0.95823  0.38376  1.0000
  C   C88       1.0  0.65189  0.99955  0.43043  1.0000
  H   H37       1.0  0.59688  0.05966  0.42775  1.0000
  O  Te13      1.0  0.09706  0.96079  0.17328  1.0000
  O  Te14      1.0  0.17743  0.90344  0.25233  1.0000
  H   H38       1.0  0.66695  0.00968  0.49676  1.0000
  Mg  Mg7       1.0  0.13760  0.90118  0.13756  1.0000
  C   C89       1.0  0.21623  0.15287  0.84508  1.0000
  C   C90       1.0  0.18732  0.18706  0.94055  1.0000
  C  Sn15      1.0  0.23462  0.22630  0.00576  1.0000
  C  Sn16      1.0  0.24121  0.20046  0.97456  1.0000
  C   C91       1.0  0.26988  0.16622  0.87880  1.0000
  C   C92       1.0  0.25746  0.14246  0.81419  1.0000
  H   H39       1.0  0.20662  0.13450  0.79501  1.0000
  O  Te15      1.0  0.20535  0.26035  0.10094  1.0000
  O  Te16      1.0  0.28933  0.23917  0.03818  1.0000
  H   H40       1.0  0.27984  0.11601  0.74018  1.0000
  Mg  Mg8       1.0  0.23796  0.28270  0.16065  1.0000
  C   C93       1.0  0.23595  0.20193  0.46404  1.0000
  C   C94       1.0  0.26552  0.16477  0.38795  1.0000
  C  Sn17      1.0  0.25376  0.13981  0.32848  1.0000
  C  Sn18      1.0  0.21158  0.15237  0.34564  1.0000
  C   C95       1.0  0.18223  0.18961  0.42184  1.0000
  C   C96       1.0  0.19434  0.21434  0.48096  1.0000
  H   H41       1.0  0.24531  0.22108  0.50970  1.0000
  O  Te17      1.0  0.28371  0.10277  0.25284  1.0000
  O  Te18      1.0  0.19897  0.12802  0.28726  1.0000
  H   H42       1.0  0.17143  0.24312  0.53976  1.0000
  Mg  Mg9       1.0  0.25128  0.08019  0.19323  1.0000
  C   C97       1.0  0.43487  0.05624  0.15917  1.0000
  C   C98       1.0  0.39802  0.08874  0.23354  1.0000
  C  Sn19      1.0  0.39816  0.11842  0.32003  1.0000
  C  Sn20      1.0  0.43594  0.11545  0.33203  1.0000
  C   C99       1.0  0.47264  0.08284  0.25709  1.0000
  C   C100      1.0  0.47215  0.05329  0.17089  1.0000
  H   H43       1.0  0.43449  0.03340  0.09240  1.0000
  O  Te19      1.0  0.36107  0.15068  0.39365  1.0000
  O  Te20      1.0  0.43697  0.14470  0.41767  1.0000
  H   H44       1.0  0.50068  0.02815  0.11323  1.0000
  Mg  Mg10      1.0  0.37834  0.18296  0.49702  1.0000
  C   C101      1.0  0.04241  0.38655  0.92248  1.0000
  C   C102      1.0  0.03845  0.42602  0.01078  1.0000
  C  Sn21      1.0  0.01857  0.40675  0.12012  1.0000
  C  Sn22      1.0  0.03836  0.36246  0.14122  1.0000
  C   C103      1.0  0.07757  0.33856  0.05239  1.0000
  C   C104      1.0  0.06196  0.34286  0.94326  1.0000
  H   H45       1.0  0.05759  0.40171  0.83811  1.0000
  O  Te21      1.0  0.97943  0.43137  0.20732  1.0000
  O  Te22      1.0  0.01920  0.34239  0.24973  1.0000
  H   H46       1.0  0.09230  0.32414  0.87500  1.0000
  Mg  Mg11      1.0  0.96587  0.38949  0.34072  1.0000
  C   C105      1.0  0.00287  0.34817  0.65171  1.0000
  C   C106      1.0  0.03783  0.32339  0.54023  1.0000
  C  Sn23      1.0  0.05675  0.34174  0.41853  1.0000
  C  Sn24      1.0  0.04029  0.38572  0.40859  1.0000
  C   C107      1.0  0.00532  0.41024  0.52077  1.0000
  C   C108      1.0  0.98662  0.39155  0.64203  1.0000
  H   H47       1.0  0.98841  0.33371  0.74559  1.0000
  O  Te23      1.0  0.09166  0.31652  0.30810  1.0000
  O  Te24      1.0  0.05860  0.40488  0.28821  1.0000
  H   H48       1.0  0.95957  0.41075  0.72839  1.0000
  Mg  Mg12      1.0  0.10563  0.35722  0.16578  1.0000
  C   C109      1.0  0.87947  0.58059  0.16275  1.0000
  C   C110      1.0  0.88332  0.61563  0.09707  1.0000
  C  Sn25      1.0  0.88145  0.59609  0.97458  1.0000
  C  Sn26      1.0  0.91143  0.55597  0.91700  1.0000
  C   C111      1.0  0.90727  0.52111  0.98342  1.0000
  C   C112      1.0  0.90902  0.54101  0.10597  1.0000
  H   H49       1.0  0.85355  0.58415  0.25750  1.0000
  O  Te25      1.0  0.88484  0.63143  0.91035  1.0000
  O  Te26      1.0  0.94505  0.55084  0.79465  1.0000
  H   H50       1.0  0.90602  0.51387  0.15672  1.0000
  Mg  Mg13      1.0  0.93617  0.60845  0.74554  1.0000
  C   C113      1.0  0.90219  0.55078  0.62960  1.0000
  C   C114      1.0  0.93853  0.53262  0.51488  1.0000
  C  Sn27      1.0  0.95402  0.55740  0.41819  1.0000
  C  Sn28      1.0  0.93268  0.60114  0.43702  1.0000
  C   C115      1.0  0.89638  0.61900  0.55223  1.0000
  C   C116      1.0  0.88114  0.59392  0.64830  1.0000
  H   H51       1.0  0.89041  0.53137  0.70401  1.0000
  O  Te27      1.0  0.99036  0.53875  0.30411  1.0000
  O  Te28      1.0  0.94749  0.62663  0.34203  1.0000
  H   H52       1.0  0.85302  0.60798  0.73720  1.0000
  Mg  Mg14      1.0  0.99825  0.58662  0.20315  1.0000
  C   C117      1.0  0.88848  0.09926  0.80656  1.0000
  C   C118      1.0  0.92865  0.09180  0.75955  1.0000
  C  Sn29      1.0  0.95824  0.05656  0.67134  1.0000
  C  Sn30      1.0  0.94730  0.02834  0.62956  1.0000
  C   C119      1.0  0.90702  0.03610  0.67705  1.0000
  C   C120      1.0  0.87766  0.07144  0.76534  1.0000
  H   H53       1.0  0.86576  0.12662  0.87478  1.0000
  O  Te29      1.0  0.99824  0.04957  0.62540  1.0000
  O  Te30      1.0  0.97626  0.99288  0.54142  1.0000
  H   H54       1.0  0.84656  0.07723  0.80162  1.0000
  Mg  Mg15      1.0  0.02679  0.99688  0.50656  1.0000
  C   C121      1.0  0.84668  0.94952  0.66558  1.0000
  C   C122      1.0  0.33035  0.99208  0.64969  1.0000
  C  Sn31      1.0  0.29275  0.02144  0.59666  1.0000
  C  Sn32      1.0  0.26693  0.00785  0.55898  1.0000
  C   C123      1.0  0.78352  0.96521  0.57539  1.0000
  C   C124      1.0  0.82122  0.93609  0.62851  1.0000
  H   H55       1.0  0.87583  0.92699  0.70676  1.0000
  O  Te31      1.0  0.28107  0.06384  0.58140  1.0000
  O  Te32      1.0  0.22918  0.03654  0.50579  1.0000
  H   H56       1.0  0.83062  0.90314  0.64091  1.0000
  Mg  Mg16      1.0  0.22678  0.09095  0.50429  1.0000
  C   C125      1.0  0.63150  0.02352  0.91174  1.0000
  C   C126      1.0  0.16529  0.98141  0.89558  1.0000
  C  Sn33      1.0  0.15782  0.95517  0.81968  1.0000
  C  Sn34      1.0  0.11994  0.97149  0.75893  1.0000
  C   C127      1.0  0.58635  0.01367  0.77559  1.0000
  C   C128      1.0  0.59414  0.03965  0.85179  1.0000
  H   H57       1.0  0.63753  0.04362  0.97062  1.0000
  O  Te33      1.0  0.18776  0.91317  0.80461  1.0000
  O  Te34      1.0  0.11168  0.94597  0.68249  1.0000
  H   H58       1.0  0.57120  0.07226  0.86419  1.0000
  Mg  Mg17      1.0  0.16215  0.89085  0.69111  1.0000
  C   C129      1.0  0.40338  0.13676  0.80998  1.0000
  C   C130      1.0  0.38863  0.11428  0.75194  1.0000
  C  Sn35      1.0  0.41537  0.07321  0.70541  1.0000
  C  Sn36      1.0  0.45764  0.05438  0.71740  1.0000
  C   C131      1.0  0.47209  0.07712  0.77574  1.0000
  C   C132      1.0  0.44507  0.11820  0.82191  1.0000
  H   H59       1.0  0.38247  0.16854  0.84580  1.0000
  O  Te35      1.0  0.40012  0.05120  0.64762  1.0000
  O  Te36      1.0  0.48504  0.01337  0.67180  1.0000
  H   H60       1.0  0.45649  0.13559  0.86695  1.0000
  Mg  Mg18      1.0  0.44955  0.99615  0.60038  1.0000
