data_image0
_chemical_formula_structural       H120C228N24C2Sn2C2HTe2HMgC2Sn2C2HTe2HMgC2Sn2C2HTe2HMgC2Sn2C2HTe2HMgC2Sn2C2HTe2HMgC2Sn2C2HTe2HMgC2Sn2C2HTe2HMgC2Sn2C2HTe2HMgC2Sn2C2HTe2HMgC2Sn2C2HTe2HMgC2Sn2C2HTe2HMgC2Sn2C2HTe2HMgC2Sn2C2HTe2HMgC2Sn2C2HTe2HMgC2Sn2C2HTe2HMgC2Sn2C2HTe2HMgC2Sn2C2HTe2HMgC2Sn2C2HTe2HMgC2Sn2C2HTe2HMgC2Sn2C2HTe2HMgC2Sn2C2HTe2HMgC2Sn2C2HTe2HMgC2Sn2C2HTe2HMgC2Sn2C2HTe2HMg
_chemical_formula_sum              "H168 C324 N24 Sn48 Te48 Mg24"
_cell_length_a       47.6599
_cell_length_b       47.7803
_cell_length_c       9.216
_cell_angle_alpha    79.076
_cell_angle_beta     88.8718
_cell_angle_gamma    60.422

_symmetry_space_group_name_H-M    'P1'
_space_group_IT_number       1

loop_
  _space_group_symop_operation_xyz
  'x, y, z'

loop_
  _atom_site_type_symbol
  _atom_site_label
  _atom_site_symmetry_multiplicity
  _atom_site_fract_x
  _atom_site_fract_y
  _atom_site_fract_z
  _atom_site_occupancy
  H   H1        1.0  0.34012  0.17427  0.14739  1.0000
  H   H2        1.0  0.29068  0.17438  0.21510  1.0000
  H   H3        1.0  0.26923  0.10707  0.44939  1.0000
  H   H4        1.0  0.22652  0.09737  0.11475  1.0000
  H   H5        1.0  0.18906  0.19218  0.23072  1.0000
  H   H6        1.0  0.23971  0.19150  0.16921  1.0000
  H   H7        1.0  0.37445  0.17965  0.05222  1.0000
  H   H8        1.0  0.18123  0.10936  0.09097  1.0000
  H   H9        1.0  0.10469  0.16272  0.27839  1.0000
  H   H10       1.0  0.05431  0.16230  0.23225  1.0000
  H   H11       1.0  0.01463  0.60242  0.15021  1.0000
  H   H12       1.0  0.01347  0.55286  0.12341  1.0000
  H   H13       1.0  0.99517  0.52566  0.01185  1.0000
  H   H14       1.0  0.01574  0.48125  0.92512  1.0000
  H   H15       1.0  0.02270  0.42601  0.95723  1.0000
  H   H16       1.0  0.00258  0.39205  0.22095  1.0000
  H   H17       1.0  0.00425  0.33897  0.27740  1.0000
  H   H18       1.0  0.01974  0.29057  0.39867  1.0000
  H   H19       1.0  0.96052  0.26617  0.10091  1.0000
  H   H20       1.0  0.96722  0.21181  0.11519  1.0000
  H   H21       1.0  0.05320  0.99231  0.11529  1.0000
  H   H22       1.0  0.06220  0.94618  0.07289  1.0000
  H   H23       1.0  0.98705  0.98854  0.28670  1.0000
  H   H24       1.0  0.05780  0.89653  0.12946  1.0000
  H   H25       1.0  0.98501  0.93708  0.33989  1.0000
  H   H26       1.0  0.03162  0.87490  0.39287  1.0000
  H   H27       1.0  0.02650  0.82576  0.41903  1.0000
  H   H28       1.0  0.03436  0.78016  0.50201  1.0000
  H   H29       1.0  0.04929  0.73652  0.39345  1.0000
  H   H30       1.0  0.04730  0.68784  0.35768  1.0000
  H   H31       1.0  0.96192  0.20558  0.33412  1.0000
  H   H32       1.0  0.90920  0.20977  0.29746  1.0000
  H   H33       1.0  0.88766  0.15120  0.06556  1.0000
  H   H34       1.0  0.85428  0.13708  0.03423  1.0000
  H   H35       1.0  0.80346  0.21913  0.20599  1.0000
  H   H36       1.0  0.80389  0.13693  0.09329  1.0000
  H   H37       1.0  0.75296  0.21940  0.26931  1.0000
  H   H38       1.0  0.76121  0.15813  0.24415  1.0000
  H   H39       1.0  0.70980  0.23883  0.42434  1.0000
  H   H40       1.0  0.71167  0.15656  0.30864  1.0000
  H   H41       1.0  0.65999  0.23743  0.48569  1.0000
  H   H42       1.0  0.62744  0.22172  0.44186  1.0000
  H   H43       1.0  0.57727  0.24169  0.33220  1.0000
  H   H44       1.0  0.52705  0.23999  0.29865  1.0000
  H   H45       1.0  0.83842  0.77994  0.03890  1.0000
  H   H46       1.0  0.80730  0.87444  0.22543  1.0000
  H   H47       1.0  0.75781  0.92151  0.27810  1.0000
  H   H48       1.0  0.73582  0.95942  0.40897  1.0000
  H   H49       1.0  0.68730  0.00733  0.45881  1.0000
  H   H50       1.0  0.64190  0.04286  0.45298  1.0000
  H   H51       1.0  0.57081  0.05521  0.19360  1.0000
  H   H52       1.0  0.61769  0.09730  0.39999  1.0000
  H   H53       1.0  0.52217  0.10890  0.16595  1.0000
  H   H54       1.0  0.57115  0.15188  0.38927  1.0000
  H   H55       1.0  0.02452  0.61600  0.32477  1.0000
  H   H56       1.0  0.07762  0.56714  0.32354  1.0000
  H   H57       1.0  0.13124  0.53428  0.39497  1.0000
  H   H58       1.0  0.39006  0.33529  0.96564  1.0000
  H   H59       1.0  0.40412  0.26699  0.24975  1.0000
  H   H60       1.0  0.45570  0.21554  0.28982  1.0000
  H   H61       1.0  0.30193  0.11454  0.89746  1.0000
  H   H62       1.0  0.35238  0.11348  0.83207  1.0000
  H   H63       1.0  0.27654  0.09697  0.05311  1.0000
  H   H64       1.0  0.21885  0.10858  0.51010  1.0000
  H   H65       1.0  0.20188  0.17620  0.79680  1.0000
  H   H66       1.0  0.25293  0.17450  0.73506  1.0000
  H   H67       1.0  0.37802  0.17331  0.56507  1.0000
  H   H68       1.0  0.18388  0.10448  0.60092  1.0000
  H   H69       1.0  0.15302  0.08892  0.01470  1.0000
  H   H70       1.0  0.10218  0.08939  0.96809  1.0000
  H   H71       1.0  0.93546  0.66070  0.81390  1.0000
  H   H72       1.0  0.93369  0.61167  0.78593  1.0000
  H   H73       1.0  0.99792  0.52492  0.51699  1.0000
  H   H74       1.0  0.91564  0.52373  0.76822  1.0000
  H   H75       1.0  0.92295  0.46851  0.79386  1.0000
  H   H76       1.0  0.95338  0.41734  0.61277  1.0000
  H   H77       1.0  0.95384  0.36470  0.66764  1.0000
  H   H78       1.0  0.01824  0.29166  0.89526  1.0000
  H   H79       1.0  0.04704  0.23769  0.86808  1.0000
  H   H80       1.0  0.05437  0.18274  0.89180  1.0000
  H   H81       1.0  0.05385  0.99233  0.61421  1.0000
  H   H82       1.0  0.03473  0.96320  0.72320  1.0000
  H   H83       1.0  0.96047  0.00399  0.92760  1.0000
  H   H84       1.0  0.03235  0.91210  0.77538  1.0000
  H   H85       1.0  0.95618  0.95408  0.98024  1.0000
  H   H86       1.0  0.98227  0.89740  0.78708  1.0000
  H   H87       1.0  0.97668  0.84808  0.81388  1.0000
  H   H88       1.0  0.02903  0.78311  0.00470  1.0000
  H   H89       1.0  0.97880  0.75298  0.71490  1.0000
  H   H90       1.0  0.97810  0.70339  0.68226  1.0000
  H   H91       1.0  0.99303  0.11820  0.67142  1.0000
  H   H92       1.0  0.94023  0.12280  0.64317  1.0000
  H   H93       1.0  0.88930  0.14793  0.54598  1.0000
  H   H94       1.0  0.84891  0.15787  0.63610  1.0000
  H   H95       1.0  0.79887  0.23775  0.79780  1.0000
  H   H96       1.0  0.79922  0.15748  0.69650  1.0000
  H   H97       1.0  0.74833  0.23740  0.85632  1.0000
  H   H98       1.0  0.76688  0.13702  0.64043  1.0000
  H   H99       1.0  0.71535  0.21563  0.81013  1.0000
  H   H100      1.0  0.71701  0.13517  0.69812  1.0000
  H   H101      1.0  0.66645  0.21349  0.87193  1.0000
  H   H102      1.0  0.62593  0.22232  0.96159  1.0000
  H   H103      1.0  0.60602  0.16690  0.73271  1.0000
  H   H104      1.0  0.55626  0.16487  0.69202  1.0000
  H   H105      1.0  0.83908  0.77560  0.54831  1.0000
  H   H106      1.0  0.80208  0.81326  0.62245  1.0000
  H   H107      1.0  0.75341  0.86039  0.67668  1.0000
  H   H108      1.0  0.70148  0.89615  0.63612  1.0000
  H   H109      1.0  0.65260  0.94428  0.68706  1.0000
  H   H110      1.0  0.64352  0.04432  0.96531  1.0000
  H   H111      1.0  0.56991  0.05497  0.69024  1.0000
  H   H112      1.0  0.61650  0.09895  0.89672  1.0000
  H   H113      1.0  0.52232  0.10940  0.66517  1.0000
  H   H114      1.0  0.56871  0.15280  0.88217  1.0000
  H   H115      1.0  0.06620  0.64584  0.63084  1.0000
  H   H116      1.0  0.11913  0.59858  0.62507  1.0000
  H   H117      1.0  0.12745  0.53583  0.89109  1.0000
  H   H118      1.0  0.39129  0.33679  0.44650  1.0000
  H   H119      1.0  0.44335  0.30493  0.52798  1.0000
  H   H120      1.0  0.49515  0.25302  0.56527  1.0000
  C   C1        1.0  0.29216  0.14438  0.06241  1.0000
  C   C2        1.0  0.33193  0.16142  0.08968  1.0000
  C   C3        1.0  0.30352  0.16168  0.12812  1.0000
  C   C4        1.0  0.26220  0.14437  0.10455  1.0000
  C   C5        1.0  0.25741  0.11809  0.09097  1.0000
  C   C6        1.0  0.22882  0.11840  0.12606  1.0000
  C   C7        1.0  0.20318  0.14528  0.17453  1.0000
  C   C8        1.0  0.20821  0.17118  0.19207  1.0000
  C   C9        1.0  0.23701  0.17068  0.15785  1.0000
  C   C10       1.0  0.38575  0.13790  0.44417  1.0000
  C   C11       1.0  0.17164  0.14713  0.20019  1.0000
  C   C12       1.0  0.39519  0.15713  0.49776  1.0000
  C   C13       1.0  0.16291  0.12710  0.14883  1.0000
  C   C14       1.0  0.14968  0.17248  0.27232  1.0000
  C   C15       1.0  0.40579  0.11436  0.35947  1.0000
  C   C16       1.0  0.13287  0.12665  0.14518  1.0000
  C   C17       1.0  0.10442  0.14684  0.20898  1.0000
  C   C18       1.0  0.13143  0.10499  0.06372  1.0000
  C   C19       1.0  0.07598  0.14669  0.18296  1.0000
  C   C20       1.0  0.10279  0.10520  0.03715  1.0000
  C   C21       1.0  0.07392  0.12723  0.09089  1.0000
  C   C22       1.0  0.04290  0.12998  0.04813  1.0000
  C   C23       1.0  0.01383  0.15980  0.02063  1.0000
  C   C24       1.0  0.99723  0.60442  0.06892  1.0000
  C   C25       1.0  0.99668  0.57643  0.05276  1.0000
  C   C26       1.0  0.97863  0.54608  0.44190  1.0000
  C   C27       1.0  0.96116  0.53876  0.35471  1.0000
  C   C28       1.0  0.93516  0.56346  0.24998  1.0000
  C   C29       1.0  0.97836  0.40839  0.41431  1.0000
  C   C30       1.0  0.99240  0.38588  0.32035  1.0000
  C   C31       1.0  0.99350  0.35563  0.35334  1.0000
  C   C32       1.0  0.98000  0.34717  0.47994  1.0000
  C   C33       1.0  0.97980  0.31573  0.02069  1.0000
  C   C34       1.0  0.00166  0.28808  0.46560  1.0000
  C   C35       1.0  0.95585  0.31594  0.11650  1.0000
  C   C36       1.0  0.98136  0.24819  0.05549  1.0000
  C   C37       1.0  0.98520  0.21719  0.06411  1.0000
  C   C38       1.0  0.01158  0.19235  0.00780  1.0000
  C   C39       1.0  0.03616  0.01364  0.03276  1.0000
  C   C40       1.0  0.01351  0.01010  0.46532  1.0000
  C   C41       1.0  0.01147  0.97927  0.99783  1.0000
  C   C42       1.0  0.98894  0.03591  0.35749  1.0000
  C   C43       1.0  0.03873  0.94826  0.05388  1.0000
  C   C44       1.0  0.99738  0.97171  0.39326  1.0000
  C   C45       1.0  0.03625  0.91992  0.08442  1.0000
  C   C46       1.0  0.99628  0.94263  0.42308  1.0000
  C   C47       1.0  0.00654  0.92106  0.06012  1.0000
  C   C48       1.0  0.01989  0.86882  0.48617  1.0000
  C   C49       1.0  0.99293  0.80503  0.14371  1.0000
  C   C50       1.0  0.01126  0.77997  0.07160  1.0000
  C   C51       1.0  0.96762  0.80578  0.23073  1.0000
  C   C52       1.0  0.03367  0.72930  0.45787  1.0000
  C   C53       1.0  0.03254  0.70178  0.43751  1.0000
  C   C54       1.0  0.00913  0.66390  0.49102  1.0000
  C   C55       1.0  0.97956  0.66468  0.48365  1.0000
  C   C56       1.0  0.98220  0.16138  0.50474  1.0000
  C   C57       1.0  0.95736  0.18710  0.40029  1.0000
  C   C58       1.0  0.92730  0.18964  0.38022  1.0000
  C   C59       1.0  0.92018  0.16655  0.46720  1.0000
  C   C60       1.0  0.88946  0.16745  0.46333  1.0000
  C   C61       1.0  0.86057  0.18881  0.38010  1.0000
  C   C62       1.0  0.83060  0.18783  0.41428  1.0000
  C   C63       1.0  0.85743  0.21372  0.25796  1.0000
  C   C64       1.0  0.83120  0.15945  0.99778  1.0000
  C   C65       1.0  0.80266  0.20560  0.31377  1.0000
  C   C66       1.0  0.80271  0.15932  0.03131  1.0000
  C   C67       1.0  0.77400  0.20592  0.35013  1.0000
  C   C68       1.0  0.77219  0.18816  0.48703  1.0000
  C   C69       1.0  0.74221  0.18707  0.02231  1.0000
  C   C70       1.0  0.74047  0.17019  0.16200  1.0000
  C   C71       1.0  0.71147  0.21593  0.48238  1.0000
  C   C72       1.0  0.71231  0.16948  0.19894  1.0000
  C   C73       1.0  0.68331  0.21509  0.51678  1.0000
  C   C74       1.0  0.68475  0.18535  0.09652  1.0000
  C   C75       1.0  0.65551  0.18287  0.13118  1.0000
  C   C76       1.0  0.62642  0.20289  0.04736  1.0000
  C   C77       1.0  0.65973  0.15738  0.25297  1.0000
  C   C78       1.0  0.57263  0.22494  0.41294  1.0000
  C   C79       1.0  0.54438  0.22381  0.39324  1.0000
  C   C80       1.0  0.50973  0.19780  0.47104  1.0000
  C   C81       1.0  0.51130  0.16740  0.49419  1.0000
  C   C82       1.0  0.85375  0.78085  0.46744  1.0000
  C   C83       1.0  0.84008  0.81275  0.38972  1.0000
  C   C84       1.0  0.80896  0.83999  0.41946  1.0000
  C   C85       1.0  0.85585  0.82193  0.27234  1.0000
  C   C86       1.0  0.79558  0.87123  0.32469  1.0000
  C   C87       1.0  0.76768  0.89802  0.35575  1.0000
  C   C88       1.0  0.75165  0.89503  0.48273  1.0000
  C   C89       1.0  0.71742  0.95589  0.46772  1.0000
  C   C90       1.0  0.68970  0.98319  0.49620  1.0000
  C   C91       1.0  0.63618  0.00948  0.10692  1.0000
  C   C92       1.0  0.62662  0.04138  0.03930  1.0000
  C   C93       1.0  0.61810  0.00188  0.21670  1.0000
  C   C94       1.0  0.59767  0.07218  0.04405  1.0000
  C   C95       1.0  0.57052  0.07623  0.12223  1.0000
  C   C96       1.0  0.59684  0.09980  0.45931  1.0000
  C   C97       1.0  0.54283  0.10694  0.10689  1.0000
  C   C98       1.0  0.57018  0.13076  0.45055  1.0000
  C   C99       1.0  0.54069  0.13545  0.01642  1.0000
  C   C100      1.0  0.04068  0.63472  0.48029  1.0000
  C   C101      1.0  0.04505  0.61184  0.39296  1.0000
  C   C102      1.0  0.07502  0.58430  0.39246  1.0000
  C   C103      1.0  0.10285  0.57839  0.47513  1.0000
  C   C104      1.0  0.13310  0.54911  0.46680  1.0000
  C   C105      1.0  0.16117  0.53751  0.02494  1.0000
  C   C106      1.0  0.16859  0.55423  0.11731  1.0000
  C   C107      1.0  0.35754  0.32953  0.34339  1.0000
  C   C108      1.0  0.38875  0.31983  0.39113  1.0000
  C   C109      1.0  0.35047  0.31034  0.26566  1.0000
  C   C110      1.0  0.41898  0.28997  0.39070  1.0000
  C   C111      1.0  0.42357  0.26420  0.32105  1.0000
  C   C112      1.0  0.45290  0.23509  0.34261  1.0000
  C   C113      1.0  0.47918  0.22960  0.43437  1.0000
  C   C114      1.0  0.31043  0.12725  0.95467  1.0000
  C   C115      1.0  0.33896  0.12691  0.91616  1.0000
  C   C116      1.0  0.35054  0.14381  0.98367  1.0000
  C   C117      1.0  0.26537  0.14065  0.58741  1.0000
  C   C118      1.0  0.25517  0.12156  0.52919  1.0000
  C   C119      1.0  0.22632  0.12243  0.56436  1.0000
  C   C120      1.0  0.20624  0.14207  0.66130  1.0000
  C   C121      1.0  0.21657  0.16089  0.72086  1.0000
  C   C122      1.0  0.24538  0.16020  0.68442  1.0000
  C   C123      1.0  0.38186  0.14172  0.94851  1.0000
  C   C124      1.0  0.17474  0.14430  0.69370  1.0000
  C   C125      1.0  0.39204  0.16109  0.99543  1.0000
  C   C126      1.0  0.16533  0.12402  0.64997  1.0000
  C   C127      1.0  0.15371  0.16983  0.76728  1.0000
  C   C128      1.0  0.40147  0.11734  0.86650  1.0000
  C   C129      1.0  0.04332  0.13002  0.55066  1.0000
  C   C130      1.0  0.01403  0.15966  0.52298  1.0000
  C   C131      1.0  0.97602  0.63536  0.97912  1.0000
  C   C132      1.0  0.95271  0.63694  0.88092  1.0000
  C   C133      1.0  0.95185  0.60910  0.86464  1.0000
  C   C134      1.0  0.97453  0.57777  0.94757  1.0000
  C   C135      1.0  0.97661  0.54711  0.93487  1.0000
  C   C136      1.0  0.95897  0.54055  0.84446  1.0000
  C   C137      1.0  0.96473  0.50694  0.85105  1.0000
  C   C138      1.0  0.93245  0.56576  0.74364  1.0000
  C   C139      1.0  0.93912  0.50240  0.81087  1.0000
  C   C140      1.0  0.99509  0.47862  0.89918  1.0000
  C   C141      1.0  0.94323  0.47108  0.82665  1.0000
  C   C142      1.0  0.99908  0.44723  0.91543  1.0000
  C   C143      1.0  0.97298  0.44269  0.88327  1.0000
  C   C144      1.0  0.96482  0.39999  0.54021  1.0000
  C   C145      1.0  0.96516  0.37022  0.57134  1.0000
  C   C146      1.0  0.98037  0.31546  0.51776  1.0000
  C   C147      1.0  0.00110  0.28854  0.96721  1.0000
  C   C148      1.0  0.95717  0.31523  0.61751  1.0000
  C   C149      1.0  0.00371  0.25649  0.98599  1.0000
  C   C150      1.0  0.02970  0.23200  0.92537  1.0000
  C   C151      1.0  0.03365  0.20083  0.93709  1.0000
  C   C152      1.0  0.03636  0.01389  0.53405  1.0000
  C   C153      1.0  0.01299  0.01001  0.96545  1.0000
  C   C154      1.0  0.01199  0.97934  0.49909  1.0000
  C   C155      1.0  0.98726  0.03667  0.86513  1.0000
  C   C156      1.0  0.02445  0.95735  0.63719  1.0000
  C   C157      1.0  0.98183  0.98044  0.97268  1.0000
  C   C158      1.0  0.02278  0.92857  0.66759  1.0000
  C   C159      1.0  0.97944  0.95212  0.00362  1.0000
  C   C160      1.0  0.00892  0.92055  0.56047  1.0000
  C   C161      1.0  0.00735  0.88985  0.58751  1.0000
  C   C162      1.0  0.99235  0.88150  0.70739  1.0000
  C   C163      1.0  0.98914  0.85361  0.72239  1.0000
  C   C164      1.0  0.01724  0.84074  0.50236  1.0000
  C   C165      1.0  0.00152  0.83267  0.62027  1.0000
  C   C166      1.0  0.99719  0.80367  0.63395  1.0000
  C   C167      1.0  0.01554  0.77814  0.56442  1.0000
  C   C168      1.0  0.97179  0.80457  0.72082  1.0000
  C   C169      1.0  0.01385  0.74910  0.55541  1.0000
  C   C170      1.0  0.99378  0.73898  0.63616  1.0000
  C   C171      1.0  0.99331  0.71111  0.61788  1.0000
  C   C172      1.0  0.01163  0.69246  0.51499  1.0000
  C   C173      1.0  0.00677  0.66506  0.99564  1.0000
  C   C174      1.0  0.97739  0.66555  0.98284  1.0000
  C   C175      1.0  0.97482  0.13852  0.59070  1.0000
  C   C176      1.0  0.94485  0.14098  0.57326  1.0000
  C   C177      1.0  0.88879  0.16862  0.97352  1.0000
  C   C178      1.0  0.86052  0.18895  0.88472  1.0000
  C   C179      1.0  0.83046  0.18785  0.91516  1.0000
  C   C180      1.0  0.85801  0.21293  0.75936  1.0000
  C   C181      1.0  0.82854  0.17045  0.55211  1.0000
  C   C182      1.0  0.80002  0.21562  0.86289  1.0000
  C   C183      1.0  0.80017  0.17030  0.58714  1.0000
  C   C184      1.0  0.77151  0.21535  0.89591  1.0000
  C   C185      1.0  0.77220  0.18735  0.98264  1.0000
  C   C186      1.0  0.74219  0.18784  0.52547  1.0000
  C   C187      1.0  0.74344  0.15907  0.60630  1.0000
  C   C188      1.0  0.71445  0.20340  0.92097  1.0000
  C   C189      1.0  0.71533  0.15802  0.63913  1.0000
  C   C190      1.0  0.68655  0.20225  0.95676  1.0000
  C   C191      1.0  0.68465  0.18593  0.59315  1.0000
  C   C192      1.0  0.65498  0.18398  0.62193  1.0000
  C   C193      1.0  0.62657  0.20400  0.53325  1.0000
  C   C194      1.0  0.65831  0.15882  0.74337  1.0000
  C   C195      1.0  0.59637  0.20373  0.53192  1.0000
  C   C196      1.0  0.58938  0.18258  0.63572  1.0000
  C   C197      1.0  0.56132  0.18152  0.61422  1.0000
  C   C198      1.0  0.53870  0.20102  0.49143  1.0000
  C   C199      1.0  0.50939  0.19753  0.97523  1.0000
  C   C200      1.0  0.51011  0.16755  0.99456  1.0000
  C   C201      1.0  0.85321  0.78411  0.95527  1.0000
  C   C202      1.0  0.84042  0.81587  0.87735  1.0000
  C   C203      1.0  0.85642  0.82478  0.76044  1.0000
  C   C204      1.0  0.79247  0.83672  0.54462  1.0000
  C   C205      1.0  0.76456  0.86354  0.57533  1.0000
  C   C206      1.0  0.72256  0.92376  0.51658  1.0000
  C   C207      1.0  0.69861  0.92045  0.59729  1.0000
  C   C208      1.0  0.67077  0.94772  0.62552  1.0000
  C   C209      1.0  0.66548  0.97979  0.57448  1.0000
  C   C210      1.0  0.63560  0.00843  0.60453  1.0000
  C   C211      1.0  0.62591  0.04014  0.53367  1.0000
  C   C212      1.0  0.61723  0.00136  0.71443  1.0000
  C   C213      1.0  0.59759  0.07122  0.54217  1.0000
  C   C214      1.0  0.57032  0.07582  0.62067  1.0000
  C   C215      1.0  0.59595  0.10090  0.95720  1.0000
  C   C216      1.0  0.54324  0.10695  0.60707  1.0000
  C   C217      1.0  0.56854  0.13142  0.94567  1.0000
  C   C218      1.0  0.54188  0.13531  0.51848  1.0000
  C   C219      1.0  0.06859  0.62898  0.56103  1.0000
  C   C220      1.0  0.09878  0.60188  0.55862  1.0000
  C   C221      1.0  0.13020  0.55019  0.96280  1.0000
  C   C222      1.0  0.16368  0.53726  0.53092  1.0000
  C   C223      1.0  0.17083  0.55491  0.61852  1.0000
  C   C224      1.0  0.35729  0.32876  0.85007  1.0000
  C   C225      1.0  0.38824  0.31916  0.90170  1.0000
  C   C226      1.0  0.35091  0.30926  0.77130  1.0000
  C   C227      1.0  0.44607  0.28546  0.47388  1.0000
  C   C228      1.0  0.47529  0.25615  0.49538  1.0000
  N   N1        1.0  0.13208  0.19347  0.33204  1.0000
  N   N2        1.0  0.42101  0.09516  0.28683  1.0000
  N   N3        1.0  0.91367  0.58259  0.16176  1.0000
  N   N4        1.0  0.93605  0.31785  0.19779  1.0000
  N   N5        1.0  0.96817  0.05619  0.26864  1.0000
  N   N6        1.0  0.94709  0.80719  0.30612  1.0000
  N   N7        1.0  0.85389  0.23388  0.15383  1.0000
  N   N8        1.0  0.66389  0.13659  0.35525  1.0000
  N   N9        1.0  0.86724  0.83072  0.17285  1.0000
  N   N10       1.0  0.60443  0.99489  0.31090  1.0000
  N   N11       1.0  0.17587  0.56705  0.19357  1.0000
  N   N12       1.0  0.34388  0.29523  0.20066  1.0000
  N   N13       1.0  0.13723  0.19050  0.83097  1.0000
  N   N14       1.0  0.41649  0.09757  0.79605  1.0000
  N   N15       1.0  0.91045  0.58523  0.65858  1.0000
  N   N16       1.0  0.93817  0.31669  0.70283  1.0000
  N   N17       1.0  0.96555  0.05777  0.78287  1.0000
  N   N18       1.0  0.95102  0.80609  0.79483  1.0000
  N   N19       1.0  0.85509  0.23227  0.65273  1.0000
  N   N20       1.0  0.66195  0.13830  0.84608  1.0000
  N   N21       1.0  0.86779  0.83346  0.66051  1.0000
  N   N22       1.0  0.60321  0.99492  0.80850  1.0000
  N   N23       1.0  0.17803  0.56832  0.69167  1.0000
  N   N24       1.0  0.34498  0.29398  0.70447  1.0000
  C   C229      1.0  0.31353  0.39665  0.52418  1.0000
  C   C230      1.0  0.28230  0.41485  0.45228  1.0000
  C  Sn1       1.0  0.27372  0.40408  0.33892  1.0000
  C  Sn2       1.0  0.29688  0.37452  0.29702  1.0000
  C   C231      1.0  0.32805  0.35647  0.36970  1.0000
  C   C232      1.0  0.33639  0.36748  0.48296  1.0000
  H   H121      1.0  0.31998  0.40515  0.61187  1.0000
  O  Te1       1.0  0.24242  0.42258  0.26821  1.0000
  O  Te2       1.0  0.28895  0.36319  0.18412  1.0000
  H   H122      1.0  0.36056  0.35337  0.53867  1.0000
  Mg  Mg1       1.0  0.24319  0.39699  0.12085  1.0000
  C   C233      1.0  0.06351  0.59203  0.87363  1.0000
  C   C234      1.0  0.09351  0.58158  0.94670  1.0000
  C  Sn3       1.0  0.07716  0.64473  0.04736  1.0000
  C  Sn4       1.0  0.04909  0.67300  0.07518  1.0000
  C   C235      1.0  0.01919  0.68324  0.00159  1.0000
  C   C236      1.0  0.03581  0.61990  0.90105  1.0000
  H   H123      1.0  0.06175  0.57849  0.79590  1.0000
  O  Te3       1.0  0.10732  0.63397  0.11936  1.0000
  O  Te4       1.0  0.05094  0.69074  0.17528  1.0000
  H   H124      1.0  0.01258  0.62798  0.84456  1.0000
  Mg  Mg2       1.0  0.09748  0.66636  0.24598  1.0000
  C   C237      1.0  0.93463  0.73579  0.87141  1.0000
  C   C238      1.0  0.94477  0.70400  0.95183  1.0000
  C  Sn5       1.0  0.90392  0.74266  0.02884  1.0000
  C  Sn6       1.0  0.87120  0.76781  0.02504  1.0000
  C   C239      1.0  0.88017  0.75368  0.94418  1.0000
  C   C240      1.0  0.90236  0.76061  0.86756  1.0000
  H   H125      1.0  0.95179  0.74115  0.81206  1.0000
  O  Te5       1.0  0.91446  0.71076  0.10868  1.0000
  O  Te6       1.0  0.84873  0.76129  0.10097  1.0000
  H   H126      1.0  0.89450  0.78522  0.80523  1.0000
  Mg  Mg3       1.0  0.87476  0.71401  0.19417  1.0000
  C   C241      1.0  0.42931  0.18755  0.07197  1.0000
  C   C242      1.0  0.42177  0.16852  0.00026  1.0000
  C  Sn7       1.0  0.46405  0.09969  0.92673  1.0000
  C  Sn8       1.0  0.49557  0.09574  0.92519  1.0000
  C   C243      1.0  0.50289  0.11488  0.99736  1.0000
  C   C244      1.0  0.46040  0.18366  0.07056  1.0000
  H   H127      1.0  0.41106  0.20528  0.12868  1.0000
  O  Te7       1.0  0.45610  0.08089  0.85560  1.0000
  O  Te8       1.0  0.51943  0.07295  0.85259  1.0000
  H   H128      1.0  0.46626  0.19838  0.12616  1.0000
  Mg  Mg4       1.0  0.49688  0.05307  0.77164  1.0000
  C   C245      1.0  0.03231  0.83599  0.09269  1.0000
  C   C246      1.0  0.00593  0.83217  0.13613  1.0000
  C  Sn9       1.0  0.97633  0.85951  0.15021  1.0000
  C  Sn10      1.0  0.97314  0.89124  0.12013  1.0000
  C   C247      1.0  0.99967  0.89481  0.07665  1.0000
  C   C248      1.0  0.02919  0.86727  0.06295  1.0000
  H   H129      1.0  0.05515  0.81469  0.08202  1.0000
  O  Te9       1.0  0.95022  0.85526  0.19377  1.0000
  O  Te10      1.0  0.94383  0.91899  0.13328  1.0000
  H   H130      1.0  0.04960  0.87024  0.02923  1.0000
  Mg  Mg5       1.0  0.91525  0.90060  0.19607  1.0000
  C   C249      1.0  0.19086  0.47338  0.45430  1.0000
  C   C250      1.0  0.18986  0.49932  0.50770  1.0000
  C  Sn11      1.0  0.21847  0.49942  0.53690  1.0000
  C  Sn12      1.0  0.24859  0.47302  0.51202  1.0000
  C   C251      1.0  0.24932  0.44720  0.45847  1.0000
  C   C252      1.0  0.22056  0.44735  0.42967  1.0000
  H   H131      1.0  0.16860  0.47350  0.43193  1.0000
  O  Te11      1.0  0.21704  0.52552  0.59027  1.0000
  O  Te12      1.0  0.27754  0.47250  0.54022  1.0000
  H   H132      1.0  0.22133  0.42727  0.38823  1.0000
  Mg  Mg6       1.0  0.26308  0.51367  0.61206  1.0000
  C   C253      1.0  0.95539  0.49057  0.23065  1.0000
  C   C254      1.0  0.96267  0.50393  0.33677  1.0000
  C  Sn13      1.0  0.97961  0.48398  0.47242  1.0000
  C  Sn14      1.0  0.98943  0.45003  0.50207  1.0000
  C   C255      1.0  0.98206  0.43689  0.39514  1.0000
  C   C256      1.0  0.96508  0.45708  0.25978  1.0000
  H   H133      1.0  0.94227  0.50618  0.12589  1.0000
  O  Te13      1.0  0.98666  0.49774  0.57723  1.0000
  O  Te14      1.0  0.00640  0.42953  0.63671  1.0000
  H   H134      1.0  0.95947  0.44672  0.17761  1.0000
  Mg  Mg7       1.0  0.01031  0.45977  0.74429  1.0000
  C   C257      1.0  0.01985  0.08087  0.40176  1.0000
  C   C258      1.0  0.03697  0.04904  0.48804  1.0000
  C  Sn15      1.0  0.05886  0.04195  0.60658  1.0000
  C  Sn16      1.0  0.06363  0.06724  0.63909  1.0000
  C   C259      1.0  0.04636  0.09900  0.55217  1.0000
  C   C260      1.0  0.02453  0.10583  0.43379  1.0000
  H   H135      1.0  0.00294  0.08615  0.31021  1.0000
  O  Te15      1.0  0.07578  0.01001  0.69162  1.0000
  O  Te16      1.0  0.08535  0.06083  0.75695  1.0000
  H   H136      1.0  0.01126  0.13048  0.36706  1.0000
  Mg  Mg8       1.0  0.10273  0.01343  0.84061  1.0000
  C   C261      1.0  0.45968  0.13792  0.39842  1.0000
  C   C262      1.0  0.43198  0.15226  0.47425  1.0000
  C  Sn17      1.0  0.42836  0.17475  0.56054  1.0000
  C  Sn18      1.0  0.45296  0.18299  0.57086  1.0000
  C   C263      1.0  0.48057  0.16852  0.49448  1.0000
  C   C264      1.0  0.48395  0.14604  0.40849  1.0000
  H   H137      1.0  0.46229  0.12054  0.33182  1.0000
  O  Te17      1.0  0.40054  0.18884  0.63562  1.0000
  O  Te18      1.0  0.44996  0.20540  0.65627  1.0000
  H   H138      1.0  0.50539  0.13495  0.34972  1.0000
  Mg  Mg9       1.0  0.40758  0.21805  0.73800  1.0000
  C   C265      1.0  0.76198  0.85619  0.01141  1.0000
  C   C266      1.0  0.77155  0.84368  0.98445  1.0000
  C  Sn19      1.0  0.79112  0.85472  0.90912  1.0000
  C  Sn20      1.0  0.82054  0.83191  0.85997  1.0000
  C   C267      1.0  0.82963  0.79860  0.88740  1.0000
  C   C268      1.0  0.80987  0.78782  0.96292  1.0000
  H   H139      1.0  0.74668  0.84784  0.06977  1.0000
  O  Te19      1.0  0.78145  0.88812  0.88316  1.0000
  O  Te20      1.0  0.84055  0.84228  0.78438  1.0000
  H   H140      1.0  0.81708  0.76200  0.98369  1.0000
  Mg  Mg10      1.0  0.81694  0.89029  0.77557  1.0000
  C   C269      1.0  0.93234  0.19332  0.87213  1.0000
  C   C270      1.0  0.92183  0.17167  0.93818  1.0000
  C  Sn21      1.0  0.92286  0.19019  0.04862  1.0000
  C  Sn22      1.0  0.95385  0.18451  0.09355  1.0000
  C   C271      1.0  0.96414  0.20633  0.02686  1.0000
  C   C272      1.0  0.96290  0.18774  0.91643  1.0000
  H   H141      1.0  0.91677  0.21442  0.78674  1.0000
  O  Te21      1.0  0.91198  0.16880  0.11341  1.0000
  O  Te22      1.0  0.97424  0.15740  0.20370  1.0000
  H   H142      1.0  0.97104  0.20451  0.86537  1.0000
  Mg  Mg11      1.0  0.94857  0.13529  0.25885  1.0000
  C   C273      1.0  0.58485  0.17605  0.15624  1.0000
  C   C274      1.0  0.59621  0.19500  0.06879  1.0000
  C  Sn23      1.0  0.59607  0.17273  0.94417  1.0000
  C  Sn24      1.0  0.56512  0.17736  0.90670  1.0000
  C   C275      1.0  0.55397  0.15829  0.99496  1.0000
  C   C276      1.0  0.55432  0.18061  0.11940  1.0000
  H   H143      1.0  0.59972  0.15786  0.25257  1.0000
  O  Te23      1.0  0.60780  0.19144  0.85798  1.0000
  O  Te24      1.0  0.54561  0.20076  0.78278  1.0000
  H   H144      1.0  0.54551  0.16596  0.18714  1.0000
  Mg  Mg12      1.0  0.57224  0.22024  0.69987  1.0000
  C   C277      1.0  0.06607  0.04480  0.14250  1.0000
  C   C278      1.0  0.04573  0.04144  0.04869  1.0000
  C  Sn25      1.0  0.04436  0.02179  0.93463  1.0000
  C  Sn26      1.0  0.04454  0.05188  0.91436  1.0000
  C   C279      1.0  0.04612  0.10084  0.00873  1.0000
  C   C280      1.0  0.06627  0.07447  0.12255  1.0000
  H   H145      1.0  0.08168  0.02439  0.23052  1.0000
  O  Te25      1.0  0.02418  0.01801  0.84195  1.0000
  O  Te26      1.0  0.02456  0.07846  0.80121  1.0000
  H   H146      1.0  0.08204  0.07708  0.19510  1.0000
  Mg  Mg13      1.0  0.00133  0.06132  0.70357  1.0000
  C   C281      1.0  0.98082  0.22546  0.57421  1.0000
  C   C282      1.0  0.00371  0.19886  0.51651  1.0000
  C  Sn27      1.0  0.02913  0.20042  0.44463  1.0000
  C  Sn28      1.0  0.03164  0.22918  0.43045  1.0000
  C   C283      1.0  0.00863  0.25566  0.48865  1.0000
  C   C284      1.0  0.98328  0.25384  0.56033  1.0000
  H   H147      1.0  0.96122  0.22405  0.62975  1.0000
  O  Te27      1.0  0.05178  0.17362  0.38758  1.0000
  O  Te28      1.0  0.05681  0.23140  0.35918  1.0000
  H   H148      1.0  0.96558  0.27443  0.60507  1.0000
  Mg  Mg14      1.0  0.08172  0.18842  0.29976  1.0000
  C   C285      1.0  0.01033  0.37146  0.92552  1.0000
  C   C286      1.0  0.98317  0.40297  0.90246  1.0000
  C  Sn29      1.0  0.95252  0.40706  0.92850  1.0000
  C  Sn30      1.0  0.94907  0.37904  0.97860  1.0000
  C   C287      1.0  0.95751  0.39347  0.00144  1.0000
  C   C288      1.0  0.00695  0.34381  0.97498  1.0000
  H   H149      1.0  0.03397  0.36851  0.90513  1.0000
  O  Te29      1.0  0.92564  0.43872  0.90485  1.0000
  O  Te30      1.0  0.89984  0.42827  0.00555  1.0000
  H   H150      1.0  0.02797  0.31941  0.99294  1.0000
  Mg  Mg15      1.0  0.88937  0.43066  0.95705  1.0000
  C   C289      1.0  0.91263  0.69695  0.54858  1.0000
  C   C290      1.0  0.94021  0.69337  0.47921  1.0000
  C  Sn31      1.0  0.94123  0.72103  0.40304  1.0000
  C  Sn32      1.0  0.91409  0.75283  0.39642  1.0000
  C   C291      1.0  0.88662  0.75615  0.46628  1.0000
  C   C292      1.0  0.88586  0.72831  0.54216  1.0000
  H   H151      1.0  0.91204  0.67541  0.60736  1.0000
  O  Te31      1.0  0.96898  0.71701  0.33430  1.0000
  O  Te32      1.0  0.91447  0.78089  0.32109  1.0000
  H   H152      1.0  0.86450  0.73109  0.59594  1.0000
  Mg  Mg16      1.0  0.95784  0.76274  0.24505  1.0000
  C   C293      1.0  0.33044  0.10787  0.49790  1.0000
  C   C294      1.0  0.30256  0.13228  0.54498  1.0000
  C  Sn33      1.0  0.29977  0.16260  0.54955  1.0000
  C  Sn34      1.0  0.32541  0.16854  0.50609  1.0000
  C   C295      1.0  0.35319  0.14397  0.45906  1.0000
  C   C296      1.0  0.35573  0.11371  0.45495  1.0000
  H   H153      1.0  0.33240  0.08446  0.49464  1.0000
  O  Te33      1.0  0.27176  0.18671  0.59693  1.0000
  O  Te34      1.0  0.32325  0.19863  0.50953  1.0000
  H   H154      1.0  0.37730  0.09482  0.41840  1.0000
  Mg  Mg17      1.0  0.28021  0.22375  0.58241  1.0000
  C   C297      1.0  0.19773  0.96647  0.90112  1.0000
  C   C298      1.0  0.72009  0.93413  0.98198  1.0000
  C  Sn35      1.0  0.68983  0.97029  0.11178  1.0000
  C  Sn36      1.0  0.15552  0.99346  0.16124  1.0000
  C   C299      1.0  0.13846  0.02576  0.07950  1.0000
  C   C300      1.0  0.16895  0.98935  0.94979  1.0000
  H   H155      1.0  0.20670  0.97377  0.80072  1.0000
  O  Te35      1.0  0.70733  0.93787  0.19126  1.0000
  O  Te36      1.0  0.64873  0.98443  0.29055  1.0000
  H   H156      1.0  0.15561  0.01439  0.88716  1.0000
  Mg  Mg18      1.0  0.68123  0.93739  0.36065  1.0000
  C   C301      1.0  0.00145  0.57974  0.57917  1.0000
  C   C302      1.0  0.98060  0.57655  0.48774  1.0000
  C  Sn37      1.0  0.95784  0.60373  0.38434  1.0000
  C  Sn38      1.0  0.95600  0.63465  0.37247  1.0000
  C   C303      1.0  0.97699  0.63758  0.46438  1.0000
  C   C304      1.0  0.99966  0.61023  0.56750  1.0000
  H   H157      1.0  0.01901  0.55858  0.65891  1.0000
  O  Te37      1.0  0.93719  0.60010  0.29389  1.0000
  O  Te38      1.0  0.93349  0.66221  0.27003  1.0000
  H   H158      1.0  0.01581  0.61271  0.63821  1.0000
  Mg  Mg19      1.0  0.91058  0.64489  0.17138  1.0000
  C   C305      1.0  0.24311  0.47268  0.07061  1.0000
  C   C306      1.0  0.26433  0.40516  0.98209  1.0000
  C  Sn39      1.0  0.23751  0.41246  0.89093  1.0000
  C  Sn40      1.0  0.20784  0.44203  0.88856  1.0000
  C   C307      1.0  0.20576  0.46356  0.97745  1.0000
  C   C308      1.0  0.21386  0.50185  0.06829  1.0000
  H   H159      1.0  0.26399  0.46685  0.14083  1.0000
  O  Te39      1.0  0.24026  0.39053  0.80324  1.0000
  O  Te40      1.0  0.18067  0.44993  0.79844  1.0000
  H   H160      1.0  0.21205  0.51865  0.13674  1.0000
  Mg  Mg20      1.0  0.19646  0.41219  0.69891  1.0000
  C   C309      1.0  0.11188  0.10152  0.53029  1.0000
  C   C310      1.0  0.08201  0.11940  0.58567  1.0000
  C  Sn41      1.0  0.07783  0.14184  0.67327  1.0000
  C  Sn42      1.0  0.10408  0.14642  0.70580  1.0000
  C   C311      1.0  0.13386  0.12843  0.64978  1.0000
  C   C312      1.0  0.13778  0.10603  0.56228  1.0000
  H   H161      1.0  0.11491  0.08420  0.46252  1.0000
  O  Te41      1.0  0.04782  0.15949  0.72775  1.0000
  O  Te42      1.0  0.10056  0.16870  0.79302  1.0000
  H   H162      1.0  0.16090  0.09221  0.51934  1.0000
  Mg  Mg21      1.0  0.05498  0.18698  0.84167  1.0000
  C   C313      1.0  0.27357  0.38456  0.86852  1.0000
  C   C314      1.0  0.27177  0.41121  0.91844  1.0000
  C  Sn43      1.0  0.29979  0.41286  0.94059  1.0000
  C  Sn44      1.0  0.33013  0.38733  0.91210  1.0000
  C   C315      1.0  0.33167  0.36079  0.86208  1.0000
  C   C316      1.0  0.30348  0.35938  0.84033  1.0000
  H   H163      1.0  0.25176  0.38348  0.85161  1.0000
  O  Te43      1.0  0.29756  0.43965  0.99056  1.0000
  O  Te44      1.0  0.35851  0.38837  0.93325  1.0000
  H   H164      1.0  0.30488  0.33876  0.80159  1.0000
  Mg  Mg22      1.0  0.32416  0.47581  0.00273  1.0000
  C   C317      1.0  0.98424  0.73667  0.14082  1.0000
  C   C318      1.0  0.00493  0.74839  0.08695  1.0000
  C  Sn45      1.0  0.04710  0.68652  0.99245  1.0000
  C  Sn46      1.0  0.04965  0.65825  0.95128  1.0000
  C   C319      1.0  0.00993  0.69259  0.00569  1.0000
  C   C320      1.0  0.98673  0.70880  0.10023  1.0000
  H   H165      1.0  0.96628  0.74923  0.21390  1.0000
  O  Te45      1.0  0.06759  0.69854  0.93968  1.0000
  O  Te46      1.0  0.07269  0.64177  0.85695  1.0000
  H   H166      1.0  0.97070  0.69974  0.14185  1.0000
  Mg  Mg23      1.0  0.09511  0.66759  0.81399  1.0000
  C   C321      1.0  0.47000  0.26398  0.01370  1.0000
  C   C322      1.0  0.49772  0.18997  0.95753  1.0000
  C  Sn47      1.0  0.47632  0.18965  0.85723  1.0000
  C  Sn48      1.0  0.44554  0.21810  0.81250  1.0000
  C   C323      1.0  0.43694  0.24616  0.86925  1.0000
  C   C324      1.0  0.45852  0.24621  0.96960  1.0000
  H   H167      1.0  0.48671  0.26403  0.09128  1.0000
  O  Te47      1.0  0.48553  0.16129  0.80223  1.0000
  O  Te48      1.0  0.42369  0.21845  0.71235  1.0000
  H   H168      1.0  0.43280  0.31388  0.01300  1.0000
  Mg  Mg24      1.0  0.44736  0.17382  0.66836  1.0000
