data_image0
_chemical_formula_structural       H88C184N16SnCSn2CSnTe4Mg2SnCSn2CSnTe4Mg2SnCSn2CSnTe4Mg2SnCSn2CSnTe4Mg2SnCSn2CSnTe4Mg2SnCSn2CSnTe4Mg2SnCSn2CSnTe4Mg2SnCSn2CSnTe4Mg2SnCSn2CSnTe4Mg2SnCSn2CSnTe4Mg2SnCSn2CSnTe4Mg2SnCSn2CSnTe4Mg2
_chemical_formula_sum              "H88 C208 N16 Sn48 Te48 Mg24"
_cell_length_a       35.1159
_cell_length_b       34.5461
_cell_length_c       7.9667
_cell_angle_alpha    91.8159
_cell_angle_beta     100.583
_cell_angle_gamma    89.9488

_symmetry_space_group_name_H-M    'P1'
_space_group_IT_number       1

loop_
  _space_group_symop_operation_xyz
  'x, y, z'

loop_
  _atom_site_type_symbol
  _atom_site_label
  _atom_site_symmetry_multiplicity
  _atom_site_fract_x
  _atom_site_fract_y
  _atom_site_fract_z
  _atom_site_occupancy
  H   H1        1.0  0.69660  0.34067  0.28924  1.0000
  H   H2        1.0  0.41994  0.53637  0.40992  1.0000
  H   H3        1.0  0.19680  0.84127  0.29206  1.0000
  H   H4        1.0  0.92107  0.03677  0.42914  1.0000
  H   H5        1.0  0.03973  0.14893  0.05232  1.0000
  H   H6        1.0  0.09687  0.18861  0.04018  1.0000
  H   H7        1.0  0.16797  0.10802  0.36180  1.0000
  H   H8        1.0  0.11037  0.06830  0.37150  1.0000
  H   H9        1.0  0.25831  0.31745  0.16026  1.0000
  H   H10       1.0  0.19784  0.28193  0.07474  1.0000
  H   H11       1.0  0.31035  0.33770  0.19607  1.0000
  H   H12       1.0  0.58555  0.53582  0.08516  1.0000
  H   H13       1.0  0.24650  0.81703  0.36629  1.0000
  H   H14       1.0  0.30573  0.78117  0.46086  1.0000
  H   H15       1.0  0.80868  0.84007  0.20700  1.0000
  H   H16       1.0  0.08629  0.03565  0.10187  1.0000
  H   H17       1.0  0.96564  0.15203  0.48265  1.0000
  H   H18       1.0  0.90796  0.19101  0.49117  1.0000
  H   H19       1.0  0.83883  0.10566  0.16266  1.0000
  H   H20       1.0  0.89694  0.06637  0.15853  1.0000
  H   H21       1.0  0.74767  0.31850  0.35027  1.0000
  H   H22       1.0  0.80643  0.28262  0.45261  1.0000
  H   H23       1.0  0.30827  0.65966  0.20943  1.0000
  H   H24       1.0  0.58600  0.46478  0.08493  1.0000
  H   H25       1.0  0.24864  0.18323  0.34888  1.0000
  H   H26       1.0  0.30923  0.21865  0.43282  1.0000
  H   H27       1.0  0.80954  0.16016  0.21526  1.0000
  H   H28       1.0  0.08617  0.96479  0.09741  1.0000
  H   H29       1.0  0.96598  0.85081  0.45082  1.0000
  H   H30       1.0  0.90883  0.81109  0.45950  1.0000
  H   H31       1.0  0.83749  0.89414  0.15411  1.0000
  H   H32       1.0  0.89507  0.93413  0.14810  1.0000
  H   H33       1.0  0.69555  0.66175  0.28785  1.0000
  H   H34       1.0  0.42044  0.46553  0.40844  1.0000
  H   H35       1.0  0.75832  0.18228  0.15171  1.0000
  H   H36       1.0  0.69962  0.21831  0.04797  1.0000
  H   H37       1.0  0.19697  0.16118  0.30062  1.0000
  H   H38       1.0  0.92040  0.96575  0.41975  1.0000
  H   H39       1.0  0.25749  0.68229  0.15004  1.0000
  H   H40       1.0  0.19841  0.71809  0.05466  1.0000
  H   H41       1.0  0.50150  0.63416  0.24683  1.0000
  H   H42       1.0  0.00336  0.13426  0.26954  1.0000
  H   H43       1.0  0.50346  0.36723  0.23717  1.0000
  H   H44       1.0  0.00245  0.86728  0.24479  1.0000
  H   H45       1.0  0.69123  0.34048  0.78583  1.0000
  H   H46       1.0  0.41341  0.53581  0.90200  1.0000
  H   H47       1.0  0.53347  0.64909  0.54269  1.0000
  H   H48       1.0  0.59063  0.68846  0.53008  1.0000
  H   H49       1.0  0.66192  0.60679  0.84453  1.0000
  H   H50       1.0  0.60425  0.56727  0.85427  1.0000
  H   H51       1.0  0.19180  0.84087  0.79665  1.0000
  H   H52       1.0  0.91340  0.03510  0.92228  1.0000
  H   H53       1.0  0.03324  0.14875  0.55835  1.0000
  H   H54       1.0  0.09058  0.18726  0.53732  1.0000
  H   H55       1.0  0.16198  0.10676  0.85747  1.0000
  H   H56       1.0  0.10428  0.06765  0.87282  1.0000
  H   H57       1.0  0.30479  0.33548  0.68979  1.0000
  H   H58       1.0  0.57948  0.53466  0.58253  1.0000
  H   H59       1.0  0.45959  0.64999  0.96591  1.0000
  H   H60       1.0  0.40247  0.69006  0.97349  1.0000
  H   H61       1.0  0.33260  0.60674  0.63572  1.0000
  H   H62       1.0  0.39025  0.56657  0.63129  1.0000
  H   H63       1.0  0.80425  0.83799  0.70095  1.0000
  H   H64       1.0  0.07978  0.03553  0.60442  1.0000
  H   H65       1.0  0.74444  0.32087  0.81863  1.0000
  H   H66       1.0  0.80307  0.28449  0.92352  1.0000
  H   H67       1.0  0.30385  0.66176  0.69465  1.0000
  H   H68       1.0  0.57965  0.46369  0.58010  1.0000
  H   H69       1.0  0.46128  0.35091  0.95029  1.0000
  H   H70       1.0  0.40507  0.30940  0.95388  1.0000
  H   H71       1.0  0.33301  0.38925  0.63207  1.0000
  H   H72       1.0  0.38977  0.43061  0.62923  1.0000
  H   H73       1.0  0.80301  0.16015  0.70493  1.0000
  H   H74       1.0  0.08036  0.96484  0.59999  1.0000
  H   H75       1.0  0.69102  0.66036  0.78370  1.0000
  H   H76       1.0  0.41344  0.46482  0.89923  1.0000
  H   H77       1.0  0.75077  0.18166  0.65714  1.0000
  H   H78       1.0  0.69206  0.21782  0.55390  1.0000
  H   H79       1.0  0.19067  0.15964  0.79623  1.0000
  H   H80       1.0  0.91400  0.96423  0.91827  1.0000
  H   H81       1.0  0.03564  0.85114  0.53075  1.0000
  H   H82       1.0  0.09334  0.81228  0.51600  1.0000
  H   H83       1.0  0.16258  0.89486  0.85960  1.0000
  H   H84       1.0  0.10448  0.93417  0.86938  1.0000
  H   H85       1.0  0.49678  0.63317  0.74885  1.0000
  H   H86       1.0  0.99630  0.13342  0.77213  1.0000
  H   H87       1.0  0.49760  0.36636  0.73984  1.0000
  H   H88       1.0  0.99805  0.86645  0.75213  1.0000
  C   C1        1.0  0.03545  0.91812  0.21749  1.0000
  C   C2        1.0  0.03477  0.95921  0.20995  1.0000
  C   C3        1.0  0.06408  0.98062  0.14982  1.0000
  C   C4        1.0  0.93515  0.89586  0.30100  1.0000
  C   C5        1.0  0.93779  0.86055  0.38597  1.0000
  C   C6        1.0  0.90533  0.83800  0.39158  1.0000
  C   C7        1.0  0.86822  0.84961  0.30808  1.0000
  C   C8        1.0  0.86564  0.88504  0.22269  1.0000
  C   C9        1.0  0.89807  0.90770  0.21987  1.0000
  C   C10       1.0  0.17261  0.82729  0.20649  1.0000
  C   C11       1.0  0.67941  0.70984  0.14115  1.0000
  C   C12       1.0  0.65349  0.27124  0.00923  1.0000
  C   C13       1.0  0.53570  0.41824  0.20553  1.0000
  C   C14       1.0  0.53446  0.45927  0.19531  1.0000
  C   C15       1.0  0.56363  0.48076  0.13480  1.0000
  C   C16       1.0  0.67289  0.32711  0.19922  1.0000
  C   C17       1.0  0.28924  0.27082  0.30271  1.0000
  C   C18       1.0  0.25689  0.28792  0.20182  1.0000
  C   C19       1.0  0.22226  0.26777  0.15271  1.0000
  C   C20       1.0  0.18026  0.20925  0.15388  1.0000
  C   C21       1.0  0.15202  0.77044  0.02381  1.0000
  C   C22       1.0  0.96992  0.91832  0.28522  1.0000
  C   C23       1.0  0.97101  0.95949  0.30106  1.0000
  C   C24       1.0  0.94222  0.98131  0.36752  1.0000
  C   C25       1.0  0.83286  0.82739  0.29307  1.0000
  C   C26       1.0  0.21721  0.77074  0.20071  1.0000
  C   C27       1.0  0.24838  0.78757  0.31638  1.0000
  C   C28       1.0  0.28226  0.76718  0.37133  1.0000
  C   C29       1.0  0.32415  0.70852  0.36652  1.0000
  C   C30       1.0  0.35579  0.27127  0.46627  1.0000
  C   C31       1.0  0.47031  0.41803  0.27475  1.0000
  C   C32       1.0  0.47080  0.45924  0.28725  1.0000
  C   C33       1.0  0.44184  0.48098  0.35303  1.0000
  C   C34       1.0  0.33468  0.32537  0.28253  1.0000
  C   C35       1.0  0.71832  0.27133  0.19084  1.0000
  C   C36       1.0  0.74940  0.28866  0.30509  1.0000
  C   C37       1.0  0.78297  0.26828  0.36455  1.0000
  C   C38       1.0  0.82423  0.20907  0.37319  1.0000
  C   C39       1.0  0.85329  0.77312  0.47619  1.0000
  C   C40       1.0  0.97071  0.08348  0.30181  1.0000
  C   C41       1.0  0.97144  0.04236  0.30947  1.0000
  C   C42       1.0  0.94253  0.02093  0.37233  1.0000
  C   C43       1.0  0.07057  0.10557  0.21200  1.0000
  C   C44       1.0  0.06789  0.14004  0.12111  1.0000
  C   C45       1.0  0.10031  0.16250  0.11372  1.0000
  C   C46       1.0  0.13733  0.15160  0.20118  1.0000
  C   C47       1.0  0.13995  0.11672  0.29080  1.0000
  C   C48       1.0  0.10755  0.09420  0.29613  1.0000
  C   C49       1.0  0.83288  0.17356  0.30795  1.0000
  C   C50       1.0  0.21792  0.22953  0.20348  1.0000
  C   C51       1.0  0.25018  0.21260  0.30571  1.0000
  C   C52       1.0  0.28483  0.23271  0.35443  1.0000
  C   C53       1.0  0.32703  0.29081  0.34995  1.0000
  C   C54       1.0  0.35215  0.72885  0.48969  1.0000
  C   C55       1.0  0.46939  0.58311  0.28122  1.0000
  C   C56       1.0  0.47036  0.54206  0.29023  1.0000
  C   C57       1.0  0.44164  0.52058  0.35439  1.0000
  C   C58       1.0  0.33218  0.67308  0.29868  1.0000
  C   C59       1.0  0.82497  0.79255  0.35759  1.0000
  C   C60       1.0  0.85128  0.22910  0.50159  1.0000
  C   C61       1.0  0.03586  0.08321  0.22947  1.0000
  C   C62       1.0  0.03492  0.04204  0.21555  1.0000
  C   C63       1.0  0.06414  0.02020  0.15224  1.0000
  C   C64       1.0  0.93590  0.10583  0.32149  1.0000
  C   C65       1.0  0.93782  0.14149  0.41321  1.0000
  C   C66       1.0  0.90499  0.16366  0.41893  1.0000
  C   C67       1.0  0.86830  0.15140  0.32834  1.0000
  C   C68       1.0  0.86645  0.11540  0.23758  1.0000
  C   C69       1.0  0.89919  0.09315  0.23499  1.0000
  C   C70       1.0  0.17262  0.17406  0.21627  1.0000
  C   C71       1.0  0.78748  0.22942  0.31221  1.0000
  C   C72       1.0  0.75657  0.21216  0.19674  1.0000
  C   C73       1.0  0.72298  0.23260  0.13700  1.0000
  C   C74       1.0  0.68127  0.29154  0.13355  1.0000
  C   C75       1.0  0.65109  0.72974  0.02435  1.0000
  C   C76       1.0  0.53447  0.58341  0.20926  1.0000
  C   C77       1.0  0.53388  0.54218  0.19677  1.0000
  C   C78       1.0  0.56337  0.52036  0.13535  1.0000
  C   C79       1.0  0.67133  0.67485  0.20361  1.0000
  C   C80       1.0  0.28701  0.72880  0.31290  1.0000
  C   C81       1.0  0.25573  0.71188  0.19843  1.0000
  C   C82       1.0  0.22187  0.73227  0.14342  1.0000
  C   C83       1.0  0.18025  0.79114  0.14451  1.0000
  C   C84       1.0  0.15159  0.22923  0.03890  1.0000
  C   C85       1.0  0.50235  0.47993  0.24052  1.0000
  C   C86       1.0  0.50312  0.39874  0.23879  1.0000
  C   C87       1.0  0.00290  0.98001  0.25664  1.0000
  C   C88       1.0  0.00257  0.89880  0.24887  1.0000
  C   C89       1.0  0.50216  0.52144  0.24190  1.0000
  C   C90       1.0  0.50170  0.60266  0.24543  1.0000
  C   C91       1.0  0.00305  0.02152  0.26025  1.0000
  C   C92       1.0  0.00328  0.10274  0.26667  1.0000
  C   C93       1.0  0.03055  0.91762  0.72244  1.0000
  C   C94       1.0  0.02955  0.95872  0.71628  1.0000
  C   C95       1.0  0.05848  0.98040  0.65501  1.0000
  C   C96       1.0  0.16804  0.82787  0.70505  1.0000
  C   C97       1.0  0.67421  0.70796  0.63471  1.0000
  C   C98       1.0  0.64849  0.27253  0.49602  1.0000
  C   C99       1.0  0.53006  0.41721  0.70747  1.0000
  C   C100      1.0  0.52915  0.45826  0.69875  1.0000
  C   C101      1.0  0.55800  0.47959  0.63526  1.0000
  C   C102      1.0  0.43006  0.39414  0.79097  1.0000
  C   C103      1.0  0.43311  0.35936  0.88004  1.0000
  C   C104      1.0  0.40113  0.33588  0.88302  1.0000
  C   C105      1.0  0.36406  0.34605  0.79339  1.0000
  C   C106      1.0  0.36105  0.38111  0.70503  1.0000
  C   C107      1.0  0.39303  0.40462  0.70398  1.0000
  C   C108      1.0  0.66772  0.32760  0.69237  1.0000
  C   C109      1.0  0.17442  0.20686  0.64351  1.0000
  C   C110      1.0  0.14808  0.77187  0.51503  1.0000
  C   C111      1.0  0.96514  0.91718  0.79138  1.0000
  C   C112      1.0  0.96575  0.95834  0.80672  1.0000
  C   C113      1.0  0.93623  0.97991  0.86921  1.0000
  C   C114      1.0  0.06547  0.89562  0.70125  1.0000
  C   C115      1.0  0.06350  0.86082  0.60319  1.0000
  C   C116      1.0  0.09625  0.83879  0.59419  1.0000
  C   C117      1.0  0.13285  0.85029  0.68800  1.0000
  C   C118      1.0  0.13487  0.88562  0.78389  1.0000
  C   C119      1.0  0.10219  0.90780  0.78985  1.0000
  C   C120      1.0  0.82821  0.82531  0.78836  1.0000
  C   C121      1.0  0.31965  0.70968  0.85776  1.0000
  C   C122      1.0  0.35025  0.26842  0.95593  1.0000
  C   C123      1.0  0.46460  0.41717  0.77612  1.0000
  C   C124      1.0  0.46529  0.45838  0.78908  1.0000
  C   C125      1.0  0.43575  0.48026  0.84979  1.0000
  C   C126      1.0  0.32904  0.32311  0.77653  1.0000
  C   C127      1.0  0.71301  0.27224  0.67850  1.0000
  C   C128      1.0  0.74519  0.29027  0.78286  1.0000
  C   C129      1.0  0.77870  0.26972  0.84265  1.0000
  C   C130      1.0  0.81841  0.20923  0.86131  1.0000
  C   C131      1.0  0.84824  0.77016  0.96730  1.0000
  C   C132      1.0  0.96415  0.08235  0.80448  1.0000
  C   C133      1.0  0.96529  0.04126  0.81350  1.0000
  C   C134      1.0  0.93597  0.01952  0.87199  1.0000
  C   C135      1.0  0.06418  0.10504  0.71577  1.0000
  C   C136      1.0  0.06151  0.13939  0.62391  1.0000
  C   C137      1.0  0.09403  0.16127  0.61168  1.0000
  C   C138      1.0  0.13116  0.15013  0.69684  1.0000
  C   C139      1.0  0.13380  0.11552  0.78819  1.0000
  C   C140      1.0  0.10133  0.09343  0.79686  1.0000
  C   C141      1.0  0.82640  0.17330  0.79816  1.0000
  C   C142      1.0  0.32140  0.28821  0.84135  1.0000
  C   C143      1.0  0.34750  0.72950  0.98336  1.0000
  C   C144      1.0  0.46425  0.58241  0.78233  1.0000
  C   C145      1.0  0.46517  0.54133  0.79251  1.0000
  C   C146      1.0  0.43572  0.51988  0.85145  1.0000
  C   C147      1.0  0.56437  0.60465  0.69632  1.0000
  C   C148      1.0  0.56169  0.63952  0.60813  1.0000
  C   C149      1.0  0.59417  0.66185  0.60025  1.0000
  C   C150      1.0  0.63133  0.65058  0.68488  1.0000
  C   C151      1.0  0.63389  0.61562  0.77390  1.0000
  C   C152      1.0  0.60142  0.59319  0.77919  1.0000
  C   C153      1.0  0.32750  0.67438  0.78814  1.0000
  C   C154      1.0  0.82016  0.79020  0.84992  1.0000
  C   C155      1.0  0.84564  0.22936  0.98850  1.0000
  C   C156      1.0  0.02962  0.08268  0.73582  1.0000
  C   C157      1.0  0.02909  0.04150  0.72311  1.0000
  C   C158      1.0  0.05821  0.01996  0.65796  1.0000
  C   C159      1.0  0.16655  0.17219  0.70938  1.0000
  C   C160      1.0  0.78200  0.23010  0.79944  1.0000
  C   C161      1.0  0.74998  0.21222  0.69339  1.0000
  C   C162      1.0  0.71644  0.23272  0.63402  1.0000
  C   C163      1.0  0.67606  0.29257  0.62209  1.0000
  C   C164      1.0  0.64554  0.72775  0.51922  1.0000
  C   C165      1.0  0.52975  0.58218  0.71409  1.0000
  C   C166      1.0  0.52902  0.54099  0.70206  1.0000
  C   C167      1.0  0.55794  0.51916  0.63675  1.0000
  C   C168      1.0  0.42942  0.60504  0.79912  1.0000
  C   C169      1.0  0.43169  0.64034  0.89371  1.0000
  C   C170      1.0  0.39920  0.66301  0.89902  1.0000
  C   C171      1.0  0.36251  0.65157  0.80577  1.0000
  C   C172      1.0  0.36028  0.61594  0.71190  1.0000
  C   C173      1.0  0.39273  0.59318  0.70921  1.0000
  C   C174      1.0  0.66661  0.67297  0.69875  1.0000
  C   C175      1.0  0.17595  0.79232  0.63835  1.0000
  C   C176      1.0  0.14566  0.22661  0.52822  1.0000
  C   C177      1.0  0.49733  0.47899  0.74632  1.0000
  C   C178      1.0  0.49748  0.39785  0.74125  1.0000
  C   C179      1.0  0.99760  0.97921  0.76403  1.0000
  C   C180      1.0  0.99798  0.89797  0.75524  1.0000
  C   C181      1.0  0.49725  0.52049  0.74773  1.0000
  C   C182      1.0  0.49698  0.60167  0.74901  1.0000
  C   C183      1.0  0.99743  0.02070  0.76791  1.0000
  C   C184      1.0  0.99674  0.10192  0.77127  1.0000
  N   N1        1.0  0.63181  0.25442  0.90256  1.0000
  N   N2        1.0  0.13022  0.75287  0.92041  1.0000
  N   N3        1.0  0.37820  0.25436  0.56419  1.0000
  N   N4        1.0  0.87525  0.75668  0.57777  1.0000
  N   N5        1.0  0.37373  0.74614  0.59510  1.0000
  N   N6        1.0  0.87219  0.24584  0.61140  1.0000
  N   N7        1.0  0.62909  0.74680  0.92537  1.0000
  N   N8        1.0  0.12962  0.24644  0.94034  1.0000
  N   N9        1.0  0.62719  0.25527  0.38947  1.0000
  N   N10       1.0  0.12656  0.75444  0.40996  1.0000
  N   N11       1.0  0.37276  0.25153  0.05343  1.0000
  N   N12       1.0  0.86983  0.75304  0.06777  1.0000
  N   N13       1.0  0.36893  0.74631  0.09105  1.0000
  N   N14       1.0  0.86645  0.24621  0.09823  1.0000
  N   N15       1.0  0.62327  0.74446  0.41998  1.0000
  N   N16       1.0  0.12300  0.24324  0.43031  1.0000
  C  Sn1       1.0  0.13213  0.88635  0.33161  1.0000
  C   C185      1.0  0.13503  0.85156  0.24058  1.0000
  C  Sn2       1.0  0.10516  0.83958  0.10812  1.0000
  C  Sn3       1.0  0.07171  0.86287  0.06566  1.0000
  C   C186      1.0  0.06883  0.89765  0.15663  1.0000
  C  Sn4       1.0  0.09868  0.90965  0.28915  1.0000
  O  Te1       1.0  0.16233  0.89776  0.46354  1.0000
  O  Te2       1.0  0.10872  0.80467  0.01899  1.0000
  O  Te3       1.0  0.08315  0.85870  0.93361  1.0000
  O  Te4       1.0  0.09514  0.94454  0.37823  1.0000
  Mg  Mg1       1.0  0.10149  0.80880  0.84959  1.0000
  Mg  Mg2       1.0  0.14401  0.94772  0.54758  1.0000
  C  Sn5       1.0  0.56645  0.34719  0.62677  1.0000
  C   C187      1.0  0.56358  0.38290  0.71083  1.0000
  C  Sn6       1.0  0.59668  0.40531  0.77038  1.0000
  C  Sn7       1.0  0.63342  0.39176  0.74529  1.0000
  C   C188      1.0  0.63628  0.35607  0.66125  1.0000
  C  Sn8       1.0  0.60319  0.33363  0.60169  1.0000
  O  Te5       1.0  0.53298  0.32527  0.56830  1.0000
  O  Te6       1.0  0.59307  0.44091  0.85411  1.0000
  O  Te7       1.0  0.66691  0.41371  0.80385  1.0000
  O  Te8       1.0  0.60678  0.29806  0.51798  1.0000
  Mg  Mg3       1.0  0.64711  0.46027  0.91036  1.0000
  Mg  Mg4       1.0  0.55276  0.27869  0.46160  1.0000
  C  Sn9       1.0  0.88323  0.90863  0.75436  1.0000
  C   C189      1.0  0.92161  0.90158  0.83068  1.0000
  C  Sn10      1.0  0.93282  0.86478  0.88823  1.0000
  C  Sn11      1.0  0.90509  0.83437  0.86901  1.0000
  C   C190      1.0  0.86674  0.84142  0.79271  1.0000
  C  Sn12      1.0  0.85551  0.87822  0.73514  1.0000
  O  Te9       1.0  0.87268  0.94564  0.69775  1.0000
  O  Te10      1.0  0.97135  0.85844  0.96417  1.0000
  O  Te11      1.0  0.91568  0.79733  0.92570  1.0000
  O  Te12      1.0  0.81700  0.88456  0.65922  1.0000
  Mg  Mg5       1.0  0.92997  0.79576  0.02079  1.0000
  Mg  Mg6       1.0  0.81669  0.93995  0.60247  1.0000
  C  Sn13      1.0  0.74962  0.71545  0.83877  1.0000
  C   C191      1.0  0.71489  0.72810  0.74143  1.0000
  C  Sn14      1.0  0.71374  0.76251  0.65322  1.0000
  C  Sn15      1.0  0.74804  0.78474  0.66238  1.0000
  C   C192      1.0  0.78275  0.77210  0.75964  1.0000
  C  Sn16      1.0  0.78392  0.73769  0.84793  1.0000
  O  Te13      1.0  0.75009  0.68096  0.92590  1.0000
  O  Te14      1.0  0.67867  0.77456  0.55679  1.0000
  O  Te15      1.0  0.74754  0.81926  0.57514  1.0000
  O  Te16      1.0  0.81897  0.72563  0.94428  1.0000
  Mg  Mg7       1.0  0.69276  0.82357  0.46075  1.0000
  Mg  Mg8       1.0  0.76326  0.66935  0.04029  1.0000
  C  Sn17      1.0  0.24534  0.71670  0.64525  1.0000
  C   C193      1.0  0.27991  0.72968  0.74745  1.0000
  C  Sn18      1.0  0.28116  0.76477  0.84040  1.0000
  C  Sn19      1.0  0.24713  0.78735  0.83109  1.0000
  C   C194      1.0  0.21257  0.77437  0.72896  1.0000
  C  Sn20      1.0  0.21131  0.73928  0.63594  1.0000
  O  Te17      1.0  0.24477  0.68152  0.55343  1.0000
  O  Te18      1.0  0.31607  0.77715  0.94165  1.0000
  O  Te19      1.0  0.24772  0.82255  0.92301  1.0000
  O  Te20      1.0  0.17642  0.72689  0.53476  1.0000
  Mg  Mg9       1.0  0.26055  0.81983  0.04299  1.0000
  Mg  Mg10      1.0  0.19024  0.67695  0.43344  1.0000
  C  Sn21      1.0  0.57352  0.64192  0.05518  1.0000
  C   C195      1.0  0.57100  0.60749  0.14009  1.0000
  C  Sn22      1.0  0.60136  0.59622  0.26793  1.0000
  C  Sn23      1.0  0.63494  0.61986  0.31189  1.0000
  C   C196      1.0  0.63744  0.65427  0.22703  1.0000
  C  Sn24      1.0  0.60709  0.66556  0.09915  1.0000
  O  Te21      1.0  0.58447  0.65990  0.92780  1.0000
  O  Te22      1.0  0.59818  0.56167  0.35097  1.0000
  O  Te23      1.0  0.66566  0.60912  0.43939  1.0000
  O  Te24      1.0  0.61026  0.70009  0.01615  1.0000
  Mg  Mg11      1.0  0.64769  0.55949  0.51579  1.0000
  Mg  Mg12      1.0  0.60242  0.70958  0.85138  1.0000
  C  Sn25      1.0  0.73215  0.77017  0.10483  1.0000
  C   C197      1.0  0.72260  0.73300  0.14828  1.0000
  C  Sn26      1.0  0.74491  0.71504  0.28744  1.0000
  C  Sn27      1.0  0.77742  0.73465  0.38530  1.0000
  C   C198      1.0  0.78696  0.77181  0.34186  1.0000
  C  Sn28      1.0  0.76467  0.78979  0.20269  1.0000
  O  Te25      1.0  0.75110  0.79484  0.96519  1.0000
  O  Te26      1.0  0.73480  0.67786  0.32837  1.0000
  O  Te27      1.0  0.80014  0.71722  0.52502  1.0000
  O  Te28      1.0  0.77476  0.82695  0.16177  1.0000
  Mg  Mg13      1.0  0.77468  0.66629  0.53022  1.0000
  Mg  Mg14      1.0  0.77655  0.84582  0.96002  1.0000
  C  Sn29      1.0  0.22568  0.26874  0.61052  1.0000
  C   C199      1.0  0.21687  0.23074  0.64563  1.0000
  C  Sn30      1.0  0.24107  0.21077  0.77283  1.0000
  C  Sn31      1.0  0.27475  0.22919  0.86699  1.0000
  C   C200      1.0  0.28354  0.26717  0.83189  1.0000
  C  Sn32      1.0  0.25936  0.28715  0.70468  1.0000
  O  Te29      1.0  0.20108  0.28814  0.48279  1.0000
  O  Te30      1.0  0.23167  0.17280  0.80558  1.0000
  O  Te31      1.0  0.29936  0.20974  0.99479  1.0000
  O  Te32      1.0  0.26874  0.32510  0.67194  1.0000
  Mg  Mg15      1.0  0.27423  0.15841  0.99220  1.0000
  Mg  Mg16      1.0  0.22620  0.33952  0.48542  1.0000
  C  Sn33      1.0  0.92300  0.14075  0.96265  1.0000
  C   C201      1.0  0.92646  0.10599  0.87223  1.0000
  C  Sn34      1.0  0.89713  0.09388  0.73773  1.0000
  C  Sn35      1.0  0.86364  0.11700  0.69259  1.0000
  C   C202      1.0  0.86019  0.15174  0.78297  1.0000
  C  Sn36      1.0  0.88950  0.16387  0.91751  1.0000
  O  Te33      1.0  0.91102  0.14503  0.09665  1.0000
  O  Te34      1.0  0.90124  0.05900  0.64925  1.0000
  O  Te35      1.0  0.83394  0.10542  0.55848  1.0000
  O  Te36      1.0  0.84374  0.19145  0.00595  1.0000
  Mg  Mg17      1.0  0.85294  0.05564  0.47635  1.0000
  Mg  Mg18      1.0  0.89203  0.19486  0.17880  1.0000
  C  Sn37      1.0  0.39123  0.60124  0.16798  1.0000
  C   C203      1.0  0.42926  0.60824  0.25213  1.0000
  C  Sn38      1.0  0.43703  0.63586  0.38596  1.0000
  C  Sn39      1.0  0.40614  0.65692  0.43684  1.0000
  C   C204      1.0  0.36813  0.64991  0.35273  1.0000
  C  Sn40      1.0  0.36034  0.62230  0.21886  1.0000
  O  Te37      1.0  0.38414  0.57348  0.03453  1.0000
  O  Te38      1.0  0.47529  0.64236  0.46811  1.0000
  O  Te39      1.0  0.41326  0.68469  0.57040  1.0000
  O  Te40      1.0  0.32210  0.61579  0.13675  1.0000
  Mg  Mg19      1.0  0.47025  0.68314  0.64284  1.0000
  Mg  Mg20      1.0  0.36877  0.58227  0.96208  1.0000
  C  Sn41      1.0  0.57164  0.34799  0.13058  1.0000
  C   C205      1.0  0.56925  0.38414  0.21174  1.0000
  C  Sn42      1.0  0.60268  0.40611  0.27058  1.0000
  C  Sn43      1.0  0.63927  0.39167  0.24773  1.0000
  C   C206      1.0  0.64165  0.35555  0.16658  1.0000
  C  Sn44      1.0  0.60823  0.33355  0.10773  1.0000
  O  Te41      1.0  0.53784  0.32652  0.07277  1.0000
  O  Te42      1.0  0.59956  0.44216  0.35139  1.0000
  O  Te43      1.0  0.67308  0.41318  0.30562  1.0000
  O  Te44      1.0  0.61134  0.29753  0.02694  1.0000
  Mg  Mg21      1.0  0.65391  0.46063  0.40784  1.0000
  Mg  Mg22      1.0  0.59867  0.28632  0.97036  1.0000
  C  Sn45      1.0  0.43551  0.34757  0.34327  1.0000
  C   C207      1.0  0.43734  0.38310  0.26592  1.0000
  C  Sn46      1.0  0.40367  0.40434  0.21258  1.0000
  C  Sn47      1.0  0.36740  0.38979  0.23716  1.0000
  C   C208      1.0  0.36558  0.35429  0.31449  1.0000
  C  Sn48      1.0  0.39924  0.33301  0.36785  1.0000
  O  Te45      1.0  0.46954  0.32682  0.39560  1.0000
  O  Te46      1.0  0.40623  0.43978  0.13551  1.0000
  O  Te47      1.0  0.33336  0.41058  0.18475  1.0000
  O  Te48      1.0  0.39669  0.29760  0.44490  1.0000
  Mg  Mg23      1.0  0.35175  0.45737  0.08607  1.0000
  Mg  Mg24      1.0  0.45115  0.27999  0.49446  1.0000
