data_image0
_chemical_formula_structural       H88C184N16C2Sn2C2HTe2HMgC2Sn2C2HTe2HMgC2Sn2C2HTe2HMgC2Sn2C2HTe2HMgC2Sn2C2HTe2HMgC2Sn2C2HTe2HMgC2Sn2C2HTe2HMgC2Sn2C2HTe2HMgC2Sn2C2HTe2HMgC2Sn2C2HTe2HMgC2Sn2C2HTe2HMgC2Sn2C2HTe2HMg
_chemical_formula_sum              "H112 C232 N16 Sn24 Te24 Mg12"
_cell_length_a       35.1159
_cell_length_b       34.5461
_cell_length_c       7.9667
_cell_angle_alpha    91.8159
_cell_angle_beta     100.583
_cell_angle_gamma    89.9488

_symmetry_space_group_name_H-M    'P1'
_space_group_IT_number       1

loop_
  _space_group_symop_operation_xyz
  'x, y, z'

loop_
  _atom_site_type_symbol
  _atom_site_label
  _atom_site_symmetry_multiplicity
  _atom_site_fract_x
  _atom_site_fract_y
  _atom_site_fract_z
  _atom_site_occupancy
  H   H1        1.0  0.69660  0.34067  0.28924  1.0000
  H   H2        1.0  0.41994  0.53637  0.40992  1.0000
  H   H3        1.0  0.53827  0.65055  0.03747  1.0000
  H   H4        1.0  0.59529  0.69066  0.03153  1.0000
  H   H5        1.0  0.66640  0.60871  0.34473  1.0000
  H   H6        1.0  0.60874  0.56892  0.35214  1.0000
  H   H7        1.0  0.75787  0.81760  0.15005  1.0000
  H   H8        1.0  0.69804  0.78151  0.05622  1.0000
  H   H9        1.0  0.19680  0.84127  0.29206  1.0000
  H   H10       1.0  0.92107  0.03677  0.42914  1.0000
  H   H11       1.0  0.03973  0.14893  0.05232  1.0000
  H   H12       1.0  0.09687  0.18861  0.04018  1.0000
  H   H13       1.0  0.16797  0.10802  0.36180  1.0000
  H   H14       1.0  0.11037  0.06830  0.37150  1.0000
  H   H15       1.0  0.25831  0.31745  0.16026  1.0000
  H   H16       1.0  0.19784  0.28193  0.07474  1.0000
  H   H17       1.0  0.31035  0.33770  0.19607  1.0000
  H   H18       1.0  0.58555  0.53582  0.08516  1.0000
  H   H19       1.0  0.24650  0.81703  0.36629  1.0000
  H   H20       1.0  0.30573  0.78117  0.46086  1.0000
  H   H21       1.0  0.80868  0.84007  0.20700  1.0000
  H   H22       1.0  0.08629  0.03565  0.10187  1.0000
  H   H23       1.0  0.96564  0.15203  0.48265  1.0000
  H   H24       1.0  0.90796  0.19101  0.49117  1.0000
  H   H25       1.0  0.83883  0.10566  0.16266  1.0000
  H   H26       1.0  0.89694  0.06637  0.15853  1.0000
  H   H27       1.0  0.74767  0.31850  0.35027  1.0000
  H   H28       1.0  0.80643  0.28262  0.45261  1.0000
  H   H29       1.0  0.30827  0.65966  0.20943  1.0000
  H   H30       1.0  0.58600  0.46478  0.08493  1.0000
  H   H31       1.0  0.24864  0.18323  0.34888  1.0000
  H   H32       1.0  0.30923  0.21865  0.43282  1.0000
  H   H33       1.0  0.80954  0.16016  0.21526  1.0000
  H   H34       1.0  0.08617  0.96479  0.09741  1.0000
  H   H35       1.0  0.74659  0.68462  0.35005  1.0000
  H   H36       1.0  0.80677  0.72051  0.44105  1.0000
  H   H37       1.0  0.69555  0.66175  0.28785  1.0000
  H   H38       1.0  0.42044  0.46553  0.40844  1.0000
  H   H39       1.0  0.75832  0.18228  0.15171  1.0000
  H   H40       1.0  0.69962  0.21831  0.04797  1.0000
  H   H41       1.0  0.19697  0.16118  0.30062  1.0000
  H   H42       1.0  0.92040  0.96575  0.41975  1.0000
  H   H43       1.0  0.04021  0.85100  0.03069  1.0000
  H   H44       1.0  0.09755  0.81137  0.02021  1.0000
  H   H45       1.0  0.16732  0.89479  0.35715  1.0000
  H   H46       1.0  0.10954  0.93461  0.36423  1.0000
  H   H47       1.0  0.25749  0.68229  0.15004  1.0000
  H   H48       1.0  0.19841  0.71809  0.05466  1.0000
  H   H49       1.0  0.50150  0.63416  0.24683  1.0000
  H   H50       1.0  0.00336  0.13426  0.26954  1.0000
  H   H51       1.0  0.50346  0.36723  0.23717  1.0000
  H   H52       1.0  0.00245  0.86728  0.24479  1.0000
  H   H53       1.0  0.69123  0.34048  0.78583  1.0000
  H   H54       1.0  0.41341  0.53581  0.90200  1.0000
  H   H55       1.0  0.19180  0.84087  0.79665  1.0000
  H   H56       1.0  0.91340  0.03510  0.92228  1.0000
  H   H57       1.0  0.30479  0.33548  0.68979  1.0000
  H   H58       1.0  0.57948  0.53466  0.58253  1.0000
  H   H59       1.0  0.45959  0.64999  0.96591  1.0000
  H   H60       1.0  0.40247  0.69006  0.97349  1.0000
  H   H61       1.0  0.33260  0.60674  0.63572  1.0000
  H   H62       1.0  0.39025  0.56657  0.63129  1.0000
  H   H63       1.0  0.24531  0.82091  0.82771  1.0000
  H   H64       1.0  0.30443  0.78480  0.92355  1.0000
  H   H65       1.0  0.80425  0.83799  0.70095  1.0000
  H   H66       1.0  0.07978  0.03553  0.60442  1.0000
  H   H67       1.0  0.74444  0.32087  0.81863  1.0000
  H   H68       1.0  0.80307  0.28449  0.92352  1.0000
  H   H69       1.0  0.30385  0.66176  0.69465  1.0000
  H   H70       1.0  0.57965  0.46369  0.58010  1.0000
  H   H71       1.0  0.46128  0.35091  0.95029  1.0000
  H   H72       1.0  0.40507  0.30940  0.95388  1.0000
  H   H73       1.0  0.33301  0.38925  0.63207  1.0000
  H   H74       1.0  0.38977  0.43061  0.62923  1.0000
  H   H75       1.0  0.80301  0.16015  0.70493  1.0000
  H   H76       1.0  0.08036  0.96484  0.59999  1.0000
  H   H77       1.0  0.69102  0.66036  0.78370  1.0000
  H   H78       1.0  0.41344  0.46482  0.89923  1.0000
  H   H79       1.0  0.75077  0.18166  0.65714  1.0000
  H   H80       1.0  0.69206  0.21782  0.55390  1.0000
  H   H81       1.0  0.19067  0.15964  0.79623  1.0000
  H   H82       1.0  0.91400  0.96423  0.91827  1.0000
  H   H83       1.0  0.25018  0.68119  0.67179  1.0000
  H   H84       1.0  0.19107  0.71736  0.57543  1.0000
  H   H85       1.0  0.49678  0.63317  0.74885  1.0000
  H   H86       1.0  0.99630  0.13342  0.77213  1.0000
  H   H87       1.0  0.49760  0.36636  0.73984  1.0000
  H   H88       1.0  0.99805  0.86645  0.75213  1.0000
  C   C1        1.0  0.03545  0.91812  0.21749  1.0000
  C   C2        1.0  0.03477  0.95921  0.20995  1.0000
  C   C3        1.0  0.06408  0.98062  0.14982  1.0000
  C   C4        1.0  0.17261  0.82729  0.20649  1.0000
  C   C5        1.0  0.78760  0.77209  0.30418  1.0000
  C   C6        1.0  0.75604  0.78842  0.19503  1.0000
  C   C7        1.0  0.72179  0.76791  0.14083  1.0000
  C   C8        1.0  0.67941  0.70984  0.14115  1.0000
  C   C9        1.0  0.65349  0.27124  0.00923  1.0000
  C   C10       1.0  0.53570  0.41824  0.20553  1.0000
  C   C11       1.0  0.53446  0.45927  0.19531  1.0000
  C   C12       1.0  0.56363  0.48076  0.13480  1.0000
  C   C13       1.0  0.67289  0.32711  0.19922  1.0000
  C   C14       1.0  0.28924  0.27082  0.30271  1.0000
  C   C15       1.0  0.25689  0.28792  0.20182  1.0000
  C   C16       1.0  0.22226  0.26777  0.15271  1.0000
  C   C17       1.0  0.18026  0.20925  0.15388  1.0000
  C   C18       1.0  0.15202  0.77044  0.02381  1.0000
  C   C19       1.0  0.96992  0.91832  0.28522  1.0000
  C   C20       1.0  0.97101  0.95949  0.30106  1.0000
  C   C21       1.0  0.94222  0.98131  0.36752  1.0000
  C   C22       1.0  0.07024  0.89572  0.19897  1.0000
  C   C23       1.0  0.06806  0.86055  0.10353  1.0000
  C   C24       1.0  0.10065  0.83813  0.09670  1.0000
  C   C25       1.0  0.13739  0.84972  0.18910  1.0000
  C   C26       1.0  0.13956  0.88545  0.28225  1.0000
  C   C27       1.0  0.10700  0.90791  0.28691  1.0000
  C   C28       1.0  0.83286  0.82739  0.29307  1.0000
  C   C29       1.0  0.21721  0.77074  0.20071  1.0000
  C   C30       1.0  0.24838  0.78757  0.31638  1.0000
  C   C31       1.0  0.28226  0.76718  0.37133  1.0000
  C   C32       1.0  0.32415  0.70852  0.36652  1.0000
  C   C33       1.0  0.35579  0.27127  0.46627  1.0000
  C   C34       1.0  0.47031  0.41803  0.27475  1.0000
  C   C35       1.0  0.47080  0.45924  0.28725  1.0000
  C   C36       1.0  0.44184  0.48098  0.35303  1.0000
  C   C37       1.0  0.33468  0.32537  0.28253  1.0000
  C   C38       1.0  0.71832  0.27133  0.19084  1.0000
  C   C39       1.0  0.74940  0.28866  0.30509  1.0000
  C   C40       1.0  0.78297  0.26828  0.36455  1.0000
  C   C41       1.0  0.82423  0.20907  0.37319  1.0000
  C   C42       1.0  0.85329  0.77312  0.47619  1.0000
  C   C43       1.0  0.97071  0.08348  0.30181  1.0000
  C   C44       1.0  0.97144  0.04236  0.30947  1.0000
  C   C45       1.0  0.94253  0.02093  0.37233  1.0000
  C   C46       1.0  0.07057  0.10557  0.21200  1.0000
  C   C47       1.0  0.06789  0.14004  0.12111  1.0000
  C   C48       1.0  0.10031  0.16250  0.11372  1.0000
  C   C49       1.0  0.13733  0.15160  0.20118  1.0000
  C   C50       1.0  0.13995  0.11672  0.29080  1.0000
  C   C51       1.0  0.10755  0.09420  0.29613  1.0000
  C   C52       1.0  0.83288  0.17356  0.30795  1.0000
  C   C53       1.0  0.21792  0.22953  0.20348  1.0000
  C   C54       1.0  0.25018  0.21260  0.30571  1.0000
  C   C55       1.0  0.28483  0.23271  0.35443  1.0000
  C   C56       1.0  0.32703  0.29081  0.34995  1.0000
  C   C57       1.0  0.35215  0.72885  0.48969  1.0000
  C   C58       1.0  0.46939  0.58311  0.28122  1.0000
  C   C59       1.0  0.47036  0.54206  0.29023  1.0000
  C   C60       1.0  0.44164  0.52058  0.35439  1.0000
  C   C61       1.0  0.56898  0.60623  0.19294  1.0000
  C   C62       1.0  0.56636  0.64120  0.10528  1.0000
  C   C63       1.0  0.59881  0.66393  0.10084  1.0000
  C   C64       1.0  0.63586  0.65268  0.18694  1.0000
  C   C65       1.0  0.63836  0.61751  0.27409  1.0000
  C   C66       1.0  0.60593  0.59492  0.27751  1.0000
  C   C67       1.0  0.33218  0.67308  0.29868  1.0000
  C   C68       1.0  0.71697  0.73002  0.19448  1.0000
  C   C69       1.0  0.74853  0.71369  0.30390  1.0000
  C   C70       1.0  0.78288  0.73412  0.35730  1.0000
  C   C71       1.0  0.82497  0.79255  0.35759  1.0000
  C   C72       1.0  0.85128  0.22910  0.50159  1.0000
  C   C73       1.0  0.03586  0.08321  0.22947  1.0000
  C   C74       1.0  0.03492  0.04204  0.21555  1.0000
  C   C75       1.0  0.06414  0.02020  0.15224  1.0000
  C   C76       1.0  0.93590  0.10583  0.32149  1.0000
  C   C77       1.0  0.93782  0.14149  0.41321  1.0000
  C   C78       1.0  0.90499  0.16366  0.41893  1.0000
  C   C79       1.0  0.86830  0.15140  0.32834  1.0000
  C   C80       1.0  0.86645  0.11540  0.23758  1.0000
  C   C81       1.0  0.89919  0.09315  0.23499  1.0000
  C   C82       1.0  0.17262  0.17406  0.21627  1.0000
  C   C83       1.0  0.78748  0.22942  0.31221  1.0000
  C   C84       1.0  0.75657  0.21216  0.19674  1.0000
  C   C85       1.0  0.72298  0.23260  0.13700  1.0000
  C   C86       1.0  0.68127  0.29154  0.13355  1.0000
  C   C87       1.0  0.65109  0.72974  0.02435  1.0000
  C   C88       1.0  0.53447  0.58341  0.20926  1.0000
  C   C89       1.0  0.53388  0.54218  0.19677  1.0000
  C   C90       1.0  0.56337  0.52036  0.13535  1.0000
  C   C91       1.0  0.67133  0.67485  0.20361  1.0000
  C   C92       1.0  0.28701  0.72880  0.31290  1.0000
  C   C93       1.0  0.25573  0.71188  0.19843  1.0000
  C   C94       1.0  0.22187  0.73227  0.14342  1.0000
  C   C95       1.0  0.18025  0.79114  0.14451  1.0000
  C   C96       1.0  0.15159  0.22923  0.03890  1.0000
  C   C97       1.0  0.50235  0.47993  0.24052  1.0000
  C   C98       1.0  0.50312  0.39874  0.23879  1.0000
  C   C99       1.0  0.00290  0.98001  0.25664  1.0000
  C   C100      1.0  0.00257  0.89880  0.24887  1.0000
  C   C101      1.0  0.50216  0.52144  0.24190  1.0000
  C   C102      1.0  0.50170  0.60266  0.24543  1.0000
  C   C103      1.0  0.00305  0.02152  0.26025  1.0000
  C   C104      1.0  0.00328  0.10274  0.26667  1.0000
  C   C105      1.0  0.03055  0.91762  0.72244  1.0000
  C   C106      1.0  0.02955  0.95872  0.71628  1.0000
  C   C107      1.0  0.05848  0.98040  0.65501  1.0000
  C   C108      1.0  0.16804  0.82787  0.70505  1.0000
  C   C109      1.0  0.67421  0.70796  0.63471  1.0000
  C   C110      1.0  0.64849  0.27253  0.49602  1.0000
  C   C111      1.0  0.53006  0.41721  0.70747  1.0000
  C   C112      1.0  0.52915  0.45826  0.69875  1.0000
  C   C113      1.0  0.55800  0.47959  0.63526  1.0000
  C   C114      1.0  0.43006  0.39414  0.79097  1.0000
  C   C115      1.0  0.43311  0.35936  0.88004  1.0000
  C   C116      1.0  0.40113  0.33588  0.88302  1.0000
  C   C117      1.0  0.36406  0.34605  0.79339  1.0000
  C   C118      1.0  0.36105  0.38111  0.70503  1.0000
  C   C119      1.0  0.39303  0.40462  0.70398  1.0000
  C   C120      1.0  0.66772  0.32760  0.69237  1.0000
  C   C121      1.0  0.17442  0.20686  0.64351  1.0000
  C   C122      1.0  0.14808  0.77187  0.51503  1.0000
  C   C123      1.0  0.96514  0.91718  0.79138  1.0000
  C   C124      1.0  0.96575  0.95834  0.80672  1.0000
  C   C125      1.0  0.93623  0.97991  0.86921  1.0000
  C   C126      1.0  0.82821  0.82531  0.78836  1.0000
  C   C127      1.0  0.21298  0.77201  0.69348  1.0000
  C   C128      1.0  0.24572  0.79024  0.79280  1.0000
  C   C129      1.0  0.27958  0.76980  0.84741  1.0000
  C   C130      1.0  0.31965  0.70968  0.85776  1.0000
  C   C131      1.0  0.35025  0.26842  0.95593  1.0000
  C   C132      1.0  0.46460  0.41717  0.77612  1.0000
  C   C133      1.0  0.46529  0.45838  0.78908  1.0000
  C   C134      1.0  0.43575  0.48026  0.84979  1.0000
  C   C135      1.0  0.32904  0.32311  0.77653  1.0000
  C   C136      1.0  0.71301  0.27224  0.67850  1.0000
  C   C137      1.0  0.74519  0.29027  0.78286  1.0000
  C   C138      1.0  0.77870  0.26972  0.84265  1.0000
  C   C139      1.0  0.81841  0.20923  0.86131  1.0000
  C   C140      1.0  0.84824  0.77016  0.96730  1.0000
  C   C141      1.0  0.96415  0.08235  0.80448  1.0000
  C   C142      1.0  0.96529  0.04126  0.81350  1.0000
  C   C143      1.0  0.93597  0.01952  0.87199  1.0000
  C   C144      1.0  0.82640  0.17330  0.79816  1.0000
  C   C145      1.0  0.32140  0.28821  0.84135  1.0000
  C   C146      1.0  0.34750  0.72950  0.98336  1.0000
  C   C147      1.0  0.46425  0.58241  0.78233  1.0000
  C   C148      1.0  0.46517  0.54133  0.79251  1.0000
  C   C149      1.0  0.43572  0.51988  0.85145  1.0000
  C   C150      1.0  0.32750  0.67438  0.78814  1.0000
  C   C151      1.0  0.82016  0.79020  0.84992  1.0000
  C   C152      1.0  0.84564  0.22936  0.98850  1.0000
  C   C153      1.0  0.02962  0.08268  0.73582  1.0000
  C   C154      1.0  0.02909  0.04150  0.72311  1.0000
  C   C155      1.0  0.05821  0.01996  0.65796  1.0000
  C   C156      1.0  0.16655  0.17219  0.70938  1.0000
  C   C157      1.0  0.78200  0.23010  0.79944  1.0000
  C   C158      1.0  0.74998  0.21222  0.69339  1.0000
  C   C159      1.0  0.71644  0.23272  0.63402  1.0000
  C   C160      1.0  0.67606  0.29257  0.62209  1.0000
  C   C161      1.0  0.64554  0.72775  0.51922  1.0000
  C   C162      1.0  0.52975  0.58218  0.71409  1.0000
  C   C163      1.0  0.52902  0.54099  0.70206  1.0000
  C   C164      1.0  0.55794  0.51916  0.63675  1.0000
  C   C165      1.0  0.42942  0.60504  0.79912  1.0000
  C   C166      1.0  0.43169  0.64034  0.89371  1.0000
  C   C167      1.0  0.39920  0.66301  0.89902  1.0000
  C   C168      1.0  0.36251  0.65157  0.80577  1.0000
  C   C169      1.0  0.36028  0.61594  0.71190  1.0000
  C   C170      1.0  0.39273  0.59318  0.70921  1.0000
  C   C171      1.0  0.66661  0.67297  0.69875  1.0000
  C   C172      1.0  0.28266  0.73018  0.80402  1.0000
  C   C173      1.0  0.24983  0.71191  0.70561  1.0000
  C   C174      1.0  0.21600  0.73234  0.65099  1.0000
  C   C175      1.0  0.17595  0.79232  0.63835  1.0000
  C   C176      1.0  0.14566  0.22661  0.52822  1.0000
  C   C177      1.0  0.49733  0.47899  0.74632  1.0000
  C   C178      1.0  0.49748  0.39785  0.74125  1.0000
  C   C179      1.0  0.99760  0.97921  0.76403  1.0000
  C   C180      1.0  0.99798  0.89797  0.75524  1.0000
  C   C181      1.0  0.49725  0.52049  0.74773  1.0000
  C   C182      1.0  0.49698  0.60167  0.74901  1.0000
  C   C183      1.0  0.99743  0.02070  0.76791  1.0000
  C   C184      1.0  0.99674  0.10192  0.77127  1.0000
  N   N1        1.0  0.63181  0.25442  0.90256  1.0000
  N   N2        1.0  0.13022  0.75287  0.92041  1.0000
  N   N3        1.0  0.37820  0.25436  0.56419  1.0000
  N   N4        1.0  0.87525  0.75668  0.57777  1.0000
  N   N5        1.0  0.37373  0.74614  0.59510  1.0000
  N   N6        1.0  0.87219  0.24584  0.61140  1.0000
  N   N7        1.0  0.62909  0.74680  0.92537  1.0000
  N   N8        1.0  0.12962  0.24644  0.94034  1.0000
  N   N9        1.0  0.62719  0.25527  0.38947  1.0000
  N   N10       1.0  0.12656  0.75444  0.40996  1.0000
  N   N11       1.0  0.37276  0.25153  0.05343  1.0000
  N   N12       1.0  0.86983  0.75304  0.06777  1.0000
  N   N13       1.0  0.36893  0.74631  0.09105  1.0000
  N   N14       1.0  0.86645  0.24621  0.09823  1.0000
  N   N15       1.0  0.62327  0.74446  0.41998  1.0000
  N   N16       1.0  0.12300  0.24324  0.43031  1.0000
  C   C185      1.0  0.13064  0.89496  0.79683  1.0000
  C   C186      1.0  0.13380  0.85857  0.71900  1.0000
  C  Sn1       1.0  0.10130  0.84079  0.61880  1.0000
  C  Sn2       1.0  0.06501  0.85988  0.59631  1.0000
  C   C187      1.0  0.06216  0.89630  0.67462  1.0000
  C   C188      1.0  0.09486  0.91381  0.77466  1.0000
  H   H89       1.0  0.15594  0.90852  0.87416  1.0000
  O  Te1       1.0  0.10496  0.80442  0.54200  1.0000
  O  Te2       1.0  0.03207  0.84279  0.49678  1.0000
  H   H90       1.0  0.09241  0.94200  0.83482  1.0000
  Mg  Mg1       1.0  0.05173  0.79294  0.41831  1.0000
  C   C189      1.0  0.27380  0.22030  0.84024  1.0000
  C   C190      1.0  0.28380  0.25763  0.80072  1.0000
  C  Sn3       1.0  0.25604  0.28150  0.70760  1.0000
  C  Sn4       1.0  0.21758  0.26766  0.65326  1.0000
  C   C191      1.0  0.20786  0.23028  0.69356  1.0000
  C   C192      1.0  0.23587  0.20663  0.78675  1.0000
  H   H91       1.0  0.29546  0.20201  0.91243  1.0000
  O  Te3       1.0  0.26652  0.31872  0.66916  1.0000
  O  Te4       1.0  0.18926  0.29091  0.56009  1.0000
  H   H92       1.0  0.22811  0.17774  0.81743  1.0000
  Mg  Mg2       1.0  0.21767  0.33949  0.53911  1.0000
  C   C193      1.0  0.61784  0.40624  0.29366  1.0000
  C   C194      1.0  0.58001  0.40102  0.20387  1.0000
  C  Sn5       1.0  0.56995  0.36759  0.10209  1.0000
  C  Sn6       1.0  0.59837  0.33891  0.09026  1.0000
  C   C195      1.0  0.63613  0.34439  0.18069  1.0000
  C   C196      1.0  0.64588  0.37796  0.28212  1.0000
  H   H93       1.0  0.62539  0.43220  0.37222  1.0000
  O  Te5       1.0  0.53202  0.36284  0.01318  1.0000
  O  Te6       1.0  0.63076  0.31248  0.98952  1.0000
  H   H94       1.0  0.67518  0.38198  0.35171  1.0000
  Mg  Mg3       1.0  0.57515  0.31926  0.89256  1.0000
  C   C197      1.0  0.41763  0.33818  0.39247  1.0000
  C   C198      1.0  0.37858  0.34551  0.32906  1.0000
  C  Sn7       1.0  0.36781  0.37859  0.23568  1.0000
  C  Sn8       1.0  0.39675  0.40475  0.20536  1.0000
  C   C199      1.0  0.43574  0.39714  0.26923  1.0000
  C   C200      1.0  0.44619  0.36396  0.36257  1.0000
  H   H95       1.0  0.42572  0.31250  0.46460  1.0000
  O  Te7       1.0  0.32866  0.38548  0.17331  1.0000
  O  Te8       1.0  0.38679  0.43802  0.11237  1.0000
  H   H96       1.0  0.47643  0.35828  0.41155  1.0000
  Mg  Mg4       1.0  0.32957  0.43479  0.05379  1.0000
  C   C201      1.0  0.08344  0.15939  0.59639  1.0000
  C   C202      1.0  0.12181  0.15461  0.67854  1.0000
  C  Sn9       1.0  0.13220  0.12260  0.77960  1.0000
  C  Sn10      1.0  0.10360  0.09491  0.79849  1.0000
  C   C203      1.0  0.06531  0.09994  0.71568  1.0000
  C   C204      1.0  0.05522  0.13208  0.61490  1.0000
  H   H97       1.0  0.07564  0.18425  0.51834  1.0000
  O  Te9       1.0  0.17066  0.11828  0.86082  1.0000
  O  Te10      1.0  0.11320  0.06264  0.89868  1.0000
  H   H98       1.0  0.02552  0.13576  0.55123  1.0000
  Mg  Mg5       1.0  0.16949  0.06948  0.98382  1.0000
  C   C205      1.0  0.86448  0.10638  0.70985  1.0000
  C   C206      1.0  0.85991  0.14016  0.80523  1.0000
  C  Sn11      1.0  0.89196  0.15784  0.90915  1.0000
  C  Sn12      1.0  0.92925  0.14133  0.91743  1.0000
  C   C207      1.0  0.93352  0.10755  0.82141  1.0000
  C   C208      1.0  0.90125  0.09009  0.71789  1.0000
  H   H99       1.0  0.83952  0.09289  0.62967  1.0000
  O  Te11      1.0  0.84522  0.18429  0.00365  1.0000
  O  Te12      1.0  0.92012  0.15114  0.02019  1.0000
  H   H100      1.0  0.90480  0.06396  0.64397  1.0000
  Mg  Mg6       1.0  0.89841  0.19684  0.12508  1.0000
  C   C209      1.0  0.56584  0.64881  0.59628  1.0000
  C   C210      1.0  0.56311  0.61273  0.66788  1.0000
  C  Sn13      1.0  0.59608  0.59539  0.75995  1.0000
  C  Sn14      1.0  0.63242  0.61460  0.78055  1.0000
  C   C211      1.0  0.63485  0.65069  0.70852  1.0000
  C   C212      1.0  0.60167  0.66777  0.61659  1.0000
  H   H101      1.0  0.54018  0.66204  0.52523  1.0000
  O  Te13      1.0  0.59283  0.55933  0.83059  1.0000
  O  Te14      1.0  0.66583  0.59793  0.87201  1.0000
  H   H102      1.0  0.60380  0.69572  0.56127  1.0000
  Mg  Mg7       1.0  0.64663  0.54839  0.94421  1.0000
  C   C213      1.0  0.91614  0.83890  0.40038  1.0000
  C   C214      1.0  0.87714  0.84679  0.33863  1.0000
  C  Sn15      1.0  0.86665  0.88004  0.24612  1.0000
  C  Sn16      1.0  0.89583  0.90582  0.21501  1.0000
  C   C215      1.0  0.93478  0.89766  0.27723  1.0000
  C   C216      1.0  0.94494  0.86430  0.36970  1.0000
  H   H103      1.0  0.92401  0.81308  0.47184  1.0000
  O  Te15      1.0  0.82754  0.88749  0.18541  1.0000
  O  Te16      1.0  0.88616  0.93927  0.12287  1.0000
  H   H104      1.0  0.97515  0.85819  0.41739  1.0000
  Mg  Mg8       1.0  0.82889  0.93683  0.06653  1.0000
  C   C217      1.0  0.56737  0.35119  0.57415  1.0000
  C   C218      1.0  0.56312  0.38483  0.67098  1.0000
  C  Sn17      1.0  0.59552  0.40283  0.77090  1.0000
  C  Sn18      1.0  0.63283  0.38679  0.77364  1.0000
  C   C219      1.0  0.63678  0.35314  0.67622  1.0000
  C   C220      1.0  0.60417  0.33536  0.57672  1.0000
  H   H105      1.0  0.54214  0.33744  0.49709  1.0000
  O  Te17      1.0  0.59075  0.43641  0.86692  1.0000
  O  Te18      1.0  0.66571  0.40420  0.87233  1.0000
  H   H106      1.0  0.60747  0.30933  0.50168  1.0000
  Mg  Mg9       1.0  0.64435  0.44953  0.98131  1.0000
  C   C221      1.0  0.92839  0.85119  0.91173  1.0000
  C   C222      1.0  0.93222  0.88446  0.82082  1.0000
  C  Sn19      1.0  0.89963  0.90123  0.72303  1.0000
  C  Sn20      1.0  0.86256  0.88431  0.71642  1.0000
  C   C223      1.0  0.85904  0.85104  0.80792  1.0000
  C   C224      1.0  0.89184  0.83449  0.90533  1.0000
  H   H107      1.0  0.95377  0.83839  0.98718  1.0000
  O  Te19      1.0  0.90398  0.93447  0.63294  1.0000
  O  Te20      1.0  0.82951  0.90049  0.61974  1.0000
  H   H108      1.0  0.88886  0.80874  0.97579  1.0000
  Mg  Mg10      1.0  0.85028  0.94580  0.51921  1.0000
  C   C225      1.0  0.43274  0.65015  0.40703  1.0000
  C   C226      1.0  0.43580  0.61344  0.33198  1.0000
  C  Sn21      1.0  0.40312  0.59518  0.23550  1.0000
  C  Sn22      1.0  0.36675  0.61410  0.21394  1.0000
  C   C227      1.0  0.36400  0.65084  0.28944  1.0000
  C   C228      1.0  0.39688  0.66885  0.38577  1.0000
  H   H109      1.0  0.45818  0.66410  0.48149  1.0000
  O  Te21      1.0  0.40669  0.55849  0.16146  1.0000
  O  Te22      1.0  0.33363  0.59652  0.11810  1.0000
  H   H110      1.0  0.39451  0.69728  0.44377  1.0000
  Mg  Mg11      1.0  0.35321  0.54638  0.04240  1.0000
  C   C229      1.0  0.72053  0.77705  0.65365  1.0000
  C   C230      1.0  0.71269  0.73768  0.66569  1.0000
  C  Sn23      1.0  0.74083  0.71343  0.75376  1.0000
  C  Sn24      1.0  0.77748  0.72897  0.83113  1.0000
  C   C231      1.0  0.78504  0.76839  0.81846  1.0000
  C   C232      1.0  0.75667  0.79239  0.72998  1.0000
  H   H111      1.0  0.69858  0.79562  0.58528  1.0000
  O  Te23      1.0  0.73252  0.67417  0.76451  1.0000
  O  Te24      1.0  0.80614  0.70539  0.91997  1.0000
  H   H112      1.0  0.76274  0.82287  0.72077  1.0000
  Mg  Mg12      1.0  0.78099  0.65374  0.89931  1.0000
