data_image0
_chemical_formula_structural       H24C84N24SnCSn2CSnTe4Mg2SnCSn2CSnTe4Mg2SnCSn2CSnTe4Mg2SnCSn2CSnTe4Mg2SnCSn2CSnTe4Mg2SnCSn2CSnTe4Mg2SnCSn2CSnTe4Mg2SnCSn2CSnTe4Mg2SnCSn2CSnTe4Mg2SnCSn2CSnTe4Mg2SnCSn2CSnTe4Mg2SnCSn2CSnTe4Mg2SnCSn2CSnTe4Mg2SnCSn2CSnTe4Mg2SnCSn2CSnTe4Mg2SnCSn2CSnTe4Mg2SnCSn2CSnTe4Mg2SnCSn2CSnTe4Mg2SnCSn2CSnTe4Mg2SnCSn2CSnTe4Mg2SnCSn2CSnTe4Mg2SnCSn2CSnTe4Mg2SnCSn2CSnTe4Mg2SnCSn2CSnTe4Mg2SnCSn2CSnTe4Mg2SnCSn2CSnTe4Mg2SnCSn2CSnTe4Mg2SnCSn2CSnTe4Mg2SnCSn2CSnTe4Mg2SnCSn2CSnTe4Mg2SnCSn2CSnTe4Mg2SnCSn2CSnTe4Mg2SnCSn2CSnTe4Mg2SnCSn2CSnTe4Mg2SnCSn2CSnTe4Mg2SnCSn2CSnTe4Mg2SnCSn2CSnTe4Mg2SnCSn2CSnTe4Mg2SnCSn2CSnTe4Mg2SnCSn2CSnTe4Mg2SnCSn2CSnTe4Mg2SnCSn2CSnTe4Mg2SnCSn2CSnTe4Mg2SnCSn2CSnTe4Mg2SnCSn2CSnTe4Mg2SnCSn2CSnTe4Mg2SnCSn2CSnTe4Mg2SnCSn2CSnTe4Mg2
_chemical_formula_sum              "H24 C180 N24 Sn192 Te192 Mg96"
_cell_length_a       47.6599
_cell_length_b       47.7803
_cell_length_c       9.216
_cell_angle_alpha    79.076
_cell_angle_beta     88.8718
_cell_angle_gamma    60.422

_symmetry_space_group_name_H-M    'P1'
_space_group_IT_number       1

loop_
  _space_group_symop_operation_xyz
  'x, y, z'

loop_
  _atom_site_type_symbol
  _atom_site_label
  _atom_site_symmetry_multiplicity
  _atom_site_fract_x
  _atom_site_fract_y
  _atom_site_fract_z
  _atom_site_occupancy
  H   H1        1.0  0.37445  0.17965  0.05222  1.0000
  H   H2        1.0  0.18123  0.10936  0.09097  1.0000
  H   H3        1.0  0.99517  0.52566  0.01185  1.0000
  H   H4        1.0  0.01974  0.29057  0.39867  1.0000
  H   H5        1.0  0.05320  0.99231  0.11529  1.0000
  H   H6        1.0  0.03436  0.78016  0.50201  1.0000
  H   H7        1.0  0.88766  0.15120  0.06556  1.0000
  H   H8        1.0  0.62744  0.22172  0.44186  1.0000
  H   H9        1.0  0.83842  0.77994  0.03890  1.0000
  H   H10       1.0  0.64190  0.04286  0.45298  1.0000
  H   H11       1.0  0.13124  0.53428  0.39497  1.0000
  H   H12       1.0  0.39006  0.33529  0.96564  1.0000
  H   H13       1.0  0.37802  0.17331  0.56507  1.0000
  H   H14       1.0  0.18388  0.10448  0.60092  1.0000
  H   H15       1.0  0.99792  0.52492  0.51699  1.0000
  H   H16       1.0  0.01824  0.29166  0.89526  1.0000
  H   H17       1.0  0.05385  0.99233  0.61421  1.0000
  H   H18       1.0  0.02903  0.78311  0.00470  1.0000
  H   H19       1.0  0.88930  0.14793  0.54598  1.0000
  H   H20       1.0  0.62593  0.22232  0.96159  1.0000
  H   H21       1.0  0.83908  0.77560  0.54831  1.0000
  H   H22       1.0  0.64352  0.04432  0.96531  1.0000
  H   H23       1.0  0.12745  0.53583  0.89109  1.0000
  H   H24       1.0  0.39129  0.33679  0.44650  1.0000
  C   C1        1.0  0.38575  0.13790  0.44417  1.0000
  C   C2        1.0  0.17164  0.14713  0.20019  1.0000
  C   C3        1.0  0.39519  0.15713  0.49776  1.0000
  C   C4        1.0  0.16291  0.12710  0.14883  1.0000
  C   C5        1.0  0.14968  0.17248  0.27232  1.0000
  C   C6        1.0  0.40579  0.11436  0.35947  1.0000
  C   C7        1.0  0.04290  0.12998  0.04813  1.0000
  C   C8        1.0  0.01383  0.15980  0.02063  1.0000
  C   C9        1.0  0.97863  0.54608  0.44190  1.0000
  C   C10       1.0  0.96116  0.53876  0.35471  1.0000
  C   C11       1.0  0.93516  0.56346  0.24998  1.0000
  C   C12       1.0  0.97980  0.31573  0.02069  1.0000
  C   C13       1.0  0.00166  0.28808  0.46560  1.0000
  C   C14       1.0  0.95585  0.31594  0.11650  1.0000
  C   C15       1.0  0.03616  0.01364  0.03276  1.0000
  C   C16       1.0  0.01351  0.01010  0.46532  1.0000
  C   C17       1.0  0.98894  0.03591  0.35749  1.0000
  C   C18       1.0  0.99293  0.80503  0.14371  1.0000
  C   C19       1.0  0.01126  0.77997  0.07160  1.0000
  C   C20       1.0  0.96762  0.80578  0.23073  1.0000
  C   C21       1.0  0.00913  0.66390  0.49102  1.0000
  C   C22       1.0  0.97956  0.66468  0.48365  1.0000
  C   C23       1.0  0.88946  0.16745  0.46333  1.0000
  C   C24       1.0  0.86057  0.18881  0.38010  1.0000
  C   C25       1.0  0.85743  0.21372  0.25796  1.0000
  C   C26       1.0  0.65551  0.18287  0.13118  1.0000
  C   C27       1.0  0.62642  0.20289  0.04736  1.0000
  C   C28       1.0  0.65973  0.15738  0.25297  1.0000
  C   C29       1.0  0.50973  0.19780  0.47104  1.0000
  C   C30       1.0  0.51130  0.16740  0.49419  1.0000
  C   C31       1.0  0.85375  0.78085  0.46744  1.0000
  C   C32       1.0  0.84008  0.81275  0.38972  1.0000
  C   C33       1.0  0.85585  0.82193  0.27234  1.0000
  C   C34       1.0  0.63618  0.00948  0.10692  1.0000
  C   C35       1.0  0.62662  0.04138  0.03930  1.0000
  C   C36       1.0  0.61810  0.00188  0.21670  1.0000
  C   C37       1.0  0.13310  0.54911  0.46680  1.0000
  C   C38       1.0  0.16117  0.53751  0.02494  1.0000
  C   C39       1.0  0.16859  0.55423  0.11731  1.0000
  C   C40       1.0  0.35754  0.32953  0.34339  1.0000
  C   C41       1.0  0.38875  0.31983  0.39113  1.0000
  C   C42       1.0  0.35047  0.31034  0.26566  1.0000
  C   C43       1.0  0.38186  0.14172  0.94851  1.0000
  C   C44       1.0  0.17474  0.14430  0.69370  1.0000
  C   C45       1.0  0.39204  0.16109  0.99543  1.0000
  C   C46       1.0  0.16533  0.12402  0.64997  1.0000
  C   C47       1.0  0.15371  0.16983  0.76728  1.0000
  C   C48       1.0  0.40147  0.11734  0.86650  1.0000
  C   C49       1.0  0.04332  0.13002  0.55066  1.0000
  C   C50       1.0  0.01403  0.15966  0.52298  1.0000
  C   C51       1.0  0.97661  0.54711  0.93487  1.0000
  C   C52       1.0  0.95897  0.54055  0.84446  1.0000
  C   C53       1.0  0.93245  0.56576  0.74364  1.0000
  C   C54       1.0  0.98037  0.31546  0.51776  1.0000
  C   C55       1.0  0.00110  0.28854  0.96721  1.0000
  C   C56       1.0  0.95717  0.31523  0.61751  1.0000
  C   C57       1.0  0.03636  0.01389  0.53405  1.0000
  C   C58       1.0  0.01299  0.01001  0.96545  1.0000
  C   C59       1.0  0.98726  0.03667  0.86513  1.0000
  C   C60       1.0  0.99719  0.80367  0.63395  1.0000
  C   C61       1.0  0.01554  0.77814  0.56442  1.0000
  C   C62       1.0  0.97179  0.80457  0.72082  1.0000
  C   C63       1.0  0.00677  0.66506  0.99564  1.0000
  C   C64       1.0  0.97739  0.66555  0.98284  1.0000
  C   C65       1.0  0.88879  0.16862  0.97352  1.0000
  C   C66       1.0  0.86052  0.18895  0.88472  1.0000
  C   C67       1.0  0.85801  0.21293  0.75936  1.0000
  C   C68       1.0  0.65498  0.18398  0.62193  1.0000
  C   C69       1.0  0.62657  0.20400  0.53325  1.0000
  C   C70       1.0  0.65831  0.15882  0.74337  1.0000
  C   C71       1.0  0.50939  0.19753  0.97523  1.0000
  C   C72       1.0  0.51011  0.16755  0.99456  1.0000
  C   C73       1.0  0.85321  0.78411  0.95527  1.0000
  C   C74       1.0  0.84042  0.81587  0.87735  1.0000
  C   C75       1.0  0.85642  0.82478  0.76044  1.0000
  C   C76       1.0  0.63560  0.00843  0.60453  1.0000
  C   C77       1.0  0.62591  0.04014  0.53367  1.0000
  C   C78       1.0  0.61723  0.00136  0.71443  1.0000
  C   C79       1.0  0.13020  0.55019  0.96280  1.0000
  C   C80       1.0  0.16368  0.53726  0.53092  1.0000
  C   C81       1.0  0.17083  0.55491  0.61852  1.0000
  C   C82       1.0  0.35729  0.32876  0.85007  1.0000
  C   C83       1.0  0.38824  0.31916  0.90170  1.0000
  C   C84       1.0  0.35091  0.30926  0.77130  1.0000
  N   N1        1.0  0.13208  0.19347  0.33204  1.0000
  N   N2        1.0  0.42101  0.09516  0.28683  1.0000
  N   N3        1.0  0.91367  0.58259  0.16176  1.0000
  N   N4        1.0  0.93605  0.31785  0.19779  1.0000
  N   N5        1.0  0.96817  0.05619  0.26864  1.0000
  N   N6        1.0  0.94709  0.80719  0.30612  1.0000
  N   N7        1.0  0.85389  0.23388  0.15383  1.0000
  N   N8        1.0  0.66389  0.13659  0.35525  1.0000
  N   N9        1.0  0.86724  0.83072  0.17285  1.0000
  N   N10       1.0  0.60443  0.99489  0.31090  1.0000
  N   N11       1.0  0.17587  0.56705  0.19357  1.0000
  N   N12       1.0  0.34388  0.29523  0.20066  1.0000
  N   N13       1.0  0.13723  0.19050  0.83097  1.0000
  N   N14       1.0  0.41649  0.09757  0.79605  1.0000
  N   N15       1.0  0.91045  0.58523  0.65858  1.0000
  N   N16       1.0  0.93817  0.31669  0.70283  1.0000
  N   N17       1.0  0.96555  0.05777  0.78287  1.0000
  N   N18       1.0  0.95102  0.80609  0.79483  1.0000
  N   N19       1.0  0.85509  0.23227  0.65273  1.0000
  N   N20       1.0  0.66195  0.13830  0.84608  1.0000
  N   N21       1.0  0.86779  0.83346  0.66051  1.0000
  N   N22       1.0  0.60321  0.99492  0.80850  1.0000
  N   N23       1.0  0.17803  0.56832  0.69167  1.0000
  N   N24       1.0  0.34498  0.29398  0.70447  1.0000
  C  Sn1       1.0  0.34256  0.11270  0.44023  1.0000
  C   C85       1.0  0.35008  0.13768  0.43436  1.0000
  C  Sn2       1.0  0.33088  0.16456  0.49913  1.0000
  C  Sn3       1.0  0.30361  0.16650  0.57136  1.0000
  C   C86       1.0  0.29610  0.14153  0.57723  1.0000
  C  Sn4       1.0  0.31528  0.11464  0.51246  1.0000
  O  Te1       1.0  0.36209  0.08607  0.37473  1.0000
  O  Te2       1.0  0.33888  0.18923  0.49178  1.0000
  O  Te3       1.0  0.28408  0.19317  0.63688  1.0000
  O  Te4       1.0  0.30730  0.08998  0.51980  1.0000
  Mg  Mg1       1.0  0.30487  0.22059  0.59773  1.0000
  Mg  Mg2       1.0  0.34130  0.05860  0.41396  1.0000
  C  Sn5       1.0  0.32808  0.13396  0.88526  1.0000
  C   C87       1.0  0.34365  0.14799  0.94517  1.0000
  C  Sn6       1.0  0.31612  0.20451  0.07857  1.0000
  C  Sn7       1.0  0.29139  0.20106  0.15372  1.0000
  C   C88       1.0  0.27584  0.18703  0.09384  1.0000
  C  Sn8       1.0  0.30335  0.13051  0.96042  1.0000
  O  Te5       1.0  0.33712  0.12347  0.75177  1.0000
  O  Te6       1.0  0.33203  0.21847  0.13625  1.0000
  O  Te7       1.0  0.28235  0.21157  0.28732  1.0000
  O  Te8       1.0  0.28746  0.11655  0.90276  1.0000
  Mg  Mg3       1.0  0.31112  0.22901  0.32136  1.0000
  Mg  Mg4       1.0  0.30835  0.10599  0.71771  1.0000
  C  Sn9       1.0  0.24832  0.12055  0.05354  1.0000
  C   C89       1.0  0.25718  0.14398  0.06446  1.0000
  C  Sn10      1.0  0.23988  0.16805  0.14701  1.0000
  C  Sn11      1.0  0.21318  0.16869  0.22025  1.0000
  C   C90       1.0  0.20433  0.14526  0.20933  1.0000
  C  Sn12      1.0  0.22162  0.12120  0.12678  1.0000
  O  Te9       1.0  0.28485  0.05087  0.97043  1.0000
  O  Te10      1.0  0.24919  0.19122  0.15626  1.0000
  O  Te11      1.0  0.19553  0.19255  0.30341  1.0000
  O  Te12      1.0  0.21233  0.09803  0.11754  1.0000
  Mg  Mg5       1.0  0.21759  0.21880  0.28283  1.0000
  Mg  Mg6       1.0  0.26280  0.02458  0.99107  1.0000
  C  Sn13      1.0  0.45203  0.17637  0.61249  1.0000
  C   C91       1.0  0.47994  0.16086  0.53945  1.0000
  C  Sn14      1.0  0.47999  0.14535  0.42527  1.0000
  C  Sn15      1.0  0.45152  0.14535  0.38314  1.0000
  C   C92       1.0  0.42363  0.16085  0.45614  1.0000
  C  Sn16      1.0  0.42356  0.17637  0.57036  1.0000
  O  Te13      1.0  0.45254  0.19174  0.72632  1.0000
  O  Te14      1.0  0.50819  0.12999  0.35392  1.0000
  O  Te15      1.0  0.45104  0.12996  0.26921  1.0000
  O  Te16      1.0  0.39538  0.19172  0.64167  1.0000
  Mg  Mg7       1.0  0.49547  0.11240  0.20543  1.0000
  Mg  Mg8       1.0  0.40807  0.20934  0.79012  1.0000
  C  Sn17      1.0  0.42629  0.19302  0.02420  1.0000
  C   C93       1.0  0.43934  0.12551  0.96475  1.0000
  C  Sn18      1.0  0.46507  0.09735  0.92842  1.0000
  C  Sn19      1.0  0.49729  0.09069  0.95209  1.0000
  C   C94       1.0  0.48422  0.15819  0.01152  1.0000
  C  Sn20      1.0  0.45851  0.18636  0.04786  1.0000
  O  Te17      1.0  0.40021  0.22102  0.05971  1.0000
  O  Te18      1.0  0.45863  0.07607  0.86908  1.0000
  O  Te19      1.0  0.52338  0.06266  0.91651  1.0000
  O  Te20      1.0  0.46493  0.20763  0.10719  1.0000
  Mg  Mg9       1.0  0.50227  0.04113  0.83853  1.0000
  Mg  Mg10      1.0  0.42132  0.24257  0.13786  1.0000
  C  Sn21      1.0  0.09971  0.14125  0.24616  1.0000
  C   C95       1.0  0.12963  0.12330  0.19131  1.0000
  C  Sn22      1.0  0.13190  0.10801  0.07308  1.0000
  C  Sn23      1.0  0.10369  0.11074  0.00824  1.0000
  C   C96       1.0  0.07379  0.12869  0.06306  1.0000
  C  Sn24      1.0  0.07149  0.14398  0.18132  1.0000
  O  Te21      1.0  0.09800  0.15633  0.36444  1.0000
  O  Te22      1.0  0.16209  0.09018  0.02020  1.0000
  O  Te23      1.0  0.12430  0.04979  0.88987  1.0000
  O  Te24      1.0  0.04133  0.16181  0.23417  1.0000
  Mg  Mg11      1.0  0.17089  0.02823  0.85692  1.0000
  Mg  Mg12      1.0  0.05138  0.17794  0.39739  1.0000
  C  Sn25      1.0  0.96029  0.61325  0.32803  1.0000
  C   C97       1.0  0.97825  0.58135  0.41281  1.0000
  C  Sn26      1.0  0.99460  0.57571  0.54870  1.0000
  C  Sn27      1.0  0.99295  0.60251  0.60100  1.0000
  C   C98       1.0  0.97499  0.63439  0.51626  1.0000
  C  Sn28      1.0  0.95864  0.64005  0.38034  1.0000
  O  Te25      1.0  0.94414  0.61831  0.19252  1.0000
  O  Te26      1.0  0.01241  0.54360  0.63145  1.0000
  O  Te27      1.0  0.00912  0.59742  0.73663  1.0000
  O  Te28      1.0  0.94084  0.67214  0.29762  1.0000
  Mg  Mg13      1.0  0.03020  0.54923  0.80913  1.0000
  Mg  Mg14      1.0  0.92301  0.66654  0.11997  1.0000
  C  Sn29      1.0  0.95662  0.61486  0.82886  1.0000
  C   C99       1.0  0.97574  0.58258  0.90798  1.0000
  C  Sn30      1.0  0.97500  0.62199  0.03959  1.0000
  C  Sn31      1.0  0.97401  0.64836  0.09330  1.0000
  C   C100      1.0  0.95490  0.68062  0.01421  1.0000
  C  Sn32      1.0  0.95563  0.64123  0.88256  1.0000
  O  Te29      1.0  0.93867  0.62073  0.69755  1.0000
  O  Te30      1.0  0.99394  0.58952  0.11673  1.0000
  O  Te31      1.0  0.99199  0.64247  0.22472  1.0000
  O  Te32      1.0  0.93669  0.67368  0.80546  1.0000
  Mg  Mg15      1.0  0.01409  0.59404  0.29019  1.0000
  Mg  Mg16      1.0  0.91653  0.66919  0.63204  1.0000
  C  Sn33      1.0  0.99546  0.46973  0.48319  1.0000
  C   C101      1.0  0.97905  0.49721  0.36803  1.0000
  C  Sn34      1.0  0.95832  0.49775  0.26113  1.0000
  C  Sn35      1.0  0.95388  0.47025  0.26955  1.0000
  C   C102      1.0  0.97028  0.44279  0.38467  1.0000
  C  Sn36      1.0  0.99103  0.44223  0.49161  1.0000
  O  Te33      1.0  0.01607  0.46972  0.58885  1.0000
  O  Te34      1.0  0.94218  0.52550  0.14701  1.0000
  O  Te35      1.0  0.93325  0.47027  0.16377  1.0000
  O  Te36      1.0  0.00715  0.41450  0.60569  1.0000
  Mg  Mg17      1.0  0.91665  0.51378  0.02953  1.0000
  Mg  Mg18      1.0  0.03267  0.42620  0.72327  1.0000
  C  Sn37      1.0  0.98511  0.38299  0.29429  1.0000
  C   C103      1.0  0.97253  0.40797  0.37516  1.0000
  C  Sn38      1.0  0.96547  0.40180  0.52163  1.0000
  C  Sn39      1.0  0.97114  0.36998  0.58871  1.0000
  C   C104      1.0  0.98372  0.34502  0.50787  1.0000
  C  Sn40      1.0  0.99077  0.35117  0.36137  1.0000
  O  Te37      1.0  0.99199  0.38972  0.14801  1.0000
  O  Te38      1.0  0.95290  0.42717  0.60022  1.0000
  O  Te39      1.0  0.96425  0.36327  0.73510  1.0000
  O  Te40      1.0  0.00334  0.32582  0.28280  1.0000
  Mg  Mg19      1.0  0.94745  0.40589  0.79653  1.0000
  Mg  Mg20      1.0  0.00882  0.34707  0.08652  1.0000
  C  Sn41      1.0  0.94501  0.38516  0.92841  1.0000
  C   C105      1.0  0.97214  0.35393  0.93904  1.0000
  C  Sn42      1.0  0.00330  0.34959  0.94934  1.0000
  C  Sn43      1.0  0.00743  0.37703  0.94912  1.0000
  C   C106      1.0  0.98031  0.40824  0.93853  1.0000
  C  Sn44      1.0  0.94914  0.41260  0.92819  1.0000
  O  Te41      1.0  0.91409  0.38892  0.91823  1.0000
  O  Te42      1.0  0.03006  0.31813  0.95980  1.0000
  O  Te43      1.0  0.03838  0.37324  0.95931  1.0000
  O  Te44      1.0  0.92239  0.44403  0.91776  1.0000
  Mg  Mg21      1.0  0.06726  0.32552  0.97145  1.0000
  Mg  Mg22      1.0  0.88518  0.43667  0.90619  1.0000
  C  Sn45      1.0  0.04002  0.20393  0.96828  1.0000
  C   C107      1.0  0.00148  0.23754  0.03197  1.0000
  C  Sn46      1.0  0.97000  0.25901  0.06200  1.0000
  C  Sn47      1.0  0.95791  0.29344  0.02758  1.0000
  C   C108      1.0  0.99644  0.25981  0.96391  1.0000
  C  Sn48      1.0  0.02792  0.23836  0.93386  1.0000
  O  Te45      1.0  0.07140  0.18202  0.93921  1.0000
  O  Te46      1.0  0.95081  0.24620  0.12576  1.0000
  O  Te47      1.0  0.92650  0.31535  0.05671  1.0000
  O  Te48      1.0  0.04711  0.25116  0.87012  1.0000
  Mg  Mg23      1.0  0.90967  0.28600  0.14434  1.0000
  Mg  Mg24      1.0  0.08824  0.21138  0.85142  1.0000
  C  Sn49      1.0  0.97727  0.22759  0.52609  1.0000
  C   C109      1.0  0.00228  0.20022  0.48091  1.0000
  C  Sn50      1.0  0.03143  0.19918  0.44695  1.0000
  C  Sn51      1.0  0.03567  0.22607  0.45849  1.0000
  C   C110      1.0  0.01068  0.25342  0.50367  1.0000
  C  Sn52      1.0  0.98151  0.25448  0.53763  1.0000
  O  Te49      1.0  0.94833  0.22809  0.55949  1.0000
  O  Te50      1.0  0.05608  0.17155  0.40197  1.0000
  O  Te51      1.0  0.06464  0.22555  0.42504  1.0000
  O  Te52      1.0  0.95688  0.28209  0.58261  1.0000
  Mg  Mg25      1.0  0.09106  0.18244  0.36867  1.0000
  Mg  Mg26      1.0  0.92189  0.27122  0.61601  1.0000
  C  Sn53      1.0  0.01647  0.09732  0.43898  1.0000
  C   C111      1.0  0.03646  0.10019  0.53706  1.0000
  C  Sn54      1.0  0.06216  0.07211  0.62399  1.0000
  C  Sn55      1.0  0.06803  0.04051  0.61259  1.0000
  C   C112      1.0  0.04805  0.03765  0.51454  1.0000
  C  Sn56      1.0  0.02233  0.06572  0.42758  1.0000
  O  Te53      1.0  0.99091  0.12572  0.35315  1.0000
  O  Te54      1.0  0.08181  0.07559  0.72129  1.0000
  O  Te55      1.0  0.09361  0.01209  0.69853  1.0000
  O  Te56      1.0  0.00269  0.06224  0.33032  1.0000
  Mg  Mg27      1.0  0.11362  0.02956  0.81476  1.0000
  Mg  Mg28      1.0  0.97089  0.10826  0.23674  1.0000
  C  Sn57      1.0  0.07244  0.05894  0.11294  1.0000
  C   C113      1.0  0.05567  0.09029  0.02200  1.0000
  C  Sn58      1.0  0.04725  0.05342  0.93000  1.0000
  C  Sn59      1.0  0.03645  0.03060  0.92892  1.0000
  C   C114      1.0  0.03432  0.04513  0.01982  1.0000
  C  Sn60      1.0  0.06164  0.03612  0.11185  1.0000
  O  Te57      1.0  0.09967  0.05049  0.20404  1.0000
  O  Te58      1.0  0.03090  0.08489  0.84003  1.0000
  O  Te59      1.0  0.00919  0.03907  0.83771  1.0000
  O  Te60      1.0  0.07798  0.00467  0.20179  1.0000
  Mg  Mg29      1.0  0.99506  0.08485  0.73519  1.0000
  Mg  Mg30      1.0  0.11381  0.00469  0.30673  1.0000
  C  Sn61      1.0  0.99866  0.91229  0.95213  1.0000
  C   C115      1.0  0.00389  0.92586  0.01142  1.0000
  C  Sn62      1.0  0.03285  0.91958  0.08025  1.0000
  C  Sn63      1.0  0.03781  0.94611  0.09012  1.0000
  C   C116      1.0  0.01371  0.97836  0.03089  1.0000
  C  Sn64      1.0  0.00362  0.93882  0.96200  1.0000
  O  Te61      1.0  0.96989  0.91799  0.88382  1.0000
  O  Te62      1.0  0.05661  0.88711  0.13865  1.0000
  O  Te63      1.0  0.06661  0.94038  0.15851  1.0000
  O  Te64      1.0  0.47473  0.97127  0.90365  1.0000
  Mg  Mg31      1.0  0.09169  0.89188  0.22123  1.0000
  Mg  Mg32      1.0  0.43963  0.96652  0.82112  1.0000
  C  Sn65      1.0  0.01539  0.93891  0.68723  1.0000
  C   C117      1.0  0.00324  0.92683  0.59356  1.0000
  C  Sn66      1.0  0.99723  0.94000  0.44126  1.0000
  C  Sn67      1.0  0.00353  0.96576  0.38129  1.0000
  C   C118      1.0  0.01569  0.97783  0.47493  1.0000
  C  Sn68      1.0  0.02169  0.96468  0.62727  1.0000
  O  Te65      1.0  0.02122  0.92538  0.83915  1.0000
  O  Te66      1.0  0.98507  0.92752  0.34984  1.0000
  O  Te67      1.0  0.99770  0.97929  0.22925  1.0000
  O  Te68      1.0  0.52871  0.97714  0.71866  1.0000
  Mg  Mg33      1.0  0.98109  0.95401  0.15012  1.0000
  Mg  Mg34      1.0  0.03786  0.95066  0.91837  1.0000
  C  Sn69      1.0  0.97327  0.88628  0.16903  1.0000
  C   C119      1.0  0.00071  0.88903  0.13721  1.0000
  C  Sn70      1.0  0.02746  0.86389  0.08752  1.0000
  C  Sn71      1.0  0.02677  0.83542  0.06916  1.0000
  C   C120      1.0  0.99934  0.83269  0.10095  1.0000
  C  Sn72      1.0  0.97258  0.85781  0.15067  1.0000
  O  Te69      1.0  0.94680  0.91171  0.21855  1.0000
  O  Te70      1.0  0.05462  0.86720  0.05647  1.0000
  O  Te71      1.0  0.05327  0.80999  0.01960  1.0000
  O  Te72      1.0  0.94543  0.85452  0.18168  1.0000
  Mg  Mg35      1.0  0.10354  0.78006  0.99181  1.0000
  Mg  Mg36      1.0  0.91537  0.89579  0.24628  1.0000
  C  Sn73      1.0  0.98012  0.86542  0.70295  1.0000
  C   C121      1.0  0.99147  0.84190  0.61431  1.0000
  C  Sn74      1.0  0.01450  0.84014  0.51477  1.0000
  C  Sn75      1.0  0.02644  0.86234  0.50365  1.0000
  C   C122      1.0  0.01509  0.88583  0.59227  1.0000
  C  Sn76      1.0  0.99206  0.88762  0.69183  1.0000
  O  Te73      1.0  0.95710  0.86673  0.80170  1.0000
  O  Te74      1.0  0.02547  0.81643  0.42729  1.0000
  O  Te75      1.0  0.04948  0.86101  0.40480  1.0000
  O  Te76      1.0  0.98109  0.91131  0.77930  1.0000
  Mg  Mg37      1.0  0.05697  0.82438  0.30940  1.0000
  Mg  Mg38      1.0  0.94961  0.90337  0.89727  1.0000
  C  Sn77      1.0  0.97983  0.72548  0.09106  1.0000
  C   C123      1.0  0.00002  0.70202  0.01068  1.0000
  C  Sn78      1.0  0.04733  0.65510  0.96272  1.0000
  C  Sn79      1.0  0.05578  0.67794  0.99588  1.0000
  C   C124      1.0  0.01673  0.74722  0.07623  1.0000
  C  Sn80      1.0  0.98828  0.74832  0.12421  1.0000
  O  Te77      1.0  0.95152  0.72610  0.13790  1.0000
  O  Te78      1.0  0.06712  0.63142  0.88248  1.0000
  O  Te79      1.0  0.08412  0.67730  0.94896  1.0000
  O  Te80      1.0  0.96850  0.77197  0.20443  1.0000
  Mg  Mg39      1.0  0.10319  0.64044  0.84299  1.0000
  Mg  Mg40      1.0  0.93244  0.76296  0.24404  1.0000
  C  Sn81      1.0  0.98463  0.72294  0.59592  1.0000
  C   C125      1.0  0.00285  0.70084  0.50605  1.0000
  C  Sn82      1.0  0.03000  0.70083  0.44610  1.0000
  C  Sn83      1.0  0.03914  0.72337  0.47668  1.0000
  C   C126      1.0  0.02093  0.74544  0.56652  1.0000
  C  Sn84      1.0  0.99377  0.74547  0.62650  1.0000
  O  Te81      1.0  0.95757  0.72251  0.65467  1.0000
  O  Te82      1.0  0.04784  0.67851  0.35653  1.0000
  O  Te83      1.0  0.06622  0.72378  0.41783  1.0000
  O  Te84      1.0  0.97594  0.76777  0.71604  1.0000
  Mg  Mg41      1.0  0.08275  0.68860  0.30228  1.0000
  Mg  Mg42      1.0  0.94103  0.75769  0.77041  1.0000
  C  Sn85      1.0  0.97225  0.13153  0.56388  1.0000
  C   C127      1.0  0.98317  0.15224  0.48989  1.0000
  C  Sn86      1.0  0.96116  0.18358  0.40954  1.0000
  C  Sn87      1.0  0.92753  0.19447  0.40306  1.0000
  C   C128      1.0  0.91663  0.17377  0.47703  1.0000
  C  Sn88      1.0  0.93862  0.14242  0.55740  1.0000
  O  Te85      1.0  0.99469  0.10029  0.64355  1.0000
  O  Te86      1.0  0.97265  0.20384  0.33645  1.0000
  O  Te87      1.0  0.90509  0.22574  0.32329  1.0000
  O  Te88      1.0  0.92714  0.12217  0.63048  1.0000
  Mg  Mg43      1.0  0.93259  0.24429  0.24241  1.0000
  Mg  Mg44      1.0  0.96718  0.08172  0.72461  1.0000
  C  Sn89      1.0  0.97192  0.13181  0.06813  1.0000
  C   C129      1.0  0.00199  0.10597  0.98917  1.0000
  C  Sn90      1.0  0.98017  0.13712  0.90643  1.0000
  C  Sn91      1.0  0.94645  0.14852  0.90258  1.0000
  C   C130      1.0  0.93527  0.12851  0.98152  1.0000
  C  Sn92      1.0  0.93820  0.14320  0.06428  1.0000
  O  Te89      1.0  0.99418  0.10076  0.15011  1.0000
  O  Te90      1.0  0.99194  0.15668  0.82836  1.0000
  O  Te91      1.0  0.92419  0.17959  0.82050  1.0000
  O  Te92      1.0  0.92645  0.12365  0.14233  1.0000
  Mg  Mg45      1.0  0.95204  0.19714  0.73279  1.0000
  Mg  Mg46      1.0  0.96632  0.08320  0.23799  1.0000
  C  Sn93      1.0  0.77628  0.21450  0.84579  1.0000
  C   C131      1.0  0.77260  0.18908  0.92977  1.0000
  C  Sn94      1.0  0.77980  0.20811  0.02070  1.0000
  C  Sn95      1.0  0.81020  0.20667  0.02792  1.0000
  C   C132      1.0  0.83276  0.18622  0.94400  1.0000
  C  Sn96      1.0  0.80668  0.21305  0.85302  1.0000
  O  Te93      1.0  0.74987  0.24107  0.75565  1.0000
  O  Te94      1.0  0.77554  0.18300  0.10358  1.0000
  O  Te95      1.0  0.83662  0.18006  0.11816  1.0000
  O  Te96      1.0  0.81094  0.23816  0.77019  1.0000
  Mg  Mg47      1.0  0.81877  0.15193  0.21004  1.0000
  Mg  Mg48      1.0  0.76772  0.26925  0.66376  1.0000
  C  Sn97      1.0  0.80420  0.17715  0.60637  1.0000
  C   C133      1.0  0.77506  0.19178  0.51781  1.0000
  C  Sn98      1.0  0.77384  0.20280  0.36518  1.0000
  C  Sn99      1.0  0.80234  0.19909  0.29968  1.0000
  C   C134      1.0  0.83145  0.18446  0.38821  1.0000
  C  Sn100     1.0  0.83270  0.17345  0.54086  1.0000
  O  Te97      1.0  0.80485  0.16632  0.75871  1.0000
  O  Te98      1.0  0.74443  0.21736  0.27894  1.0000
  O  Te99      1.0  0.80166  0.20994  0.14721  1.0000
  O  Te100     1.0  0.86209  0.15889  0.62708  1.0000
  Mg  Mg49      1.0  0.75583  0.22818  0.07637  1.0000
  Mg  Mg50      1.0  0.85071  0.14804  0.82964  1.0000
  C  Sn101     1.0  0.69489  0.19540  0.92398  1.0000
  C   C135      1.0  0.66979  0.22666  0.05751  1.0000
  C  Sn102     1.0  0.68973  0.21739  0.18693  1.0000
  C  Sn103     1.0  0.71645  0.22283  0.18283  1.0000
  C   C136      1.0  0.72266  0.23742  0.04937  1.0000
  C  Sn104     1.0  0.72161  0.20085  0.91988  1.0000
  O  Te101     1.0  0.67463  0.20448  0.79596  1.0000
  O  Te102     1.0  0.68303  0.20283  0.31910  1.0000
  O  Te103     1.0  0.73672  0.21374  0.31100  1.0000
  O  Te104     1.0  0.72829  0.21540  0.78779  1.0000
  Mg  Mg51      1.0  0.71765  0.19476  0.46411  1.0000
  Mg  Mg52      1.0  0.69369  0.22349  0.64273  1.0000
  C  Sn105     1.0  0.72274  0.15866  0.67602  1.0000
  C   C137      1.0  0.69063  0.18375  0.63770  1.0000
  C  Sn106     1.0  0.68334  0.21170  0.52937  1.0000
  C  Sn107     1.0  0.70866  0.21463  0.45777  1.0000
  C   C138      1.0  0.74074  0.18956  0.49608  1.0000
  C  Sn108     1.0  0.74806  0.16159  0.60443  1.0000
  O  Te105     1.0  0.72947  0.13093  0.78463  1.0000
  O  Te106     1.0  0.65106  0.23646  0.49297  1.0000
  O  Te107     1.0  0.70190  0.24239  0.34909  1.0000
  O  Te108     1.0  0.78032  0.13684  0.64081  1.0000
  Mg  Mg53      1.0  0.65413  0.26949  0.33789  1.0000
  Mg  Mg54      1.0  0.77726  0.10380  0.79581  1.0000
  C  Sn109     1.0  0.56145  0.23222  0.94156  1.0000
  C   C139      1.0  0.56850  0.25777  0.04927  1.0000
  C  Sn110     1.0  0.57166  0.22845  0.13122  1.0000
  C  Sn111     1.0  0.54844  0.21921  0.10492  1.0000
  C   C140      1.0  0.54142  0.19365  0.99726  1.0000
  C  Sn112     1.0  0.53823  0.22299  0.91526  1.0000
  O  Te109     1.0  0.55877  0.26143  0.86093  1.0000
  O  Te110     1.0  0.59778  0.20856  0.23835  1.0000
  O  Te111     1.0  0.55114  0.18998  0.18567  1.0000
  O  Te112     1.0  0.51214  0.24287  0.80817  1.0000
  Mg  Mg55      1.0  0.59096  0.17113  0.31951  1.0000
  Mg  Mg56      1.0  0.51894  0.28029  0.72690  1.0000
  C  Sn113     1.0  0.56144  0.23340  0.42458  1.0000
  C   C141      1.0  0.58696  0.21410  0.53512  1.0000
  C  Sn114     1.0  0.58973  0.18553  0.62370  1.0000
  C  Sn115     1.0  0.56652  0.17604  0.60128  1.0000
  C   C142      1.0  0.54102  0.19534  0.49078  1.0000
  C  Sn116     1.0  0.53823  0.22392  0.40215  1.0000
  O  Te113     1.0  0.55915  0.26187  0.33732  1.0000
  O  Te114     1.0  0.61545  0.16664  0.73355  1.0000
  O  Te115     1.0  0.56883  0.14756  0.68866  1.0000
  O  Te116     1.0  0.51254  0.24280  0.29235  1.0000
  Mg  Mg57      1.0  0.60819  0.12996  0.82397  1.0000
  Mg  Mg58      1.0  0.51979  0.27947  0.20182  1.0000
  C  Sn117     1.0  0.93828  0.73511  0.43344  1.0000
  C   C143      1.0  0.94772  0.70242  0.49672  1.0000
  C  Sn118     1.0  0.92447  0.69312  0.53266  1.0000
  C  Sn119     1.0  0.89109  0.71698  0.50467  1.0000
  C   C144      1.0  0.88166  0.74964  0.44140  1.0000
  C  Sn120     1.0  0.90490  0.75897  0.40545  1.0000
  O  Te117     1.0  0.96194  0.74386  0.39841  1.0000
  O  Te118     1.0  0.93450  0.66030  0.59588  1.0000
  O  Te119     1.0  0.86742  0.70820  0.53977  1.0000
  O  Te120     1.0  0.89489  0.79177  0.34224  1.0000
  Mg  Mg59      1.0  0.89314  0.66044  0.62404  1.0000
  Mg  Mg60      1.0  0.93622  0.79165  0.31397  1.0000
  C  Sn121     1.0  0.91505  0.74924  0.83676  1.0000
  C   C145      1.0  0.88650  0.75315  0.89707  1.0000
  C  Sn122     1.0  0.86821  0.77412  0.00693  1.0000
  C  Sn123     1.0  0.89794  0.74473  0.05763  1.0000
  C   C146      1.0  0.94534  0.69498  0.99736  1.0000
  C  Sn124     1.0  0.94478  0.71985  0.88747  1.0000
  O  Te121     1.0  0.91389  0.77444  0.72705  1.0000
  O  Te122     1.0  0.83936  0.77859  0.06550  1.0000
  O  Te123     1.0  0.89907  0.71952  0.16743  1.0000
  O  Te124     1.0  0.97361  0.71540  0.82893  1.0000
  Mg  Mg61      1.0  0.85336  0.73717  0.21294  1.0000
  Mg  Mg62      1.0  0.95964  0.75680  0.68155  1.0000
  C  Sn125     1.0  0.77688  0.89912  0.83885  1.0000
  C   C147      1.0  0.75170  0.89876  0.91792  1.0000
  C  Sn126     1.0  0.73699  0.91532  0.00528  1.0000
  C  Sn127     1.0  0.76697  0.88577  0.01387  1.0000
  C   C148      1.0  0.81101  0.84029  0.93486  1.0000
  C  Sn128     1.0  0.80686  0.86957  0.84745  1.0000
  O  Te125     1.0  0.77218  0.92869  0.75222  1.0000
  O  Te126     1.0  0.71145  0.91557  0.08328  1.0000
  O  Te127     1.0  0.77166  0.85619  0.10060  1.0000
  O  Te128     1.0  0.83238  0.86933  0.76951  1.0000
  Mg  Mg63      1.0  0.72964  0.86908  0.18630  1.0000
  Mg  Mg64      1.0  0.81422  0.91581  0.66651  1.0000
  C  Sn129     1.0  0.77588  0.85865  0.60085  1.0000
  C   C149      1.0  0.75924  0.89084  0.51786  1.0000
  C  Sn130     1.0  0.76535  0.89789  0.37048  1.0000
  C  Sn131     1.0  0.78857  0.87224  0.30462  1.0000
  C   C150      1.0  0.80519  0.84007  0.38757  1.0000
  C  Sn132     1.0  0.79909  0.83300  0.53498  1.0000
  O  Te129     1.0  0.76938  0.85216  0.74800  1.0000
  O  Te130     1.0  0.74842  0.93026  0.28977  1.0000
  O  Te131     1.0  0.79506  0.87875  0.15734  1.0000
  O  Te132     1.0  0.81600  0.80065  0.61567  1.0000
  Mg  Mg65      1.0  0.76576  0.92676  0.09297  1.0000
  Mg  Mg66      1.0  0.79867  0.80412  0.81243  1.0000
  C  Sn133     1.0  0.20421  0.96652  0.93619  1.0000
  C   C151      1.0  0.70533  0.97950  0.01080  1.0000
  C  Sn134     1.0  0.68910  0.96873  0.11433  1.0000
  C  Sn135     1.0  0.65734  0.99129  0.14386  1.0000
  C   C152      1.0  0.13734  0.02414  0.06926  1.0000
  C  Sn136     1.0  0.17244  0.98908  0.96572  1.0000
  O  Te133     1.0  0.22089  0.97674  0.83313  1.0000
  O  Te134     1.0  0.70446  0.93575  0.18755  1.0000
  O  Te135     1.0  0.64066  0.98105  0.24702  1.0000
  O  Te136     1.0  0.15710  0.02204  0.89250  1.0000
  Mg  Mg67      1.0  0.67179  0.93366  0.31823  1.0000
  Mg  Mg68      1.0  0.18974  0.02415  0.76175  1.0000
  C  Sn137     1.0  0.18668  0.97959  0.44648  1.0000
  C   C153      1.0  0.16096  0.98064  0.52546  1.0000
  C  Sn138     1.0  0.66924  0.95211  0.61612  1.0000
  C  Sn139     1.0  0.69870  0.92190  0.62817  1.0000
  C   C154      1.0  0.72440  0.92086  0.54924  1.0000
  C  Sn140     1.0  0.72129  0.94939  0.45852  1.0000
  O  Te137     1.0  0.18301  0.00842  0.35652  1.0000
  O  Te138     1.0  0.64319  0.95376  0.69397  1.0000
  O  Te139     1.0  0.70235  0.89306  0.71822  1.0000
  O  Te140     1.0  0.74732  0.94774  0.38073  1.0000
  Mg  Mg69      1.0  0.65996  0.90784  0.80228  1.0000
  Mg  Mg70      1.0  0.22544  0.99365  0.27245  1.0000
  C  Sn141     1.0  0.56024  0.08015  0.08935  1.0000
  C   C155      1.0  0.58984  0.07225  0.03008  1.0000
  C  Sn142     1.0  0.61596  0.05108  0.97207  1.0000
  C  Sn143     1.0  0.59314  0.08437  0.97339  1.0000
  C   C156      1.0  0.54468  0.13811  0.03266  1.0000
  C  Sn144     1.0  0.53742  0.11344  0.09068  1.0000
  O  Te141     1.0  0.55352  0.05507  0.14676  1.0000
  O  Te142     1.0  0.64570  0.04258  0.91336  1.0000
  O  Te143     1.0  0.59988  0.10946  0.91591  1.0000
  O  Te144     1.0  0.50770  0.12193  0.14938  1.0000
  Mg  Mg71      1.0  0.64368  0.08552  0.84818  1.0000
  Mg  Mg72      1.0  0.50970  0.07901  0.21466  1.0000
  C  Sn145     1.0  0.55999  0.08017  0.58733  1.0000
  C   C157      1.0  0.58981  0.07161  0.52921  1.0000
  C  Sn146     1.0  0.59803  0.09572  0.47464  1.0000
  C  Sn147     1.0  0.57599  0.12908  0.47833  1.0000
  C   C158      1.0  0.54620  0.13763  0.53645  1.0000
  C  Sn148     1.0  0.53796  0.11354  0.59102  1.0000
  O  Te145     1.0  0.55228  0.05566  0.64128  1.0000
  O  Te146     1.0  0.62798  0.08656  0.41702  1.0000
  O  Te147     1.0  0.58373  0.15359  0.42431  1.0000
  O  Te148     1.0  0.50803  0.12268  0.64863  1.0000
  Mg  Mg73      1.0  0.62742  0.12888  0.35681  1.0000
  Mg  Mg74      1.0  0.50857  0.08038  0.70894  1.0000
  C  Sn149     1.0  0.06761  0.59781  0.84592  1.0000
  C   C159      1.0  0.09656  0.58606  0.93165  1.0000
  C  Sn150     1.0  0.07776  0.64413  0.05778  1.0000
  C  Sn151     1.0  0.04828  0.66858  0.09917  1.0000
  C   C160      1.0  0.01935  0.68031  0.01349  1.0000
  C  Sn152     1.0  0.03814  0.62227  0.88731  1.0000
  O  Te149     1.0  0.06811  0.58525  0.72027  1.0000
  O  Te150     1.0  0.10700  0.63200  0.14170  1.0000
  O  Te151     1.0  0.04781  0.68114  0.22493  1.0000
  O  Te152     1.0  0.00891  0.63437  0.80343  1.0000
  Mg  Mg75      1.0  0.09386  0.65682  0.30342  1.0000
  Mg  Mg76      1.0  0.02202  0.60956  0.64174  1.0000
  C  Sn153     1.0  0.04849  0.60020  0.42113  1.0000
  C   C161      1.0  0.04039  0.62588  0.49475  1.0000
  C  Sn154     1.0  0.06459  0.63009  0.55292  1.0000
  C  Sn155     1.0  0.09756  0.60818  0.53712  1.0000
  C   C162      1.0  0.10565  0.58252  0.46352  1.0000
  C  Sn156     1.0  0.08147  0.57829  0.40533  1.0000
  O  Te153     1.0  0.02391  0.59646  0.36385  1.0000
  O  Te154     1.0  0.05589  0.65595  0.62611  1.0000
  O  Te155     1.0  0.12215  0.61194  0.59449  1.0000
  O  Te156     1.0  0.09015  0.55246  0.33216  1.0000
  Mg  Mg77      1.0  0.09814  0.65090  0.68498  1.0000
  Mg  Mg78      1.0  0.04793  0.55749  0.27319  1.0000
  C  Sn157     1.0  0.22990  0.49847  0.49143  1.0000
  C   C163      1.0  0.19716  0.50763  0.47998  1.0000
  C  Sn158     1.0  0.18797  0.48418  0.47551  1.0000
  C  Sn159     1.0  0.21201  0.45088  0.48273  1.0000
  C   C164      1.0  0.24473  0.44174  0.49420  1.0000
  C  Sn160     1.0  0.25394  0.46517  0.49865  1.0000
  O  Te157     1.0  0.23854  0.52232  0.49572  1.0000
  O  Te158     1.0  0.15508  0.49392  0.46398  1.0000
  O  Te159     1.0  0.20335  0.42703  0.47842  1.0000
  O  Te160     1.0  0.28681  0.45544  0.51020  1.0000
  Mg  Mg79      1.0  0.15544  0.45238  0.46221  1.0000
  Mg  Mg80      1.0  0.28648  0.49696  0.51206  1.0000
  C  Sn161     1.0  0.20932  0.47208  0.83871  1.0000
  C   C165      1.0  0.24065  0.45580  0.90878  1.0000
  C  Sn162     1.0  0.22765  0.50871  0.04152  1.0000
  C  Sn163     1.0  0.20166  0.53251  0.10562  1.0000
  C   C166      1.0  0.17035  0.54876  0.03557  1.0000
  C  Sn164     1.0  0.18333  0.49588  0.90281  1.0000
  O  Te161     1.0  0.20401  0.46463  0.70608  1.0000
  O  Te162     1.0  0.25918  0.49213  0.10949  1.0000
  O  Te163     1.0  0.20699  0.53994  0.23835  1.0000
  O  Te164     1.0  0.15182  0.51244  0.83487  1.0000
  Mg  Mg81      1.0  0.25418  0.51080  0.28889  1.0000
  Mg  Mg82      1.0  0.15679  0.49378  0.65551  1.0000
  C  Sn165     1.0  0.31410  0.40327  0.48350  1.0000
  C   C167      1.0  0.28223  0.41911  0.42026  1.0000
  C  Sn166     1.0  0.27218  0.40339  0.33811  1.0000
  C  Sn167     1.0  0.29444  0.37117  0.31885  1.0000
  C   C168      1.0  0.32629  0.35535  0.38209  1.0000
  C  Sn168     1.0  0.33637  0.37105  0.46424  1.0000
  O  Te165     1.0  0.32362  0.41945  0.56520  1.0000
  O  Te166     1.0  0.24019  0.41972  0.27590  1.0000
  O  Te167     1.0  0.28490  0.35499  0.23707  1.0000
  O  Te168     1.0  0.36833  0.35473  0.52645  1.0000
  Mg  Mg83      1.0  0.23877  0.38743  0.17410  1.0000
  Mg  Mg84      1.0  0.36977  0.38699  0.62833  1.0000
  C  Sn169     1.0  0.27553  0.38136  0.91842  1.0000
  C   C169      1.0  0.27406  0.40923  0.95352  1.0000
  C  Sn170     1.0  0.30045  0.41438  0.93591  1.0000
  C  Sn171     1.0  0.32890  0.39120  0.88201  1.0000
  C   C170      1.0  0.33037  0.36335  0.84692  1.0000
  C  Sn172     1.0  0.30399  0.35818  0.86451  1.0000
  O  Te169     1.0  0.24886  0.37671  0.93688  1.0000
  O  Te170     1.0  0.29841  0.44242  0.97179  1.0000
  O  Te171     1.0  0.35559  0.39587  0.86357  1.0000
  O  Te172     1.0  0.30601  0.33016  0.82864  1.0000
  Mg  Mg85      1.0  0.34112  0.43787  0.92758  1.0000
  Mg  Mg86      1.0  0.26332  0.33469  0.87274  1.0000
  C  Sn173     1.0  0.45625  0.28371  0.44834  1.0000
  C   C171      1.0  0.42763  0.29214  0.36813  1.0000
  C  Sn174     1.0  0.42338  0.26786  0.32533  1.0000
  C  Sn175     1.0  0.44823  0.23446  0.36358  1.0000
  C   C172      1.0  0.47682  0.22604  0.44376  1.0000
  C  Sn176     1.0  0.48110  0.25030  0.48658  1.0000
  O  Te173     1.0  0.45998  0.30839  0.48997  1.0000
  O  Te174     1.0  0.39456  0.27689  0.24515  1.0000
  O  Te175     1.0  0.44447  0.20978  0.32187  1.0000
  O  Te176     1.0  0.50989  0.24129  0.56673  1.0000
  Mg  Mg87      1.0  0.40087  0.23436  0.21380  1.0000
  Mg  Mg88      1.0  0.50360  0.28380  0.59821  1.0000
  C  Sn177     1.0  0.45585  0.28316  0.96488  1.0000
  C   C173      1.0  0.42784  0.29252  0.87711  1.0000
  C  Sn178     1.0  0.42416  0.26911  0.82202  1.0000
  C  Sn179     1.0  0.44899  0.23565  0.85543  1.0000
  C   C174      1.0  0.47699  0.22631  0.94317  1.0000
  C  Sn180     1.0  0.48069  0.24970  0.99828  1.0000
  O  Te177     1.0  0.44013  0.35283  0.01877  1.0000
  O  Te178     1.0  0.39594  0.27906  0.73447  1.0000
  O  Te179     1.0  0.44582  0.21183  0.80145  1.0000
  O  Te180     1.0  0.49000  0.28561  0.08580  1.0000
  Mg  Mg89      1.0  0.40290  0.23749  0.68700  1.0000
  Mg  Mg90      1.0  0.48306  0.32716  0.13339  1.0000
  C  Sn181     1.0  0.24460  0.12795  0.49577  1.0000
  C   C175      1.0  0.25896  0.14381  0.54933  1.0000
  C  Sn182     1.0  0.24847  0.15732  0.67505  1.0000
  C  Sn183     1.0  0.22311  0.15492  0.74886  1.0000
  C   C176      1.0  0.20877  0.13906  0.69532  1.0000
  C  Sn184     1.0  0.21924  0.12555  0.56958  1.0000
  O  Te181     1.0  0.25547  0.11463  0.36990  1.0000
  O  Te182     1.0  0.26319  0.17307  0.72648  1.0000
  O  Te183     1.0  0.21224  0.16826  0.87482  1.0000
  O  Te184     1.0  0.20453  0.10981  0.51817  1.0000
  Mg  Mg91      1.0  0.23992  0.18730  0.90228  1.0000
  Mg  Mg92      1.0  0.22779  0.09555  0.34243  1.0000
  C  Sn185     1.0  0.08017  0.15538  0.65372  1.0000
  C   C177      1.0  0.07419  0.13595  0.57750  1.0000
  C  Sn186     1.0  0.09987  0.10743  0.54367  1.0000
  C  Sn187     1.0  0.13219  0.09812  0.58701  1.0000
  C   C178      1.0  0.13816  0.11754  0.66319  1.0000
  C  Sn188     1.0  0.11250  0.14607  0.69705  1.0000
  O  Te185     1.0  0.05414  0.18379  0.68637  1.0000
  O  Te186     1.0  0.09328  0.08840  0.46734  1.0000
  O  Te187     1.0  0.15824  0.06969  0.55428  1.0000
  O  Te188     1.0  0.11907  0.16509  0.77335  1.0000
  Mg  Mg93      1.0  0.13692  0.05186  0.44845  1.0000
  Mg  Mg94      1.0  0.07546  0.20163  0.79237  1.0000
  C  Sn189     1.0  0.99792  0.45330  0.95717  1.0000
  C   C179      1.0  0.97519  0.44445  0.92496  1.0000
  C  Sn190     1.0  0.94662  0.46726  0.83626  1.0000
  C  Sn191     1.0  0.94066  0.49959  0.77844  1.0000
  C   C180      1.0  0.96338  0.50843  0.81063  1.0000
  C  Sn192     1.0  0.99196  0.48563  0.89935  1.0000
  O  Te189     1.0  0.00744  0.47593  0.04609  1.0000
  O  Te190     1.0  0.92426  0.45784  0.80563  1.0000
  O  Te191     1.0  0.91224  0.52281  0.68947  1.0000
  O  Te192     1.0  0.01432  0.49503  0.92996  1.0000
  Mg  Mg95      1.0  0.88917  0.49823  0.67900  1.0000
  Mg  Mg96      1.0  0.03054  0.50051  0.05651  1.0000
