data_image0
_chemical_formula_structural       H60C114N12C2Sn2C2HTe2HMgC2Sn2C2HTe2HMgC2Sn2C2HTe2HMgC2Sn2C2HTe2HMgC2Sn2C2HTe2HMgC2Sn2C2HTe2HMgC2Sn2C2HTe2HMgC2Sn2C2HTe2HMgC2Sn2C2HTe2HMg
_chemical_formula_sum              "H78 C150 N12 Sn18 Te18 Mg9"
_cell_length_a       38.3748
_cell_length_b       37.2568
_cell_length_c       8.01068
_cell_angle_alpha    80.9493
_cell_angle_beta     78.1671
_cell_angle_gamma    59.2876

_symmetry_space_group_name_H-M    'P1'
_space_group_IT_number       1

loop_
  _space_group_symop_operation_xyz
  'x, y, z'

loop_
  _atom_site_type_symbol
  _atom_site_label
  _atom_site_symmetry_multiplicity
  _atom_site_fract_x
  _atom_site_fract_y
  _atom_site_fract_z
  _atom_site_occupancy
  H   H1        1.0  0.99516  0.04409  0.07430  1.0000
  H   H2        1.0  0.85403  0.08289  0.35871  1.0000
  H   H3        1.0  0.88364  0.12584  0.38812  1.0000
  H   H4        1.0  0.77275  0.06462  0.09770  1.0000
  H   H5        1.0  0.87423  0.94421  0.21638  1.0000
  H   H6        1.0  0.74041  0.02459  0.51693  1.0000
  H   H7        1.0  0.83995  0.91033  0.14545  1.0000
  H   H8        1.0  0.82747  0.06101  0.22203  1.0000
  H   H9        1.0  0.01250  0.08420  0.08433  1.0000
  H   H10       1.0  0.81915  0.88304  0.05207  1.0000
  H   H11       1.0  0.71576  0.99497  0.45323  1.0000
  H   H12       1.0  0.71921  0.87911  0.42007  1.0000
  H   H13       1.0  0.84888  0.82457  0.32235  1.0000
  H   H14       1.0  0.88720  0.74758  0.32474  1.0000
  H   H15       1.0  0.67503  0.91138  0.27205  1.0000
  H   H16       1.0  0.65453  0.02319  0.46625  1.0000
  H   H17       1.0  0.60440  0.94855  0.21241  1.0000
  H   H18       1.0  0.58541  0.06058  0.39811  1.0000
  H   H19       1.0  0.13792  0.15208  0.50666  1.0000
  H   H20       1.0  0.01749  0.26879  0.06638  1.0000
  H   H21       1.0  0.13065  0.27232  0.45425  1.0000
  H   H22       1.0  0.19522  0.13762  0.31388  1.0000
  H   H23       1.0  0.26988  0.10692  0.25081  1.0000
  H   H24       1.0  0.32168  0.16221  0.38000  1.0000
  H   H25       1.0  0.89343  0.68463  0.39514  1.0000
  H   H26       1.0  0.84968  0.60039  0.24850  1.0000
  H   H27       1.0  0.89663  0.52675  0.20031  1.0000
  H   H28       1.0  0.94023  0.46681  0.15554  1.0000
  H   H29       1.0  0.54126  0.00388  0.21864  1.0000
  H   H30       1.0  0.96516  0.00225  0.04047  1.0000
  H   H31       1.0  0.77319  0.06002  0.59369  1.0000
  H   H32       1.0  0.87611  0.94092  0.71262  1.0000
  H   H33       1.0  0.73878  0.03062  0.01941  1.0000
  H   H34       1.0  0.84373  0.90550  0.63979  1.0000
  H   H35       1.0  0.82617  0.05811  0.72135  1.0000
  H   H36       1.0  0.00783  0.08507  0.57359  1.0000
  H   H37       1.0  0.82209  0.87725  0.55512  1.0000
  H   H38       1.0  0.71283  0.00151  0.95798  1.0000
  H   H39       1.0  0.71576  0.88651  0.91406  1.0000
  H   H40       1.0  0.74851  0.81934  0.65902  1.0000
  H   H41       1.0  0.78653  0.74270  0.66541  1.0000
  H   H42       1.0  0.67258  0.91970  0.76335  1.0000
  H   H43       1.0  0.65128  0.02945  0.97857  1.0000
  H   H44       1.0  0.60222  0.95737  0.70155  1.0000
  H   H45       1.0  0.58194  0.06723  0.91287  1.0000
  H   H46       1.0  0.13656  0.15884  0.01554  1.0000
  H   H47       1.0  0.02066  0.26433  0.56605  1.0000
  H   H48       1.0  0.12556  0.28051  0.97373  1.0000
  H   H49       1.0  0.18615  0.23746  0.55984  1.0000
  H   H50       1.0  0.26044  0.20849  0.48749  1.0000
  H   H51       1.0  0.32009  0.16650  0.90406  1.0000
  H   H52       1.0  0.41440  0.04245  0.67017  1.0000
  H   H53       1.0  0.37198  0.16574  0.82453  1.0000
  H   H54       1.0  0.48478  0.02366  0.68254  1.0000
  H   H55       1.0  0.44211  0.14660  0.84107  1.0000
  H   H56       1.0  0.88958  0.69009  0.92129  1.0000
  H   H57       1.0  0.92865  0.63336  0.87391  1.0000
  H   H58       1.0  0.97534  0.56014  0.82563  1.0000
  H   H59       1.0  0.94940  0.46075  0.64221  1.0000
  H   H60       1.0  0.53974  0.01174  0.71024  1.0000
  C   C1        1.0  0.96409  0.05333  0.13677  1.0000
  C   C2        1.0  0.94722  0.02921  0.11798  1.0000
  C   C3        1.0  0.90684  0.03967  0.19272  1.0000
  C   C4        1.0  0.88463  0.07468  0.29238  1.0000
  C   C5        1.0  0.90151  0.09884  0.31079  1.0000
  C   C6        1.0  0.94145  0.08917  0.23145  1.0000
  C   C7        1.0  0.95756  0.11690  0.24602  1.0000
  C   C8        1.0  0.88897  0.01497  0.16105  1.0000
  C   C9        1.0  0.99461  0.11163  0.15981  1.0000
  C   C10       1.0  0.84768  0.02895  0.18456  1.0000
  C   C11       1.0  0.93090  0.15126  0.35007  1.0000
  C   C12       1.0  0.91723  0.97617  0.08522  1.0000
  C   C13       1.0  0.82743  0.00725  0.15318  1.0000
  C   C14       1.0  0.78798  0.03059  0.10443  1.0000
  C   C15       1.0  0.84513  0.96336  0.16850  1.0000
  C   C16       1.0  0.76869  0.01112  0.06050  1.0000
  C   C17       1.0  0.82539  0.94417  0.12756  1.0000
  C   C18       1.0  0.78735  0.96713  0.06664  1.0000
  C   C19       1.0  0.76800  0.94551  0.01658  1.0000
  C   C20       1.0  0.78849  0.90160  0.01814  1.0000
  C   C21       1.0  0.73163  0.96106  0.46586  1.0000
  C   C22       1.0  0.77309  0.87384  0.48589  1.0000
  C   C23       1.0  0.71236  0.94037  0.42842  1.0000
  C   C24       1.0  0.73331  0.89636  0.44429  1.0000
  C   C25       1.0  0.79593  0.82761  0.49095  1.0000
  C   C26       1.0  0.83552  0.80654  0.39898  1.0000
  C   C27       1.0  0.85693  0.76319  0.40005  1.0000
  C   C28       1.0  0.84045  0.73868  0.49709  1.0000
  C   C29       1.0  0.67096  0.96374  0.37743  1.0000
  C   C30       1.0  0.65543  0.94378  0.30427  1.0000
  C   C31       1.0  0.64445  0.00648  0.40648  1.0000
  C   C32       1.0  0.61547  0.96489  0.26888  1.0000
  C   C33       1.0  0.60456  0.02794  0.36971  1.0000
  C   C34       1.0  0.58856  0.00744  0.30253  1.0000
  C   C35       1.0  0.07471  0.21071  0.04571  1.0000
  C   C36       1.0  0.11980  0.18603  0.50486  1.0000
  C   C37       1.0  0.05068  0.25442  0.04876  1.0000
  C   C38       1.0  0.13967  0.20984  0.47345  1.0000
  C   C39       1.0  0.06849  0.28001  0.02351  1.0000
  C   C40       1.0  0.11140  0.26099  0.99200  1.0000
  C   C41       1.0  0.18469  0.19039  0.43863  1.0000
  C   C42       1.0  0.20953  0.15279  0.35539  1.0000
  C   C43       1.0  0.24615  0.19307  0.44755  1.0000
  C   C44       1.0  0.25179  0.13566  0.31707  1.0000
  C   C45       1.0  0.27115  0.15587  0.36047  1.0000
  C   C46       1.0  0.31438  0.14204  0.32725  1.0000
  C   C47       1.0  0.34761  0.10837  0.24874  1.0000
  C   C48       1.0  0.34332  0.07902  0.17305  1.0000
  C   C49       1.0  0.86602  0.69371  0.48990  1.0000
  C   C50       1.0  0.85529  0.66793  0.09414  1.0000
  C   C51       1.0  0.81987  0.67642  0.21718  1.0000
  C   C52       1.0  0.88493  0.62332  0.06608  1.0000
  C   C53       1.0  0.87734  0.59166  0.15571  1.0000
  C   C54       1.0  0.90431  0.54962  0.12763  1.0000
  C   C55       1.0  0.94043  0.53691  0.00887  1.0000
  C   C56       1.0  0.97864  0.48638  0.45625  1.0000
  C   C57       1.0  0.51371  0.06492  0.29253  1.0000
  C   C58       1.0  0.51710  0.09631  0.35763  1.0000
  C   C59       1.0  0.01206  0.48023  0.32475  1.0000
  C   C60       1.0  0.96703  0.45917  0.05825  1.0000
  C   C61       1.0  0.54700  0.02572  0.26808  1.0000
  C   C62       1.0  0.95495  0.11693  0.74585  1.0000
  C   C63       1.0  0.88829  0.01309  0.66481  1.0000
  C   C64       1.0  0.99155  0.11156  0.65426  1.0000
  C   C65       1.0  0.84725  0.02615  0.68437  1.0000
  C   C66       1.0  0.92960  0.15056  0.85444  1.0000
  C   C67       1.0  0.91745  0.97379  0.59399  1.0000
  C   C68       1.0  0.82819  0.00346  0.65091  1.0000
  C   C69       1.0  0.78884  0.02598  0.60144  1.0000
  C   C70       1.0  0.84687  0.95947  0.66547  1.0000
  C   C71       1.0  0.77032  0.00566  0.55815  1.0000
  C   C72       1.0  0.82799  0.93942  0.62415  1.0000
  C   C73       1.0  0.78968  0.96164  0.56515  1.0000
  C   C74       1.0  0.77071  0.93946  0.51676  1.0000
  C   C75       1.0  0.79148  0.89551  0.52037  1.0000
  C   C76       1.0  0.72875  0.96758  0.96760  1.0000
  C   C77       1.0  0.76985  0.88025  0.98281  1.0000
  C   C78       1.0  0.70938  0.94722  0.92819  1.0000
  C   C79       1.0  0.73014  0.90324  0.94080  1.0000
  C   C80       1.0  0.77899  0.80357  0.58545  1.0000
  C   C81       1.0  0.80063  0.76008  0.58987  1.0000
  C   C82       1.0  0.66784  0.97097  0.87982  1.0000
  C   C83       1.0  0.65267  0.95162  0.80101  1.0000
  C   C84       1.0  0.64121  0.01333  0.91516  1.0000
  C   C85       1.0  0.61283  0.97300  0.76508  1.0000
  C   C86       1.0  0.60126  0.03497  0.87918  1.0000
  C   C87       1.0  0.58568  0.01506  0.80524  1.0000
  C   C88       1.0  0.07687  0.20529  0.54130  1.0000
  C   C89       1.0  0.11751  0.19271  0.01272  1.0000
  C   C90       1.0  0.05392  0.24903  0.54469  1.0000
  C   C91       1.0  0.13636  0.21743  0.98528  1.0000
  C   C92       1.0  0.07287  0.27358  0.51357  1.0000
  C   C93       1.0  0.11570  0.25350  0.47816  1.0000
  C   C94       1.0  0.20411  0.20975  0.48672  1.0000
  C   C95       1.0  0.31178  0.14786  0.84628  1.0000
  C   C96       1.0  0.34430  0.11457  0.76227  1.0000
  C   C97       1.0  0.33887  0.08621  0.68544  1.0000
  C   C98       1.0  0.38700  0.10493  0.75460  1.0000
  C   C99       1.0  0.42025  0.06541  0.70865  1.0000
  C   C100      1.0  0.39620  0.13415  0.79639  1.0000
  C   C101      1.0  0.46031  0.05484  0.71580  1.0000
  C   C102      1.0  0.43615  0.12357  0.80417  1.0000
  C   C103      1.0  0.46918  0.08325  0.76855  1.0000
  C   C104      1.0  0.86080  0.69992  0.00774  1.0000
  C   C105      1.0  0.86210  0.66108  0.57965  1.0000
  C   C106      1.0  0.82802  0.66854  0.70908  1.0000
  C   C107      1.0  0.92110  0.61055  0.94788  1.0000
  C   C108      1.0  0.94796  0.56864  0.91973  1.0000
  C   C109      1.0  0.97010  0.49272  0.97359  1.0000
  C   C110      1.0  0.51049  0.07181  0.79713  1.0000
  C   C111      1.0  0.51302  0.10312  0.86727  1.0000
  C   C112      1.0  0.00358  0.48666  0.84253  1.0000
  C   C113      1.0  0.97566  0.45289  0.54180  1.0000
  C   C114      1.0  0.54440  0.03326  0.76816  1.0000
  N   N1        1.0  0.90843  0.17844  0.44006  1.0000
  N   N2        1.0  0.94161  0.94224  0.53202  1.0000
  N   N3        1.0  0.34140  0.05433  0.10680  1.0000
  N   N4        1.0  0.79150  0.68261  0.32177  1.0000
  N   N5        1.0  0.03880  0.47618  0.21417  1.0000
  N   N6        1.0  0.51415  0.12938  0.92542  1.0000
  N   N7        1.0  0.90807  0.17730  0.94750  1.0000
  N   N8        1.0  0.94130  0.94544  0.01724  1.0000
  N   N9        1.0  0.33553  0.06265  0.61798  1.0000
  N   N10       1.0  0.80093  0.67358  0.81920  1.0000
  N   N11       1.0  0.03006  0.48307  0.73139  1.0000
  N   N12       1.0  0.51891  0.12250  0.41276  1.0000
  C   C115      1.0  0.95382  0.57360  0.39918  1.0000
  C   C116      1.0  0.95248  0.53792  0.47687  1.0000
  C  Sn1       1.0  0.91838  0.54177  0.59325  1.0000
  C  Sn2       1.0  0.88506  0.58212  0.63228  1.0000
  C   C117      1.0  0.88668  0.61761  0.55378  1.0000
  C   C118      1.0  0.92096  0.61340  0.43756  1.0000
  H   H61       1.0  0.98033  0.57035  0.30918  1.0000
  O  Te1       1.0  0.91755  0.50580  0.66975  1.0000
  O  Te2       1.0  0.85060  0.58686  0.74808  1.0000
  H   H62       1.0  0.92198  0.64103  0.37735  1.0000
  Mg  Mg1       1.0  0.86383  0.52843  0.81922  1.0000
  C   C119      1.0  0.99547  0.35350  0.15619  1.0000
  C   C120      1.0  0.03225  0.32953  0.05174  1.0000
  C  Sn3       1.0  0.01666  0.33352  0.94074  1.0000
  C  Sn4       1.0  0.99908  0.37763  0.93451  1.0000
  C   C121      1.0  0.99751  0.41662  0.03960  1.0000
  C   C122      1.0  0.97811  0.39700  0.15017  1.0000
  H   H63       1.0  0.98047  0.33832  0.24180  1.0000
  O  Te3       1.0  0.05338  0.30911  0.83723  1.0000
  O  Te4       1.0  0.01807  0.39771  0.82479  1.0000
  H   H64       1.0  0.94965  0.41556  0.23110  1.0000
  Mg  Mg2       1.0  0.06766  0.35093  0.70870  1.0000
  C   C123      1.0  0.84293  0.80201  0.90478  1.0000
  C   C124      1.0  0.80198  0.82946  0.96535  1.0000
  C  Sn5       1.0  0.81206  0.82926  0.05747  1.0000
  C  Sn6       1.0  0.82830  0.78545  0.08939  1.0000
  C   C125      1.0  0.86932  0.75824  0.02835  1.0000
  C   C126      1.0  0.85899  0.75879  0.93626  1.0000
  H   H65       1.0  0.86220  0.81426  0.83361  1.0000
  O  Te5       1.0  0.77121  0.85713  0.11700  1.0000
  O  Te6       1.0  0.80386  0.76911  0.18116  1.0000
  H   H66       1.0  0.89070  0.73752  0.88948  1.0000
  Mg  Mg3       1.0  0.75009  0.81974  0.23581  1.0000
  C   C127      1.0  0.04843  0.37918  0.39560  1.0000
  C   C128      1.0  0.01039  0.40420  0.49020  1.0000
  C  Sn7       1.0  0.99112  0.38588  0.61001  1.0000
  C  Sn8       1.0  0.01038  0.34167  0.63534  1.0000
  C   C129      1.0  0.04845  0.31691  0.54015  1.0000
  C   C130      1.0  0.06745  0.33557  0.42055  1.0000
  H   H67       1.0  0.06314  0.39361  0.30313  1.0000
  O  Te7       1.0  0.95311  0.41135  0.70339  1.0000
  O  Te8       1.0  0.99182  0.32254  0.75430  1.0000
  H   H68       1.0  0.09692  0.31619  0.34741  1.0000
  Mg  Mg4       1.0  0.94002  0.37057  0.85057  1.0000
  C   C131      1.0  0.42731  0.12228  0.33609  1.0000
  C   C132      1.0  0.46396  0.08609  0.28712  1.0000
  C  Sn9       1.0  0.46379  0.05595  0.20373  1.0000
  C  Sn10      1.0  0.42619  0.06226  0.16885  1.0000
  C   C133      1.0  0.38970  0.09859  0.21826  1.0000
  C   C134      1.0  0.39022  0.12854  0.30169  1.0000
  H   H69       1.0  0.42771  0.14546  0.40056  1.0000
  O  Te9       1.0  0.50067  0.01996  0.15574  1.0000
  O  Te10      1.0  0.42514  0.03266  0.08563  1.0000
  H   H70       1.0  0.36184  0.15657  0.33949  1.0000
  Mg  Mg5       1.0  0.98761  0.98869  0.04548  1.0000
  C   C135      1.0  0.07128  0.13317  0.49475  1.0000
  C   C136      1.0  0.05984  0.17201  0.54975  1.0000
  C  Sn11      1.0  0.02355  0.19296  0.66182  1.0000
  C  Sn12      1.0  0.99831  0.17461  0.71973  1.0000
  C   C137      1.0  0.01004  0.13573  0.66406  1.0000
  C   C138      1.0  0.04641  0.11504  0.55186  1.0000
  H   H71       1.0  0.09943  0.11715  0.40802  1.0000
  O  Te11      1.0  0.01257  0.23175  0.71545  1.0000
  O  Te12      1.0  0.96189  0.19486  0.83181  1.0000
  H   H72       1.0  0.05527  0.08496  0.50939  1.0000
  Mg  Mg6       1.0  0.96005  0.24716  0.86862  1.0000
  C   C139      1.0  0.07268  0.13613  0.00260  1.0000
  C   C140      1.0  0.05954  0.17582  0.05371  1.0000
  C  Sn13      1.0  0.02262  0.19646  0.16270  1.0000
  C  Sn14      1.0  0.99847  0.17691  0.22143  1.0000
  C   C141      1.0  0.01189  0.13719  0.16966  1.0000
  C   C142      1.0  0.04888  0.11682  0.06053  1.0000
  H   H73       1.0  0.06608  0.10506  0.91824  1.0000
  O  Te13      1.0  0.00995  0.23611  0.21246  1.0000
  O  Te14      1.0  0.96145  0.19683  0.33049  1.0000
  H   H74       1.0  0.05905  0.08608  0.02107  1.0000
  Mg  Mg7       1.0  0.95720  0.25063  0.36251  1.0000
  C   C143      1.0  0.23930  0.14220  0.83175  1.0000
  C   C144      1.0  0.26404  0.15730  0.86121  1.0000
  C  Sn15      1.0  0.24688  0.19359  0.94868  1.0000
  C  Sn16      1.0  0.23938  0.23038  0.00763  1.0000
  C   C145      1.0  0.17967  0.19971  0.97761  1.0000
  C   C146      1.0  0.19716  0.16337  0.88990  1.0000
  H   H75       1.0  0.25283  0.11407  0.76397  1.0000
  O  Te15      1.0  0.27204  0.20825  0.97697  1.0000
  O  Te16      1.0  0.22143  0.26671  0.09544  1.0000
  H   H76       1.0  0.17800  0.15167  0.86721  1.0000
  Mg  Mg8       1.0  0.26848  0.27438  0.10275  1.0000
  C   C147      1.0  0.88848  0.09926  0.80656  1.0000
  C   C148      1.0  0.92865  0.09180  0.75955  1.0000
  C  Sn17      1.0  0.95824  0.05656  0.67134  1.0000
  C  Sn18      1.0  0.94730  0.02834  0.62956  1.0000
  C   C149      1.0  0.90702  0.03610  0.67705  1.0000
  C   C150      1.0  0.87766  0.07144  0.76534  1.0000
  H   H77       1.0  0.86576  0.12662  0.87478  1.0000
  O  Te17      1.0  0.99824  0.04957  0.62540  1.0000
  O  Te18      1.0  0.97626  0.99288  0.54142  1.0000
  H   H78       1.0  0.84656  0.07723  0.80162  1.0000
  Mg  Mg9       1.0  0.02679  0.99688  0.50656  1.0000
