data_image0
_chemical_formula_structural       H40C112N16C2Sn2C2HTe2HMgC2Sn2C2HTe2HMgC2Sn2C2HTe2HMgC2Sn2C2HTe2HMgC2Sn2C2HTe2HMgC2Sn2C2HTe2HMgC2Sn2C2HTe2HMgC2Sn2C2HTe2HMgC2Sn2C2HTe2HMgC2Sn2C2HTe2HMgC2Sn2C2HTe2HMgC2Sn2C2HTe2HMgC2Sn2C2HTe2HMgC2Sn2C2HTe2HMgC2Sn2C2HTe2HMgC2Sn2C2HTe2HMgC2Sn2C2HTe2HMgC2Sn2C2HTe2HMgC2Sn2C2HTe2HMgC2Sn2C2HTe2HMgC2Sn2C2HTe2HMgC2Sn2C2HTe2HMgC2Sn2C2HTe2HMgC2Sn2C2HTe2HMg
_chemical_formula_sum              "H88 C208 N16 Sn48 Te48 Mg24"
_cell_length_a       35.1159
_cell_length_b       34.5461
_cell_length_c       7.9667
_cell_angle_alpha    91.8159
_cell_angle_beta     100.583
_cell_angle_gamma    89.9488

_symmetry_space_group_name_H-M    'P1'
_space_group_IT_number       1

loop_
  _space_group_symop_operation_xyz
  'x, y, z'

loop_
  _atom_site_type_symbol
  _atom_site_label
  _atom_site_symmetry_multiplicity
  _atom_site_fract_x
  _atom_site_fract_y
  _atom_site_fract_z
  _atom_site_occupancy
  H   H1        1.0  0.69660  0.34067  0.28924  1.0000
  H   H2        1.0  0.41994  0.53637  0.40992  1.0000
  H   H3        1.0  0.19680  0.84127  0.29206  1.0000
  H   H4        1.0  0.92107  0.03677  0.42914  1.0000
  H   H5        1.0  0.31035  0.33770  0.19607  1.0000
  H   H6        1.0  0.58555  0.53582  0.08516  1.0000
  H   H7        1.0  0.80868  0.84007  0.20700  1.0000
  H   H8        1.0  0.08629  0.03565  0.10187  1.0000
  H   H9        1.0  0.30827  0.65966  0.20943  1.0000
  H   H10       1.0  0.58600  0.46478  0.08493  1.0000
  H   H11       1.0  0.80954  0.16016  0.21526  1.0000
  H   H12       1.0  0.08617  0.96479  0.09741  1.0000
  H   H13       1.0  0.69555  0.66175  0.28785  1.0000
  H   H14       1.0  0.42044  0.46553  0.40844  1.0000
  H   H15       1.0  0.19697  0.16118  0.30062  1.0000
  H   H16       1.0  0.92040  0.96575  0.41975  1.0000
  H   H17       1.0  0.50150  0.63416  0.24683  1.0000
  H   H18       1.0  0.00336  0.13426  0.26954  1.0000
  H   H19       1.0  0.50346  0.36723  0.23717  1.0000
  H   H20       1.0  0.00245  0.86728  0.24479  1.0000
  H   H21       1.0  0.69123  0.34048  0.78583  1.0000
  H   H22       1.0  0.41341  0.53581  0.90200  1.0000
  H   H23       1.0  0.19180  0.84087  0.79665  1.0000
  H   H24       1.0  0.91340  0.03510  0.92228  1.0000
  H   H25       1.0  0.30479  0.33548  0.68979  1.0000
  H   H26       1.0  0.57948  0.53466  0.58253  1.0000
  H   H27       1.0  0.80425  0.83799  0.70095  1.0000
  H   H28       1.0  0.07978  0.03553  0.60442  1.0000
  H   H29       1.0  0.30385  0.66176  0.69465  1.0000
  H   H30       1.0  0.57965  0.46369  0.58010  1.0000
  H   H31       1.0  0.80301  0.16015  0.70493  1.0000
  H   H32       1.0  0.08036  0.96484  0.59999  1.0000
  H   H33       1.0  0.69102  0.66036  0.78370  1.0000
  H   H34       1.0  0.41344  0.46482  0.89923  1.0000
  H   H35       1.0  0.19067  0.15964  0.79623  1.0000
  H   H36       1.0  0.91400  0.96423  0.91827  1.0000
  H   H37       1.0  0.49678  0.63317  0.74885  1.0000
  H   H38       1.0  0.99630  0.13342  0.77213  1.0000
  H   H39       1.0  0.49760  0.36636  0.73984  1.0000
  H   H40       1.0  0.99805  0.86645  0.75213  1.0000
  C   C1        1.0  0.03545  0.91812  0.21749  1.0000
  C   C2        1.0  0.03477  0.95921  0.20995  1.0000
  C   C3        1.0  0.06408  0.98062  0.14982  1.0000
  C   C4        1.0  0.17261  0.82729  0.20649  1.0000
  C   C5        1.0  0.67941  0.70984  0.14115  1.0000
  C   C6        1.0  0.65349  0.27124  0.00923  1.0000
  C   C7        1.0  0.53570  0.41824  0.20553  1.0000
  C   C8        1.0  0.53446  0.45927  0.19531  1.0000
  C   C9        1.0  0.56363  0.48076  0.13480  1.0000
  C   C10       1.0  0.67289  0.32711  0.19922  1.0000
  C   C11       1.0  0.18026  0.20925  0.15388  1.0000
  C   C12       1.0  0.15202  0.77044  0.02381  1.0000
  C   C13       1.0  0.96992  0.91832  0.28522  1.0000
  C   C14       1.0  0.97101  0.95949  0.30106  1.0000
  C   C15       1.0  0.94222  0.98131  0.36752  1.0000
  C   C16       1.0  0.83286  0.82739  0.29307  1.0000
  C   C17       1.0  0.32415  0.70852  0.36652  1.0000
  C   C18       1.0  0.35579  0.27127  0.46627  1.0000
  C   C19       1.0  0.47031  0.41803  0.27475  1.0000
  C   C20       1.0  0.47080  0.45924  0.28725  1.0000
  C   C21       1.0  0.44184  0.48098  0.35303  1.0000
  C   C22       1.0  0.33468  0.32537  0.28253  1.0000
  C   C23       1.0  0.82423  0.20907  0.37319  1.0000
  C   C24       1.0  0.85329  0.77312  0.47619  1.0000
  C   C25       1.0  0.97071  0.08348  0.30181  1.0000
  C   C26       1.0  0.97144  0.04236  0.30947  1.0000
  C   C27       1.0  0.94253  0.02093  0.37233  1.0000
  C   C28       1.0  0.83288  0.17356  0.30795  1.0000
  C   C29       1.0  0.32703  0.29081  0.34995  1.0000
  C   C30       1.0  0.35215  0.72885  0.48969  1.0000
  C   C31       1.0  0.46939  0.58311  0.28122  1.0000
  C   C32       1.0  0.47036  0.54206  0.29023  1.0000
  C   C33       1.0  0.44164  0.52058  0.35439  1.0000
  C   C34       1.0  0.33218  0.67308  0.29868  1.0000
  C   C35       1.0  0.82497  0.79255  0.35759  1.0000
  C   C36       1.0  0.85128  0.22910  0.50159  1.0000
  C   C37       1.0  0.03586  0.08321  0.22947  1.0000
  C   C38       1.0  0.03492  0.04204  0.21555  1.0000
  C   C39       1.0  0.06414  0.02020  0.15224  1.0000
  C   C40       1.0  0.17262  0.17406  0.21627  1.0000
  C   C41       1.0  0.68127  0.29154  0.13355  1.0000
  C   C42       1.0  0.65109  0.72974  0.02435  1.0000
  C   C43       1.0  0.53447  0.58341  0.20926  1.0000
  C   C44       1.0  0.53388  0.54218  0.19677  1.0000
  C   C45       1.0  0.56337  0.52036  0.13535  1.0000
  C   C46       1.0  0.67133  0.67485  0.20361  1.0000
  C   C47       1.0  0.18025  0.79114  0.14451  1.0000
  C   C48       1.0  0.15159  0.22923  0.03890  1.0000
  C   C49       1.0  0.50235  0.47993  0.24052  1.0000
  C   C50       1.0  0.50312  0.39874  0.23879  1.0000
  C   C51       1.0  0.00290  0.98001  0.25664  1.0000
  C   C52       1.0  0.00257  0.89880  0.24887  1.0000
  C   C53       1.0  0.50216  0.52144  0.24190  1.0000
  C   C54       1.0  0.50170  0.60266  0.24543  1.0000
  C   C55       1.0  0.00305  0.02152  0.26025  1.0000
  C   C56       1.0  0.00328  0.10274  0.26667  1.0000
  C   C57       1.0  0.03055  0.91762  0.72244  1.0000
  C   C58       1.0  0.02955  0.95872  0.71628  1.0000
  C   C59       1.0  0.05848  0.98040  0.65501  1.0000
  C   C60       1.0  0.16804  0.82787  0.70505  1.0000
  C   C61       1.0  0.67421  0.70796  0.63471  1.0000
  C   C62       1.0  0.64849  0.27253  0.49602  1.0000
  C   C63       1.0  0.53006  0.41721  0.70747  1.0000
  C   C64       1.0  0.52915  0.45826  0.69875  1.0000
  C   C65       1.0  0.55800  0.47959  0.63526  1.0000
  C   C66       1.0  0.66772  0.32760  0.69237  1.0000
  C   C67       1.0  0.17442  0.20686  0.64351  1.0000
  C   C68       1.0  0.14808  0.77187  0.51503  1.0000
  C   C69       1.0  0.96514  0.91718  0.79138  1.0000
  C   C70       1.0  0.96575  0.95834  0.80672  1.0000
  C   C71       1.0  0.93623  0.97991  0.86921  1.0000
  C   C72       1.0  0.82821  0.82531  0.78836  1.0000
  C   C73       1.0  0.31965  0.70968  0.85776  1.0000
  C   C74       1.0  0.35025  0.26842  0.95593  1.0000
  C   C75       1.0  0.46460  0.41717  0.77612  1.0000
  C   C76       1.0  0.46529  0.45838  0.78908  1.0000
  C   C77       1.0  0.43575  0.48026  0.84979  1.0000
  C   C78       1.0  0.32904  0.32311  0.77653  1.0000
  C   C79       1.0  0.81841  0.20923  0.86131  1.0000
  C   C80       1.0  0.84824  0.77016  0.96730  1.0000
  C   C81       1.0  0.96415  0.08235  0.80448  1.0000
  C   C82       1.0  0.96529  0.04126  0.81350  1.0000
  C   C83       1.0  0.93597  0.01952  0.87199  1.0000
  C   C84       1.0  0.82640  0.17330  0.79816  1.0000
  C   C85       1.0  0.32140  0.28821  0.84135  1.0000
  C   C86       1.0  0.34750  0.72950  0.98336  1.0000
  C   C87       1.0  0.46425  0.58241  0.78233  1.0000
  C   C88       1.0  0.46517  0.54133  0.79251  1.0000
  C   C89       1.0  0.43572  0.51988  0.85145  1.0000
  C   C90       1.0  0.32750  0.67438  0.78814  1.0000
  C   C91       1.0  0.82016  0.79020  0.84992  1.0000
  C   C92       1.0  0.84564  0.22936  0.98850  1.0000
  C   C93       1.0  0.02962  0.08268  0.73582  1.0000
  C   C94       1.0  0.02909  0.04150  0.72311  1.0000
  C   C95       1.0  0.05821  0.01996  0.65796  1.0000
  C   C96       1.0  0.16655  0.17219  0.70938  1.0000
  C   C97       1.0  0.67606  0.29257  0.62209  1.0000
  C   C98       1.0  0.64554  0.72775  0.51922  1.0000
  C   C99       1.0  0.52975  0.58218  0.71409  1.0000
  C   C100      1.0  0.52902  0.54099  0.70206  1.0000
  C   C101      1.0  0.55794  0.51916  0.63675  1.0000
  C   C102      1.0  0.66661  0.67297  0.69875  1.0000
  C   C103      1.0  0.17595  0.79232  0.63835  1.0000
  C   C104      1.0  0.14566  0.22661  0.52822  1.0000
  C   C105      1.0  0.49733  0.47899  0.74632  1.0000
  C   C106      1.0  0.49748  0.39785  0.74125  1.0000
  C   C107      1.0  0.99760  0.97921  0.76403  1.0000
  C   C108      1.0  0.99798  0.89797  0.75524  1.0000
  C   C109      1.0  0.49725  0.52049  0.74773  1.0000
  C   C110      1.0  0.49698  0.60167  0.74901  1.0000
  C   C111      1.0  0.99743  0.02070  0.76791  1.0000
  C   C112      1.0  0.99674  0.10192  0.77127  1.0000
  N   N1        1.0  0.63181  0.25442  0.90256  1.0000
  N   N2        1.0  0.13022  0.75287  0.92041  1.0000
  N   N3        1.0  0.37820  0.25436  0.56419  1.0000
  N   N4        1.0  0.87525  0.75668  0.57777  1.0000
  N   N5        1.0  0.37373  0.74614  0.59510  1.0000
  N   N6        1.0  0.87219  0.24584  0.61140  1.0000
  N   N7        1.0  0.62909  0.74680  0.92537  1.0000
  N   N8        1.0  0.12962  0.24644  0.94034  1.0000
  N   N9        1.0  0.62719  0.25527  0.38947  1.0000
  N   N10       1.0  0.12656  0.75444  0.40996  1.0000
  N   N11       1.0  0.37276  0.25153  0.05343  1.0000
  N   N12       1.0  0.86983  0.75304  0.06777  1.0000
  N   N13       1.0  0.36893  0.74631  0.09105  1.0000
  N   N14       1.0  0.86645  0.24621  0.09823  1.0000
  N   N15       1.0  0.62327  0.74446  0.41998  1.0000
  N   N16       1.0  0.12300  0.24324  0.43031  1.0000
  C   C113      1.0  0.91614  0.83890  0.40038  1.0000
  C   C114      1.0  0.87714  0.84679  0.33863  1.0000
  C  Sn1       1.0  0.86665  0.88004  0.24612  1.0000
  C  Sn2       1.0  0.89583  0.90582  0.21501  1.0000
  C   C115      1.0  0.93478  0.89766  0.27723  1.0000
  C   C116      1.0  0.94494  0.86430  0.36970  1.0000
  H   H41       1.0  0.92401  0.81308  0.47184  1.0000
  O  Te1       1.0  0.82754  0.88749  0.18541  1.0000
  O  Te2       1.0  0.88616  0.93927  0.12287  1.0000
  H   H42       1.0  0.97515  0.85819  0.41739  1.0000
  Mg  Mg1       1.0  0.82889  0.93683  0.06653  1.0000
  C   C117      1.0  0.75896  0.71370  0.32519  1.0000
  C   C118      1.0  0.72373  0.72573  0.23007  1.0000
  C  Sn3       1.0  0.72046  0.76246  0.16039  1.0000
  C  Sn4       1.0  0.75314  0.78754  0.18660  1.0000
  C   C119      1.0  0.78827  0.77522  0.28185  1.0000
  C   C120      1.0  0.79121  0.73841  0.35105  1.0000
  H   H43       1.0  0.76125  0.68522  0.37865  1.0000
  O  Te3       1.0  0.68504  0.77403  0.06574  1.0000
  O  Te4       1.0  0.75069  0.82439  0.11835  1.0000
  H   H44       1.0  0.81851  0.72909  0.42459  1.0000
  Mg  Mg2       1.0  0.73780  0.83425  0.99867  1.0000
  C   C121      1.0  0.38831  0.40442  0.19232  1.0000
  C   C122      1.0  0.42633  0.40036  0.27999  1.0000
  C  Sn5       1.0  0.43697  0.36769  0.37634  1.0000
  C  Sn6       1.0  0.40897  0.33857  0.38481  1.0000
  C   C123      1.0  0.37102  0.34289  0.29654  1.0000
  C   C124      1.0  0.36068  0.37571  0.20055  1.0000
  H   H45       1.0  0.38031  0.42980  0.11797  1.0000
  O  Te5       1.0  0.47507  0.36410  0.46320  1.0000
  O  Te6       1.0  0.41882  0.30561  0.48011  1.0000
  H   H46       1.0  0.33125  0.37883  0.13260  1.0000
  Mg  Mg3       1.0  0.47444  0.31390  0.57614  1.0000
  C   C125      1.0  0.26073  0.21250  0.32513  1.0000
  C   C126      1.0  0.22491  0.22505  0.23750  1.0000
  C  Sn7       1.0  0.22112  0.26219  0.17210  1.0000
  C  Sn8       1.0  0.25385  0.28716  0.19502  1.0000
  C   C127      1.0  0.28956  0.27432  0.28278  1.0000
  C   C128      1.0  0.29303  0.23711  0.34774  1.0000
  H   H47       1.0  0.26342  0.18370  0.37532  1.0000
  O  Te7       1.0  0.18512  0.27427  0.08492  1.0000
  O  Te8       1.0  0.25088  0.32442  0.13092  1.0000
  H   H48       1.0  0.32077  0.22739  0.41549  1.0000
  Mg  Mg4       1.0  0.19565  0.32764  0.02121  1.0000
  C   C129      1.0  0.11743  0.90598  0.30469  1.0000
  C   C130      1.0  0.07973  0.90106  0.21295  1.0000
  C  Sn9       1.0  0.06988  0.86808  0.10792  1.0000
  C  Sn10      1.0  0.09837  0.83954  0.09478  1.0000
  C   C131      1.0  0.13599  0.84473  0.18718  1.0000
  C   C132      1.0  0.14554  0.87785  0.29186  1.0000
  H   H49       1.0  0.12482  0.93160  0.38576  1.0000
  O  Te9       1.0  0.03208  0.86362  0.01709  1.0000
  O  Te10      1.0  0.13096  0.81356  0.99080  1.0000
  H   H50       1.0  0.17472  0.88164  0.36296  1.0000
  Mg  Mg5       1.0  0.07549  0.82061  0.89220  1.0000
  C   C133      1.0  0.27700  0.77664  0.36925  1.0000
  C   C134      1.0  0.28571  0.73794  0.33688  1.0000
  C  Sn11      1.0  0.25937  0.71469  0.22468  1.0000
  C  Sn12      1.0  0.22367  0.73056  0.14352  1.0000
  C   C135      1.0  0.21524  0.76931  0.17666  1.0000
  C   C136      1.0  0.24181  0.79231  0.28920  1.0000
  H   H51       1.0  0.29756  0.79444  0.45625  1.0000
  O  Te11      1.0  0.26852  0.67609  0.19383  1.0000
  O  Te12      1.0  0.19683  0.70797  0.03076  1.0000
  H   H52       1.0  0.23506  0.82227  0.31415  1.0000
  Mg  Mg6       1.0  0.22252  0.65695  0.02998  1.0000
  C   C137      1.0  0.57273  0.35171  0.07773  1.0000
  C   C138      1.0  0.56890  0.38588  0.17176  1.0000
  C  Sn13      1.0  0.60148  0.40366  0.27125  1.0000
  C  Sn14      1.0  0.63855  0.38686  0.27640  1.0000
  C   C139      1.0  0.64207  0.35269  0.18177  1.0000
  C   C140      1.0  0.60928  0.33514  0.08269  1.0000
  H   H53       1.0  0.54735  0.33814  0.00099  1.0000
  O  Te13      1.0  0.59714  0.43778  0.36446  1.0000
  O  Te14      1.0  0.67160  0.40403  0.37473  1.0000
  H   H54       1.0  0.61225  0.30870  0.00981  1.0000
  Mg  Mg7       1.0  0.65083  0.45031  0.47946  1.0000
  C   C141      1.0  0.74631  0.21211  0.17315  1.0000
  C   C142      1.0  0.78096  0.22467  0.27611  1.0000
  C  Sn15      1.0  0.78427  0.26232  0.34674  1.0000
  C  Sn16      1.0  0.75225  0.28781  0.31350  1.0000
  C   C143      1.0  0.71770  0.27496  0.21043  1.0000
  C   C144      1.0  0.71471  0.23723  0.14035  1.0000
  H   H55       1.0  0.74399  0.18291  0.11899  1.0000
  O  Te15      1.0  0.81910  0.27440  0.44927  1.0000
  O  Te16      1.0  0.75476  0.32558  0.38253  1.0000
  H   H56       1.0  0.68787  0.22750  0.06073  1.0000
  Mg  Mg8       1.0  0.80835  0.32859  0.51424  1.0000
  C   C145      1.0  0.13552  0.10850  0.31010  1.0000
  C   C146      1.0  0.13906  0.14137  0.21619  1.0000
  C  Sn17      1.0  0.10623  0.15797  0.11949  1.0000
  C  Sn18      1.0  0.06921  0.14130  0.11705  1.0000
  C   C147      1.0  0.06598  0.10843  0.21153  1.0000
  C   C148      1.0  0.09902  0.09204  0.30782  1.0000
  H   H57       1.0  0.16108  0.09583  0.38468  1.0000
  O  Te17      1.0  0.11028  0.19080  0.02636  1.0000
  O  Te18      1.0  0.03592  0.15731  0.02154  1.0000
  H   H58       1.0  0.09627  0.06660  0.38060  1.0000
  Mg  Mg9       1.0  0.09800  0.20933  0.91575  1.0000
  C   C149      1.0  0.61674  0.59588  0.28685  1.0000
  C   C150      1.0  0.57779  0.60344  0.22238  1.0000
  C  Sn19      1.0  0.56740  0.63630  0.12698  1.0000
  C  Sn20      1.0  0.59661  0.66202  0.09573  1.0000
  C   C151      1.0  0.63550  0.65418  0.16069  1.0000
  C   C152      1.0  0.64557  0.62122  0.25603  1.0000
  H   H59       1.0  0.62454  0.57036  0.36054  1.0000
  O  Te19      1.0  0.52834  0.64343  0.06356  1.0000
  O  Te20      1.0  0.58704  0.69507  0.00073  1.0000
  H   H60       1.0  0.67574  0.61536  0.30584  1.0000
  Mg  Mg10      1.0  0.57146  0.69957  0.94135  1.0000
  C   C153      1.0  0.93351  0.15086  0.42523  1.0000
  C   C154      1.0  0.93695  0.11409  0.35138  1.0000
  C  Sn21      1.0  0.90453  0.09555  0.25418  1.0000
  C  Sn22      1.0  0.86803  0.11426  0.23066  1.0000
  C   C155      1.0  0.86490  0.15106  0.30497  1.0000
  C   C156      1.0  0.89753  0.16934  0.40204  1.0000
  H   H61       1.0  0.95876  0.16502  0.50026  1.0000
  O  Te21      1.0  0.90847  0.05881  0.18135  1.0000
  O  Te22      1.0  0.83516  0.09639  0.13405  1.0000
  H   H62       1.0  0.89486  0.19782  0.45911  1.0000
  Mg  Mg11      1.0  0.85522  0.04629  0.06059  1.0000
  C   C157      1.0  0.41486  0.66129  0.41923  1.0000
  C   C158      1.0  0.37690  0.65569  0.33142  1.0000
  C  Sn23      1.0  0.36699  0.62230  0.22914  1.0000
  C  Sn24      1.0  0.39567  0.59405  0.21480  1.0000
  C   C159      1.0  0.43355  0.59992  0.30326  1.0000
  C   C160      1.0  0.44316  0.63343  0.40521  1.0000
  H   H63       1.0  0.42229  0.68721  0.49818  1.0000
  O  Te23      1.0  0.32893  0.61717  0.14223  1.0000
  O  Te24      1.0  0.38654  0.56042  0.11352  1.0000
  H   H64       1.0  0.47254  0.63775  0.47327  1.0000
  Mg  Mg12      1.0  0.33069  0.56657  0.01992  1.0000
  C   C161      1.0  0.88321  0.90363  0.70117  1.0000
  C   C162      1.0  0.92104  0.89931  0.79052  1.0000
  C  Sn25      1.0  0.93106  0.86685  0.88915  1.0000
  C  Sn26      1.0  0.90261  0.83823  0.89822  1.0000
  C   C163      1.0  0.86485  0.84282  0.80826  1.0000
  C   C164      1.0  0.85514  0.87542  0.70999  1.0000
  H   H65       1.0  0.87570  0.92884  0.62506  1.0000
  O  Te25      1.0  0.96899  0.86299  0.97766  1.0000
  O  Te26      1.0  0.91183  0.80550  0.99579  1.0000
  H   H66       1.0  0.82585  0.87874  0.64074  1.0000
  Mg  Mg13      1.0  0.92578  0.80600  0.09346  1.0000
  C   C165      1.0  0.75533  0.71017  0.79702  1.0000
  C   C166      1.0  0.71914  0.72311  0.71515  1.0000
  C  Sn27      1.0  0.71441  0.76141  0.66422  1.0000
  C  Sn28      1.0  0.74657  0.78717  0.69597  1.0000
  C   C167      1.0  0.78265  0.77394  0.77785  1.0000
  C   C168      1.0  0.78706  0.73555  0.82833  1.0000
  H   H67       1.0  0.75874  0.68047  0.83600  1.0000
  O  Te27      1.0  0.67806  0.77387  0.58263  1.0000
  O  Te28      1.0  0.74265  0.82560  0.64636  1.0000
  H   H68       1.0  0.81509  0.72554  0.89161  1.0000
  Mg  Mg14      1.0  0.68726  0.82891  0.53930  1.0000
  C   C169      1.0  0.36500  0.39056  0.69394  1.0000
  C   C170      1.0  0.36293  0.35426  0.76439  1.0000
  C  Sn29      1.0  0.39597  0.33791  0.86054  1.0000
  C  Sn30      1.0  0.43171  0.35835  0.88646  1.0000
  C   C171      1.0  0.43347  0.39466  0.81553  1.0000
  C   C172      1.0  0.40023  0.41075  0.71949  1.0000
  H   H69       1.0  0.33929  0.40303  0.61970  1.0000
  O  Te29      1.0  0.39339  0.30160  0.92997  1.0000
  O  Te30      1.0  0.46517  0.34268  0.98207  1.0000
  H   H70       1.0  0.40184  0.43887  0.66505  1.0000
  Mg  Mg15      1.0  0.40534  0.28507  0.05062  1.0000
  C   C173      1.0  0.24076  0.28537  0.67289  1.0000
  C   C174      1.0  0.27521  0.27402  0.77665  1.0000
  C  Sn31      1.0  0.27927  0.23630  0.83553  1.0000
  C  Sn32      1.0  0.24823  0.20951  0.78943  1.0000
  C   C175      1.0  0.21389  0.22114  0.68547  1.0000
  C   C176      1.0  0.21013  0.25896  0.62731  1.0000
  H   H71       1.0  0.23785  0.31462  0.62780  1.0000
  O  Te31      1.0  0.31389  0.22544  0.93914  1.0000
  O  Te32      1.0  0.25152  0.17163  0.84644  1.0000
  H   H72       1.0  0.18346  0.26773  0.54689  1.0000
  Mg  Mg16      1.0  0.30444  0.17059  0.98493  1.0000
  C   C177      1.0  0.08544  0.83955  0.58428  1.0000
  C   C178      1.0  0.12418  0.84781  0.65367  1.0000
  C  Sn33      1.0  0.13394  0.88085  0.75844  1.0000
  C  Sn34      1.0  0.10428  0.90602  0.79421  1.0000
  C   C179      1.0  0.06560  0.89748  0.72427  1.0000
  C   C180      1.0  0.05617  0.86435  0.61955  1.0000
  H   H73       1.0  0.07813  0.81390  0.50333  1.0000
  O  Te33      1.0  0.17280  0.88869  0.82668  1.0000
  O  Te34      1.0  0.11322  0.93923  0.89857  1.0000
  H   H74       1.0  0.02617  0.85794  0.56593  1.0000
  Mg  Mg17      1.0  0.17041  0.93750  0.96156  1.0000
  C   C181      1.0  0.22168  0.72322  0.64864  1.0000
  C   C182      1.0  0.21250  0.76148  0.68677  1.0000
  C  Sn35      1.0  0.24047  0.78590  0.78355  1.0000
  C  Sn36      1.0  0.27829  0.77166  0.84305  1.0000
  C   C183      1.0  0.28719  0.73334  0.80412  1.0000
  C   C184      1.0  0.25898  0.70916  0.70722  1.0000
  H   H75       1.0  0.19986  0.70452  0.57359  1.0000
  O  Te35      1.0  0.23081  0.82404  0.82054  1.0000
  O  Te36      1.0  0.30679  0.79544  0.93998  1.0000
  H   H76       1.0  0.26610  0.67955  0.67762  1.0000
  Mg  Mg18      1.0  0.27961  0.84524  0.95708  1.0000
  C   C185      1.0  0.63002  0.39473  0.78199  1.0000
  C   C186      1.0  0.63326  0.35792  0.70817  1.0000
  C  Sn37      1.0  0.60074  0.33953  0.61104  1.0000
  C  Sn38      1.0  0.56434  0.35843  0.58755  1.0000
  C   C187      1.0  0.56141  0.39527  0.66184  1.0000
  C   C188      1.0  0.59414  0.41340  0.75884  1.0000
  H   H77       1.0  0.65535  0.40877  0.85697  1.0000
  O  Te37      1.0  0.60448  0.30275  0.53824  1.0000
  O  Te38      1.0  0.53137  0.34073  0.49102  1.0000
  H   H78       1.0  0.59163  0.44191  0.81588  1.0000
  Mg  Mg19      1.0  0.55116  0.29049  0.41757  1.0000
  C   C189      1.0  0.77374  0.27931  0.83703  1.0000
  C   C190      1.0  0.78106  0.23974  0.82032  1.0000
  C  Sn39      1.0  0.75353  0.21539  0.72045  1.0000
  C  Sn40      1.0  0.71803  0.23104  0.63586  1.0000
  C   C191      1.0  0.71099  0.27067  0.65329  1.0000
  C   C192      1.0  0.73874  0.29477  0.75358  1.0000
  H   H79       1.0  0.79521  0.29797  0.91455  1.0000
  O  Te39      1.0  0.76131  0.17593  0.70518  1.0000
  O  Te40      1.0  0.69002  0.20736  0.53519  1.0000
  H   H80       1.0  0.73307  0.32541  0.76640  1.0000
  Mg  Mg20      1.0  0.71405  0.15543  0.55374  1.0000
  C   C193      1.0  0.08344  0.15939  0.59639  1.0000
  C   C194      1.0  0.12181  0.15461  0.67854  1.0000
  C  Sn41      1.0  0.13220  0.12260  0.77960  1.0000
  C  Sn42      1.0  0.10360  0.09491  0.79849  1.0000
  C   C195      1.0  0.06531  0.09994  0.71568  1.0000
  C   C196      1.0  0.05522  0.13208  0.61490  1.0000
  H   H81       1.0  0.07564  0.18425  0.51834  1.0000
  O  Te41      1.0  0.17066  0.11828  0.86082  1.0000
  O  Te42      1.0  0.11320  0.06264  0.89868  1.0000
  H   H82       1.0  0.02552  0.13576  0.55123  1.0000
  Mg  Mg21      1.0  0.16949  0.06948  0.98382  1.0000
  C   C197      1.0  0.61223  0.59413  0.78827  1.0000
  C   C198      1.0  0.57325  0.60170  0.72439  1.0000
  C  Sn43      1.0  0.56281  0.63443  0.62815  1.0000
  C  Sn44      1.0  0.59200  0.66000  0.59542  1.0000
  C   C199      1.0  0.63092  0.65215  0.65979  1.0000
  C   C200      1.0  0.64104  0.61932  0.75599  1.0000
  H   H83       1.0  0.62007  0.56871  0.86262  1.0000
  O  Te43      1.0  0.52373  0.64157  0.56535  1.0000
  O  Te44      1.0  0.58237  0.69292  0.49956  1.0000
  H   H84       1.0  0.67122  0.61345  0.80533  1.0000
  Mg  Mg22      1.0  0.52512  0.69022  0.44151  1.0000
  C   C201      1.0  0.88177  0.09321  0.71676  1.0000
  C   C202      1.0  0.92032  0.10130  0.79026  1.0000
  C  Sn45      1.0  0.92977  0.13476  0.89257  1.0000
  C  Sn46      1.0  0.90000  0.16053  0.92166  1.0000
  C   C203      1.0  0.86152  0.15216  0.84765  1.0000
  C   C204      1.0  0.85239  0.11860  0.74544  1.0000
  H   H85       1.0  0.87470  0.06723  0.63775  1.0000
  O  Te45      1.0  0.96843  0.14241  0.96496  1.0000
  O  Te46      1.0  0.86697  0.18690  0.02343  1.0000
  H   H86       1.0  0.82254  0.11233  0.68865  1.0000
  Mg  Mg23      1.0  0.92399  0.18470  0.09404  1.0000
  C   C205      1.0  0.42752  0.64976  0.90606  1.0000
  C   C206      1.0  0.43047  0.61312  0.83016  1.0000
  C  Sn47      1.0  0.39793  0.59542  0.72997  1.0000
  C  Sn48      1.0  0.36181  0.61485  0.70550  1.0000
  C   C207      1.0  0.35916  0.65151  0.78188  1.0000
  C   C208      1.0  0.39191  0.66894  0.88194  1.0000
  H   H87       1.0  0.45286  0.66326  0.98340  1.0000
  O  Te47      1.0  0.40138  0.55880  0.65512  1.0000
  O  Te48      1.0  0.32882  0.59783  0.60592  1.0000
  H   H88       1.0  0.38962  0.69733  0.94059  1.0000
  Mg  Mg24      1.0  0.34817  0.54755  0.53054  1.0000
