data_image0
_chemical_formula_structural       H40C112N16SnCSn2CSnTe4Mg2SnCSn2CSnTe4Mg2SnCSn2CSnTe4Mg2SnCSn2CSnTe4Mg2SnCSn2CSnTe4Mg2SnCSn2CSnTe4Mg2SnCSn2CSnTe4Mg2SnCSn2CSnTe4Mg2SnCSn2CSnTe4Mg2SnCSn2CSnTe4Mg2SnCSn2CSnTe4Mg2SnCSn2CSnTe4Mg2SnCSn2CSnTe4Mg2SnCSn2CSnTe4Mg2SnCSn2CSnTe4Mg2SnCSn2CSnTe4Mg2SnCSn2CSnTe4Mg2SnCSn2CSnTe4Mg2SnCSn2CSnTe4Mg2SnCSn2CSnTe4Mg2SnCSn2CSnTe4Mg2SnCSn2CSnTe4Mg2SnCSn2CSnTe4Mg2SnCSn2CSnTe4Mg2
_chemical_formula_sum              "H40 C160 N16 Sn96 Te96 Mg48"
_cell_length_a       35.1159
_cell_length_b       34.5461
_cell_length_c       7.9667
_cell_angle_alpha    91.8159
_cell_angle_beta     100.583
_cell_angle_gamma    89.9488

_symmetry_space_group_name_H-M    'P1'
_space_group_IT_number       1

loop_
  _space_group_symop_operation_xyz
  'x, y, z'

loop_
  _atom_site_type_symbol
  _atom_site_label
  _atom_site_symmetry_multiplicity
  _atom_site_fract_x
  _atom_site_fract_y
  _atom_site_fract_z
  _atom_site_occupancy
  H   H1        1.0  0.69660  0.34067  0.28924  1.0000
  H   H2        1.0  0.41994  0.53637  0.40992  1.0000
  H   H3        1.0  0.19680  0.84127  0.29206  1.0000
  H   H4        1.0  0.92107  0.03677  0.42914  1.0000
  H   H5        1.0  0.31035  0.33770  0.19607  1.0000
  H   H6        1.0  0.58555  0.53582  0.08516  1.0000
  H   H7        1.0  0.80868  0.84007  0.20700  1.0000
  H   H8        1.0  0.08629  0.03565  0.10187  1.0000
  H   H9        1.0  0.30827  0.65966  0.20943  1.0000
  H   H10       1.0  0.58600  0.46478  0.08493  1.0000
  H   H11       1.0  0.80954  0.16016  0.21526  1.0000
  H   H12       1.0  0.08617  0.96479  0.09741  1.0000
  H   H13       1.0  0.69555  0.66175  0.28785  1.0000
  H   H14       1.0  0.42044  0.46553  0.40844  1.0000
  H   H15       1.0  0.19697  0.16118  0.30062  1.0000
  H   H16       1.0  0.92040  0.96575  0.41975  1.0000
  H   H17       1.0  0.50150  0.63416  0.24683  1.0000
  H   H18       1.0  0.00336  0.13426  0.26954  1.0000
  H   H19       1.0  0.50346  0.36723  0.23717  1.0000
  H   H20       1.0  0.00245  0.86728  0.24479  1.0000
  H   H21       1.0  0.69123  0.34048  0.78583  1.0000
  H   H22       1.0  0.41341  0.53581  0.90200  1.0000
  H   H23       1.0  0.19180  0.84087  0.79665  1.0000
  H   H24       1.0  0.91340  0.03510  0.92228  1.0000
  H   H25       1.0  0.30479  0.33548  0.68979  1.0000
  H   H26       1.0  0.57948  0.53466  0.58253  1.0000
  H   H27       1.0  0.80425  0.83799  0.70095  1.0000
  H   H28       1.0  0.07978  0.03553  0.60442  1.0000
  H   H29       1.0  0.30385  0.66176  0.69465  1.0000
  H   H30       1.0  0.57965  0.46369  0.58010  1.0000
  H   H31       1.0  0.80301  0.16015  0.70493  1.0000
  H   H32       1.0  0.08036  0.96484  0.59999  1.0000
  H   H33       1.0  0.69102  0.66036  0.78370  1.0000
  H   H34       1.0  0.41344  0.46482  0.89923  1.0000
  H   H35       1.0  0.19067  0.15964  0.79623  1.0000
  H   H36       1.0  0.91400  0.96423  0.91827  1.0000
  H   H37       1.0  0.49678  0.63317  0.74885  1.0000
  H   H38       1.0  0.99630  0.13342  0.77213  1.0000
  H   H39       1.0  0.49760  0.36636  0.73984  1.0000
  H   H40       1.0  0.99805  0.86645  0.75213  1.0000
  C   C1        1.0  0.03545  0.91812  0.21749  1.0000
  C   C2        1.0  0.03477  0.95921  0.20995  1.0000
  C   C3        1.0  0.06408  0.98062  0.14982  1.0000
  C   C4        1.0  0.17261  0.82729  0.20649  1.0000
  C   C5        1.0  0.67941  0.70984  0.14115  1.0000
  C   C6        1.0  0.65349  0.27124  0.00923  1.0000
  C   C7        1.0  0.53570  0.41824  0.20553  1.0000
  C   C8        1.0  0.53446  0.45927  0.19531  1.0000
  C   C9        1.0  0.56363  0.48076  0.13480  1.0000
  C   C10       1.0  0.67289  0.32711  0.19922  1.0000
  C   C11       1.0  0.18026  0.20925  0.15388  1.0000
  C   C12       1.0  0.15202  0.77044  0.02381  1.0000
  C   C13       1.0  0.96992  0.91832  0.28522  1.0000
  C   C14       1.0  0.97101  0.95949  0.30106  1.0000
  C   C15       1.0  0.94222  0.98131  0.36752  1.0000
  C   C16       1.0  0.83286  0.82739  0.29307  1.0000
  C   C17       1.0  0.32415  0.70852  0.36652  1.0000
  C   C18       1.0  0.35579  0.27127  0.46627  1.0000
  C   C19       1.0  0.47031  0.41803  0.27475  1.0000
  C   C20       1.0  0.47080  0.45924  0.28725  1.0000
  C   C21       1.0  0.44184  0.48098  0.35303  1.0000
  C   C22       1.0  0.33468  0.32537  0.28253  1.0000
  C   C23       1.0  0.82423  0.20907  0.37319  1.0000
  C   C24       1.0  0.85329  0.77312  0.47619  1.0000
  C   C25       1.0  0.97071  0.08348  0.30181  1.0000
  C   C26       1.0  0.97144  0.04236  0.30947  1.0000
  C   C27       1.0  0.94253  0.02093  0.37233  1.0000
  C   C28       1.0  0.83288  0.17356  0.30795  1.0000
  C   C29       1.0  0.32703  0.29081  0.34995  1.0000
  C   C30       1.0  0.35215  0.72885  0.48969  1.0000
  C   C31       1.0  0.46939  0.58311  0.28122  1.0000
  C   C32       1.0  0.47036  0.54206  0.29023  1.0000
  C   C33       1.0  0.44164  0.52058  0.35439  1.0000
  C   C34       1.0  0.33218  0.67308  0.29868  1.0000
  C   C35       1.0  0.82497  0.79255  0.35759  1.0000
  C   C36       1.0  0.85128  0.22910  0.50159  1.0000
  C   C37       1.0  0.03586  0.08321  0.22947  1.0000
  C   C38       1.0  0.03492  0.04204  0.21555  1.0000
  C   C39       1.0  0.06414  0.02020  0.15224  1.0000
  C   C40       1.0  0.17262  0.17406  0.21627  1.0000
  C   C41       1.0  0.68127  0.29154  0.13355  1.0000
  C   C42       1.0  0.65109  0.72974  0.02435  1.0000
  C   C43       1.0  0.53447  0.58341  0.20926  1.0000
  C   C44       1.0  0.53388  0.54218  0.19677  1.0000
  C   C45       1.0  0.56337  0.52036  0.13535  1.0000
  C   C46       1.0  0.67133  0.67485  0.20361  1.0000
  C   C47       1.0  0.18025  0.79114  0.14451  1.0000
  C   C48       1.0  0.15159  0.22923  0.03890  1.0000
  C   C49       1.0  0.50235  0.47993  0.24052  1.0000
  C   C50       1.0  0.50312  0.39874  0.23879  1.0000
  C   C51       1.0  0.00290  0.98001  0.25664  1.0000
  C   C52       1.0  0.00257  0.89880  0.24887  1.0000
  C   C53       1.0  0.50216  0.52144  0.24190  1.0000
  C   C54       1.0  0.50170  0.60266  0.24543  1.0000
  C   C55       1.0  0.00305  0.02152  0.26025  1.0000
  C   C56       1.0  0.00328  0.10274  0.26667  1.0000
  C   C57       1.0  0.03055  0.91762  0.72244  1.0000
  C   C58       1.0  0.02955  0.95872  0.71628  1.0000
  C   C59       1.0  0.05848  0.98040  0.65501  1.0000
  C   C60       1.0  0.16804  0.82787  0.70505  1.0000
  C   C61       1.0  0.67421  0.70796  0.63471  1.0000
  C   C62       1.0  0.64849  0.27253  0.49602  1.0000
  C   C63       1.0  0.53006  0.41721  0.70747  1.0000
  C   C64       1.0  0.52915  0.45826  0.69875  1.0000
  C   C65       1.0  0.55800  0.47959  0.63526  1.0000
  C   C66       1.0  0.66772  0.32760  0.69237  1.0000
  C   C67       1.0  0.17442  0.20686  0.64351  1.0000
  C   C68       1.0  0.14808  0.77187  0.51503  1.0000
  C   C69       1.0  0.96514  0.91718  0.79138  1.0000
  C   C70       1.0  0.96575  0.95834  0.80672  1.0000
  C   C71       1.0  0.93623  0.97991  0.86921  1.0000
  C   C72       1.0  0.82821  0.82531  0.78836  1.0000
  C   C73       1.0  0.31965  0.70968  0.85776  1.0000
  C   C74       1.0  0.35025  0.26842  0.95593  1.0000
  C   C75       1.0  0.46460  0.41717  0.77612  1.0000
  C   C76       1.0  0.46529  0.45838  0.78908  1.0000
  C   C77       1.0  0.43575  0.48026  0.84979  1.0000
  C   C78       1.0  0.32904  0.32311  0.77653  1.0000
  C   C79       1.0  0.81841  0.20923  0.86131  1.0000
  C   C80       1.0  0.84824  0.77016  0.96730  1.0000
  C   C81       1.0  0.96415  0.08235  0.80448  1.0000
  C   C82       1.0  0.96529  0.04126  0.81350  1.0000
  C   C83       1.0  0.93597  0.01952  0.87199  1.0000
  C   C84       1.0  0.82640  0.17330  0.79816  1.0000
  C   C85       1.0  0.32140  0.28821  0.84135  1.0000
  C   C86       1.0  0.34750  0.72950  0.98336  1.0000
  C   C87       1.0  0.46425  0.58241  0.78233  1.0000
  C   C88       1.0  0.46517  0.54133  0.79251  1.0000
  C   C89       1.0  0.43572  0.51988  0.85145  1.0000
  C   C90       1.0  0.32750  0.67438  0.78814  1.0000
  C   C91       1.0  0.82016  0.79020  0.84992  1.0000
  C   C92       1.0  0.84564  0.22936  0.98850  1.0000
  C   C93       1.0  0.02962  0.08268  0.73582  1.0000
  C   C94       1.0  0.02909  0.04150  0.72311  1.0000
  C   C95       1.0  0.05821  0.01996  0.65796  1.0000
  C   C96       1.0  0.16655  0.17219  0.70938  1.0000
  C   C97       1.0  0.67606  0.29257  0.62209  1.0000
  C   C98       1.0  0.64554  0.72775  0.51922  1.0000
  C   C99       1.0  0.52975  0.58218  0.71409  1.0000
  C   C100      1.0  0.52902  0.54099  0.70206  1.0000
  C   C101      1.0  0.55794  0.51916  0.63675  1.0000
  C   C102      1.0  0.66661  0.67297  0.69875  1.0000
  C   C103      1.0  0.17595  0.79232  0.63835  1.0000
  C   C104      1.0  0.14566  0.22661  0.52822  1.0000
  C   C105      1.0  0.49733  0.47899  0.74632  1.0000
  C   C106      1.0  0.49748  0.39785  0.74125  1.0000
  C   C107      1.0  0.99760  0.97921  0.76403  1.0000
  C   C108      1.0  0.99798  0.89797  0.75524  1.0000
  C   C109      1.0  0.49725  0.52049  0.74773  1.0000
  C   C110      1.0  0.49698  0.60167  0.74901  1.0000
  C   C111      1.0  0.99743  0.02070  0.76791  1.0000
  C   C112      1.0  0.99674  0.10192  0.77127  1.0000
  N   N1        1.0  0.63181  0.25442  0.90256  1.0000
  N   N2        1.0  0.13022  0.75287  0.92041  1.0000
  N   N3        1.0  0.37820  0.25436  0.56419  1.0000
  N   N4        1.0  0.87525  0.75668  0.57777  1.0000
  N   N5        1.0  0.37373  0.74614  0.59510  1.0000
  N   N6        1.0  0.87219  0.24584  0.61140  1.0000
  N   N7        1.0  0.62909  0.74680  0.92537  1.0000
  N   N8        1.0  0.12962  0.24644  0.94034  1.0000
  N   N9        1.0  0.62719  0.25527  0.38947  1.0000
  N   N10       1.0  0.12656  0.75444  0.40996  1.0000
  N   N11       1.0  0.37276  0.25153  0.05343  1.0000
  N   N12       1.0  0.86983  0.75304  0.06777  1.0000
  N   N13       1.0  0.36893  0.74631  0.09105  1.0000
  N   N14       1.0  0.86645  0.24621  0.09823  1.0000
  N   N15       1.0  0.62327  0.74446  0.41998  1.0000
  N   N16       1.0  0.12300  0.24324  0.43031  1.0000
  C  Sn1       1.0  0.93401  0.84811  0.35053  1.0000
  C   C113      1.0  0.93621  0.88372  0.27423  1.0000
  C  Sn2       1.0  0.90281  0.90554  0.22328  1.0000
  C  Sn3       1.0  0.86646  0.89150  0.24922  1.0000
  C   C114      1.0  0.86428  0.85592  0.32550  1.0000
  C  Sn4       1.0  0.89766  0.83407  0.37647  1.0000
  O  Te1       1.0  0.96777  0.82678  0.40048  1.0000
  O  Te2       1.0  0.90574  0.94104  0.14722  1.0000
  O  Te3       1.0  0.83269  0.91286  0.19919  1.0000
  O  Te4       1.0  0.89475  0.79859  0.45251  1.0000
  Mg  Mg1       1.0  0.85154  0.95951  0.10110  1.0000
  Mg  Mg2       1.0  0.94893  0.78011  0.49876  1.0000
  C  Sn5       1.0  0.75289  0.72027  0.36257  1.0000
  C   C115      1.0  0.71927  0.73153  0.25266  1.0000
  C  Sn6       1.0  0.71994  0.76327  0.14885  1.0000
  C  Sn7       1.0  0.75493  0.78418  0.15494  1.0000
  C   C116      1.0  0.78853  0.77290  0.26478  1.0000
  C  Sn8       1.0  0.78789  0.74117  0.36866  1.0000
  O  Te5       1.0  0.75156  0.68844  0.46520  1.0000
  O  Te6       1.0  0.68595  0.77400  0.04004  1.0000
  O  Te7       1.0  0.75624  0.81602  0.05219  1.0000
  O  Te8       1.0  0.82185  0.73044  0.47740  1.0000
  Mg  Mg3       1.0  0.74407  0.82665  0.92494  1.0000
  Mg  Mg4       1.0  0.80543  0.68505  0.59249  1.0000
  C  Sn9       1.0  0.38838  0.40921  0.24587  1.0000
  C   C117      1.0  0.42695  0.40249  0.32031  1.0000
  C  Sn10      1.0  0.43875  0.36565  0.37522  1.0000
  C  Sn11      1.0  0.41143  0.33486  0.35523  1.0000
  C   C118      1.0  0.37289  0.34158  0.28081  1.0000
  C  Sn12      1.0  0.36106  0.37843  0.22588  1.0000
  O  Te9       1.0  0.37723  0.44628  0.19189  1.0000
  O  Te10      1.0  0.47746  0.35964  0.44932  1.0000
  O  Te11      1.0  0.42261  0.29777  0.40929  1.0000
  O  Te12      1.0  0.32238  0.38444  0.15181  1.0000
  Mg  Mg5       1.0  0.47859  0.30401  0.50260  1.0000
  Mg  Mg6       1.0  0.32122  0.44005  0.09840  1.0000
  C  Sn13      1.0  0.25510  0.21885  0.36463  1.0000
  C   C119      1.0  0.22074  0.23072  0.26172  1.0000
  C  Sn14      1.0  0.22049  0.26307  0.16069  1.0000
  C  Sn15      1.0  0.25531  0.28398  0.16246  1.0000
  C   C120      1.0  0.28964  0.27211  0.26530  1.0000
  C  Sn16      1.0  0.28992  0.23976  0.36640  1.0000
  O  Te13      1.0  0.25468  0.18642  0.46459  1.0000
  O  Te14      1.0  0.18578  0.27438  0.05889  1.0000
  O  Te15      1.0  0.25570  0.31643  0.06238  1.0000
  O  Te16      1.0  0.32460  0.22844  0.46812  1.0000
  Mg  Mg7       1.0  0.24277  0.32773  0.94500  1.0000
  Mg  Mg8       1.0  0.30931  0.18235  0.58199  1.0000
  C  Sn17      1.0  0.09410  0.84682  0.04932  1.0000
  C   C121      1.0  0.13209  0.85357  0.13455  1.0000
  C  Sn18      1.0  0.13978  0.88076  0.27016  1.0000
  C  Sn19      1.0  0.10885  0.90162  0.32173  1.0000
  C   C122      1.0  0.07089  0.89486  0.23655  1.0000
  C  Sn20      1.0  0.06317  0.86768  0.10090  1.0000
  O  Te17      1.0  0.12874  0.82677  0.91411  1.0000
  O  Te18      1.0  0.17800  0.88701  0.35337  1.0000
  O  Te19      1.0  0.11590  0.92896  0.45707  1.0000
  O  Te20      1.0  0.02498  0.86142  0.01774  1.0000
  Mg  Mg9       1.0  0.17285  0.92721  0.53041  1.0000
  Mg  Mg10      1.0  0.07175  0.82848  0.84074  1.0000
  C  Sn21      1.0  0.25196  0.71807  0.14041  1.0000
  C   C123      1.0  0.28500  0.72977  0.25695  1.0000
  C  Sn22      1.0  0.28393  0.76231  0.36456  1.0000
  C  Sn23      1.0  0.24910  0.78360  0.35557  1.0000
  C   C124      1.0  0.21608  0.77190  0.23910  1.0000
  C  Sn24      1.0  0.21713  0.73936  0.13142  1.0000
  O  Te21      1.0  0.25370  0.68544  0.03408  1.0000
  O  Te22      1.0  0.31734  0.77346  0.47999  1.0000
  O  Te23      1.0  0.24739  0.81626  0.46203  1.0000
  O  Te24      1.0  0.18375  0.72821  0.01607  1.0000
  Mg  Mg11      1.0  0.30049  0.81993  0.59810  1.0000
  Mg  Mg12      1.0  0.24221  0.68900  0.89796  1.0000
  C  Sn25      1.0  0.63248  0.38651  0.32248  1.0000
  C   C125      1.0  0.63523  0.35137  0.23373  1.0000
  C  Sn26      1.0  0.60520  0.33900  0.10281  1.0000
  C  Sn27      1.0  0.57173  0.36224  0.05962  1.0000
  C   C126      1.0  0.56899  0.39735  0.14832  1.0000
  C  Sn28      1.0  0.59901  0.40975  0.27928  1.0000
  O  Te25      1.0  0.66286  0.39831  0.45289  1.0000
  O  Te26      1.0  0.60861  0.30376  0.01595  1.0000
  O  Te27      1.0  0.58300  0.35767  0.92909  1.0000
  O  Te28      1.0  0.59562  0.44497  0.36610  1.0000
  Mg  Mg13      1.0  0.60118  0.30741  0.84799  1.0000
  Mg  Mg14      1.0  0.64470  0.44862  0.53401  1.0000
  C  Sn29      1.0  0.76221  0.29010  0.28423  1.0000
  C   C127      1.0  0.72849  0.27734  0.17490  1.0000
  C  Sn30      1.0  0.72164  0.23780  0.14051  1.0000
  C  Sn31      1.0  0.74906  0.21044  0.21709  1.0000
  C   C128      1.0  0.78275  0.22320  0.32637  1.0000
  C  Sn32      1.0  0.78963  0.26274  0.36081  1.0000
  O  Te29      1.0  0.76846  0.32977  0.31680  1.0000
  O  Te30      1.0  0.68772  0.22575  0.03073  1.0000
  O  Te31      1.0  0.74278  0.17075  0.18443  1.0000
  O  Te32      1.0  0.82352  0.27480  0.47054  1.0000
  Mg  Mg15      1.0  0.69224  0.16861  0.02612  1.0000
  Mg  Mg16      1.0  0.81902  0.33193  0.47531  1.0000
  C  Sn33      1.0  0.11426  0.10334  0.34410  1.0000
  C   C129      1.0  0.07605  0.10919  0.26227  1.0000
  C  Sn34      1.0  0.06780  0.13516  0.12971  1.0000
  C  Sn35      1.0  0.09839  0.15570  0.07778  1.0000
  C   C130      1.0  0.13657  0.14984  0.15956  1.0000
  C  Sn36      1.0  0.14485  0.12388  0.29216  1.0000
  O  Te33      1.0  0.12183  0.07723  0.47631  1.0000
  O  Te34      1.0  0.02937  0.14053  0.04987  1.0000
  O  Te35      1.0  0.13244  0.18909  0.94546  1.0000
  O  Te36      1.0  0.18325  0.11850  0.37196  1.0000
  Mg  Mg17      1.0  0.07539  0.18647  0.87612  1.0000
  Mg  Mg18      1.0  0.17892  0.07982  0.54565  1.0000
  C  Sn37      1.0  0.58849  0.66685  0.13694  1.0000
  C   C131      1.0  0.62699  0.65980  0.21137  1.0000
  C  Sn38      1.0  0.63835  0.62299  0.26828  1.0000
  C  Sn39      1.0  0.61065  0.59257  0.25033  1.0000
  C   C132      1.0  0.57217  0.59963  0.17591  1.0000
  C  Sn40      1.0  0.56079  0.63644  0.11899  1.0000
  O  Te37      1.0  0.57779  0.70388  0.08095  1.0000
  O  Te38      1.0  0.67700  0.61664  0.34233  1.0000
  O  Te39      1.0  0.62139  0.55552  0.30640  1.0000
  O  Te40      1.0  0.52216  0.64279  0.04495  1.0000
  Mg  Mg19      1.0  0.67747  0.56122  0.39878  1.0000
  Mg  Mg20      1.0  0.56333  0.70546  0.98838  1.0000
  C  Sn41      1.0  0.93049  0.14238  0.46290  1.0000
  C   C133      1.0  0.93380  0.10746  0.37335  1.0000
  C  Sn42      1.0  0.90392  0.09477  0.24239  1.0000
  C  Sn43      1.0  0.87004  0.11745  0.19997  1.0000
  C   C134      1.0  0.86674  0.15235  0.28947  1.0000
  C  Sn44      1.0  0.89660  0.16507  0.42048  1.0000
  O  Te41      1.0  0.96072  0.15451  0.59334  1.0000
  O  Te42      1.0  0.90789  0.05975  0.15472  1.0000
  O  Te43      1.0  0.83980  0.10529  0.06941  1.0000
  O  Te44      1.0  0.89265  0.20006  0.50810  1.0000
  Mg  Mg21      1.0  0.90045  0.06280  0.98705  1.0000
  Mg  Mg22      1.0  0.94173  0.20432  0.67572  1.0000
  C  Sn45      1.0  0.42975  0.64164  0.44466  1.0000
  C   C135      1.0  0.43266  0.60680  0.35394  1.0000
  C  Sn46      1.0  0.40249  0.59441  0.22370  1.0000
  C  Sn47      1.0  0.36871  0.61733  0.18321  1.0000
  C   C136      1.0  0.36581  0.65214  0.27387  1.0000
  C  Sn48      1.0  0.39597  0.66456  0.40416  1.0000
  O  Te45      1.0  0.46027  0.65347  0.57435  1.0000
  O  Te46      1.0  0.40606  0.55947  0.13483  1.0000
  O  Te47      1.0  0.33818  0.60547  0.05339  1.0000
  O  Te48      1.0  0.39242  0.69948  0.49298  1.0000
  Mg  Mg23      1.0  0.39833  0.56296  0.96884  1.0000
  Mg  Mg24      1.0  0.44178  0.70329  0.65892  1.0000
  C  Sn49      1.0  0.90691  0.84578  0.94534  1.0000
  C   C137      1.0  0.86889  0.85175  0.86139  1.0000
  C  Sn50      1.0  0.86107  0.87826  0.73082  1.0000
  C  Sn51      1.0  0.89190  0.89923  0.68307  1.0000
  C   C138      1.0  0.92990  0.89325  0.76697  1.0000
  C  Sn52      1.0  0.93774  0.86675  0.89759  1.0000
  O  Te49      1.0  0.87240  0.81186  0.07550  1.0000
  O  Te50      1.0  0.82281  0.88375  0.64880  1.0000
  O  Te51      1.0  0.88472  0.92590  0.55280  1.0000
  O  Te52      1.0  0.97597  0.86126  0.97956  1.0000
  Mg  Mg25      1.0  0.82777  0.92322  0.47918  1.0000
  Mg  Mg26      1.0  0.92939  0.81451  0.14913  1.0000
  C  Sn53      1.0  0.74962  0.71545  0.83877  1.0000
  C   C139      1.0  0.71489  0.72810  0.74143  1.0000
  C  Sn54      1.0  0.71374  0.76251  0.65322  1.0000
  C  Sn55      1.0  0.74804  0.78474  0.66238  1.0000
  C   C140      1.0  0.78275  0.77210  0.75964  1.0000
  C  Sn56      1.0  0.78392  0.73769  0.84793  1.0000
  O  Te53      1.0  0.75009  0.68096  0.92590  1.0000
  O  Te54      1.0  0.67867  0.77456  0.55679  1.0000
  O  Te55      1.0  0.74754  0.81926  0.57514  1.0000
  O  Te56      1.0  0.81897  0.72563  0.94428  1.0000
  Mg  Mg27      1.0  0.69276  0.82357  0.46075  1.0000
  Mg  Mg28      1.0  0.76326  0.66935  0.04029  1.0000
  C  Sn57      1.0  0.42999  0.34671  0.84535  1.0000
  C   C141      1.0  0.43163  0.38211  0.76675  1.0000
  C  Sn58      1.0  0.39775  0.40271  0.70910  1.0000
  C  Sn59      1.0  0.36146  0.38762  0.73055  1.0000
  C   C142      1.0  0.35983  0.35224  0.80913  1.0000
  C  Sn60      1.0  0.39370  0.33162  0.86680  1.0000
  O  Te57      1.0  0.46423  0.32662  0.90201  1.0000
  O  Te58      1.0  0.40013  0.43803  0.63085  1.0000
  O  Te59      1.0  0.32721  0.40774  0.67380  1.0000
  O  Te60      1.0  0.39133  0.29632  0.94503  1.0000
  Mg  Mg29      1.0  0.34540  0.45463  0.57511  1.0000
  Mg  Mg30      1.0  0.40438  0.27243  0.00089  1.0000
  C  Sn61      1.0  0.23889  0.28719  0.72726  1.0000
  C   C143      1.0  0.27427  0.27391  0.81633  1.0000
  C  Sn62      1.0  0.28097  0.23424  0.83352  1.0000
  C  Sn63      1.0  0.25171  0.20728  0.76005  1.0000
  C   C144      1.0  0.21637  0.22057  0.67102  1.0000
  C  Sn64      1.0  0.20963  0.26023  0.65380  1.0000
  O  Te61      1.0  0.23282  0.32697  0.71166  1.0000
  O  Te62      1.0  0.31656  0.22166  0.92319  1.0000
  O  Te63      1.0  0.25781  0.16747  0.77573  1.0000
  O  Te64      1.0  0.17407  0.27281  0.56416  1.0000
  Mg  Mg31      1.0  0.31105  0.16456  0.90968  1.0000
  Mg  Mg32      1.0  0.17956  0.32990  0.57752  1.0000
  C  Sn65      1.0  0.12745  0.88627  0.83331  1.0000
  C   C145      1.0  0.13053  0.85183  0.74002  1.0000
  C  Sn66      1.0  0.10071  0.84008  0.60693  1.0000
  C  Sn67      1.0  0.06711  0.86325  0.56614  1.0000
  C   C146      1.0  0.06405  0.89767  0.65937  1.0000
  C  Sn68      1.0  0.09385  0.90944  0.79252  1.0000
  O  Te65      1.0  0.15761  0.89746  0.96583  1.0000
  O  Te66      1.0  0.10444  0.80552  0.51552  1.0000
  O  Te67      1.0  0.03694  0.85203  0.43349  1.0000
  O  Te68      1.0  0.09013  0.94398  0.88387  1.0000
  Mg  Mg33      1.0  0.05554  0.80259  0.34617  1.0000
  Mg  Mg34      1.0  0.09736  0.93968  0.05319  1.0000
  C  Sn69      1.0  0.26972  0.77377  0.88442  1.0000
  C   C147      1.0  0.27757  0.73490  0.85125  1.0000
  C  Sn70      1.0  0.25358  0.71369  0.72129  1.0000
  C  Sn71      1.0  0.22107  0.73171  0.62234  1.0000
  C   C148      1.0  0.21323  0.77056  0.65550  1.0000
  C  Sn72      1.0  0.23721  0.79180  0.78546  1.0000
  O  Te69      1.0  0.25243  0.78715  0.01496  1.0000
  O  Te70      1.0  0.26202  0.67486  0.69056  1.0000
  O  Te71      1.0  0.19669  0.71102  0.49172  1.0000
  O  Te72      1.0  0.22879  0.83060  0.81619  1.0000
  Mg  Mg35      1.0  0.22022  0.65888  0.49866  1.0000
  Mg  Mg36      1.0  0.22891  0.83935  0.00798  1.0000
  C  Sn73      1.0  0.56645  0.34719  0.62677  1.0000
  C   C149      1.0  0.56358  0.38290  0.71083  1.0000
  C  Sn74      1.0  0.59668  0.40531  0.77038  1.0000
  C  Sn75      1.0  0.63342  0.39176  0.74529  1.0000
  C   C150      1.0  0.63628  0.35607  0.66125  1.0000
  C  Sn76      1.0  0.60319  0.33363  0.60169  1.0000
  O  Te73      1.0  0.53298  0.32527  0.56830  1.0000
  O  Te74      1.0  0.59307  0.44091  0.85411  1.0000
  O  Te75      1.0  0.66691  0.41371  0.80385  1.0000
  O  Te76      1.0  0.60678  0.29806  0.51798  1.0000
  Mg  Mg37      1.0  0.64711  0.46027  0.91036  1.0000
  Mg  Mg38      1.0  0.55276  0.27869  0.46160  1.0000
  C  Sn77      1.0  0.71816  0.22324  0.68270  1.0000
  C   C151      1.0  0.71071  0.26249  0.70933  1.0000
  C  Sn78      1.0  0.74106  0.28823  0.77125  1.0000
  C  Sn79      1.0  0.77968  0.27447  0.80722  1.0000
  C   C152      1.0  0.78712  0.23525  0.78057  1.0000
  C  Sn80      1.0  0.75678  0.20948  0.71867  1.0000
  O  Te77      1.0  0.68737  0.19803  0.62070  1.0000
  O  Te78      1.0  0.73289  0.32734  0.79690  1.0000
  O  Te79      1.0  0.81048  0.29973  0.86927  1.0000
  O  Te80      1.0  0.76494  0.17040  0.69299  1.0000
  Mg  Mg39      1.0  0.78466  0.35038  0.88324  1.0000
  Mg  Mg40      1.0  0.71320  0.14734  0.60658  1.0000
  C  Sn81      1.0  0.10827  0.10260  0.84417  1.0000
  C   C153      1.0  0.06992  0.10866  0.76462  1.0000
  C  Sn82      1.0  0.06143  0.13442  0.63132  1.0000
  C  Sn83      1.0  0.09189  0.15451  0.57629  1.0000
  C   C154      1.0  0.13021  0.14844  0.65580  1.0000
  C  Sn84      1.0  0.13873  0.12270  0.78914  1.0000
  O  Te81      1.0  0.11609  0.07672  0.97717  1.0000
  O  Te82      1.0  0.02286  0.14001  0.55380  1.0000
  O  Te83      1.0  0.08404  0.18041  0.44318  1.0000
  O  Te84      1.0  0.17727  0.11710  0.86662  1.0000
  Mg  Mg41      1.0  0.02689  0.17823  0.37782  1.0000
  Mg  Mg42      1.0  0.13161  0.07160  0.04254  1.0000
  C  Sn85      1.0  0.63016  0.60306  0.73934  1.0000
  C   C155      1.0  0.63235  0.63834  0.66044  1.0000
  C  Sn86      1.0  0.59893  0.65999  0.60738  1.0000
  C  Sn87      1.0  0.56257  0.64610  0.63381  1.0000
  C   C156      1.0  0.56039  0.61084  0.71269  1.0000
  C  Sn88      1.0  0.59379  0.58917  0.76577  1.0000
  O  Te85      1.0  0.66394  0.58190  0.79136  1.0000
  O  Te86      1.0  0.60185  0.69517  0.52874  1.0000
  O  Te87      1.0  0.52877  0.66729  0.58170  1.0000
  O  Te88      1.0  0.59089  0.55401  0.84439  1.0000
  Mg  Mg43      1.0  0.54762  0.71351  0.48044  1.0000
  Mg  Mg44      1.0  0.64510  0.53566  0.89282  1.0000
  C  Sn89      1.0  0.88627  0.10099  0.68009  1.0000
  C   C157      1.0  0.92393  0.10780  0.76914  1.0000
  C  Sn90      1.0  0.93087  0.13513  0.90439  1.0000
  C  Sn91      1.0  0.89952  0.15608  0.95169  1.0000
  C   C158      1.0  0.86189  0.14926  0.86269  1.0000
  C  Sn92      1.0  0.85491  0.12194  0.72740  1.0000
  O  Te89      1.0  0.88000  0.07353  0.54531  1.0000
  O  Te90      1.0  0.96878  0.14144  0.99147  1.0000
  O  Te91      1.0  0.86416  0.17628  0.08659  1.0000
  O  Te92      1.0  0.81704  0.11561  0.64037  1.0000
  Mg  Mg45      1.0  0.92093  0.17457  0.16619  1.0000
  Mg  Mg46      1.0  0.82319  0.07521  0.46569  1.0000
  C  Sn93      1.0  0.42419  0.64123  0.94283  1.0000
  C   C159      1.0  0.42710  0.60649  0.85140  1.0000
  C  Sn94      1.0  0.39734  0.59468  0.71812  1.0000
  C  Sn95      1.0  0.36399  0.61809  0.67526  1.0000
  C   C160      1.0  0.36109  0.65281  0.76664  1.0000
  C  Sn96      1.0  0.39083  0.66464  0.89996  1.0000
  O  Te93      1.0  0.41263  0.64519  0.07558  1.0000
  O  Te94      1.0  0.40091  0.55982  0.62860  1.0000
  O  Te95      1.0  0.33388  0.60683  0.54239  1.0000
  O  Te96      1.0  0.38728  0.69947  0.98943  1.0000
  Mg  Mg47      1.0  0.35219  0.55694  0.45810  1.0000
  Mg  Mg48      1.0  0.39433  0.69513  0.15989  1.0000
