data_image0
_chemical_formula_structural       H60C114N12SnCSn2CSnTe4Mg2SnCSn2CSnTe4Mg2SnCSn2CSnTe4Mg2SnCSn2CSnTe4Mg2SnCSn2CSnTe4Mg2SnCSn2CSnTe4Mg2SnCSn2CSnTe4Mg2SnCSn2CSnTe4Mg2SnCSn2CSnTe4Mg2
_chemical_formula_sum              "H60 C132 N12 Sn36 Te36 Mg18"
_cell_length_a       38.3748
_cell_length_b       37.2568
_cell_length_c       8.01068
_cell_angle_alpha    80.9493
_cell_angle_beta     78.1671
_cell_angle_gamma    59.2876

_symmetry_space_group_name_H-M    'P1'
_space_group_IT_number       1

loop_
  _space_group_symop_operation_xyz
  'x, y, z'

loop_
  _atom_site_type_symbol
  _atom_site_label
  _atom_site_symmetry_multiplicity
  _atom_site_fract_x
  _atom_site_fract_y
  _atom_site_fract_z
  _atom_site_occupancy
  H   H1        1.0  0.99516  0.04409  0.07430  1.0000
  H   H2        1.0  0.85403  0.08289  0.35871  1.0000
  H   H3        1.0  0.88364  0.12584  0.38812  1.0000
  H   H4        1.0  0.96745  0.18778  0.30185  1.0000
  H   H5        1.0  0.00331  0.22763  0.24891  1.0000
  H   H6        1.0  0.74041  0.02459  0.51693  1.0000
  H   H7        1.0  0.82747  0.06101  0.22203  1.0000
  H   H8        1.0  0.01250  0.08420  0.08433  1.0000
  H   H9        1.0  0.81915  0.88304  0.05207  1.0000
  H   H10       1.0  0.71576  0.99497  0.45323  1.0000
  H   H11       1.0  0.71921  0.87911  0.42007  1.0000
  H   H12       1.0  0.13792  0.15208  0.50666  1.0000
  H   H13       1.0  0.01749  0.26879  0.06638  1.0000
  H   H14       1.0  0.13065  0.27232  0.45425  1.0000
  H   H15       1.0  0.19522  0.13762  0.31388  1.0000
  H   H16       1.0  0.26988  0.10692  0.25081  1.0000
  H   H17       1.0  0.32168  0.16221  0.38000  1.0000
  H   H18       1.0  0.41807  0.04303  0.11042  1.0000
  H   H19       1.0  0.37399  0.15358  0.37818  1.0000
  H   H20       1.0  0.48847  0.02419  0.12254  1.0000
  H   H21       1.0  0.44373  0.13435  0.39421  1.0000
  H   H22       1.0  0.08897  0.33134  0.31589  1.0000
  H   H23       1.0  0.04972  0.40719  0.32365  1.0000
  H   H24       1.0  0.89343  0.68463  0.39514  1.0000
  H   H25       1.0  0.84968  0.60039  0.24850  1.0000
  H   H26       1.0  0.89663  0.52675  0.20031  1.0000
  H   H27       1.0  0.94023  0.46681  0.15554  1.0000
  H   H28       1.0  0.54126  0.00388  0.21864  1.0000
  H   H29       1.0  0.96516  0.00225  0.04047  1.0000
  H   H30       1.0  0.06564  0.09402  0.97456  1.0000
  H   H31       1.0  0.10108  0.13507  0.91937  1.0000
  H   H32       1.0  0.77319  0.06002  0.59369  1.0000
  H   H33       1.0  0.87611  0.94092  0.71262  1.0000
  H   H34       1.0  0.84373  0.90550  0.63979  1.0000
  H   H35       1.0  0.82617  0.05811  0.72135  1.0000
  H   H36       1.0  0.00783  0.08507  0.57359  1.0000
  H   H37       1.0  0.82209  0.87725  0.55512  1.0000
  H   H38       1.0  0.71283  0.00151  0.95798  1.0000
  H   H39       1.0  0.71576  0.88651  0.91406  1.0000
  H   H40       1.0  0.67258  0.91970  0.76335  1.0000
  H   H41       1.0  0.65128  0.02945  0.97857  1.0000
  H   H42       1.0  0.60222  0.95737  0.70155  1.0000
  H   H43       1.0  0.58194  0.06723  0.91287  1.0000
  H   H44       1.0  0.13656  0.15884  0.01554  1.0000
  H   H45       1.0  0.02066  0.26433  0.56605  1.0000
  H   H46       1.0  0.12556  0.28051  0.97373  1.0000
  H   H47       1.0  0.18615  0.23746  0.55984  1.0000
  H   H48       1.0  0.26044  0.20849  0.48749  1.0000
  H   H49       1.0  0.32009  0.16650  0.90406  1.0000
  H   H50       1.0  0.41440  0.04245  0.67017  1.0000
  H   H51       1.0  0.37198  0.16574  0.82453  1.0000
  H   H52       1.0  0.48478  0.02366  0.68254  1.0000
  H   H53       1.0  0.44211  0.14660  0.84107  1.0000
  H   H54       1.0  0.00121  0.31956  0.71799  1.0000
  H   H55       1.0  0.96093  0.39621  0.72523  1.0000
  H   H56       1.0  0.88958  0.69009  0.92129  1.0000
  H   H57       1.0  0.92865  0.63336  0.87391  1.0000
  H   H58       1.0  0.97534  0.56014  0.82563  1.0000
  H   H59       1.0  0.94940  0.46075  0.64221  1.0000
  H   H60       1.0  0.53974  0.01174  0.71024  1.0000
  C   C1        1.0  0.96409  0.05333  0.13677  1.0000
  C   C2        1.0  0.94722  0.02921  0.11798  1.0000
  C   C3        1.0  0.90684  0.03967  0.19272  1.0000
  C   C4        1.0  0.88463  0.07468  0.29238  1.0000
  C   C5        1.0  0.90151  0.09884  0.31079  1.0000
  C   C6        1.0  0.94145  0.08917  0.23145  1.0000
  C   C7        1.0  0.95756  0.11690  0.24602  1.0000
  C   C8        1.0  0.88897  0.01497  0.16105  1.0000
  C   C9        1.0  0.99461  0.11163  0.15981  1.0000
  C   C10       1.0  0.84768  0.02895  0.18456  1.0000
  C   C11       1.0  0.93090  0.15126  0.35007  1.0000
  C   C12       1.0  0.91723  0.97617  0.08522  1.0000
  C   C13       1.0  0.01371  0.13718  0.14268  1.0000
  C   C14       1.0  0.99655  0.17572  0.21769  1.0000
  C   C15       1.0  0.01675  0.19866  0.18585  1.0000
  C   C16       1.0  0.05481  0.18480  0.07935  1.0000
  C   C17       1.0  0.76800  0.94551  0.01658  1.0000
  C   C18       1.0  0.78849  0.90160  0.01814  1.0000
  C   C19       1.0  0.73163  0.96106  0.46586  1.0000
  C   C20       1.0  0.77309  0.87384  0.48589  1.0000
  C   C21       1.0  0.71236  0.94037  0.42842  1.0000
  C   C22       1.0  0.73331  0.89636  0.44429  1.0000
  C   C23       1.0  0.07471  0.21071  0.04571  1.0000
  C   C24       1.0  0.11980  0.18603  0.50486  1.0000
  C   C25       1.0  0.05068  0.25442  0.04876  1.0000
  C   C26       1.0  0.13967  0.20984  0.47345  1.0000
  C   C27       1.0  0.06849  0.28001  0.02351  1.0000
  C   C28       1.0  0.11140  0.26099  0.99200  1.0000
  C   C29       1.0  0.18469  0.19039  0.43863  1.0000
  C   C30       1.0  0.20953  0.15279  0.35539  1.0000
  C   C31       1.0  0.24615  0.19307  0.44755  1.0000
  C   C32       1.0  0.25179  0.13566  0.31707  1.0000
  C   C33       1.0  0.27115  0.15587  0.36047  1.0000
  C   C34       1.0  0.31438  0.14204  0.32725  1.0000
  C   C35       1.0  0.34761  0.10837  0.24874  1.0000
  C   C36       1.0  0.34332  0.07902  0.17305  1.0000
  C   C37       1.0  0.38996  0.09928  0.24611  1.0000
  C   C38       1.0  0.42365  0.06302  0.17361  1.0000
  C   C39       1.0  0.39855  0.12506  0.32102  1.0000
  C   C40       1.0  0.46370  0.05223  0.18234  1.0000
  C   C41       1.0  0.43846  0.11425  0.33028  1.0000
  C   C42       1.0  0.47213  0.07703  0.26481  1.0000
  C   C43       1.0  0.06132  0.34539  0.40862  1.0000
  C   C44       1.0  0.03873  0.38865  0.41172  1.0000
  C   C45       1.0  0.86602  0.69371  0.48990  1.0000
  C   C46       1.0  0.85529  0.66793  0.09414  1.0000
  C   C47       1.0  0.81987  0.67642  0.21718  1.0000
  C   C48       1.0  0.88493  0.62332  0.06608  1.0000
  C   C49       1.0  0.87734  0.59166  0.15571  1.0000
  C   C50       1.0  0.90431  0.54962  0.12763  1.0000
  C   C51       1.0  0.94043  0.53691  0.00887  1.0000
  C   C52       1.0  0.97864  0.48638  0.45625  1.0000
  C   C53       1.0  0.51371  0.06492  0.29253  1.0000
  C   C54       1.0  0.51710  0.09631  0.35763  1.0000
  C   C55       1.0  0.01206  0.48023  0.32475  1.0000
  C   C56       1.0  0.96703  0.45917  0.05825  1.0000
  C   C57       1.0  0.54700  0.02572  0.26808  1.0000
  C   C58       1.0  0.95495  0.11693  0.74585  1.0000
  C   C59       1.0  0.88829  0.01309  0.66481  1.0000
  C   C60       1.0  0.99155  0.11156  0.65426  1.0000
  C   C61       1.0  0.84725  0.02615  0.68437  1.0000
  C   C62       1.0  0.92960  0.15056  0.85444  1.0000
  C   C63       1.0  0.91745  0.97379  0.59399  1.0000
  C   C64       1.0  0.05222  0.12309  0.03729  1.0000
  C   C65       1.0  0.07235  0.14618  0.00653  1.0000
  C   C66       1.0  0.82819  0.00346  0.65091  1.0000
  C   C67       1.0  0.78884  0.02598  0.60144  1.0000
  C   C68       1.0  0.84687  0.95947  0.66547  1.0000
  C   C69       1.0  0.77032  0.00566  0.55815  1.0000
  C   C70       1.0  0.82799  0.93942  0.62415  1.0000
  C   C71       1.0  0.78968  0.96164  0.56515  1.0000
  C   C72       1.0  0.77071  0.93946  0.51676  1.0000
  C   C73       1.0  0.79148  0.89551  0.52037  1.0000
  C   C74       1.0  0.72875  0.96758  0.96760  1.0000
  C   C75       1.0  0.76985  0.88025  0.98281  1.0000
  C   C76       1.0  0.70938  0.94722  0.92819  1.0000
  C   C77       1.0  0.73014  0.90324  0.94080  1.0000
  C   C78       1.0  0.66784  0.97097  0.87982  1.0000
  C   C79       1.0  0.65267  0.95162  0.80101  1.0000
  C   C80       1.0  0.64121  0.01333  0.91516  1.0000
  C   C81       1.0  0.61283  0.97300  0.76508  1.0000
  C   C82       1.0  0.60126  0.03497  0.87918  1.0000
  C   C83       1.0  0.58568  0.01506  0.80524  1.0000
  C   C84       1.0  0.07687  0.20529  0.54130  1.0000
  C   C85       1.0  0.11751  0.19271  0.01272  1.0000
  C   C86       1.0  0.05392  0.24903  0.54469  1.0000
  C   C87       1.0  0.13636  0.21743  0.98528  1.0000
  C   C88       1.0  0.07287  0.27358  0.51357  1.0000
  C   C89       1.0  0.11570  0.25350  0.47816  1.0000
  C   C90       1.0  0.20411  0.20975  0.48672  1.0000
  C   C91       1.0  0.31178  0.14786  0.84628  1.0000
  C   C92       1.0  0.34430  0.11457  0.76227  1.0000
  C   C93       1.0  0.33887  0.08621  0.68544  1.0000
  C   C94       1.0  0.38700  0.10493  0.75460  1.0000
  C   C95       1.0  0.42025  0.06541  0.70865  1.0000
  C   C96       1.0  0.39620  0.13415  0.79639  1.0000
  C   C97       1.0  0.46031  0.05484  0.71580  1.0000
  C   C98       1.0  0.43615  0.12357  0.80417  1.0000
  C   C99       1.0  0.46918  0.08325  0.76855  1.0000
  C   C100      1.0  0.04841  0.31948  0.51732  1.0000
  C   C101      1.0  0.01149  0.33878  0.62969  1.0000
  C   C102      1.0  0.98889  0.38202  0.63407  1.0000
  C   C103      1.0  0.00170  0.40827  0.52544  1.0000
  C   C104      1.0  0.86080  0.69992  0.00774  1.0000
  C   C105      1.0  0.86210  0.66108  0.57965  1.0000
  C   C106      1.0  0.82802  0.66854  0.70908  1.0000
  C   C107      1.0  0.92110  0.61055  0.94788  1.0000
  C   C108      1.0  0.94796  0.56864  0.91973  1.0000
  C   C109      1.0  0.97010  0.49272  0.97359  1.0000
  C   C110      1.0  0.51049  0.07181  0.79713  1.0000
  C   C111      1.0  0.51302  0.10312  0.86727  1.0000
  C   C112      1.0  0.00358  0.48666  0.84253  1.0000
  C   C113      1.0  0.97566  0.45289  0.54180  1.0000
  C   C114      1.0  0.54440  0.03326  0.76816  1.0000
  N   N1        1.0  0.90843  0.17844  0.44006  1.0000
  N   N2        1.0  0.94161  0.94224  0.53202  1.0000
  N   N3        1.0  0.34140  0.05433  0.10680  1.0000
  N   N4        1.0  0.79150  0.68261  0.32177  1.0000
  N   N5        1.0  0.03880  0.47618  0.21417  1.0000
  N   N6        1.0  0.51415  0.12938  0.92542  1.0000
  N   N7        1.0  0.90807  0.17730  0.94750  1.0000
  N   N8        1.0  0.94130  0.94544  0.01724  1.0000
  N   N9        1.0  0.33553  0.06265  0.61798  1.0000
  N   N10       1.0  0.80093  0.67358  0.81920  1.0000
  N   N11       1.0  0.03006  0.48307  0.73139  1.0000
  N   N12       1.0  0.51891  0.12250  0.41276  1.0000
  C  Sn1       1.0  0.61666  0.02925  0.33524  1.0000
  C   C115      1.0  0.59643  0.01416  0.26550  1.0000
  C  Sn2       1.0  0.11631  0.97116  0.26212  1.0000
  C  Sn3       1.0  0.15301  0.94263  0.32997  1.0000
  C   C116      1.0  0.17321  0.95772  0.39968  1.0000
  C  Sn4       1.0  0.65336  0.00072  0.40308  1.0000
  O  Te1       1.0  0.60039  0.07237  0.33727  1.0000
  O  Te2       1.0  0.09554  0.95683  0.19168  1.0000
  O  Te3       1.0  0.16928  0.89948  0.32787  1.0000
  O  Te4       1.0  0.67410  0.01506  0.47349  1.0000
  Mg  Mg1       1.0  0.12984  0.89523  0.21835  1.0000
  Mg  Mg2       1.0  0.63982  0.07664  0.44697  1.0000
  C  Sn5       1.0  0.89835  0.55196  0.57838  1.0000
  C   C117      1.0  0.93664  0.53418  0.47599  1.0000
  C  Sn6       1.0  0.95649  0.55745  0.41796  1.0000
  C  Sn7       1.0  0.93770  0.59937  0.46330  1.0000
  C   C118      1.0  0.89944  0.61713  0.56566  1.0000
  C  Sn8       1.0  0.87956  0.59388  0.62372  1.0000
  O  Te5       1.0  0.87906  0.52812  0.63495  1.0000
  O  Te6       1.0  0.99475  0.53900  0.31569  1.0000
  O  Te7       1.0  0.95703  0.62321  0.40663  1.0000
  O  Te8       1.0  0.84132  0.61231  0.72596  1.0000
  Mg  Mg3       1.0  0.00886  0.58420  0.27024  1.0000
  Mg  Mg4       1.0  0.82720  0.56713  0.77155  1.0000
  C  Sn9       1.0  0.95579  0.02380  0.67556  1.0000
  C   C119      1.0  0.91568  0.03141  0.72812  1.0000
  C  Sn10      1.0  0.88428  0.07110  0.77543  1.0000
  C  Sn11      1.0  0.89315  0.10389  0.76999  1.0000
  C   C120      1.0  0.93324  0.09628  0.71742  1.0000
  C  Sn12      1.0  0.96466  0.05659  0.67012  1.0000
  O  Te9       1.0  0.49085  0.98388  0.62883  1.0000
  O  Te10      1.0  0.84442  0.07795  0.82759  1.0000
  O  Te11      1.0  0.86220  0.14383  0.81678  1.0000
  O  Te12      1.0  0.00449  0.04974  0.61796  1.0000
  Mg  Mg5       1.0  0.81277  0.13770  0.87876  1.0000
  Mg  Mg6       1.0  0.54031  0.99001  0.56667  1.0000
  C  Sn13      1.0  0.06289  0.14283  0.45851  1.0000
  C   C121      1.0  0.05281  0.17953  0.52916  1.0000
  C  Sn14      1.0  0.02304  0.19374  0.67324  1.0000
  C  Sn15      1.0  0.00294  0.17077  0.74836  1.0000
  C   C122      1.0  0.01302  0.13409  0.67775  1.0000
  C  Sn16      1.0  0.04278  0.11986  0.53363  1.0000
  O  Te13      1.0  0.09275  0.12922  0.31445  1.0000
  O  Te14      1.0  0.01348  0.23052  0.74155  1.0000
  O  Te15      1.0  0.97306  0.18442  0.89254  1.0000
  O  Te16      1.0  0.05235  0.08310  0.46536  1.0000
  Mg  Mg7       1.0  0.97069  0.23633  0.93877  1.0000
  Mg  Mg8       1.0  0.09515  0.07726  0.26820  1.0000
  C  Sn17      1.0  0.77616  0.01765  0.01846  1.0000
  C   C123      1.0  0.29350  0.97494  0.02507  1.0000
  C  Sn18      1.0  0.32506  0.94626  0.11732  1.0000
  C  Sn19      1.0  0.34382  0.96058  0.20490  1.0000
  C   C124      1.0  0.82647  0.00327  0.19830  1.0000
  C  Sn20      1.0  0.79492  0.03196  0.10604  1.0000
  O  Te17      1.0  0.70933  0.03046  0.92546  1.0000
  O  Te18      1.0  0.33773  0.90372  0.12200  1.0000
  O  Te19      1.0  0.37544  0.93243  0.29794  1.0000
  O  Te20      1.0  0.78224  0.07449  0.10137  1.0000
  Mg  Mg9       1.0  0.38194  0.87760  0.26601  1.0000
  Mg  Mg10      1.0  0.70280  0.08533  0.95747  1.0000
  C  Sn21      1.0  0.03359  0.38763  0.88965  1.0000
  C   C125      1.0  0.99632  0.41093  0.99262  1.0000
  C  Sn22      1.0  0.01770  0.40679  0.13217  1.0000
  C  Sn23      1.0  0.04162  0.36314  0.16967  1.0000
  C   C126      1.0  0.07887  0.33986  0.06676  1.0000
  C  Sn24      1.0  0.05751  0.34398  0.92715  1.0000
  O  Te21      1.0  0.04683  0.40771  0.75080  1.0000
  O  Te22      1.0  0.98033  0.43074  0.23322  1.0000
  O  Te23      1.0  0.02834  0.34306  0.30866  1.0000
  O  Te24      1.0  0.09486  0.32005  0.82616  1.0000
  Mg  Mg11      1.0  0.97536  0.38910  0.40843  1.0000
  Mg  Mg12      1.0  0.09987  0.36166  0.65099  1.0000
  C  Sn25      1.0  0.23866  0.15173  0.78807  1.0000
  C   C127      1.0  0.26316  0.16513  0.83457  1.0000
  C  Sn26      1.0  0.24727  0.19407  0.95935  1.0000
  C  Sn27      1.0  0.24126  0.22523  0.03943  1.0000
  C   C128      1.0  0.18157  0.19653  0.99295  1.0000
  C  Sn28      1.0  0.19743  0.16759  0.86815  1.0000
  O  Te25      1.0  0.25518  0.12277  0.66301  1.0000
  O  Te26      1.0  0.30757  0.22230  0.00366  1.0000
  O  Te27      1.0  0.22475  0.25420  0.16458  1.0000
  O  Te28      1.0  0.17238  0.15465  0.82386  1.0000
  Mg  Mg13      1.0  0.27106  0.26224  0.18122  1.0000
  Mg  Mg14      1.0  0.20886  0.11470  0.64639  1.0000
  C  Sn29      1.0  0.78636  0.79385  0.63432  1.0000
  C   C129      1.0  0.79784  0.82225  0.54254  1.0000
  C  Sn30      1.0  0.83049  0.80923  0.40838  1.0000
  C  Sn31      1.0  0.85211  0.76692  0.36496  1.0000
  C   C130      1.0  0.84063  0.73854  0.45669  1.0000
  C  Sn32      1.0  0.80798  0.75155  0.59090  1.0000
  O  Te29      1.0  0.75362  0.80756  0.76795  1.0000
  O  Te30      1.0  0.84140  0.83820  0.31853  1.0000
  O  Te31      1.0  0.88487  0.75322  0.23121  1.0000
  O  Te32      1.0  0.79707  0.72260  0.68070  1.0000
  Mg  Mg15      1.0  0.88814  0.80444  0.14678  1.0000
  Mg  Mg16      1.0  0.75032  0.75633  0.85240  1.0000
  C  Sn33      1.0  0.77935  0.80151  0.12811  1.0000
  C   C131      1.0  0.79268  0.82899  0.04206  1.0000
  C  Sn34      1.0  0.79255  0.79930  0.91942  1.0000
  C  Sn35      1.0  0.81475  0.75656  0.88191  1.0000
  C   C132      1.0  0.80141  0.72911  0.96790  1.0000
  C  Sn36      1.0  0.80155  0.75877  0.09060  1.0000
  O  Te33      1.0  0.74419  0.81659  0.25022  1.0000
  O  Te34      1.0  0.80529  0.82735  0.83512  1.0000
  O  Te35      1.0  0.84994  0.74150  0.75969  1.0000
  O  Te36      1.0  0.78881  0.73075  0.17485  1.0000
  Mg  Mg17      1.0  0.85505  0.79185  0.67909  1.0000
  Mg  Mg18      1.0  0.73904  0.76622  0.33083  1.0000
