data_image0
_chemical_formula_structural       H120C228N24SnCSn2CSnTe4Mg2SnCSn2CSnTe4Mg2SnCSn2CSnTe4Mg2SnCSn2CSnTe4Mg2SnCSn2CSnTe4Mg2SnCSn2CSnTe4Mg2SnCSn2CSnTe4Mg2SnCSn2CSnTe4Mg2SnCSn2CSnTe4Mg2SnCSn2CSnTe4Mg2SnCSn2CSnTe4Mg2SnCSn2CSnTe4Mg2SnCSn2CSnTe4Mg2SnCSn2CSnTe4Mg2SnCSn2CSnTe4Mg2SnCSn2CSnTe4Mg2SnCSn2CSnTe4Mg2SnCSn2CSnTe4Mg2SnCSn2CSnTe4Mg2SnCSn2CSnTe4Mg2SnCSn2CSnTe4Mg2SnCSn2CSnTe4Mg2SnCSn2CSnTe4Mg2SnCSn2CSnTe4Mg2
_chemical_formula_sum              "H120 C276 N24 Sn96 Te96 Mg48"
_cell_length_a       47.6599
_cell_length_b       47.7803
_cell_length_c       9.216
_cell_angle_alpha    79.076
_cell_angle_beta     88.8718
_cell_angle_gamma    60.422

_symmetry_space_group_name_H-M    'P1'
_space_group_IT_number       1

loop_
  _space_group_symop_operation_xyz
  'x, y, z'

loop_
  _atom_site_type_symbol
  _atom_site_label
  _atom_site_symmetry_multiplicity
  _atom_site_fract_x
  _atom_site_fract_y
  _atom_site_fract_z
  _atom_site_occupancy
  H   H1        1.0  0.32070  0.09011  0.51581  1.0000
  H   H2        1.0  0.37130  0.08947  0.45184  1.0000
  H   H3        1.0  0.34012  0.17427  0.14739  1.0000
  H   H4        1.0  0.29068  0.17438  0.21510  1.0000
  H   H5        1.0  0.26923  0.10707  0.44939  1.0000
  H   H6        1.0  0.22652  0.09737  0.11475  1.0000
  H   H7        1.0  0.18906  0.19218  0.23072  1.0000
  H   H8        1.0  0.23971  0.19150  0.16921  1.0000
  H   H9        1.0  0.37445  0.17965  0.05222  1.0000
  H   H10       1.0  0.18123  0.10936  0.09097  1.0000
  H   H11       1.0  0.15378  0.08667  0.51797  1.0000
  H   H12       1.0  0.10226  0.08882  0.47039  1.0000
  H   H13       1.0  0.01463  0.60242  0.15021  1.0000
  H   H14       1.0  0.01347  0.55286  0.12341  1.0000
  H   H15       1.0  0.99517  0.52566  0.01185  1.0000
  H   H16       1.0  0.00258  0.39205  0.22095  1.0000
  H   H17       1.0  0.92478  0.42934  0.94453  1.0000
  H   H18       1.0  0.00425  0.33897  0.27740  1.0000
  H   H19       1.0  0.92766  0.37579  0.00274  1.0000
  H   H20       1.0  0.01974  0.29057  0.39867  1.0000
  H   H21       1.0  0.04857  0.23637  0.37534  1.0000
  H   H22       1.0  0.05499  0.18182  0.39708  1.0000
  H   H23       1.0  0.07975  0.06770  0.22008  1.0000
  H   H24       1.0  0.07595  0.01862  0.20849  1.0000
  H   H25       1.0  0.05320  0.99231  0.11529  1.0000
  H   H26       1.0  0.98705  0.98854  0.28670  1.0000
  H   H27       1.0  0.98501  0.93708  0.33989  1.0000
  H   H28       1.0  0.95292  0.91599  0.12882  1.0000
  H   H29       1.0  0.94739  0.86681  0.16337  1.0000
  H   H30       1.0  0.03436  0.78016  0.50201  1.0000
  H   H31       1.0  0.04929  0.73652  0.39345  1.0000
  H   H32       1.0  0.04730  0.68784  0.35768  1.0000
  H   H33       1.0  0.88766  0.15120  0.06556  1.0000
  H   H34       1.0  0.85428  0.13708  0.03423  1.0000
  H   H35       1.0  0.80389  0.13693  0.09329  1.0000
  H   H36       1.0  0.62744  0.22172  0.44186  1.0000
  H   H37       1.0  0.57727  0.24169  0.33220  1.0000
  H   H38       1.0  0.52705  0.23999  0.29865  1.0000
  H   H39       1.0  0.83842  0.77994  0.03890  1.0000
  H   H40       1.0  0.78927  0.81400  0.01836  1.0000
  H   H41       1.0  0.80730  0.87444  0.22543  1.0000
  H   H42       1.0  0.73905  0.86076  0.06723  1.0000
  H   H43       1.0  0.75781  0.92151  0.27810  1.0000
  H   H44       1.0  0.64190  0.04286  0.45298  1.0000
  H   H45       1.0  0.61769  0.09730  0.39999  1.0000
  H   H46       1.0  0.57115  0.15188  0.38927  1.0000
  H   H47       1.0  0.02452  0.61600  0.32477  1.0000
  H   H48       1.0  0.07762  0.56714  0.32354  1.0000
  H   H49       1.0  0.13124  0.53428  0.39497  1.0000
  H   H50       1.0  0.22194  0.50627  0.16052  1.0000
  H   H51       1.0  0.26927  0.45573  0.11887  1.0000
  H   H52       1.0  0.24867  0.40994  0.26757  1.0000
  H   H53       1.0  0.30766  0.43281  0.96612  1.0000
  H   H54       1.0  0.29601  0.36086  0.21294  1.0000
  H   H55       1.0  0.35524  0.38281  0.92424  1.0000
  H   H56       1.0  0.39006  0.33529  0.96564  1.0000
  H   H57       1.0  0.40412  0.26699  0.24975  1.0000
  H   H58       1.0  0.44230  0.30317  0.04908  1.0000
  H   H59       1.0  0.45570  0.21554  0.28982  1.0000
  H   H60       1.0  0.49415  0.25145  0.08336  1.0000
  H   H61       1.0  0.30193  0.11454  0.89746  1.0000
  H   H62       1.0  0.35238  0.11348  0.83207  1.0000
  H   H63       1.0  0.32924  0.18980  0.50386  1.0000
  H   H64       1.0  0.27882  0.19046  0.56640  1.0000
  H   H65       1.0  0.27654  0.09697  0.05311  1.0000
  H   H66       1.0  0.21885  0.10858  0.51010  1.0000
  H   H67       1.0  0.20188  0.17620  0.79680  1.0000
  H   H68       1.0  0.25293  0.17450  0.73506  1.0000
  H   H69       1.0  0.37802  0.17331  0.56507  1.0000
  H   H70       1.0  0.18388  0.10448  0.60092  1.0000
  H   H71       1.0  0.10673  0.16259  0.77210  1.0000
  H   H72       1.0  0.05572  0.16332  0.72758  1.0000
  H   H73       1.0  0.93546  0.66070  0.81390  1.0000
  H   H74       1.0  0.93369  0.61167  0.78593  1.0000
  H   H75       1.0  0.99792  0.52492  0.51699  1.0000
  H   H76       1.0  0.02709  0.38158  0.88942  1.0000
  H   H77       1.0  0.95338  0.41734  0.61277  1.0000
  H   H78       1.0  0.03019  0.32779  0.95540  1.0000
  H   H79       1.0  0.95384  0.36470  0.66764  1.0000
  H   H80       1.0  0.01824  0.29166  0.89526  1.0000
  H   H81       1.0  0.96026  0.26659  0.59576  1.0000
  H   H82       1.0  0.96700  0.21206  0.61400  1.0000
  H   H83       1.0  0.01182  0.12142  0.83715  1.0000
  H   H84       1.0  0.00711  0.07304  0.82419  1.0000
  H   H85       1.0  0.05385  0.99233  0.61421  1.0000
  H   H86       1.0  0.03473  0.96320  0.72320  1.0000
  H   H87       1.0  0.03235  0.91210  0.77538  1.0000
  H   H88       1.0  0.05385  0.85764  0.05998  1.0000
  H   H89       1.0  0.04855  0.80837  0.10172  1.0000
  H   H90       1.0  0.02903  0.78311  0.00470  1.0000
  H   H91       1.0  0.97880  0.75298  0.71490  1.0000
  H   H92       1.0  0.97810  0.70339  0.68226  1.0000
  H   H93       1.0  0.88930  0.14793  0.54598  1.0000
  H   H94       1.0  0.79887  0.23775  0.79780  1.0000
  H   H95       1.0  0.74833  0.23740  0.85632  1.0000
  H   H96       1.0  0.62593  0.22232  0.96159  1.0000
  H   H97       1.0  0.60602  0.16690  0.73271  1.0000
  H   H98       1.0  0.55626  0.16487  0.69202  1.0000
  H   H99       1.0  0.83908  0.77560  0.54831  1.0000
  H   H100      1.0  0.80208  0.81326  0.62245  1.0000
  H   H101      1.0  0.82083  0.88037  0.79869  1.0000
  H   H102      1.0  0.75341  0.86039  0.67668  1.0000
  H   H103      1.0  0.77128  0.92701  0.85481  1.0000
  H   H104      1.0  0.64352  0.04432  0.96531  1.0000
  H   H105      1.0  0.56991  0.05497  0.69024  1.0000
  H   H106      1.0  0.52232  0.10940  0.66517  1.0000
  H   H107      1.0  0.06620  0.64584  0.63084  1.0000
  H   H108      1.0  0.11913  0.59858  0.62507  1.0000
  H   H109      1.0  0.12745  0.53583  0.89109  1.0000
  H   H110      1.0  0.16455  0.49823  0.83116  1.0000
  H   H111      1.0  0.21188  0.44879  0.78712  1.0000
  H   H112      1.0  0.24635  0.39491  0.87062  1.0000
  H   H113      1.0  0.30753  0.41437  0.60158  1.0000
  H   H114      1.0  0.29417  0.34445  0.82870  1.0000
  H   H115      1.0  0.35450  0.36558  0.54880  1.0000
  H   H116      1.0  0.39129  0.33679  0.44650  1.0000
  H   H117      1.0  0.40562  0.26924  0.73796  1.0000
  H   H118      1.0  0.44335  0.30493  0.52798  1.0000
  H   H119      1.0  0.45732  0.21795  0.77532  1.0000
  H   H120      1.0  0.49515  0.25302  0.56527  1.0000
  C   C1        1.0  0.29216  0.14438  0.06241  1.0000
  C   C2        1.0  0.32229  0.11217  0.51233  1.0000
  C   C3        1.0  0.35105  0.11165  0.47710  1.0000
  C   C4        1.0  0.35462  0.13922  0.47638  1.0000
  C   C5        1.0  0.33193  0.16142  0.08968  1.0000
  C   C6        1.0  0.30352  0.16168  0.12812  1.0000
  C   C7        1.0  0.26220  0.14437  0.10455  1.0000
  C   C8        1.0  0.25741  0.11809  0.09097  1.0000
  C   C9        1.0  0.22882  0.11840  0.12606  1.0000
  C   C10       1.0  0.20318  0.14528  0.17453  1.0000
  C   C11       1.0  0.20821  0.17118  0.19207  1.0000
  C   C12       1.0  0.23701  0.17068  0.15785  1.0000
  C   C13       1.0  0.38575  0.13790  0.44417  1.0000
  C   C14       1.0  0.17164  0.14713  0.20019  1.0000
  C   C15       1.0  0.39519  0.15713  0.49776  1.0000
  C   C16       1.0  0.16291  0.12710  0.14883  1.0000
  C   C17       1.0  0.14968  0.17248  0.27232  1.0000
  C   C18       1.0  0.40579  0.11436  0.35947  1.0000
  C   C19       1.0  0.04290  0.12998  0.04813  1.0000
  C   C20       1.0  0.01383  0.15980  0.02063  1.0000
  C   C21       1.0  0.99723  0.60442  0.06892  1.0000
  C   C22       1.0  0.99668  0.57643  0.05276  1.0000
  C   C23       1.0  0.97863  0.54608  0.44190  1.0000
  C   C24       1.0  0.96116  0.53876  0.35471  1.0000
  C   C25       1.0  0.93516  0.56346  0.24998  1.0000
  C   C26       1.0  0.97836  0.40839  0.41431  1.0000
  C   C27       1.0  0.99240  0.38588  0.32035  1.0000
  C   C28       1.0  0.94791  0.40729  0.94338  1.0000
  C   C29       1.0  0.99350  0.35563  0.35334  1.0000
  C   C30       1.0  0.94952  0.37694  0.97784  1.0000
  C   C31       1.0  0.98000  0.34717  0.47994  1.0000
  C   C32       1.0  0.97980  0.31573  0.02069  1.0000
  C   C33       1.0  0.00166  0.28808  0.46560  1.0000
  C   C34       1.0  0.95585  0.31594  0.11650  1.0000
  C   C35       1.0  0.00406  0.25616  0.48499  1.0000
  C   C36       1.0  0.03055  0.23122  0.42873  1.0000
  C   C37       1.0  0.03417  0.20022  0.44043  1.0000
  C   C38       1.0  0.04436  0.09901  0.03352  1.0000
  C   C39       1.0  0.06402  0.06887  0.13259  1.0000
  C   C40       1.0  0.06184  0.04116  0.12592  1.0000
  C   C41       1.0  0.03997  0.04219  0.02051  1.0000
  C   C42       1.0  0.03616  0.01364  0.03276  1.0000
  C   C43       1.0  0.01351  0.01010  0.46532  1.0000
  C   C44       1.0  0.98894  0.03591  0.35749  1.0000
  C   C45       1.0  0.99738  0.97171  0.39326  1.0000
  C   C46       1.0  0.99628  0.94263  0.42308  1.0000
  C   C47       1.0  0.00370  0.89115  0.08851  1.0000
  C   C48       1.0  0.97394  0.89268  0.11929  1.0000
  C   C49       1.0  0.97075  0.86480  0.14034  1.0000
  C   C50       1.0  0.02733  0.83203  0.10506  1.0000
  C   C51       1.0  0.99725  0.83396  0.13057  1.0000
  C   C52       1.0  0.99293  0.80503  0.14371  1.0000
  C   C53       1.0  0.01126  0.77997  0.07160  1.0000
  C   C54       1.0  0.96762  0.80578  0.23073  1.0000
  C   C55       1.0  0.03367  0.72930  0.45787  1.0000
  C   C56       1.0  0.03254  0.70178  0.43751  1.0000
  C   C57       1.0  0.00913  0.66390  0.49102  1.0000
  C   C58       1.0  0.97956  0.66468  0.48365  1.0000
  C   C59       1.0  0.88946  0.16745  0.46333  1.0000
  C   C60       1.0  0.86057  0.18881  0.38010  1.0000
  C   C61       1.0  0.85743  0.21372  0.25796  1.0000
  C   C62       1.0  0.83120  0.15945  0.99778  1.0000
  C   C63       1.0  0.80271  0.15932  0.03131  1.0000
  C   C64       1.0  0.65551  0.18287  0.13118  1.0000
  C   C65       1.0  0.62642  0.20289  0.04736  1.0000
  C   C66       1.0  0.65973  0.15738  0.25297  1.0000
  C   C67       1.0  0.57263  0.22494  0.41294  1.0000
  C   C68       1.0  0.54438  0.22381  0.39324  1.0000
  C   C69       1.0  0.50973  0.19780  0.47104  1.0000
  C   C70       1.0  0.51130  0.16740  0.49419  1.0000
  C   C71       1.0  0.85375  0.78085  0.46744  1.0000
  C   C72       1.0  0.84008  0.81275  0.38972  1.0000
  C   C73       1.0  0.80896  0.83999  0.41946  1.0000
  C   C74       1.0  0.85585  0.82193  0.27234  1.0000
  C   C75       1.0  0.78576  0.83864  0.98301  1.0000
  C   C76       1.0  0.79558  0.87123  0.32469  1.0000
  C   C77       1.0  0.75722  0.86519  0.01139  1.0000
  C   C78       1.0  0.76768  0.89802  0.35575  1.0000
  C   C79       1.0  0.75165  0.89503  0.48273  1.0000
  C   C80       1.0  0.63618  0.00948  0.10692  1.0000
  C   C81       1.0  0.62662  0.04138  0.03930  1.0000
  C   C82       1.0  0.61810  0.00188  0.21670  1.0000
  C   C83       1.0  0.59684  0.09980  0.45931  1.0000
  C   C84       1.0  0.57018  0.13076  0.45055  1.0000
  C   C85       1.0  0.04068  0.63472  0.48029  1.0000
  C   C86       1.0  0.04505  0.61184  0.39296  1.0000
  C   C87       1.0  0.07502  0.58430  0.39246  1.0000
  C   C88       1.0  0.10285  0.57839  0.47513  1.0000
  C   C89       1.0  0.13310  0.54911  0.46680  1.0000
  C   C90       1.0  0.16117  0.53751  0.02494  1.0000
  C   C91       1.0  0.18922  0.50657  0.99983  1.0000
  C   C92       1.0  0.16859  0.55423  0.11731  1.0000
  C   C93       1.0  0.21957  0.49379  0.07818  1.0000
  C   C94       1.0  0.24651  0.46528  0.05338  1.0000
  C   C95       1.0  0.27426  0.41631  0.43812  1.0000
  C   C96       1.0  0.27177  0.40010  0.33064  1.0000
  C   C97       1.0  0.30452  0.41332  0.93860  1.0000
  C   C98       1.0  0.29866  0.37243  0.29869  1.0000
  C   C99       1.0  0.33172  0.37560  0.48274  1.0000
  C   C100      1.0  0.32930  0.35957  0.37389  1.0000
  C   C101      1.0  0.35754  0.32953  0.34339  1.0000
  C   C102      1.0  0.38875  0.31983  0.39113  1.0000
  C   C103      1.0  0.35047  0.31034  0.26566  1.0000
  C   C104      1.0  0.41898  0.28997  0.39070  1.0000
  C   C105      1.0  0.42357  0.26420  0.32105  1.0000
  C   C106      1.0  0.44549  0.28460  0.98768  1.0000
  C   C107      1.0  0.45290  0.23509  0.34261  1.0000
  C   C108      1.0  0.47481  0.25540  0.00726  1.0000
  C   C109      1.0  0.47918  0.22960  0.43437  1.0000
  C   C110      1.0  0.29568  0.14026  0.54760  1.0000
  C   C111      1.0  0.31043  0.12725  0.95467  1.0000
  C   C112      1.0  0.33896  0.12691  0.91616  1.0000
  C   C113      1.0  0.35054  0.14381  0.98367  1.0000
  C   C114      1.0  0.32787  0.16759  0.50871  1.0000
  C   C115      1.0  0.29918  0.16800  0.54406  1.0000
  C   C116      1.0  0.26537  0.14065  0.58741  1.0000
  C   C117      1.0  0.25517  0.12156  0.52919  1.0000
  C   C118      1.0  0.22632  0.12243  0.56436  1.0000
  C   C119      1.0  0.20624  0.14207  0.66130  1.0000
  C   C120      1.0  0.21657  0.16089  0.72086  1.0000
  C   C121      1.0  0.24538  0.16020  0.68442  1.0000
  C   C122      1.0  0.38186  0.14172  0.94851  1.0000
  C   C123      1.0  0.17474  0.14430  0.69370  1.0000
  C   C124      1.0  0.39204  0.16109  0.99543  1.0000
  C   C125      1.0  0.16533  0.12402  0.64997  1.0000
  C   C126      1.0  0.15371  0.16983  0.76728  1.0000
  C   C127      1.0  0.40147  0.11734  0.86650  1.0000
  C   C128      1.0  0.13456  0.12500  0.64518  1.0000
  C   C129      1.0  0.10610  0.14642  0.70530  1.0000
  C   C130      1.0  0.13236  0.10342  0.56574  1.0000
  C   C131      1.0  0.07728  0.14688  0.68040  1.0000
  C   C132      1.0  0.10325  0.10458  0.53874  1.0000
  C   C133      1.0  0.07454  0.12721  0.59151  1.0000
  C   C134      1.0  0.04332  0.13002  0.55066  1.0000
  C   C135      1.0  0.01403  0.15966  0.52298  1.0000
  C   C136      1.0  0.97602  0.63536  0.97912  1.0000
  C   C137      1.0  0.95271  0.63694  0.88092  1.0000
  C   C138      1.0  0.95185  0.60910  0.86464  1.0000
  C   C139      1.0  0.97453  0.57777  0.94757  1.0000
  C   C140      1.0  0.97661  0.54711  0.93487  1.0000
  C   C141      1.0  0.95897  0.54055  0.84446  1.0000
  C   C142      1.0  0.93245  0.56576  0.74364  1.0000
  C   C143      1.0  0.97562  0.41000  0.91206  1.0000
  C   C144      1.0  0.00516  0.38063  0.91528  1.0000
  C   C145      1.0  0.96482  0.39999  0.54021  1.0000
  C   C146      1.0  0.00690  0.35008  0.95016  1.0000
  C   C147      1.0  0.96516  0.37022  0.57134  1.0000
  C   C148      1.0  0.97908  0.34763  0.98200  1.0000
  C   C149      1.0  0.98037  0.31546  0.51776  1.0000
  C   C150      1.0  0.00110  0.28854  0.96721  1.0000
  C   C151      1.0  0.95717  0.31523  0.61751  1.0000
  C   C152      1.0  0.98129  0.24830  0.55266  1.0000
  C   C153      1.0  0.98513  0.21726  0.56343  1.0000
  C   C154      1.0  0.01169  0.19218  0.50938  1.0000
  C   C155      1.0  0.02523  0.09890  0.91963  1.0000
  C   C156      1.0  0.02256  0.07167  0.91323  1.0000
  C   C157      1.0  0.03636  0.01389  0.53405  1.0000
  C   C158      1.0  0.01299  0.01001  0.96545  1.0000
  C   C159      1.0  0.01199  0.97934  0.49909  1.0000
  C   C160      1.0  0.98726  0.03667  0.86513  1.0000
  C   C161      1.0  0.02445  0.95735  0.63719  1.0000
  C   C162      1.0  0.02278  0.92857  0.66759  1.0000
  C   C163      1.0  0.00892  0.92055  0.56047  1.0000
  C   C164      1.0  0.03040  0.86000  0.08376  1.0000
  C   C165      1.0  0.99719  0.80367  0.63395  1.0000
  C   C166      1.0  0.01554  0.77814  0.56442  1.0000
  C   C167      1.0  0.97179  0.80457  0.72082  1.0000
  C   C168      1.0  0.01385  0.74910  0.55541  1.0000
  C   C169      1.0  0.99378  0.73898  0.63616  1.0000
  C   C170      1.0  0.99331  0.71111  0.61788  1.0000
  C   C171      1.0  0.01163  0.69246  0.51499  1.0000
  C   C172      1.0  0.00677  0.66506  0.99564  1.0000
  C   C173      1.0  0.97739  0.66555  0.98284  1.0000
  C   C174      1.0  0.88879  0.16862  0.97352  1.0000
  C   C175      1.0  0.86052  0.18895  0.88472  1.0000
  C   C176      1.0  0.83046  0.18785  0.91516  1.0000
  C   C177      1.0  0.85801  0.21293  0.75936  1.0000
  C   C178      1.0  0.80002  0.21562  0.86289  1.0000
  C   C179      1.0  0.77151  0.21535  0.89591  1.0000
  C   C180      1.0  0.77220  0.18735  0.98264  1.0000
  C   C181      1.0  0.65498  0.18398  0.62193  1.0000
  C   C182      1.0  0.62657  0.20400  0.53325  1.0000
  C   C183      1.0  0.65831  0.15882  0.74337  1.0000
  C   C184      1.0  0.59637  0.20373  0.53192  1.0000
  C   C185      1.0  0.58938  0.18258  0.63572  1.0000
  C   C186      1.0  0.56132  0.18152  0.61422  1.0000
  C   C187      1.0  0.53870  0.20102  0.49143  1.0000
  C   C188      1.0  0.50939  0.19753  0.97523  1.0000
  C   C189      1.0  0.51011  0.16755  0.99456  1.0000
  C   C190      1.0  0.85321  0.78411  0.95527  1.0000
  C   C191      1.0  0.84042  0.81587  0.87735  1.0000
  C   C192      1.0  0.80946  0.84343  0.90684  1.0000
  C   C193      1.0  0.85642  0.82478  0.76044  1.0000
  C   C194      1.0  0.79247  0.83672  0.54462  1.0000
  C   C195      1.0  0.80303  0.87598  0.85876  1.0000
  C   C196      1.0  0.76456  0.86354  0.57533  1.0000
  C   C197      1.0  0.77473  0.90238  0.88929  1.0000
  C   C198      1.0  0.75109  0.89774  0.96673  1.0000
  C   C199      1.0  0.63560  0.00843  0.60453  1.0000
  C   C200      1.0  0.62591  0.04014  0.53367  1.0000
  C   C201      1.0  0.61723  0.00136  0.71443  1.0000
  C   C202      1.0  0.59759  0.07122  0.54217  1.0000
  C   C203      1.0  0.57032  0.07582  0.62067  1.0000
  C   C204      1.0  0.54324  0.10695  0.60707  1.0000
  C   C205      1.0  0.54188  0.13531  0.51848  1.0000
  C   C206      1.0  0.06859  0.62898  0.56103  1.0000
  C   C207      1.0  0.09878  0.60188  0.55862  1.0000
  C   C208      1.0  0.13020  0.55019  0.96280  1.0000
  C   C209      1.0  0.16368  0.53726  0.53092  1.0000
  C   C210      1.0  0.17083  0.55491  0.61852  1.0000
  C   C211      1.0  0.18717  0.48910  0.89696  1.0000
  C   C212      1.0  0.21412  0.46068  0.87230  1.0000
  C   C213      1.0  0.24454  0.44806  0.94947  1.0000
  C   C214      1.0  0.27308  0.41791  0.92307  1.0000
  C   C215      1.0  0.27019  0.39244  0.88203  1.0000
  C   C216      1.0  0.30494  0.40335  0.51341  1.0000
  C   C217      1.0  0.29725  0.36377  0.85907  1.0000
  C   C218      1.0  0.33158  0.38481  0.91498  1.0000
  C   C219      1.0  0.32866  0.35920  0.87555  1.0000
  C   C220      1.0  0.35729  0.32876  0.85007  1.0000
  C   C221      1.0  0.38824  0.31916  0.90170  1.0000
  C   C222      1.0  0.35091  0.30926  0.77130  1.0000
  C   C223      1.0  0.41891  0.28998  0.89724  1.0000
  C   C224      1.0  0.42445  0.26557  0.81616  1.0000
  C   C225      1.0  0.44607  0.28546  0.47388  1.0000
  C   C226      1.0  0.45387  0.23655  0.83629  1.0000
  C   C227      1.0  0.47529  0.25615  0.49538  1.0000
  C   C228      1.0  0.47931  0.22982  0.93733  1.0000
  N   N1        1.0  0.13208  0.19347  0.33204  1.0000
  N   N2        1.0  0.42101  0.09516  0.28683  1.0000
  N   N3        1.0  0.91367  0.58259  0.16176  1.0000
  N   N4        1.0  0.93605  0.31785  0.19779  1.0000
  N   N5        1.0  0.96817  0.05619  0.26864  1.0000
  N   N6        1.0  0.94709  0.80719  0.30612  1.0000
  N   N7        1.0  0.85389  0.23388  0.15383  1.0000
  N   N8        1.0  0.66389  0.13659  0.35525  1.0000
  N   N9        1.0  0.86724  0.83072  0.17285  1.0000
  N   N10       1.0  0.60443  0.99489  0.31090  1.0000
  N   N11       1.0  0.17587  0.56705  0.19357  1.0000
  N   N12       1.0  0.34388  0.29523  0.20066  1.0000
  N   N13       1.0  0.13723  0.19050  0.83097  1.0000
  N   N14       1.0  0.41649  0.09757  0.79605  1.0000
  N   N15       1.0  0.91045  0.58523  0.65858  1.0000
  N   N16       1.0  0.93817  0.31669  0.70283  1.0000
  N   N17       1.0  0.96555  0.05777  0.78287  1.0000
  N   N18       1.0  0.95102  0.80609  0.79483  1.0000
  N   N19       1.0  0.85509  0.23227  0.65273  1.0000
  N   N20       1.0  0.66195  0.13830  0.84608  1.0000
  N   N21       1.0  0.86779  0.83346  0.66051  1.0000
  N   N22       1.0  0.60321  0.99492  0.80850  1.0000
  N   N23       1.0  0.17803  0.56832  0.69167  1.0000
  N   N24       1.0  0.34498  0.29398  0.70447  1.0000
  C  Sn1       1.0  0.02728  0.22759  0.88380  1.0000
  C   C229      1.0  0.00297  0.25436  0.93564  1.0000
  C  Sn2       1.0  0.96432  0.29567  0.04026  1.0000
  C  Sn3       1.0  0.96896  0.26371  0.09428  1.0000
  C   C230      1.0  0.99326  0.23697  0.04247  1.0000
  C  Sn4       1.0  0.03192  0.19563  0.93782  1.0000
  O  Te1       1.0  0.04677  0.23270  0.77921  1.0000
  O  Te2       1.0  0.94017  0.32281  0.09038  1.0000
  O  Te3       1.0  0.94945  0.25862  0.19895  1.0000
  O  Te4       1.0  0.05606  0.16852  0.88773  1.0000
  Mg  Mg1       1.0  0.91982  0.30332  0.23336  1.0000
  Mg  Mg2       1.0  0.07643  0.18797  0.74481  1.0000
  C  Sn5       1.0  0.56411  0.18382  0.15842  1.0000
  C   C231      1.0  0.53929  0.20250  0.04432  1.0000
  C  Sn6       1.0  0.56284  0.17445  0.91683  1.0000
  C  Sn7       1.0  0.59295  0.17354  0.90303  1.0000
  C   C232      1.0  0.59888  0.20071  0.01706  1.0000
  C  Sn8       1.0  0.59423  0.18291  0.14462  1.0000
  O  Te5       1.0  0.55891  0.16621  0.28488  1.0000
  O  Te6       1.0  0.53765  0.19297  0.80427  1.0000
  O  Te7       1.0  0.59814  0.19117  0.77643  1.0000
  O  Te8       1.0  0.61939  0.16440  0.25712  1.0000
  Mg  Mg3       1.0  0.55647  0.21275  0.65339  1.0000
  Mg  Mg4       1.0  0.60061  0.14459  0.40801  1.0000
  C  Sn9       1.0  0.94727  0.49322  0.26097  1.0000
  C   C233      1.0  0.95775  0.50514  0.36268  1.0000
  C  Sn10      1.0  0.98168  0.48336  0.47682  1.0000
  C  Sn11      1.0  0.99546  0.44896  0.48953  1.0000
  C   C234      1.0  0.98499  0.43706  0.38786  1.0000
  C  Sn12      1.0  0.96105  0.45882  0.27368  1.0000
  O  Te9       1.0  0.92331  0.51544  0.14774  1.0000
  O  Te10      1.0  0.99175  0.49586  0.57720  1.0000
  O  Te11      1.0  0.01944  0.42674  0.60289  1.0000
  O  Te12      1.0  0.95099  0.44633  0.17334  1.0000
  Mg  Mg5       1.0  0.02510  0.45572  0.71238  1.0000
  Mg  Mg6       1.0  0.91765  0.48645  0.03808  1.0000
  C  Sn13      1.0  0.69489  0.19540  0.92398  1.0000
  C   C235      1.0  0.66979  0.22666  0.05751  1.0000
  C  Sn14      1.0  0.68973  0.21739  0.18693  1.0000
  C  Sn15      1.0  0.71645  0.22283  0.18283  1.0000
  C   C236      1.0  0.72266  0.23742  0.04937  1.0000
  C  Sn16      1.0  0.72161  0.20085  0.91988  1.0000
  O  Te13      1.0  0.67463  0.20448  0.79596  1.0000
  O  Te14      1.0  0.68303  0.20283  0.31910  1.0000
  O  Te15      1.0  0.73672  0.21374  0.31100  1.0000
  O  Te16      1.0  0.72829  0.21540  0.78779  1.0000
  Mg  Mg7       1.0  0.71765  0.19476  0.46411  1.0000
  Mg  Mg8       1.0  0.69369  0.22349  0.64273  1.0000
  C  Sn17      1.0  0.46972  0.14647  0.88304  1.0000
  C   C237      1.0  0.47600  0.16721  0.94782  1.0000
  C  Sn18      1.0  0.43713  0.22973  0.05112  1.0000
  C  Sn19      1.0  0.41030  0.22557  0.09058  1.0000
  C   C238      1.0  0.40403  0.20483  0.02585  1.0000
  C  Sn20      1.0  0.44289  0.14230  0.92251  1.0000
  O  Te17      1.0  0.49003  0.13004  0.78003  1.0000
  O  Te18      1.0  0.44389  0.25035  0.11434  1.0000
  O  Te19      1.0  0.38999  0.24202  0.19368  1.0000
  O  Te20      1.0  0.43614  0.12169  0.85932  1.0000
  Mg  Mg9       1.0  0.40918  0.26739  0.24930  1.0000
  Mg  Mg10      1.0  0.47085  0.10463  0.72441  1.0000
  C  Sn21      1.0  0.57144  0.12453  0.90590  1.0000
  C   C239      1.0  0.54318  0.13297  0.97834  1.0000
  C  Sn22      1.0  0.52342  0.15669  0.09890  1.0000
  C  Sn23      1.0  0.55137  0.12547  0.14816  1.0000
  C   C240      1.0  0.57962  0.11704  0.07575  1.0000
  C  Sn24      1.0  0.59940  0.09331  0.95516  1.0000
  O  Te21      1.0  0.57177  0.14704  0.78562  1.0000
  O  Te22      1.0  0.49488  0.16568  0.16951  1.0000
  O  Te23      1.0  0.55102  0.10296  0.26854  1.0000
  O  Te24      1.0  0.62792  0.08433  0.88458  1.0000
  Mg  Mg11      1.0  0.50642  0.12657  0.32844  1.0000
  Mg  Mg12      1.0  0.61640  0.12343  0.72570  1.0000
  C  Sn25      1.0  0.99330  0.73094  0.17251  1.0000
  C   C241      1.0  0.01203  0.74400  0.10504  1.0000
  C  Sn26      1.0  0.04738  0.68721  0.98238  1.0000
  C  Sn27      1.0  0.04507  0.66272  0.92590  1.0000
  C   C242      1.0  0.02635  0.64969  0.99334  1.0000
  C  Sn28      1.0  0.99099  0.70646  0.11604  1.0000
  O  Te25      1.0  0.97704  0.74224  0.29501  1.0000
  O  Te26      1.0  0.06596  0.70062  0.91683  1.0000
  O  Te27      1.0  0.06135  0.65143  0.80330  1.0000
  O  Te28      1.0  0.97242  0.69306  0.18155  1.0000
  Mg  Mg13      1.0  0.08360  0.67723  0.75228  1.0000
  Mg  Mg14      1.0  0.95475  0.71644  0.34605  1.0000
  C  Sn29      1.0  0.04256  0.93953  0.02234  1.0000
  C   C243      1.0  0.03708  0.92611  0.96804  1.0000
  C  Sn30      1.0  0.00451  0.93475  0.97106  1.0000
  C  Sn31      1.0  0.97723  0.95630  0.02966  1.0000
  C   C244      1.0  0.00158  0.92389  0.08394  1.0000
  C  Sn32      1.0  0.03416  0.91524  0.08094  1.0000
  O  Te29      1.0  0.07497  0.93145  0.01823  1.0000
  O  Te30      1.0  0.47544  0.96733  0.91609  1.0000
  O  Te31      1.0  0.94479  0.96441  0.03373  1.0000
  O  Te32      1.0  0.05808  0.88267  0.13588  1.0000
  Mg  Mg15      1.0  0.43471  0.96623  0.94586  1.0000
  Mg  Mg16      1.0  0.09881  0.88375  0.10624  1.0000
  C  Sn33      1.0  0.47061  0.14798  0.37350  1.0000
  C   C245      1.0  0.47735  0.16693  0.44969  1.0000
  C  Sn34      1.0  0.45843  0.18057  0.56215  1.0000
  C  Sn35      1.0  0.43224  0.17515  0.59932  1.0000
  C   C246      1.0  0.42552  0.15620  0.52317  1.0000
  C  Sn36      1.0  0.44442  0.14255  0.41066  1.0000
  O  Te33      1.0  0.48984  0.13458  0.26146  1.0000
  O  Te34      1.0  0.46563  0.19944  0.63672  1.0000
  O  Te35      1.0  0.41300  0.18857  0.71146  1.0000
  O  Te36      1.0  0.43724  0.12369  0.33614  1.0000
  Mg  Mg17      1.0  0.43242  0.21248  0.78104  1.0000
  Mg  Mg18      1.0  0.47044  0.11063  0.19186  1.0000
  C  Sn37      1.0  0.68888  0.94411  0.18582  1.0000
  C   C247      1.0  0.67293  0.97664  0.10649  1.0000
  C  Sn38      1.0  0.69825  0.93846  0.96029  1.0000
  C  Sn39      1.0  0.72108  0.91309  0.89190  1.0000
  C   C248      1.0  0.73701  0.88058  0.97120  1.0000
  C  Sn40      1.0  0.71172  0.91873  0.11743  1.0000
  O  Te37      1.0  0.68208  0.93701  0.33186  1.0000
  O  Te38      1.0  0.17686  0.97117  0.88325  1.0000
  O  Te39      1.0  0.72788  0.92022  0.74574  1.0000
  O  Te40      1.0  0.72794  0.88605  0.19445  1.0000
  Mg  Mg19      1.0  0.69954  0.96849  0.68665  1.0000
  Mg  Mg20      1.0  0.71042  0.88870  0.39101  1.0000
  C  Sn41      1.0  0.08881  0.60271  0.10492  1.0000
  C   C249      1.0  0.09726  0.57993  0.01378  1.0000
  C  Sn42      1.0  0.09550  0.54086  0.89060  1.0000
  C  Sn43      1.0  0.06580  0.57105  0.85777  1.0000
  C   C250      1.0  0.05737  0.59382  0.94886  1.0000
  C  Sn44      1.0  0.05911  0.63290  0.07209  1.0000
  O  Te41      1.0  0.10982  0.59541  0.22748  1.0000
  O  Te42      1.0  0.10446  0.51770  0.80115  1.0000
  O  Te43      1.0  0.04479  0.57834  0.73509  1.0000
  O  Te44      1.0  0.05017  0.65605  0.16149  1.0000
  Mg  Mg21      1.0  0.06773  0.53894  0.64662  1.0000
  Mg  Mg22      1.0  0.08689  0.63484  0.31600  1.0000
  C  Sn45      1.0  0.99917  0.87068  0.74435  1.0000
  C   C251      1.0  0.01298  0.88285  0.63278  1.0000
  C  Sn46      1.0  0.01911  0.87146  0.50037  1.0000
  C  Sn47      1.0  0.01125  0.84742  0.47898  1.0000
  C   C252      1.0  0.99744  0.83527  0.59050  1.0000
  C  Sn48      1.0  0.99131  0.84664  0.72297  1.0000
  O  Te45      1.0  0.99325  0.88242  0.87583  1.0000
  O  Te46      1.0  0.03294  0.88398  0.39046  1.0000
  O  Te47      1.0  0.01718  0.83568  0.34737  1.0000
  O  Te48      1.0  0.97748  0.83414  0.83282  1.0000
  Mg  Mg23      1.0  0.03635  0.86029  0.23060  1.0000
  Mg  Mg24      1.0  0.97404  0.85783  0.99268  1.0000
  C  Sn49      1.0  0.94266  0.47856  0.77786  1.0000
  C   C253      1.0  0.97040  0.44820  0.83048  1.0000
  C  Sn50      1.0  0.99627  0.44645  0.90822  1.0000
  C  Sn51      1.0  0.99437  0.47565  0.93399  1.0000
  C   C254      1.0  0.96664  0.50599  0.88140  1.0000
  C  Sn52      1.0  0.94076  0.50776  0.80362  1.0000
  O  Te49      1.0  0.91708  0.47973  0.70042  1.0000
  O  Te50      1.0  0.02376  0.41581  0.95971  1.0000
  O  Te51      1.0  0.00110  0.52031  0.01149  1.0000
  O  Te52      1.0  0.91328  0.53838  0.75218  1.0000
  Mg  Mg25      1.0  0.03338  0.47277  0.05952  1.0000
  Mg  Mg26      1.0  0.88476  0.52729  0.65242  1.0000
  C  Sn53      1.0  0.91078  0.69671  0.50100  1.0000
  C   C255      1.0  0.93914  0.69413  0.44376  1.0000
  C  Sn54      1.0  0.94256  0.72194  0.40469  1.0000
  C  Sn55      1.0  0.91711  0.75296  0.42331  1.0000
  C   C256      1.0  0.88877  0.75553  0.48055  1.0000
  C  Sn56      1.0  0.88532  0.72774  0.51963  1.0000
  O  Te53      1.0  0.90788  0.66859  0.53932  1.0000
  O  Te54      1.0  0.97114  0.71875  0.34763  1.0000
  O  Te55      1.0  0.92002  0.78110  0.38493  1.0000
  O  Te56      1.0  0.85677  0.73091  0.57667  1.0000
  Mg  Mg27      1.0  0.96361  0.76421  0.31171  1.0000
  Mg  Mg28      1.0  0.86428  0.68547  0.61270  1.0000
  C  Sn57      1.0  0.24622  0.47318  0.56594  1.0000
  C   C257      1.0  0.24662  0.44694  0.51798  1.0000
  C  Sn58      1.0  0.21839  0.45062  0.45368  1.0000
  C  Sn59      1.0  0.18914  0.48117  0.43689  1.0000
  C   C258      1.0  0.18874  0.50738  0.48481  1.0000
  C  Sn60      1.0  0.21697  0.50372  0.54915  1.0000
  O  Te57      1.0  0.27473  0.46895  0.62990  1.0000
  O  Te58      1.0  0.21939  0.42404  0.40662  1.0000
  O  Te59      1.0  0.16061  0.48538  0.37287  1.0000
  O  Te60      1.0  0.21598  0.53029  0.59616  1.0000
  Mg  Mg29      1.0  0.17423  0.44192  0.32609  1.0000
  Mg  Mg30      1.0  0.26112  0.51244  0.67664  1.0000
  C  Sn61      1.0  0.68742  0.92571  0.56978  1.0000
  C   C259      1.0  0.71392  0.92452  0.49745  1.0000
  C  Sn62      1.0  0.71862  0.95162  0.47355  1.0000
  C  Sn63      1.0  0.19124  0.98050  0.52306  1.0000
  C   C260      1.0  0.16476  0.98168  0.59536  1.0000
  C  Sn64      1.0  0.66518  0.95459  0.61929  1.0000
  O  Te61      1.0  0.68320  0.89833  0.59249  1.0000
  O  Te62      1.0  0.74529  0.94985  0.40094  1.0000
  O  Te63      1.0  0.19548  0.00789  0.50029  1.0000
  O  Te64      1.0  0.63854  0.95635  0.69188  1.0000
  Mg  Mg31      1.0  0.23551  0.99355  0.39608  1.0000
  Mg  Mg32      1.0  0.64316  0.91266  0.69686  1.0000
  C  Sn65      1.0  0.68772  0.21482  0.46582  1.0000
  C   C261      1.0  0.68472  0.18863  0.54594  1.0000
  C  Sn66      1.0  0.71139  0.16129  0.63120  1.0000
  C  Sn67      1.0  0.74169  0.16009  0.63658  1.0000
  C   C262      1.0  0.74468  0.18626  0.55652  1.0000
  C  Sn68      1.0  0.71802  0.21362  0.47120  1.0000
  O  Te65      1.0  0.66073  0.24191  0.38132  1.0000
  O  Te66      1.0  0.70780  0.13540  0.71030  1.0000
  O  Te67      1.0  0.76869  0.13296  0.72117  1.0000
  O  Te68      1.0  0.72160  0.23949  0.39215  1.0000
  Mg  Mg33      1.0  0.75166  0.10384  0.80951  1.0000
  Mg  Mg34      1.0  0.67776  0.27107  0.29298  1.0000
  C  Sn69      1.0  0.92708  0.65333  0.99788  1.0000
  C   C263      1.0  0.95565  0.64944  0.93801  1.0000
  C  Sn70      1.0  0.95997  0.67656  0.89276  1.0000
  C  Sn71      1.0  0.93522  0.70824  0.90774  1.0000
  C   C264      1.0  0.90666  0.71212  0.96760  1.0000
  C  Sn72      1.0  0.88344  0.73085  0.01286  1.0000
  O  Te69      1.0  0.90440  0.67171  0.04240  1.0000
  O  Te70      1.0  0.98874  0.67206  0.83317  1.0000
  O  Te71      1.0  0.93903  0.73571  0.86315  1.0000
  O  Te72      1.0  0.85469  0.73534  0.07243  1.0000
  Mg  Mg35      1.0  0.98254  0.71705  0.78860  1.0000
  Mg  Mg36      1.0  0.86087  0.69037  0.11712  1.0000
  C  Sn73      1.0  0.80420  0.17715  0.60637  1.0000
  C   C265      1.0  0.77506  0.19178  0.51781  1.0000
  C  Sn74      1.0  0.77384  0.20280  0.36518  1.0000
  C  Sn75      1.0  0.80234  0.19909  0.29968  1.0000
  C   C266      1.0  0.83145  0.18446  0.38821  1.0000
  C  Sn76      1.0  0.83270  0.17345  0.54086  1.0000
  O  Te73      1.0  0.80485  0.16632  0.75871  1.0000
  O  Te74      1.0  0.74443  0.21736  0.27894  1.0000
  O  Te75      1.0  0.80166  0.20994  0.14721  1.0000
  O  Te76      1.0  0.86209  0.15889  0.62708  1.0000
  Mg  Mg37      1.0  0.75583  0.22818  0.07637  1.0000
  Mg  Mg38      1.0  0.85071  0.14804  0.82964  1.0000
  C  Sn77      1.0  0.07858  0.15549  0.15734  1.0000
  C   C267      1.0  0.07318  0.13615  0.07803  1.0000
  C  Sn78      1.0  0.09925  0.10831  0.04118  1.0000
  C  Sn79      1.0  0.13139  0.09961  0.08458  1.0000
  C   C268      1.0  0.13678  0.11895  0.16386  1.0000
  C  Sn80      1.0  0.11072  0.14680  0.20074  1.0000
  O  Te77      1.0  0.05215  0.18321  0.19299  1.0000
  O  Te78      1.0  0.11213  0.04351  0.96178  1.0000
  O  Te79      1.0  0.15783  0.07187  0.04886  1.0000
  O  Te80      1.0  0.11671  0.16574  0.28011  1.0000
  Mg  Mg39      1.0  0.15613  0.00802  0.93949  1.0000
  Mg  Mg40      1.0  0.07273  0.20122  0.30253  1.0000
  C  Sn81      1.0  0.94686  0.19516  0.41914  1.0000
  C   C269      1.0  0.97371  0.17136  0.51616  1.0000
  C  Sn82      1.0  0.97565  0.14166  0.58426  1.0000
  C  Sn83      1.0  0.95024  0.13561  0.55473  1.0000
  C   C270      1.0  0.92342  0.15941  0.45775  1.0000
  C  Sn84      1.0  0.92145  0.18912  0.38960  1.0000
  O  Te81      1.0  0.94543  0.22468  0.35229  1.0000
  O  Te82      1.0  0.00273  0.11823  0.68088  1.0000
  O  Te83      1.0  0.95170  0.10607  0.62168  1.0000
  O  Te84      1.0  0.89440  0.21253  0.29303  1.0000
  Mg  Mg41      1.0  0.99354  0.08182  0.74486  1.0000
  Mg  Mg42      1.0  0.90357  0.24895  0.22892  1.0000
  C  Sn85      1.0  0.05690  0.04864  0.66419  1.0000
  C   C271      1.0  0.03893  0.04498  0.55874  1.0000
  C  Sn86      1.0  0.02606  0.06800  0.42521  1.0000
  C  Sn87      1.0  0.03127  0.09524  0.39642  1.0000
  C   C272      1.0  0.04922  0.09889  0.50181  1.0000
  C  Sn88      1.0  0.06210  0.07588  0.63539  1.0000
  O  Te85      1.0  0.06954  0.02532  0.79691  1.0000
  O  Te86      1.0  0.00817  0.06382  0.32152  1.0000
  O  Te87      1.0  0.01860  0.11856  0.26356  1.0000
  O  Te88      1.0  0.07998  0.08005  0.73903  1.0000
  Mg  Mg43      1.0  0.99591  0.10216  0.15706  1.0000
  Mg  Mg44      1.0  0.09227  0.04172  0.90348  1.0000
  C  Sn89      1.0  0.94675  0.19514  0.91667  1.0000
  C   C273      1.0  0.95461  0.21764  0.01530  1.0000
  C  Sn90      1.0  0.95643  0.18825  0.08765  1.0000
  C  Sn91      1.0  0.93100  0.18206  0.06081  1.0000
  C   C274      1.0  0.92316  0.15955  0.96222  1.0000
  C  Sn92      1.0  0.92131  0.18895  0.88982  1.0000
  O  Te89      1.0  0.94544  0.22435  0.84556  1.0000
  O  Te90      1.0  0.98341  0.16528  0.18581  1.0000
  O  Te91      1.0  0.93233  0.15282  0.13202  1.0000
  O  Te92      1.0  0.89436  0.21190  0.79170  1.0000
  Mg  Mg45      1.0  0.97407  0.12915  0.25582  1.0000
  Mg  Mg46      1.0  0.90368  0.24803  0.72157  1.0000
  C  Sn93      1.0  0.00629  0.59498  0.55278  1.0000
  C   C275      1.0  0.98709  0.62721  0.47334  1.0000
  C  Sn94      1.0  0.95893  0.63604  0.38825  1.0000
  C  Sn95      1.0  0.94975  0.61217  0.38249  1.0000
  C   C276      1.0  0.96894  0.57996  0.46191  1.0000
  C  Sn96      1.0  0.99711  0.57110  0.54702  1.0000
  O  Te93      1.0  0.03434  0.58669  0.63713  1.0000
  O  Te94      1.0  0.94013  0.66842  0.30975  1.0000
  O  Te95      1.0  0.92167  0.62048  0.29804  1.0000
  O  Te96      1.0  0.01590  0.53875  0.62550  1.0000
  Mg  Mg47      1.0  0.90405  0.66774  0.21066  1.0000
  Mg  Mg48      1.0  0.05197  0.53941  0.72468  1.0000
