data_image0
_chemical_formula_structural       H48C60N8SnCSn2CSnTe4Mg2SnCSn2CSnTe4Mg2SnCSn2CSnTe4Mg2SnCSn2CSnTe4Mg2SnCSn2CSnTe4Mg2SnCSn2CSnTe4Mg2
_chemical_formula_sum              "H48 C72 N8 Sn24 Te24 Mg12"
_cell_length_a       23.6427
_cell_length_b       22.5259
_cell_length_c       10.9453
_cell_angle_alpha    75.2861
_cell_angle_beta     77.7684
_cell_angle_gamma    118.334

_symmetry_space_group_name_H-M    'P1'
_space_group_IT_number       1

loop_
  _space_group_symop_operation_xyz
  'x, y, z'

loop_
  _atom_site_type_symbol
  _atom_site_label
  _atom_site_symmetry_multiplicity
  _atom_site_fract_x
  _atom_site_fract_y
  _atom_site_fract_z
  _atom_site_occupancy
  H   H1        1.0  0.78181  0.50903  0.26400  1.0000
  H   H2        1.0  0.72245  0.47747  0.92955  1.0000
  H   H3        1.0  0.70119  0.50046  0.28399  1.0000
  H   H4        1.0  0.91288  0.51438  0.46542  1.0000
  H   H5        1.0  0.96299  0.46509  0.11887  1.0000
  H   H6        1.0  0.83868  0.39016  0.16269  1.0000
  H   H7        1.0  0.05400  0.49437  0.15801  1.0000
  H   H8        1.0  0.50430  0.24678  0.31120  1.0000
  H   H9        1.0  0.48759  0.25215  0.96555  1.0000
  H   H10       1.0  0.48775  0.17714  0.45994  1.0000
  H   H11       1.0  0.54298  0.35722  0.07651  1.0000
  H   H12       1.0  0.45229  0.39773  0.55656  1.0000
  H   H13       1.0  0.56274  0.49952  0.11849  1.0000
  H   H14       1.0  0.62978  0.44305  0.14408  1.0000
  H   H15       1.0  0.54466  0.58283  0.16978  1.0000
  H   H16       1.0  0.72854  0.21774  0.32602  1.0000
  H   H17       1.0  0.71509  0.20562  0.98605  1.0000
  H   H18       1.0  0.78917  0.28736  0.36503  1.0000
  H   H19       1.0  0.61633  0.11419  0.01804  1.0000
  H   H20       1.0  0.44838  0.99482  0.19891  1.0000
  H   H21       1.0  0.78603  0.50502  0.77158  1.0000
  H   H22       1.0  0.72359  0.48435  0.42679  1.0000
  H   H23       1.0  0.70681  0.49752  0.77876  1.0000
  H   H24       1.0  0.78655  0.43647  0.51174  1.0000
  H   H25       1.0  0.05060  0.47892  0.68724  1.0000
  H   H26       1.0  0.11866  0.61971  0.83809  1.0000
  H   H27       1.0  0.24061  0.68752  0.82449  1.0000
  H   H28       1.0  0.29288  0.58916  0.56839  1.0000
  H   H29       1.0  0.17070  0.51972  0.58711  1.0000
  H   H30       1.0  0.50765  0.25025  0.80292  1.0000
  H   H31       1.0  0.48343  0.25282  0.46973  1.0000
  H   H32       1.0  0.48994  0.17684  0.94651  1.0000
  H   H33       1.0  0.52163  0.34353  0.58218  1.0000
  H   H34       1.0  0.47341  0.41196  0.05931  1.0000
  H   H35       1.0  0.55222  0.48291  0.62139  1.0000
  H   H36       1.0  0.61889  0.42544  0.63962  1.0000
  H   H37       1.0  0.54768  0.57782  0.65923  1.0000
  H   H38       1.0  0.72919  0.21282  0.81619  1.0000
  H   H39       1.0  0.71092  0.20890  0.49731  1.0000
  H   H40       1.0  0.79190  0.28370  0.85001  1.0000
  H   H41       1.0  0.56157  0.99794  0.98575  1.0000
  H   H42       1.0  0.51325  0.09620  0.66829  1.0000
  H   H43       1.0  0.57207  0.21306  0.69229  1.0000
  H   H44       1.0  0.44187  0.98591  0.71532  1.0000
  H   H45       1.0  0.46966  0.83702  0.87048  1.0000
  H   H46       1.0  0.41863  0.71820  0.84139  1.0000
  H   H47       1.0  0.33901  0.79589  0.56557  1.0000
  H   H48       1.0  0.38797  0.91261  0.59896  1.0000
  C   C1        1.0  0.72818  0.36146  0.36110  1.0000
  C   C2        1.0  0.69118  0.39581  0.35635  1.0000
  C   C3        1.0  0.72635  0.47662  0.33088  1.0000
  C   C4        1.0  0.80283  0.40604  0.34176  1.0000
  C   C5        1.0  0.82494  0.44253  0.42565  1.0000
  C   C6        1.0  0.89561  0.48596  0.40080  1.0000
  C   C7        1.0  0.94679  0.49265  0.29465  1.0000
  C   C8        1.0  0.92510  0.45806  0.20739  1.0000
  C   C9        1.0  0.85459  0.41580  0.23166  1.0000
  C   C10       1.0  0.06380  0.53011  0.21400  1.0000
  C   C11       1.0  0.62073  0.35401  0.37341  1.0000
  C   C12       1.0  0.58840  0.28036  0.38575  1.0000
  C   C13       1.0  0.51197  0.23679  0.40823  1.0000
  C   C14       1.0  0.58119  0.38963  0.36467  1.0000
  C   C15       1.0  0.53091  0.37772  0.48026  1.0000
  C   C16       1.0  0.49200  0.40822  0.46673  1.0000
  C   C17       1.0  0.50370  0.45382  0.33661  1.0000
  C   C18       1.0  0.55458  0.46661  0.22037  1.0000
  C   C19       1.0  0.59194  0.43437  0.23494  1.0000
  C   C20       1.0  0.48873  0.54673  0.23648  1.0000
  C   C21       1.0  0.62756  0.24844  0.37831  1.0000
  C   C22       1.0  0.69622  0.28736  0.37495  1.0000
  C   C23       1.0  0.73375  0.24886  0.39014  1.0000
  C   C24       1.0  0.46282  0.95787  0.24706  1.0000
  C   C25       1.0  0.73143  0.35718  0.85473  1.0000
  C   C26       1.0  0.69506  0.39218  0.85168  1.0000
  C   C27       1.0  0.72966  0.47226  0.83099  1.0000
  C   C28       1.0  0.06385  0.52226  0.72623  1.0000
  C   C29       1.0  0.13584  0.56478  0.71421  1.0000
  C   C30       1.0  0.15728  0.61364  0.77901  1.0000
  C   C31       1.0  0.22534  0.65177  0.77063  1.0000
  C   C32       1.0  0.27517  0.64322  0.69516  1.0000
  C   C33       1.0  0.25469  0.59546  0.62829  1.0000
  C   C34       1.0  0.18589  0.55642  0.63944  1.0000
  C   C35       1.0  0.62502  0.35168  0.86624  1.0000
  C   C36       1.0  0.59161  0.27838  0.87751  1.0000
  C   C37       1.0  0.51515  0.23685  0.89967  1.0000
  C   C38       1.0  0.58644  0.38816  0.85901  1.0000
  C   C39       1.0  0.54539  0.38515  0.97665  1.0000
  C   C40       1.0  0.50655  0.41597  0.96764  1.0000
  C   C41       1.0  0.50996  0.45344  0.83920  1.0000
  C   C42       1.0  0.55153  0.45709  0.72075  1.0000
  C   C43       1.0  0.58854  0.42422  0.73134  1.0000
  C   C44       1.0  0.49375  0.54467  0.73605  1.0000
  C   C45       1.0  0.62963  0.24526  0.87144  1.0000
  C   C46       1.0  0.69860  0.28339  0.86682  1.0000
  C   C47       1.0  0.73612  0.24477  0.87893  1.0000
  C   C48       1.0  0.59733  0.17297  0.85993  1.0000
  C   C49       1.0  0.59458  0.11123  0.94016  1.0000
  C   C50       1.0  0.56324  0.04524  0.92355  1.0000
  C   C51       1.0  0.53141  0.03713  0.82862  1.0000
  C   C52       1.0  0.53449  0.09899  0.74701  1.0000
  C   C53       1.0  0.56780  0.16537  0.76095  1.0000
  C   C54       1.0  0.45942  0.95085  0.75684  1.0000
  C   C55       1.0  0.43117  0.88199  0.73892  1.0000
  C   C56       1.0  0.44080  0.82696  0.80443  1.0000
  C   C57       1.0  0.41248  0.76117  0.78790  1.0000
  C   C58       1.0  0.37462  0.74892  0.70288  1.0000
  C   C59       1.0  0.36630  0.80424  0.63440  1.0000
  C   C60       1.0  0.39356  0.86938  0.65390  1.0000
  N   N1        1.0  0.01556  0.53406  0.28561  1.0000
  N   N2        1.0  0.46179  0.48145  0.32891  1.0000
  N   N3        1.0  0.50372  0.97465  0.31260  1.0000
  N   N4        1.0  0.34204  0.68549  0.18622  1.0000
  N   N5        1.0  0.01774  0.53298  0.78346  1.0000
  N   N6        1.0  0.46903  0.48243  0.83560  1.0000
  N   N7        1.0  0.50220  0.96892  0.81809  1.0000
  N   N8        1.0  0.34428  0.68069  0.68890  1.0000
  C  Sn1       1.0  0.54264  0.15212  0.27923  1.0000
  C   C61       1.0  0.57651  0.16803  0.36820  1.0000
  C  Sn2       1.0  0.59522  0.12194  0.43122  1.0000
  C  Sn3       1.0  0.57980  0.05864  0.40472  1.0000
  C   C62       1.0  0.54596  0.04276  0.31579  1.0000
  C  Sn4       1.0  0.52722  0.08882  0.25273  1.0000
  O  Te1       1.0  0.52442  0.19898  0.21735  1.0000
  O  Te2       1.0  0.62902  0.13897  0.51981  1.0000
  O  Te3       1.0  0.59805  0.01178  0.46670  1.0000
  O  Te4       1.0  0.49345  0.07182  0.16418  1.0000
  Mg  Mg1       1.0  0.64336  0.05828  0.57939  1.0000
  Mg  Mg2       1.0  0.47912  0.15249  0.10448  1.0000
  C  Sn5       1.0  0.48813  0.66841  0.64396  1.0000
  C   C63       1.0  0.46210  0.59558  0.72818  1.0000
  C  Sn6       1.0  0.39023  0.54218  0.79061  1.0000
  C  Sn7       1.0  0.34341  0.56197  0.76832  1.0000
  C   C64       1.0  0.36944  0.63476  0.68412  1.0000
  C  Sn8       1.0  0.44131  0.68820  0.62167  1.0000
  O  Te5       1.0  0.56017  0.72089  0.58259  1.0000
  O  Te6       1.0  0.36545  0.46973  0.87442  1.0000
  O  Te7       1.0  0.27132  0.50942  0.82977  1.0000
  O  Te8       1.0  0.46610  0.76061  0.53788  1.0000
  Mg  Mg3       1.0  0.26290  0.41801  0.93521  1.0000
  Mg  Mg4       1.0  0.56863  0.81236  0.47699  1.0000
  C  Sn9       1.0  0.36581  0.85226  0.17798  1.0000
  C   C65       1.0  0.40809  0.87536  0.25054  1.0000
  C  Sn10      1.0  0.43935  0.83889  0.29150  1.0000
  C  Sn11      1.0  0.42816  0.77811  0.25919  1.0000
  C   C66       1.0  0.38591  0.75505  0.18666  1.0000
  C  Sn12      1.0  0.35462  0.79148  0.14567  1.0000
  O  Te9       1.0  0.33509  0.88953  0.13806  1.0000
  O  Te10      1.0  0.48138  0.86298  0.36398  1.0000
  O  Te11      1.0  0.45892  0.74084  0.29919  1.0000
  O  Te12      1.0  0.31262  0.76743  0.07322  1.0000
  Mg  Mg5       1.0  0.51185  0.79436  0.39591  1.0000
  Mg  Mg6       1.0  0.28215  0.83603  0.04117  1.0000
  C  Sn13      1.0  0.87361  0.40379  0.73698  1.0000
  C   C67       1.0  0.81569  0.38828  0.83958  1.0000
  C  Sn14      1.0  0.82426  0.43085  0.91585  1.0000
  C  Sn15      1.0  0.89211  0.49019  0.88895  1.0000
  C   C68       1.0  0.94997  0.50568  0.78639  1.0000
  C  Sn16      1.0  0.94146  0.46313  0.71008  1.0000
  O  Te13      1.0  0.86382  0.36051  0.66200  1.0000
  O  Te14      1.0  0.96420  0.63663  0.01793  1.0000
  O  Te15      1.0  0.90186  0.53348  0.96404  1.0000
  O  Te16      1.0  0.00010  0.47969  0.60804  1.0000
  Mg  Mg7       1.0  0.00435  0.71157  0.09237  1.0000
  Mg  Mg8       1.0  0.96000  0.40482  0.53350  1.0000
  C  Sn17      1.0  0.34783  0.56776  0.31877  1.0000
  C   C69       1.0  0.37395  0.63979  0.22989  1.0000
  C  Sn18      1.0  0.43863  0.68157  0.11993  1.0000
  C  Sn19      1.0  0.47801  0.65069  0.09831  1.0000
  C   C70       1.0  0.45188  0.57869  0.18714  1.0000
  C  Sn20      1.0  0.38721  0.53688  0.29715  1.0000
  O  Te17      1.0  0.28304  0.52700  0.42803  1.0000
  O  Te18      1.0  0.46366  0.75347  0.03248  1.0000
  O  Te19      1.0  0.34421  0.46915  0.98894  1.0000
  O  Te20      1.0  0.36216  0.46502  0.38455  1.0000
  Mg  Mg9       1.0  0.35608  0.56465  0.89798  1.0000
  Mg  Mg10      1.0  0.27112  0.43142  0.51903  1.0000
  C  Sn21      1.0  0.24663  0.61527  0.07635  1.0000
  C   C71       1.0  0.27335  0.65775  0.14823  1.0000
  C  Sn22      1.0  0.22836  0.65215  0.26301  1.0000
  C  Sn23      1.0  0.15513  0.60302  0.30692  1.0000
  C   C72       1.0  0.12845  0.56057  0.23507  1.0000
  C  Sn24      1.0  0.17341  0.56615  0.12026  1.0000
  O  Te21      1.0  0.09395  0.39941  0.96189  1.0000
  O  Te22      1.0  0.25630  0.69520  0.33319  1.0000
  O  Te23      1.0  0.10919  0.59655  0.42147  1.0000
  O  Te24      1.0  0.14550  0.52312  0.05012  1.0000
  Mg  Mg11      1.0  0.17240  0.66678  0.48315  1.0000
  Mg  Mg12      1.0  0.03072  0.32911  0.90019  1.0000
