data_image0
_chemical_formula_structural       H30C36N6C2Sn2C2HTe2HMgC2Sn2C2HTe2HMgC2Sn2C2HTe2HMgC2Sn2C2HTe2HMgC2Sn2C2HTe2HMgC2Sn2C2HTe2HMgC2Sn2C2HTe2HMgC2Sn2C2HTe2HMgC2Sn2C2HTe2HMgC2Sn2C2HTe2HMgC2Sn2C2HTe2HMgC2Sn2C2HTe2HMg
_chemical_formula_sum              "H54 C84 N6 Sn24 Te24 Mg12"
_cell_length_a       25.7264
_cell_length_b       25.9881
_cell_length_c       10.198
_cell_angle_alpha    90.5296
_cell_angle_beta     90.293
_cell_angle_gamma    120.47

_symmetry_space_group_name_H-M    'P1'
_space_group_IT_number       1

loop_
  _space_group_symop_operation_xyz
  'x, y, z'

loop_
  _atom_site_type_symbol
  _atom_site_label
  _atom_site_symmetry_multiplicity
  _atom_site_fract_x
  _atom_site_fract_y
  _atom_site_fract_z
  _atom_site_occupancy
  H   H1        1.0  0.51867  0.99138  0.23305  1.0000
  H   H2        1.0  0.01089  0.54067  0.22614  1.0000
  H   H3        1.0  0.46850  0.47446  0.22064  1.0000
  H   H4        1.0  0.72291  0.27801  0.19375  1.0000
  H   H5        1.0  0.72276  0.44318  0.17137  1.0000
  H   H6        1.0  0.55483  0.27613  0.17345  1.0000
  H   H7        1.0  0.26997  0.75523  0.38745  1.0000
  H   H8        1.0  0.27172  0.75700  0.55964  1.0000
  H   H9        1.0  0.21220  0.69493  0.47434  1.0000
  H   H10       1.0  0.48865  0.72639  0.50095  1.0000
  H   H11       1.0  0.48027  0.78686  0.44825  1.0000
  H   H12       1.0  0.47269  0.73187  0.33488  1.0000
  H   H13       1.0  0.30044  0.52035  0.46612  1.0000
  H   H14       1.0  0.23183  0.51640  0.42222  1.0000
  H   H15       1.0  0.25262  0.52221  0.58808  1.0000
  H   H16       1.0  0.54271  0.99647  0.65577  1.0000
  H   H17       1.0  0.00675  0.52794  0.73495  1.0000
  H   H18       1.0  0.45021  0.46400  0.71152  1.0000
  H   H19       1.0  0.71949  0.28137  0.67451  1.0000
  H   H20       1.0  0.71402  0.44372  0.68839  1.0000
  H   H21       1.0  0.54866  0.27388  0.69427  1.0000
  H   H22       1.0  0.28251  0.76549  0.01708  1.0000
  H   H23       1.0  0.21920  0.69618  0.96606  1.0000
  H   H24       1.0  0.27263  0.74325  0.85095  1.0000
  H   H25       1.0  0.47888  0.75010  0.85060  1.0000
  H   H26       1.0  0.49133  0.71286  0.98060  1.0000
  H   H27       1.0  0.48980  0.77942  0.01097  1.0000
  H   H28       1.0  0.30334  0.51866  0.97268  1.0000
  H   H29       1.0  0.23253  0.51400  0.95432  1.0000
  H   H30       1.0  0.26557  0.52500  0.11063  1.0000
  C   C1        1.0  0.36671  0.63956  0.47401  1.0000
  C   C2        1.0  0.36093  0.73065  0.46439  1.0000
  C   C3        1.0  0.26869  0.63366  0.48050  1.0000
  C   C4        1.0  0.50152  0.48558  0.14195  1.0000
  C   C5        1.0  0.51238  0.01324  0.14754  1.0000
  C   C6        1.0  0.98913  0.50532  0.15067  1.0000
  C   C7        1.0  0.63512  0.36343  0.17526  1.0000
  C   C8        1.0  0.63510  0.26966  0.18400  1.0000
  C   C9        1.0  0.73051  0.36447  0.18369  1.0000
  C   C10       1.0  0.69834  0.39471  0.17690  1.0000
  C   C11       1.0  0.60389  0.30086  0.17776  1.0000
  C   C12       1.0  0.69837  0.30190  0.18884  1.0000
  C   C13       1.0  0.39563  0.70246  0.45966  1.0000
  C   C14       1.0  0.29725  0.69638  0.47281  1.0000
  C   C15       1.0  0.30303  0.60498  0.48091  1.0000
  C   C16       1.0  0.26061  0.72714  0.47378  1.0000
  C   C17       1.0  0.46284  0.73899  0.43616  1.0000
  C   C18       1.0  0.27062  0.53757  0.48939  1.0000
  C   C19       1.0  0.37147  0.63811  0.98304  1.0000
  C   C20       1.0  0.36725  0.72993  0.97345  1.0000
  C   C21       1.0  0.27406  0.63324  0.98299  1.0000
  C   C22       1.0  0.48730  0.47831  0.64155  1.0000
  C   C23       1.0  0.51917  0.01602  0.60468  1.0000
  C   C24       1.0  0.98383  0.49807  0.65044  1.0000
  C   C25       1.0  0.62722  0.36226  0.69204  1.0000
  C   C26       1.0  0.63042  0.26987  0.68509  1.0000
  C   C27       1.0  0.72430  0.36637  0.68517  1.0000
  C   C28       1.0  0.69064  0.39518  0.68978  1.0000
  C   C29       1.0  0.59771  0.29966  0.69226  1.0000
  C   C30       1.0  0.69363  0.30384  0.68206  1.0000
  C   C31       1.0  0.40137  0.70105  0.97261  1.0000
  C   C32       1.0  0.30349  0.69600  0.97094  1.0000
  C   C33       1.0  0.30774  0.60405  0.99015  1.0000
  C   C34       1.0  0.26735  0.72662  0.95160  1.0000
  C   C35       1.0  0.46894  0.73762  0.95438  1.0000
  C   C36       1.0  0.27572  0.53702  0.00685  1.0000
  N   N1        1.0  0.50775  0.52041  0.04590  1.0000
  N   N2        1.0  0.48280  0.98450  0.04299  1.0000
  N   N3        1.0  0.01802  0.49778  0.05605  1.0000
  N   N4        1.0  0.49878  0.51755  0.55186  1.0000
  N   N5        1.0  0.47286  0.98481  0.52883  1.0000
  N   N6        1.0  0.01217  0.49399  0.55004  1.0000
  C   C37       1.0  0.47665  0.59032  0.90223  1.0000
  C   C38       1.0  0.47298  0.55303  0.01194  1.0000
  C  Sn1       1.0  0.43476  0.54343  0.11738  1.0000
  C  Sn2       1.0  0.39428  0.56534  0.11260  1.0000
  C   C39       1.0  0.39304  0.59631  0.00236  1.0000
  C   C40       1.0  0.43672  0.61193  0.89741  1.0000
  H   H31       1.0  0.50638  0.59755  0.82100  1.0000
  O  Te1       1.0  0.43691  0.51235  0.22625  1.0000
  O  Te2       1.0  0.35557  0.55635  0.21660  1.0000
  H   H32       1.0  0.43548  0.63593  0.81245  1.0000
  Mg  Mg1       1.0  0.37529  0.51139  0.34350  1.0000
  C   C41       1.0  0.44700  0.83729  0.11834  1.0000
  C   C42       1.0  0.40502  0.80235  0.02107  1.0000
  C  Sn3       1.0  0.39662  0.83561  0.91930  1.0000
  C  Sn4       1.0  0.42564  0.89878  0.91509  1.0000
  C   C43       1.0  0.46237  0.92710  0.01283  1.0000
  C   C44       1.0  0.47566  0.89961  0.11423  1.0000
  H   H33       1.0  0.45731  0.81603  0.19677  1.0000
  O  Te3       1.0  0.35454  0.80003  0.82294  1.0000
  O  Te4       1.0  0.41287  0.92694  0.81447  1.0000
  H   H34       1.0  0.50820  0.92668  0.18949  1.0000
  Mg  Mg2       1.0  0.35225  0.85923  0.70577  1.0000
  C   C45       1.0  0.16877  0.61105  0.12546  1.0000
  C   C46       1.0  0.20187  0.59997  0.03278  1.0000
  C  Sn5       1.0  0.17746  0.56198  0.93639  1.0000
  C  Sn6       1.0  0.11350  0.52828  0.93295  1.0000
  C   C47       1.0  0.07557  0.53349  0.02605  1.0000
  C   C48       1.0  0.10569  0.57785  0.12210  1.0000
  H   H35       1.0  0.19207  0.64540  0.19973  1.0000
  O  Te5       1.0  0.21122  0.55147  0.84457  1.0000
  O  Te6       1.0  0.08273  0.48381  0.83765  1.0000
  H   H36       1.0  0.08005  0.58645  0.19379  1.0000
  Mg  Mg3       1.0  0.14868  0.48611  0.73384  1.0000
  C   C49       1.0  0.39119  0.56055  0.62181  1.0000
  C   C50       1.0  0.40194  0.60333  0.52727  1.0000
  C  Sn7       1.0  0.44461  0.61603  0.42978  1.0000
  C  Sn8       1.0  0.47704  0.58525  0.42714  1.0000
  C   C51       1.0  0.46592  0.54250  0.52212  1.0000
  C   C52       1.0  0.42313  0.53015  0.61925  1.0000
  H   H37       1.0  0.35806  0.55097  0.69693  1.0000
  O  Te7       1.0  0.45481  0.65892  0.33610  1.0000
  O  Te8       1.0  0.51992  0.59705  0.33078  1.0000
  H   H38       1.0  0.41479  0.49700  0.69239  1.0000
  Mg  Mg4       1.0  0.51782  0.65936  0.22449  1.0000
  C   C53       1.0  0.38360  0.84737  0.37806  1.0000
  C   C54       1.0  0.39141  0.80551  0.44702  1.0000
  C  Sn9       1.0  0.42695  0.82252  0.56099  1.0000
  C  Sn10      1.0  0.45512  0.88258  0.60654  1.0000
  C   C55       1.0  0.44699  0.92411  0.53690  1.0000
  C   C56       1.0  0.41135  0.90662  0.42295  1.0000
  H   H39       1.0  0.35599  0.83384  0.28993  1.0000
  O  Te9       1.0  0.43429  0.78013  0.62867  1.0000
  O  Te10      1.0  0.49086  0.90078  0.72019  1.0000
  H   H40       1.0  0.40528  0.93903  0.36962  1.0000
  Mg  Mg5       1.0  0.48730  0.82659  0.77839  1.0000
  C   C57       1.0  0.11403  0.52520  0.40487  1.0000
  C   C58       1.0  0.08155  0.52348  0.51580  1.0000
  C  Sn11      1.0  0.11061  0.56278  0.62109  1.0000
  C  Sn12      1.0  0.17336  0.60453  0.61490  1.0000
  C   C59       1.0  0.20545  0.60591  0.50345  1.0000
  C   C60       1.0  0.17592  0.56637  0.39867  1.0000
  H   H41       1.0  0.09118  0.49463  0.32376  1.0000
  O  Te11      1.0  0.07748  0.56045  0.73119  1.0000
  O  Te12      1.0  0.20353  0.64433  0.71871  1.0000
  H   H42       1.0  0.20107  0.56774  0.31276  1.0000
  Mg  Mg6       1.0  0.13882  0.62387  0.84763  1.0000
  C   C61       1.0  0.59852  0.46924  0.05425  1.0000
  C   C62       1.0  0.54774  0.45950  0.12392  1.0000
  C  Sn13      1.0  0.52545  0.41798  0.22488  1.0000
  C  Sn14      1.0  0.55465  0.38570  0.25647  1.0000
  C   C63       1.0  0.60544  0.39580  0.18624  1.0000
  C   C64       1.0  0.62736  0.43744  0.08537  1.0000
  H   H43       1.0  0.62073  0.50773  0.97625  1.0000
  O  Te13      1.0  0.47466  0.40879  0.29347  1.0000
  O  Te14      1.0  0.53333  0.34396  0.35694  1.0000
  H   H44       1.0  0.66670  0.44500  0.03150  1.0000
  Mg  Mg7       1.0  0.46264  0.34715  0.42213  1.0000
  C   C65       1.0  0.53022  0.12564  0.05666  1.0000
  C   C66       1.0  0.53870  0.08541  0.13056  1.0000
  C  Sn15      1.0  0.57841  0.10562  0.23791  1.0000
  C  Sn16      1.0  0.61015  0.16728  0.27169  1.0000
  C   C67       1.0  0.60133  0.20717  0.19719  1.0000
  C   C68       1.0  0.56149  0.18647  0.08994  1.0000
  H   H45       1.0  0.50461  0.11588  0.97371  1.0000
  O  Te15      1.0  0.58636  0.06482  0.31067  1.0000
  O  Te16      1.0  0.65010  0.18869  0.37853  1.0000
  H   H46       1.0  0.55491  0.21762  0.03279  1.0000
  Mg  Mg8       1.0  0.64571  0.11564  0.44756  1.0000
  C   C69       1.0  0.87646  0.40131  0.07478  1.0000
  C   C70       1.0  0.91647  0.45561  0.13666  1.0000
  C  Sn17      1.0  0.89556  0.48035  0.22993  1.0000
  C  Sn18      1.0  0.83342  0.45005  0.26166  1.0000
  C   C71       1.0  0.79378  0.39572  0.19927  1.0000
  C   C72       1.0  0.81518  0.37138  0.10606  1.0000
  H   H47       1.0  0.89302  0.38245  0.00271  1.0000
  O  Te17      1.0  0.93613  0.53465  0.29079  1.0000
  O  Te18      1.0  0.81132  0.47375  0.35455  1.0000
  H   H48       1.0  0.78420  0.32931  0.05822  1.0000
  Mg  Mg9       1.0  0.88431  0.54894  0.41081  1.0000
  C   C73       1.0  0.52991  0.37983  0.77789  1.0000
  C   C74       1.0  0.57709  0.38516  0.70071  1.0000
  C  Sn19      1.0  0.59985  0.42664  0.59973  1.0000
  C  Sn20      1.0  0.57484  0.46341  0.57582  1.0000
  C   C75       1.0  0.52768  0.45776  0.65364  1.0000
  C   C76       1.0  0.50523  0.41610  0.75440  1.0000
  H   H49       1.0  0.51256  0.34762  0.85590  1.0000
  O  Te19      1.0  0.64699  0.43137  0.52353  1.0000
  O  Te20      1.0  0.59675  0.50526  0.47556  1.0000
  H   H50       1.0  0.46873  0.41201  0.81419  1.0000
  Mg  Mg10      1.0  0.66145  0.49501  0.39834  1.0000
  C   C77       1.0  0.51943  0.12605  0.56622  1.0000
  C   C78       1.0  0.53833  0.08699  0.60777  1.0000
  C  Sn21      1.0  0.58867  0.10744  0.69039  1.0000
  C  Sn22      1.0  0.62057  0.16813  0.73205  1.0000
  C   C79       1.0  0.60126  0.20684  0.69001  1.0000
  C   C80       1.0  0.55085  0.18591  0.60731  1.0000
  H   H51       1.0  0.48040  0.10985  0.50229  1.0000
  O  Te21      1.0  0.60697  0.06782  0.73093  1.0000
  O  Te22      1.0  0.67102  0.18974  0.81466  1.0000
  H   H52       1.0  0.53619  0.21615  0.57522  1.0000
  Mg  Mg11      1.0  0.67842  0.11847  0.84339  1.0000
  C   C81       1.0  0.86750  0.40620  0.55329  1.0000
  C   C82       1.0  0.91007  0.45467  0.62875  1.0000
  C  Sn23      1.0  0.89202  0.47434  0.73791  1.0000
  C  Sn24      1.0  0.83018  0.44484  0.77194  1.0000
  C   C83       1.0  0.78794  0.39636  0.69586  1.0000
  C   C84       1.0  0.80650  0.37706  0.58680  1.0000
  H   H53       1.0  0.88186  0.39123  0.46895  1.0000
  O  Te23      1.0  0.93514  0.52286  0.81221  1.0000
  O  Te24      1.0  0.81090  0.46357  0.88057  1.0000
  H   H54       1.0  0.77353  0.33950  0.52844  1.0000
  Mg  Mg12      1.0  0.88669  0.53178  0.95127  1.0000
