data_image0
_chemical_formula_structural       H24C24N8SnCSn2CSnTe4Mg2SnCSn2CSnTe4Mg2SnCSn2CSnTe4Mg2SnCSn2CSnTe4Mg2SnCSn2CSnTe4Mg2SnCSn2CSnTe4Mg2SnCSn2CSnTe4Mg2SnCSn2CSnTe4Mg2SnCSn2CSnTe4Mg2SnCSn2CSnTe4Mg2SnCSn2CSnTe4Mg2SnCSn2CSnTe4Mg2
_chemical_formula_sum              "H24 C48 N8 Sn48 Te48 Mg24"
_cell_length_a       23.6427
_cell_length_b       22.5259
_cell_length_c       10.9453
_cell_angle_alpha    75.2861
_cell_angle_beta     77.7684
_cell_angle_gamma    118.334

_symmetry_space_group_name_H-M    'P1'
_space_group_IT_number       1

loop_
  _space_group_symop_operation_xyz
  'x, y, z'

loop_
  _atom_site_type_symbol
  _atom_site_label
  _atom_site_symmetry_multiplicity
  _atom_site_fract_x
  _atom_site_fract_y
  _atom_site_fract_z
  _atom_site_occupancy
  H   H1        1.0  0.78181  0.50903  0.26400  1.0000
  H   H2        1.0  0.72245  0.47747  0.92955  1.0000
  H   H3        1.0  0.70119  0.50046  0.28399  1.0000
  H   H4        1.0  0.05400  0.49437  0.15801  1.0000
  H   H5        1.0  0.50430  0.24678  0.31120  1.0000
  H   H6        1.0  0.48759  0.25215  0.96555  1.0000
  H   H7        1.0  0.48775  0.17714  0.45994  1.0000
  H   H8        1.0  0.54466  0.58283  0.16978  1.0000
  H   H9        1.0  0.72854  0.21774  0.32602  1.0000
  H   H10       1.0  0.71509  0.20562  0.98605  1.0000
  H   H11       1.0  0.78917  0.28736  0.36503  1.0000
  H   H12       1.0  0.44838  0.99482  0.19891  1.0000
  H   H13       1.0  0.78603  0.50502  0.77158  1.0000
  H   H14       1.0  0.72359  0.48435  0.42679  1.0000
  H   H15       1.0  0.70681  0.49752  0.77876  1.0000
  H   H16       1.0  0.05060  0.47892  0.68724  1.0000
  H   H17       1.0  0.50765  0.25025  0.80292  1.0000
  H   H18       1.0  0.48343  0.25282  0.46973  1.0000
  H   H19       1.0  0.48994  0.17684  0.94651  1.0000
  H   H20       1.0  0.54768  0.57782  0.65923  1.0000
  H   H21       1.0  0.72919  0.21282  0.81619  1.0000
  H   H22       1.0  0.71092  0.20890  0.49731  1.0000
  H   H23       1.0  0.79190  0.28370  0.85001  1.0000
  H   H24       1.0  0.44187  0.98591  0.71532  1.0000
  C   C1        1.0  0.72818  0.36146  0.36110  1.0000
  C   C2        1.0  0.69118  0.39581  0.35635  1.0000
  C   C3        1.0  0.72635  0.47662  0.33088  1.0000
  C   C4        1.0  0.06380  0.53011  0.21400  1.0000
  C   C5        1.0  0.62073  0.35401  0.37341  1.0000
  C   C6        1.0  0.58840  0.28036  0.38575  1.0000
  C   C7        1.0  0.51197  0.23679  0.40823  1.0000
  C   C8        1.0  0.48873  0.54673  0.23648  1.0000
  C   C9        1.0  0.62756  0.24844  0.37831  1.0000
  C   C10       1.0  0.69622  0.28736  0.37495  1.0000
  C   C11       1.0  0.73375  0.24886  0.39014  1.0000
  C   C12       1.0  0.46282  0.95787  0.24706  1.0000
  C   C13       1.0  0.73143  0.35718  0.85473  1.0000
  C   C14       1.0  0.69506  0.39218  0.85168  1.0000
  C   C15       1.0  0.72966  0.47226  0.83099  1.0000
  C   C16       1.0  0.06385  0.52226  0.72623  1.0000
  C   C17       1.0  0.62502  0.35168  0.86624  1.0000
  C   C18       1.0  0.59161  0.27838  0.87751  1.0000
  C   C19       1.0  0.51515  0.23685  0.89967  1.0000
  C   C20       1.0  0.49375  0.54467  0.73605  1.0000
  C   C21       1.0  0.62963  0.24526  0.87144  1.0000
  C   C22       1.0  0.69860  0.28339  0.86682  1.0000
  C   C23       1.0  0.73612  0.24477  0.87893  1.0000
  C   C24       1.0  0.45942  0.95085  0.75684  1.0000
  N   N1        1.0  0.01556  0.53406  0.28561  1.0000
  N   N2        1.0  0.46179  0.48145  0.32891  1.0000
  N   N3        1.0  0.50372  0.97465  0.31260  1.0000
  N   N4        1.0  0.34204  0.68549  0.18622  1.0000
  N   N5        1.0  0.01774  0.53298  0.78346  1.0000
  N   N6        1.0  0.46903  0.48243  0.83560  1.0000
  N   N7        1.0  0.50220  0.96892  0.81809  1.0000
  N   N8        1.0  0.34428  0.68069  0.68890  1.0000
  C  Sn1       1.0  0.87810  0.45982  0.43834  1.0000
  C   C25       1.0  0.93505  0.47650  0.33140  1.0000
  C  Sn2       1.0  0.92699  0.46313  0.21639  1.0000
  C  Sn3       1.0  0.86062  0.43249  0.20805  1.0000
  C   C26       1.0  0.80371  0.41584  0.31494  1.0000
  C  Sn4       1.0  0.81173  0.42918  0.43000  1.0000
  O  Te1       1.0  0.88736  0.47365  0.55234  1.0000
  O  Te2       1.0  0.98470  0.48024  0.11079  1.0000
  O  Te3       1.0  0.85139  0.41867  0.09393  1.0000
  O  Te4       1.0  0.75407  0.41209  0.53554  1.0000
  Mg  Mg1       1.0  0.74715  0.22900  0.97654  1.0000
  Mg  Mg2       1.0  0.79293  0.44099  0.66981  1.0000
  C  Sn5       1.0  0.20110  0.62801  0.31475  1.0000
  C   C27       1.0  0.25876  0.63281  0.23394  1.0000
  C  Sn6       1.0  0.25684  0.61213  0.12412  1.0000
  C  Sn7       1.0  0.19604  0.58616  0.09438  1.0000
  C   C28       1.0  0.13843  0.58139  0.17514  1.0000
  C  Sn8       1.0  0.14030  0.60205  0.28500  1.0000
  O  Te5       1.0  0.20418  0.64899  0.42402  1.0000
  O  Te6       1.0  0.31512  0.61738  0.04483  1.0000
  O  Te7       1.0  0.99437  0.34283  0.98500  1.0000
  O  Te8       1.0  0.08207  0.59682  0.36424  1.0000
  Mg  Mg3       1.0  0.08704  0.35994  0.90685  1.0000
  Mg  Mg4       1.0  0.11147  0.63192  0.50220  1.0000
  C  Sn9       1.0  0.50565  0.36360  0.48442  1.0000
  C   C29       1.0  0.55922  0.37245  0.38158  1.0000
  C  Sn10      1.0  0.59083  0.42864  0.25017  1.0000
  C  Sn11      1.0  0.56847  0.47703  0.22094  1.0000
  C   C30       1.0  0.51495  0.46818  0.32374  1.0000
  C  Sn12      1.0  0.48329  0.41200  0.45519  1.0000
  O  Te9       1.0  0.47480  0.30706  0.61507  1.0000
  O  Te10      1.0  0.64426  0.43637  0.14903  1.0000
  O  Te11      1.0  0.59938  0.53361  0.09015  1.0000
  O  Te12      1.0  0.42990  0.40426  0.55630  1.0000
  Mg  Mg5       1.0  0.47149  0.29949  0.98681  1.0000
  Mg  Mg6       1.0  0.40404  0.31883  0.71856  1.0000
  C  Sn13      1.0  0.36015  0.53504  0.26609  1.0000
  C   C31       1.0  0.43143  0.56647  0.20061  1.0000
  C  Sn14      1.0  0.47839  0.64328  0.13363  1.0000
  C  Sn15      1.0  0.45360  0.68966  0.13214  1.0000
  C   C32       1.0  0.38236  0.65823  0.19761  1.0000
  C  Sn16      1.0  0.33535  0.58141  0.26460  1.0000
  O  Te13      1.0  0.31414  0.45811  0.33243  1.0000
  O  Te14      1.0  0.54942  0.67342  0.06884  1.0000
  O  Te15      1.0  0.49968  0.76664  0.06572  1.0000
  O  Te16      1.0  0.26438  0.55128  0.32938  1.0000
  Mg  Mg7       1.0  0.39295  0.55902  0.99221  1.0000
  Mg  Mg8       1.0  0.22217  0.44333  0.40609  1.0000
  C  Sn17      1.0  0.54264  0.15212  0.27923  1.0000
  C   C33       1.0  0.57651  0.16803  0.36820  1.0000
  C  Sn18      1.0  0.59522  0.12194  0.43122  1.0000
  C  Sn19      1.0  0.57980  0.05864  0.40472  1.0000
  C   C34       1.0  0.54596  0.04276  0.31579  1.0000
  C  Sn20      1.0  0.52722  0.08882  0.25273  1.0000
  O  Te17      1.0  0.52442  0.19898  0.21735  1.0000
  O  Te18      1.0  0.62902  0.13897  0.51981  1.0000
  O  Te19      1.0  0.59805  0.01178  0.46670  1.0000
  O  Te20      1.0  0.49345  0.07182  0.16418  1.0000
  Mg  Mg9       1.0  0.64336  0.05828  0.57939  1.0000
  Mg  Mg10      1.0  0.47912  0.15249  0.10448  1.0000
  C  Sn21      1.0  0.40472  0.77055  0.32248  1.0000
  C   C35       1.0  0.36450  0.74853  0.24593  1.0000
  C  Sn22      1.0  0.36312  0.80055  0.14714  1.0000
  C  Sn23      1.0  0.40279  0.87617  0.12431  1.0000
  C   C36       1.0  0.44298  0.89816  0.20080  1.0000
  C  Sn24      1.0  0.44439  0.84617  0.29964  1.0000
  O  Te21      1.0  0.40533  0.71760  0.42070  1.0000
  O  Te22      1.0  0.32249  0.77720  0.07193  1.0000
  O  Te23      1.0  0.40215  0.92912  0.02599  1.0000
  O  Te24      1.0  0.48499  0.86949  0.37481  1.0000
  Mg  Mg11      1.0  0.14011  0.64779  0.94955  1.0000
  Mg  Mg12      1.0  0.46882  0.77659  0.49716  1.0000
  C  Sn25      1.0  0.87965  0.45359  0.93816  1.0000
  C   C37       1.0  0.93783  0.47399  0.82914  1.0000
  C  Sn26      1.0  0.93098  0.46257  0.71203  1.0000
  C  Sn27      1.0  0.86460  0.43013  0.70366  1.0000
  C   C38       1.0  0.80647  0.40976  0.81262  1.0000
  C  Sn28      1.0  0.81327  0.42115  0.92979  1.0000
  O  Te25      1.0  0.08634  0.68788  0.05424  1.0000
  O  Te26      1.0  0.98990  0.48339  0.60438  1.0000
  O  Te27      1.0  0.85658  0.41820  0.58745  1.0000
  O  Te28      1.0  0.95303  0.62271  0.03738  1.0000
  Mg  Mg13      1.0  0.95235  0.45591  0.46772  1.0000
  Mg  Mg14      1.0  0.99052  0.65020  0.17405  1.0000
  C  Sn29      1.0  0.20433  0.62890  0.81203  1.0000
  C   C39       1.0  0.26032  0.62831  0.74009  1.0000
  C  Sn30      1.0  0.25665  0.60054  0.63944  1.0000
  C  Sn31      1.0  0.19576  0.57284  0.61000  1.0000
  C   C40       1.0  0.13982  0.57345  0.68190  1.0000
  C  Sn32      1.0  0.14344  0.60119  0.78260  1.0000
  O  Te29      1.0  0.20915  0.65692  0.91223  1.0000
  O  Te30      1.0  0.31329  0.60051  0.56891  1.0000
  O  Te31      1.0  0.19099  0.54480  0.50971  1.0000
  O  Te32      1.0  0.08686  0.60124  0.85308  1.0000
  Mg  Mg15      1.0  0.28181  0.55660  0.44146  1.0000
  Mg  Mg16      1.0  0.11828  0.64517  0.98049  1.0000
  C  Sn33      1.0  0.52943  0.42751  0.97469  1.0000
  C   C41       1.0  0.52337  0.46214  0.85738  1.0000
  C  Sn34      1.0  0.54504  0.45468  0.73641  1.0000
  C  Sn35      1.0  0.57334  0.41168  0.73262  1.0000
  C   C42       1.0  0.57938  0.37706  0.84987  1.0000
  C  Sn36      1.0  0.55773  0.38450  0.97089  1.0000
  O  Te33      1.0  0.70606  0.65808  0.09451  1.0000
  O  Te34      1.0  0.53848  0.48985  0.62044  1.0000
  O  Te35      1.0  0.59535  0.40349  0.61266  1.0000
  O  Te36      1.0  0.76290  0.57172  0.08681  1.0000
  Mg  Mg17      1.0  0.57574  0.46207  0.48149  1.0000
  Mg  Mg18      1.0  0.72562  0.59943  0.22583  1.0000
  C  Sn37      1.0  0.36470  0.53209  0.77636  1.0000
  C   C43       1.0  0.43580  0.56393  0.70740  1.0000
  C  Sn38      1.0  0.48200  0.64067  0.63628  1.0000
  C  Sn39      1.0  0.45663  0.68656  0.63411  1.0000
  C   C44       1.0  0.38557  0.65473  0.70306  1.0000
  C  Sn40      1.0  0.33932  0.57799  0.77419  1.0000
  O  Te37      1.0  0.31945  0.45524  0.84681  1.0000
  O  Te38      1.0  0.55286  0.67121  0.56807  1.0000
  O  Te39      1.0  0.50195  0.76347  0.56359  1.0000
  O  Te40      1.0  0.26851  0.54745  0.84239  1.0000
  Mg  Mg19      1.0  0.59391  0.77888  0.48645  1.0000
  Mg  Mg20      1.0  0.22742  0.43980  0.92410  1.0000
  C  Sn41      1.0  0.55894  0.12160  0.71488  1.0000
  C   C45       1.0  0.54757  0.05419  0.79164  1.0000
  C  Sn42      1.0  0.55609  0.04216  0.91614  1.0000
  C  Sn43      1.0  0.57634  0.09868  0.96499  1.0000
  C   C46       1.0  0.58769  0.16604  0.88827  1.0000
  C  Sn44      1.0  0.57919  0.17812  0.76374  1.0000
  O  Te41      1.0  0.55011  0.13241  0.59071  1.0000
  O  Te42      1.0  0.54445  0.97431  0.99104  1.0000
  O  Te43      1.0  0.78379  0.31017  0.08927  1.0000
  O  Te44      1.0  0.59081  0.24591  0.68887  1.0000
  Mg  Mg21      1.0  0.76180  0.20837  0.15424  1.0000
  Mg  Mg22      1.0  0.57207  0.23426  0.52570  1.0000
  C  Sn45      1.0  0.38827  0.82920  0.59981  1.0000
  C   C47       1.0  0.39064  0.76833  0.66087  1.0000
  C  Sn46      1.0  0.40849  0.76056  0.77498  1.0000
  C  Sn47      1.0  0.42426  0.81473  0.82927  1.0000
  C   C48       1.0  0.96969  0.87555  0.76824  1.0000
  C  Sn48      1.0  0.95186  0.88338  0.65409  1.0000
  O  Te45      1.0  0.37030  0.83584  0.48580  1.0000
  O  Te46      1.0  0.41052  0.69923  0.83424  1.0000
  O  Te47      1.0  0.99006  0.80804  0.94337  1.0000
  O  Te48      1.0  0.94981  0.94464  0.59487  1.0000
  Mg  Mg23      1.0  0.43782  0.71470  0.98811  1.0000
  Mg  Mg24      1.0  0.92248  0.92921  0.44104  1.0000
