data_image0
_chemical_formula_structural       H48C60N8C2Sn2C2HTe2HMgC2Sn2C2HTe2HMgC2Sn2C2HTe2HMgC2Sn2C2HTe2HMgC2Sn2C2HTe2HMgC2Sn2C2HTe2HMg
_chemical_formula_sum              "H60 C84 N8 Sn12 Te12 Mg6"
_cell_length_a       23.6427
_cell_length_b       22.5259
_cell_length_c       10.9453
_cell_angle_alpha    75.2861
_cell_angle_beta     77.7684
_cell_angle_gamma    118.334

_symmetry_space_group_name_H-M    'P1'
_space_group_IT_number       1

loop_
  _space_group_symop_operation_xyz
  'x, y, z'

loop_
  _atom_site_type_symbol
  _atom_site_label
  _atom_site_symmetry_multiplicity
  _atom_site_fract_x
  _atom_site_fract_y
  _atom_site_fract_z
  _atom_site_occupancy
  H   H1        1.0  0.78181  0.50903  0.26400  1.0000
  H   H2        1.0  0.72245  0.47747  0.92955  1.0000
  H   H3        1.0  0.70119  0.50046  0.28399  1.0000
  H   H4        1.0  0.05400  0.49437  0.15801  1.0000
  H   H5        1.0  0.50430  0.24678  0.31120  1.0000
  H   H6        1.0  0.48759  0.25215  0.96555  1.0000
  H   H7        1.0  0.48775  0.17714  0.45994  1.0000
  H   H8        1.0  0.45229  0.39773  0.55656  1.0000
  H   H9        1.0  0.56274  0.49952  0.11849  1.0000
  H   H10       1.0  0.62978  0.44305  0.14408  1.0000
  H   H11       1.0  0.54466  0.58283  0.16978  1.0000
  H   H12       1.0  0.34927  0.48155  0.36405  1.0000
  H   H13       1.0  0.28466  0.54253  0.33878  1.0000
  H   H14       1.0  0.47541  0.74475  0.03850  1.0000
  H   H15       1.0  0.53897  0.68352  0.06130  1.0000
  H   H16       1.0  0.72854  0.21774  0.32602  1.0000
  H   H17       1.0  0.71509  0.20562  0.98605  1.0000
  H   H18       1.0  0.78917  0.28736  0.36503  1.0000
  H   H19       1.0  0.61633  0.11419  0.01804  1.0000
  H   H20       1.0  0.44838  0.99482  0.19891  1.0000
  H   H21       1.0  0.47461  0.84426  0.35586  1.0000
  H   H22       1.0  0.42100  0.72457  0.33082  1.0000
  H   H23       1.0  0.33189  0.79816  0.07366  1.0000
  H   H24       1.0  0.38375  0.91601  0.10266  1.0000
  H   H25       1.0  0.78603  0.50502  0.77158  1.0000
  H   H26       1.0  0.72359  0.48435  0.42679  1.0000
  H   H27       1.0  0.70681  0.49752  0.77876  1.0000
  H   H28       1.0  0.05060  0.47892  0.68724  1.0000
  H   H29       1.0  0.11866  0.61971  0.83809  1.0000
  H   H30       1.0  0.24061  0.68752  0.82449  1.0000
  H   H31       1.0  0.29288  0.58916  0.56839  1.0000
  H   H32       1.0  0.17070  0.51972  0.58711  1.0000
  H   H33       1.0  0.50765  0.25025  0.80292  1.0000
  H   H34       1.0  0.48343  0.25282  0.46973  1.0000
  H   H35       1.0  0.48994  0.17684  0.94651  1.0000
  H   H36       1.0  0.52163  0.34353  0.58218  1.0000
  H   H37       1.0  0.54768  0.57782  0.65923  1.0000
  H   H38       1.0  0.35561  0.48031  0.87544  1.0000
  H   H39       1.0  0.28939  0.53950  0.85118  1.0000
  H   H40       1.0  0.47704  0.74059  0.53910  1.0000
  H   H41       1.0  0.54189  0.68016  0.55964  1.0000
  H   H42       1.0  0.72919  0.21282  0.81619  1.0000
  H   H43       1.0  0.71092  0.20890  0.49731  1.0000
  H   H44       1.0  0.79190  0.28370  0.85001  1.0000
  H   H45       1.0  0.56157  0.99794  0.98575  1.0000
  H   H46       1.0  0.51325  0.09620  0.66829  1.0000
  H   H47       1.0  0.57207  0.21306  0.69229  1.0000
  H   H48       1.0  0.44187  0.98591  0.71532  1.0000
  C   C1        1.0  0.72818  0.36146  0.36110  1.0000
  C   C2        1.0  0.69118  0.39581  0.35635  1.0000
  C   C3        1.0  0.72635  0.47662  0.33088  1.0000
  C   C4        1.0  0.06380  0.53011  0.21400  1.0000
  C   C5        1.0  0.62073  0.35401  0.37341  1.0000
  C   C6        1.0  0.58840  0.28036  0.38575  1.0000
  C   C7        1.0  0.51197  0.23679  0.40823  1.0000
  C   C8        1.0  0.58119  0.38963  0.36467  1.0000
  C   C9        1.0  0.53091  0.37772  0.48026  1.0000
  C   C10       1.0  0.49200  0.40822  0.46673  1.0000
  C   C11       1.0  0.50370  0.45382  0.33661  1.0000
  C   C12       1.0  0.55458  0.46661  0.22037  1.0000
  C   C13       1.0  0.59194  0.43437  0.23494  1.0000
  C   C14       1.0  0.48873  0.54673  0.23648  1.0000
  C   C15       1.0  0.44861  0.57876  0.21718  1.0000
  C   C16       1.0  0.37609  0.53893  0.29246  1.0000
  C   C17       1.0  0.34037  0.57288  0.27896  1.0000
  C   C18       1.0  0.37647  0.64820  0.19014  1.0000
  C   C19       1.0  0.44798  0.68721  0.10955  1.0000
  C   C20       1.0  0.48338  0.65276  0.12312  1.0000
  C   C21       1.0  0.62756  0.24844  0.37831  1.0000
  C   C22       1.0  0.69622  0.28736  0.37495  1.0000
  C   C23       1.0  0.73375  0.24886  0.39014  1.0000
  C   C24       1.0  0.46282  0.95787  0.24706  1.0000
  C   C25       1.0  0.43268  0.88811  0.23195  1.0000
  C   C26       1.0  0.44347  0.83343  0.29404  1.0000
  C   C27       1.0  0.41360  0.76698  0.27997  1.0000
  C   C28       1.0  0.37260  0.75339  0.20079  1.0000
  C   C29       1.0  0.36216  0.80784  0.13714  1.0000
  C   C30       1.0  0.39145  0.87381  0.15366  1.0000
  C   C31       1.0  0.73143  0.35718  0.85473  1.0000
  C   C32       1.0  0.69506  0.39218  0.85168  1.0000
  C   C33       1.0  0.72966  0.47226  0.83099  1.0000
  C   C34       1.0  0.06385  0.52226  0.72623  1.0000
  C   C35       1.0  0.13584  0.56478  0.71421  1.0000
  C   C36       1.0  0.15728  0.61364  0.77901  1.0000
  C   C37       1.0  0.22534  0.65177  0.77063  1.0000
  C   C38       1.0  0.27517  0.64322  0.69516  1.0000
  C   C39       1.0  0.25469  0.59546  0.62829  1.0000
  C   C40       1.0  0.18589  0.55642  0.63944  1.0000
  C   C41       1.0  0.62502  0.35168  0.86624  1.0000
  C   C42       1.0  0.59161  0.27838  0.87751  1.0000
  C   C43       1.0  0.51515  0.23685  0.89967  1.0000
  C   C44       1.0  0.49375  0.54467  0.73605  1.0000
  C   C45       1.0  0.45319  0.57659  0.72069  1.0000
  C   C46       1.0  0.38132  0.53692  0.80128  1.0000
  C   C47       1.0  0.34476  0.56994  0.78837  1.0000
  C   C48       1.0  0.37948  0.64415  0.69497  1.0000
  C   C49       1.0  0.45063  0.68348  0.61162  1.0000
  C   C50       1.0  0.48672  0.64975  0.62419  1.0000
  C   C51       1.0  0.62963  0.24526  0.87144  1.0000
  C   C52       1.0  0.69860  0.28339  0.86682  1.0000
  C   C53       1.0  0.73612  0.24477  0.87893  1.0000
  C   C54       1.0  0.59733  0.17297  0.85993  1.0000
  C   C55       1.0  0.59458  0.11123  0.94016  1.0000
  C   C56       1.0  0.56324  0.04524  0.92355  1.0000
  C   C57       1.0  0.53141  0.03713  0.82862  1.0000
  C   C58       1.0  0.53449  0.09899  0.74701  1.0000
  C   C59       1.0  0.56780  0.16537  0.76095  1.0000
  C   C60       1.0  0.45942  0.95085  0.75684  1.0000
  N   N1        1.0  0.01556  0.53406  0.28561  1.0000
  N   N2        1.0  0.46179  0.48145  0.32891  1.0000
  N   N3        1.0  0.50372  0.97465  0.31260  1.0000
  N   N4        1.0  0.34204  0.68549  0.18622  1.0000
  N   N5        1.0  0.01774  0.53298  0.78346  1.0000
  N   N6        1.0  0.46903  0.48243  0.83560  1.0000
  N   N7        1.0  0.50220  0.96892  0.81809  1.0000
  N   N8        1.0  0.34428  0.68069  0.68890  1.0000
  C   C61       1.0  0.36723  0.82182  0.62904  1.0000
  C   C62       1.0  0.37504  0.76361  0.67753  1.0000
  C  Sn1       1.0  0.41002  0.76378  0.76570  1.0000
  C  Sn2       1.0  0.98542  0.82340  0.80592  1.0000
  C   C63       1.0  0.97729  0.88134  0.75693  1.0000
  C   C64       1.0  0.94222  0.88063  0.66871  1.0000
  H   H49       1.0  0.34006  0.82126  0.56085  1.0000
  O  Te1       1.0  0.41738  0.70520  0.81314  1.0000
  O  Te2       1.0  0.02058  0.82495  0.89398  1.0000
  H   H50       1.0  0.93614  0.92568  0.63126  1.0000
  Mg  Mg1       1.0  0.46948  0.73238  0.93123  1.0000
  C   C65       1.0  0.58841  0.09492  0.45206  1.0000
  C   C66       1.0  0.60050  0.16332  0.37918  1.0000
  C  Sn3       1.0  0.57642  0.17207  0.27419  1.0000
  C  Sn4       1.0  0.53956  0.11110  0.24183  1.0000
  C   C67       1.0  0.52769  0.04288  0.31540  1.0000
  C   C68       1.0  0.55203  0.03475  0.42024  1.0000
  H   H51       1.0  0.60721  0.08861  0.53322  1.0000
  O  Te3       1.0  0.58897  0.24080  0.20238  1.0000
  O  Te4       1.0  0.51489  0.11830  0.13742  1.0000
  H   H52       1.0  0.54262  0.98177  0.47670  1.0000
  Mg  Mg2       1.0  0.54500  0.22309  0.06882  1.0000
  C   C69       1.0  0.56500  0.45453  0.70275  1.0000
  C   C70       1.0  0.51791  0.45292  0.80740  1.0000
  C  Sn5       1.0  0.50741  0.42030  0.94413  1.0000
  C  Sn6       1.0  0.54482  0.38876  0.97637  1.0000
  C   C71       1.0  0.59185  0.39069  0.87092  1.0000
  C   C72       1.0  0.60194  0.42346  0.73445  1.0000
  H   H53       1.0  0.57285  0.47992  0.59715  1.0000
  O  Te5       1.0  0.65878  0.64150  0.04743  1.0000
  O  Te6       1.0  0.73397  0.57818  0.11215  1.0000
  H   H54       1.0  0.63844  0.42474  0.65344  1.0000
  Mg  Mg3       1.0  0.66383  0.59027  0.21689  1.0000
  C   C73       1.0  0.91544  0.44357  0.69420  1.0000
  C   C74       1.0  0.94606  0.48554  0.76398  1.0000
  C  Sn7       1.0  0.90432  0.48210  0.88059  1.0000
  C  Sn8       1.0  0.83057  0.43570  0.92798  1.0000
  C   C75       1.0  0.80045  0.39388  0.85751  1.0000
  C   C76       1.0  0.84271  0.39777  0.74091  1.0000
  H   H55       1.0  0.94813  0.44654  0.60404  1.0000
  O  Te7       1.0  0.93577  0.52443  0.94905  1.0000
  O  Te8       1.0  0.98625  0.65355  0.04427  1.0000
  H   H56       1.0  0.81898  0.36522  0.68696  1.0000
  Mg  Mg4       1.0  0.05373  0.72186  0.10259  1.0000
  C   C77       1.0  0.91114  0.44458  0.19924  1.0000
  C   C78       1.0  0.94364  0.48814  0.26518  1.0000
  C  Sn9       1.0  0.90364  0.48817  0.37915  1.0000
  C  Sn10      1.0  0.82974  0.44370  0.42781  1.0000
  C   C79       1.0  0.79772  0.40028  0.36119  1.0000
  C   C80       1.0  0.83825  0.40068  0.24720  1.0000
  H   H57       1.0  0.94249  0.44485  0.11109  1.0000
  O  Te9       1.0  0.93696  0.53204  0.44378  1.0000
  O  Te10      1.0  0.78850  0.44268  0.54154  1.0000
  H   H58       1.0  0.81307  0.36691  0.19623  1.0000
  Mg  Mg5       1.0  0.85819  0.51194  0.59491  1.0000
  C   C81       1.0  0.24180  0.59332  0.10393  1.0000
  C   C82       1.0  0.27132  0.64213  0.16364  1.0000
  C  Sn11      1.0  0.22950  0.65316  0.25349  1.0000
  C  Sn12      1.0  0.15679  0.61453  0.28395  1.0000
  C   C83       1.0  0.12776  0.56578  0.22375  1.0000
  C   C84       1.0  0.17009  0.55517  0.13396  1.0000
  H   H59       1.0  0.27454  0.58508  0.03451  1.0000
  O  Te11      1.0  0.25984  0.70215  0.31222  1.0000
  O  Te12      1.0  0.11378  0.62450  0.37344  1.0000
  H   H60       1.0  0.14721  0.51735  0.08781  1.0000
  Mg  Mg6       1.0  0.17955  0.69714  0.42779  1.0000
