data_image0
_chemical_formula_structural       H24C24N8C2Sn2C2HTe2HMgC2Sn2C2HTe2HMgC2Sn2C2HTe2HMgC2Sn2C2HTe2HMgC2Sn2C2HTe2HMgC2Sn2C2HTe2HMgC2Sn2C2HTe2HMgC2Sn2C2HTe2HMgC2Sn2C2HTe2HMgC2Sn2C2HTe2HMgC2Sn2C2HTe2HMgC2Sn2C2HTe2HMg
_chemical_formula_sum              "H48 C72 N8 Sn24 Te24 Mg12"
_cell_length_a       23.6427
_cell_length_b       22.5259
_cell_length_c       10.9453
_cell_angle_alpha    75.2861
_cell_angle_beta     77.7684
_cell_angle_gamma    118.334

_symmetry_space_group_name_H-M    'P1'
_space_group_IT_number       1

loop_
  _space_group_symop_operation_xyz
  'x, y, z'

loop_
  _atom_site_type_symbol
  _atom_site_label
  _atom_site_symmetry_multiplicity
  _atom_site_fract_x
  _atom_site_fract_y
  _atom_site_fract_z
  _atom_site_occupancy
  H   H1        1.0  0.78181  0.50903  0.26400  1.0000
  H   H2        1.0  0.72245  0.47747  0.92955  1.0000
  H   H3        1.0  0.70119  0.50046  0.28399  1.0000
  H   H4        1.0  0.05400  0.49437  0.15801  1.0000
  H   H5        1.0  0.50430  0.24678  0.31120  1.0000
  H   H6        1.0  0.48759  0.25215  0.96555  1.0000
  H   H7        1.0  0.48775  0.17714  0.45994  1.0000
  H   H8        1.0  0.54466  0.58283  0.16978  1.0000
  H   H9        1.0  0.72854  0.21774  0.32602  1.0000
  H   H10       1.0  0.71509  0.20562  0.98605  1.0000
  H   H11       1.0  0.78917  0.28736  0.36503  1.0000
  H   H12       1.0  0.44838  0.99482  0.19891  1.0000
  H   H13       1.0  0.78603  0.50502  0.77158  1.0000
  H   H14       1.0  0.72359  0.48435  0.42679  1.0000
  H   H15       1.0  0.70681  0.49752  0.77876  1.0000
  H   H16       1.0  0.05060  0.47892  0.68724  1.0000
  H   H17       1.0  0.50765  0.25025  0.80292  1.0000
  H   H18       1.0  0.48343  0.25282  0.46973  1.0000
  H   H19       1.0  0.48994  0.17684  0.94651  1.0000
  H   H20       1.0  0.54768  0.57782  0.65923  1.0000
  H   H21       1.0  0.72919  0.21282  0.81619  1.0000
  H   H22       1.0  0.71092  0.20890  0.49731  1.0000
  H   H23       1.0  0.79190  0.28370  0.85001  1.0000
  H   H24       1.0  0.44187  0.98591  0.71532  1.0000
  C   C1        1.0  0.72818  0.36146  0.36110  1.0000
  C   C2        1.0  0.69118  0.39581  0.35635  1.0000
  C   C3        1.0  0.72635  0.47662  0.33088  1.0000
  C   C4        1.0  0.06380  0.53011  0.21400  1.0000
  C   C5        1.0  0.62073  0.35401  0.37341  1.0000
  C   C6        1.0  0.58840  0.28036  0.38575  1.0000
  C   C7        1.0  0.51197  0.23679  0.40823  1.0000
  C   C8        1.0  0.48873  0.54673  0.23648  1.0000
  C   C9        1.0  0.62756  0.24844  0.37831  1.0000
  C   C10       1.0  0.69622  0.28736  0.37495  1.0000
  C   C11       1.0  0.73375  0.24886  0.39014  1.0000
  C   C12       1.0  0.46282  0.95787  0.24706  1.0000
  C   C13       1.0  0.73143  0.35718  0.85473  1.0000
  C   C14       1.0  0.69506  0.39218  0.85168  1.0000
  C   C15       1.0  0.72966  0.47226  0.83099  1.0000
  C   C16       1.0  0.06385  0.52226  0.72623  1.0000
  C   C17       1.0  0.62502  0.35168  0.86624  1.0000
  C   C18       1.0  0.59161  0.27838  0.87751  1.0000
  C   C19       1.0  0.51515  0.23685  0.89967  1.0000
  C   C20       1.0  0.49375  0.54467  0.73605  1.0000
  C   C21       1.0  0.62963  0.24526  0.87144  1.0000
  C   C22       1.0  0.69860  0.28339  0.86682  1.0000
  C   C23       1.0  0.73612  0.24477  0.87893  1.0000
  C   C24       1.0  0.45942  0.95085  0.75684  1.0000
  N   N1        1.0  0.01556  0.53406  0.28561  1.0000
  N   N2        1.0  0.46179  0.48145  0.32891  1.0000
  N   N3        1.0  0.50372  0.97465  0.31260  1.0000
  N   N4        1.0  0.34204  0.68549  0.18622  1.0000
  N   N5        1.0  0.01774  0.53298  0.78346  1.0000
  N   N6        1.0  0.46903  0.48243  0.83560  1.0000
  N   N7        1.0  0.50220  0.96892  0.81809  1.0000
  N   N8        1.0  0.34428  0.68069  0.68890  1.0000
  C   C25       1.0  0.91114  0.44458  0.19924  1.0000
  C   C26       1.0  0.94364  0.48814  0.26518  1.0000
  C  Sn1       1.0  0.90364  0.48817  0.37915  1.0000
  C  Sn2       1.0  0.82974  0.44370  0.42781  1.0000
  C   C27       1.0  0.79772  0.40028  0.36119  1.0000
  C   C28       1.0  0.83825  0.40068  0.24720  1.0000
  H   H25       1.0  0.94249  0.44485  0.11109  1.0000
  O  Te1       1.0  0.93696  0.53204  0.44378  1.0000
  O  Te2       1.0  0.78850  0.44268  0.54154  1.0000
  H   H26       1.0  0.81307  0.36691  0.19623  1.0000
  Mg  Mg1       1.0  0.85819  0.51194  0.59491  1.0000
  C   C29       1.0  0.16635  0.62500  0.29689  1.0000
  C   C30       1.0  0.13947  0.58617  0.21988  1.0000
  C  Sn3       1.0  0.18161  0.57635  0.12794  1.0000
  C  Sn4       1.0  0.25194  0.60598  0.11307  1.0000
  C   C31       1.0  0.27832  0.64469  0.19066  1.0000
  C   C32       1.0  0.23570  0.65422  0.28233  1.0000
  H   H27       1.0  0.13337  0.63234  0.36787  1.0000
  O  Te3       1.0  0.15393  0.53744  0.05177  1.0000
  O  Te4       1.0  0.29519  0.59695  0.02197  1.0000
  H   H28       1.0  0.25651  0.68424  0.34200  1.0000
  Mg  Mg2       1.0  0.03488  0.31736  0.94092  1.0000
  C   C33       1.0  0.51832  0.38162  0.49712  1.0000
  C   C34       1.0  0.56692  0.38332  0.39555  1.0000
  C  Sn5       1.0  0.58646  0.42443  0.25708  1.0000
  C  Sn6       1.0  0.55673  0.46454  0.21994  1.0000
  C   C35       1.0  0.50819  0.46252  0.32234  1.0000
  C   C36       1.0  0.48898  0.42118  0.46058  1.0000
  H   H29       1.0  0.50348  0.34967  0.60409  1.0000
  O  Te5       1.0  0.63507  0.42551  0.15691  1.0000
  O  Te6       1.0  0.57535  0.50610  0.08233  1.0000
  H   H30       1.0  0.45139  0.41991  0.53920  1.0000
  Mg  Mg3       1.0  0.44512  0.26789  0.98327  1.0000
  C   C37       1.0  0.35959  0.53800  0.30559  1.0000
  C   C38       1.0  0.42912  0.56583  0.23129  1.0000
  C  Sn7       1.0  0.47426  0.63916  0.13410  1.0000
  C  Sn8       1.0  0.44919  0.68535  0.11113  1.0000
  C   C39       1.0  0.37956  0.65700  0.18606  1.0000
  C   C40       1.0  0.33483  0.58353  0.28303  1.0000
  H   H31       1.0  0.32499  0.48117  0.38068  1.0000
  O  Te7       1.0  0.54357  0.66606  0.06073  1.0000
  O  Te8       1.0  0.49319  0.75886  0.01465  1.0000
  H   H32       1.0  0.28101  0.56201  0.34061  1.0000
  Mg  Mg4       1.0  0.38472  0.54768  0.94027  1.0000
  C   C41       1.0  0.56104  0.16083  0.24074  1.0000
  C   C42       1.0  0.58882  0.17573  0.33825  1.0000
  C  Sn9       1.0  0.59140  0.12206  0.42994  1.0000
  C  Sn10      1.0  0.56567  0.05224  0.42361  1.0000
  C   C43       1.0  0.53802  0.03790  0.32561  1.0000
  C   C44       1.0  0.53567  0.09200  0.23439  1.0000
  H   H33       1.0  0.55925  0.20269  0.17010  1.0000
  O  Te9       1.0  0.61930  0.13784  0.52676  1.0000
  O  Te10      1.0  0.56764  0.99762  0.51397  1.0000
  H   H34       1.0  0.51420  0.08047  0.15884  1.0000
  Mg  Mg5       1.0  0.61058  0.04545  0.62772  1.0000
  C   C45       1.0  0.42607  0.77968  0.29174  1.0000
  C   C46       1.0  0.37993  0.75336  0.22776  1.0000
  C  Sn11      1.0  0.36233  0.79854  0.15660  1.0000
  C  Sn12      1.0  0.39156  0.87139  0.14953  1.0000
  C   C47       1.0  0.43771  0.89723  0.21380  1.0000
  C   C48       1.0  0.45495  0.85155  0.28477  1.0000
  H   H35       1.0  0.43945  0.74436  0.34659  1.0000
  O  Te11      1.0  0.31612  0.77136  0.09330  1.0000
  O  Te12      1.0  0.37488  0.91772  0.07905  1.0000
  H   H36       1.0  0.49071  0.87196  0.33423  1.0000
  Mg  Mg6       1.0  0.30943  0.85552  0.00949  1.0000
  C   C49       1.0  0.91544  0.44357  0.69420  1.0000
  C   C50       1.0  0.94606  0.48554  0.76398  1.0000
  C  Sn13      1.0  0.90432  0.48210  0.88059  1.0000
  C  Sn14      1.0  0.83057  0.43570  0.92798  1.0000
  C   C51       1.0  0.80045  0.39388  0.85751  1.0000
  C   C52       1.0  0.84271  0.39777  0.74091  1.0000
  H   H37       1.0  0.94813  0.44654  0.60404  1.0000
  O  Te13      1.0  0.93577  0.52443  0.94905  1.0000
  O  Te14      1.0  0.98625  0.65355  0.04427  1.0000
  H   H38       1.0  0.81898  0.36522  0.68696  1.0000
  Mg  Mg7       1.0  0.05373  0.72186  0.10259  1.0000
  C   C53       1.0  0.17001  0.62522  0.79182  1.0000
  C   C54       1.0  0.14125  0.58099  0.72398  1.0000
  C  Sn15      1.0  0.18126  0.56493  0.64249  1.0000
  C  Sn16      1.0  0.25132  0.59375  0.62889  1.0000
  C   C55       1.0  0.27958  0.63791  0.69725  1.0000
  C   C56       1.0  0.23910  0.65365  0.77850  1.0000
  H   H39       1.0  0.13867  0.63737  0.85475  1.0000
  O  Te15      1.0  0.15172  0.52067  0.57538  1.0000
  O  Te16      1.0  0.29246  0.57855  0.54813  1.0000
  H   H40       1.0  0.26136  0.68786  0.83109  1.0000
  Mg  Mg8       1.0  0.22875  0.51553  0.47694  1.0000
  C   C57       1.0  0.58211  0.43311  0.70952  1.0000
  C   C58       1.0  0.59030  0.39975  0.82476  1.0000
  C  Sn17      1.0  0.55368  0.39001  0.95439  1.0000
  C  Sn18      1.0  0.50805  0.41416  0.96860  1.0000
  C   C59       1.0  0.50018  0.44743  0.85270  1.0000
  C   C60       1.0  0.53709  0.45692  0.72346  1.0000
  H   H41       1.0  0.61064  0.44042  0.60953  1.0000
  O  Te17      1.0  0.76112  0.57896  0.06843  1.0000
  O  Te18      1.0  0.66942  0.62745  0.09697  1.0000
  H   H42       1.0  0.53071  0.48271  0.63427  1.0000
  Mg  Mg9       1.0  0.69897  0.57886  0.22169  1.0000
  C   C61       1.0  0.34417  0.55265  0.80337  1.0000
  C   C62       1.0  0.36923  0.62567  0.72253  1.0000
  C  Sn19      1.0  0.43915  0.67504  0.63204  1.0000
  C  Sn20      1.0  0.48469  0.65069  0.62250  1.0000
  C   C63       1.0  0.45910  0.57752  0.70375  1.0000
  C   C64       1.0  0.38905  0.52858  0.79399  1.0000
  H   H43       1.0  0.28996  0.51478  0.87314  1.0000
  O  Te19      1.0  0.46333  0.74781  0.55206  1.0000
  O  Te20      1.0  0.55480  0.69887  0.53287  1.0000
  H   H44       1.0  0.36965  0.47204  0.85650  1.0000
  Mg  Mg10      1.0  0.56314  0.79270  0.44523  1.0000
  C   C65       1.0  0.57390  0.05638  0.93986  1.0000
  C   C66       1.0  0.53857  0.03770  0.85420  1.0000
  C  Sn21      1.0  0.53532  0.09058  0.76202  1.0000
  C  Sn22      1.0  0.56812  0.16347  0.75569  1.0000
  C   C67       1.0  0.60339  0.18162  0.84176  1.0000
  C   C68       1.0  0.60630  0.12827  0.93365  1.0000
  H   H45       1.0  0.77482  0.23747  0.01091  1.0000
  O  Te21      1.0  0.49977  0.07098  0.67720  1.0000
  O  Te22      1.0  0.56570  0.21741  0.66448  1.0000
  H   H46       1.0  0.63370  0.14276  0.99990  1.0000
  Mg  Mg11      1.0  0.51095  0.16388  0.56993  1.0000
  C   C69       1.0  0.36723  0.82182  0.62904  1.0000
  C   C70       1.0  0.37504  0.76361  0.67753  1.0000
  C  Sn23      1.0  0.41002  0.76378  0.76570  1.0000
  C  Sn24      1.0  0.98542  0.82340  0.80592  1.0000
  C   C71       1.0  0.97729  0.88134  0.75693  1.0000
  C   C72       1.0  0.94222  0.88063  0.66871  1.0000
  H   H47       1.0  0.34006  0.82126  0.56085  1.0000
  O  Te23      1.0  0.41738  0.70520  0.81314  1.0000
  O  Te24      1.0  0.02058  0.82495  0.89398  1.0000
  H   H48       1.0  0.93614  0.92568  0.63126  1.0000
  Mg  Mg12      1.0  0.46948  0.73238  0.93123  1.0000
