data_image0
_chemical_formula_structural       H54C72N6SnCSn2CSnTe4Mg2SnCSn2CSnTe4Mg2SnCSn2CSnTe4Mg2SnCSn2CSnTe4Mg2SnCSn2CSnTe4Mg2SnCSn2CSnTe4Mg2
_chemical_formula_sum              "H54 C84 N6 Sn24 Te24 Mg12"
_cell_length_a       25.7264
_cell_length_b       25.9881
_cell_length_c       10.198
_cell_angle_alpha    90.5296
_cell_angle_beta     90.293
_cell_angle_gamma    120.47

_symmetry_space_group_name_H-M    'P1'
_space_group_IT_number       1

loop_
  _space_group_symop_operation_xyz
  'x, y, z'

loop_
  _atom_site_type_symbol
  _atom_site_label
  _atom_site_symmetry_multiplicity
  _atom_site_fract_x
  _atom_site_fract_y
  _atom_site_fract_z
  _atom_site_occupancy
  H   H1        1.0  0.55029  0.19900  0.00737  1.0000
  H   H2        1.0  0.80280  0.34216  0.03112  1.0000
  H   H3        1.0  0.65304  0.44989  0.00560  1.0000
  H   H4        1.0  0.49689  0.08776  0.98852  1.0000
  H   H5        1.0  0.91489  0.40351  0.01415  1.0000
  H   H6        1.0  0.59545  0.50353  0.98981  1.0000
  H   H7        1.0  0.64519  0.19347  0.35083  1.0000
  H   H8        1.0  0.80674  0.46228  0.32969  1.0000
  H   H9        1.0  0.54355  0.34926  0.33002  1.0000
  H   H10       1.0  0.36704  0.57042  0.18446  1.0000
  H   H11       1.0  0.42137  0.51721  0.21767  1.0000
  H   H12       1.0  0.07145  0.48724  0.35613  1.0000
  H   H13       1.0  0.18142  0.54743  0.31720  1.0000
  H   H14       1.0  0.51867  0.99138  0.23305  1.0000
  H   H15       1.0  0.01089  0.54067  0.22614  1.0000
  H   H16       1.0  0.46850  0.47446  0.22064  1.0000
  H   H17       1.0  0.72291  0.27801  0.19375  1.0000
  H   H18       1.0  0.72276  0.44318  0.17137  1.0000
  H   H19       1.0  0.55483  0.27613  0.17345  1.0000
  H   H20       1.0  0.26997  0.75523  0.38745  1.0000
  H   H21       1.0  0.27172  0.75700  0.55964  1.0000
  H   H22       1.0  0.21220  0.69493  0.47434  1.0000
  H   H23       1.0  0.48865  0.72639  0.50095  1.0000
  H   H24       1.0  0.48027  0.78686  0.44825  1.0000
  H   H25       1.0  0.47269  0.73187  0.33488  1.0000
  H   H26       1.0  0.30044  0.52035  0.46612  1.0000
  H   H27       1.0  0.23183  0.51640  0.42222  1.0000
  H   H28       1.0  0.25262  0.52221  0.58808  1.0000
  H   H29       1.0  0.91854  0.52165  0.31668  1.0000
  H   H30       1.0  0.59020  0.08254  0.33462  1.0000
  H   H31       1.0  0.48757  0.40410  0.31692  1.0000
  H   H32       1.0  0.52968  0.19839  0.54391  1.0000
  H   H33       1.0  0.48085  0.08857  0.50598  1.0000
  H   H34       1.0  0.66279  0.19445  0.79442  1.0000
  H   H35       1.0  0.20546  0.63865  0.68602  1.0000
  H   H36       1.0  0.09638  0.58137  0.72196  1.0000
  H   H37       1.0  0.51389  0.58520  0.85369  1.0000
  H   H38       1.0  0.45604  0.63665  0.81700  1.0000
  H   H39       1.0  0.54271  0.99647  0.65577  1.0000
  H   H40       1.0  0.00675  0.52794  0.73495  1.0000
  H   H41       1.0  0.45021  0.46400  0.71152  1.0000
  H   H42       1.0  0.71949  0.28137  0.67451  1.0000
  H   H43       1.0  0.71402  0.44372  0.68839  1.0000
  H   H44       1.0  0.54866  0.27388  0.69427  1.0000
  H   H45       1.0  0.28251  0.76549  0.01708  1.0000
  H   H46       1.0  0.21920  0.69618  0.96606  1.0000
  H   H47       1.0  0.27263  0.74325  0.85095  1.0000
  H   H48       1.0  0.47888  0.75010  0.85060  1.0000
  H   H49       1.0  0.49133  0.71286  0.98060  1.0000
  H   H50       1.0  0.48980  0.77942  0.01097  1.0000
  H   H51       1.0  0.30334  0.51866  0.97268  1.0000
  H   H52       1.0  0.23253  0.51400  0.95432  1.0000
  H   H53       1.0  0.26557  0.52500  0.11063  1.0000
  H   H54       1.0  0.61482  0.08534  0.75395  1.0000
  C   C1        1.0  0.36671  0.63956  0.47401  1.0000
  C   C2        1.0  0.36093  0.73065  0.46439  1.0000
  C   C3        1.0  0.26869  0.63366  0.48050  1.0000
  C   C4        1.0  0.20210  0.59733  0.49919  1.0000
  C   C5        1.0  0.39828  0.57281  0.10994  1.0000
  C   C6        1.0  0.42952  0.54281  0.12879  1.0000
  C   C7        1.0  0.47219  0.54718  0.03663  1.0000
  C   C8        1.0  0.10124  0.52052  0.42815  1.0000
  C   C9        1.0  0.16318  0.55405  0.40753  1.0000
  C   C10       1.0  0.50152  0.48558  0.14195  1.0000
  C   C11       1.0  0.51238  0.01324  0.14754  1.0000
  C   C12       1.0  0.98913  0.50532  0.15067  1.0000
  C   C13       1.0  0.53762  0.45699  0.15156  1.0000
  C   C14       1.0  0.54080  0.07802  0.15901  1.0000
  C   C15       1.0  0.92393  0.46720  0.16222  1.0000
  C   C16       1.0  0.52332  0.41342  0.24775  1.0000
  C   C17       1.0  0.58224  0.10830  0.26196  1.0000
  C   C18       1.0  0.89297  0.48300  0.25235  1.0000
  C   C19       1.0  0.55450  0.38263  0.25497  1.0000
  C   C20       1.0  0.61316  0.17043  0.27098  1.0000
  C   C21       1.0  0.83034  0.44971  0.25987  1.0000
  C   C22       1.0  0.60189  0.39591  0.16846  1.0000
  C   C23       1.0  0.60184  0.20368  0.17926  1.0000
  C   C24       1.0  0.79711  0.39858  0.18030  1.0000
  C   C25       1.0  0.61711  0.44054  0.07418  1.0000
  C   C26       1.0  0.55861  0.17316  0.07909  1.0000
  C   C27       1.0  0.82839  0.38137  0.09391  1.0000
  C   C28       1.0  0.58519  0.47032  0.06484  1.0000
  C   C29       1.0  0.52895  0.11138  0.06792  1.0000
  C   C30       1.0  0.89072  0.41544  0.08375  1.0000
  C   C31       1.0  0.63512  0.36343  0.17526  1.0000
  C   C32       1.0  0.63510  0.26966  0.18400  1.0000
  C   C33       1.0  0.73051  0.36447  0.18369  1.0000
  C   C34       1.0  0.69834  0.39471  0.17690  1.0000
  C   C35       1.0  0.60389  0.30086  0.17776  1.0000
  C   C36       1.0  0.69837  0.30190  0.18884  1.0000
  C   C37       1.0  0.39563  0.70246  0.45966  1.0000
  C   C38       1.0  0.29725  0.69638  0.47281  1.0000
  C   C39       1.0  0.30303  0.60498  0.48091  1.0000
  C   C40       1.0  0.26061  0.72714  0.47378  1.0000
  C   C41       1.0  0.46284  0.73899  0.43616  1.0000
  C   C42       1.0  0.27062  0.53757  0.48939  1.0000
  C   C43       1.0  0.37147  0.63811  0.98304  1.0000
  C   C44       1.0  0.36725  0.72993  0.97345  1.0000
  C   C45       1.0  0.27406  0.63324  0.98299  1.0000
  C   C46       1.0  0.40672  0.60736  0.99786  1.0000
  C   C47       1.0  0.17616  0.60583  0.61259  1.0000
  C   C48       1.0  0.11425  0.57319  0.63290  1.0000
  C   C49       1.0  0.07536  0.52940  0.54104  1.0000
  C   C50       1.0  0.48118  0.58206  0.92513  1.0000
  C   C51       1.0  0.44891  0.61124  0.90580  1.0000
  C   C52       1.0  0.48730  0.47831  0.64155  1.0000
  C   C53       1.0  0.51917  0.01602  0.60468  1.0000
  C   C54       1.0  0.98383  0.49807  0.65044  1.0000
  C   C55       1.0  0.54465  0.07979  0.62738  1.0000
  C   C56       1.0  0.59627  0.11038  0.70830  1.0000
  C   C57       1.0  0.62340  0.17163  0.73022  1.0000
  C   C58       1.0  0.59971  0.20425  0.67144  1.0000
  C   C59       1.0  0.54735  0.17322  0.59229  1.0000
  C   C60       1.0  0.52021  0.11214  0.57004  1.0000
  C   C61       1.0  0.62722  0.36226  0.69204  1.0000
  C   C62       1.0  0.63042  0.26987  0.68509  1.0000
  C   C63       1.0  0.72430  0.36637  0.68517  1.0000
  C   C64       1.0  0.69064  0.39518  0.68978  1.0000
  C   C65       1.0  0.59771  0.29966  0.69226  1.0000
  C   C66       1.0  0.69363  0.30384  0.68206  1.0000
  C   C67       1.0  0.40137  0.70105  0.97261  1.0000
  C   C68       1.0  0.30349  0.69600  0.97094  1.0000
  C   C69       1.0  0.30774  0.60405  0.99015  1.0000
  C   C70       1.0  0.26735  0.72662  0.95160  1.0000
  C   C71       1.0  0.46894  0.73762  0.95438  1.0000
  C   C72       1.0  0.27572  0.53702  0.00685  1.0000
  N   N1        1.0  0.50775  0.52041  0.04590  1.0000
  N   N2        1.0  0.48280  0.98450  0.04299  1.0000
  N   N3        1.0  0.01802  0.49778  0.05605  1.0000
  N   N4        1.0  0.49878  0.51755  0.55186  1.0000
  N   N5        1.0  0.47286  0.98481  0.52883  1.0000
  N   N6        1.0  0.01217  0.49399  0.55004  1.0000
  C  Sn1       1.0  0.39833  0.88011  0.92590  1.0000
  C   C73       1.0  0.43079  0.90738  0.03052  1.0000
  C  Sn2       1.0  0.45581  0.88283  0.11307  1.0000
  C  Sn3       1.0  0.44294  0.82354  0.09054  1.0000
  C   C74       1.0  0.41051  0.79630  0.98595  1.0000
  C  Sn4       1.0  0.38546  0.82082  0.90336  1.0000
  O  Te1       1.0  0.37381  0.90556  0.84462  1.0000
  O  Te2       1.0  0.49334  0.91721  0.21706  1.0000
  O  Te3       1.0  0.46749  0.79810  0.17193  1.0000
  O  Te4       1.0  0.34796  0.78647  0.79942  1.0000
  Mg  Mg1       1.0  0.51598  0.86276  0.30059  1.0000
  Mg  Mg2       1.0  0.32532  0.84088  0.71580  1.0000
  C  Sn5       1.0  0.40084  0.84898  0.36284  1.0000
  C   C75       1.0  0.40443  0.80696  0.44092  1.0000
  C  Sn6       1.0  0.42599  0.82135  0.56991  1.0000
  C  Sn7       1.0  0.44432  0.87895  0.62200  1.0000
  C   C76       1.0  0.44072  0.92093  0.54395  1.0000
  C  Sn8       1.0  0.41917  0.90658  0.41492  1.0000
  O  Te5       1.0  0.37913  0.83362  0.23415  1.0000
  O  Te6       1.0  0.42918  0.77860  0.64606  1.0000
  O  Te7       1.0  0.46604  0.89428  0.75080  1.0000
  O  Te8       1.0  0.41596  0.94929  0.33880  1.0000
  Mg  Mg3       1.0  0.46186  0.82076  0.81581  1.0000
  Mg  Mg4       1.0  0.38327  0.90717  0.16907  1.0000
  C  Sn9       1.0  0.48726  0.60694  0.44049  1.0000
  C   C77       1.0  0.47945  0.56837  0.54290  1.0000
  C  Sn10      1.0  0.42780  0.54467  0.61991  1.0000
  C  Sn11      1.0  0.38300  0.55980  0.59398  1.0000
  C   C78       1.0  0.39081  0.59834  0.49161  1.0000
  C  Sn12      1.0  0.44246  0.62207  0.41455  1.0000
  O  Te9       1.0  0.53925  0.63010  0.36476  1.0000
  O  Te10      1.0  0.42101  0.50622  0.72179  1.0000
  O  Te11      1.0  0.33099  0.53660  0.66982  1.0000
  O  Te12      1.0  0.44925  0.66049  0.31273  1.0000
  Mg  Mg5       1.0  0.34230  0.48610  0.79750  1.0000
  Mg  Mg6       1.0  0.52793  0.68061  0.23691  1.0000
  C  Sn13      1.0  0.83995  0.46623  0.75535  1.0000
  C   C79       1.0  0.79786  0.42129  0.67175  1.0000
  C  Sn14      1.0  0.81599  0.39202  0.58383  1.0000
  C  Sn15      1.0  0.87747  0.40798  0.57943  1.0000
  C   C80       1.0  0.91952  0.45288  0.66301  1.0000
  C  Sn16      1.0  0.90144  0.48218  0.75095  1.0000
  O  Te13      1.0  0.82082  0.49488  0.84247  1.0000
  O  Te14      1.0  0.77308  0.34726  0.50118  1.0000
  O  Te15      1.0  0.89658  0.37927  0.49221  1.0000
  O  Te16      1.0  0.94430  0.52691  0.83357  1.0000
  Mg  Mg7       1.0  0.82123  0.32119  0.39948  1.0000
  Mg  Mg8       1.0  0.89620  0.55299  0.93535  1.0000
  C  Sn17      1.0  0.57226  0.44906  0.54523  1.0000
  C   C81       1.0  0.52317  0.44074  0.61962  1.0000
  C  Sn18      1.0  0.51064  0.41115  0.73916  1.0000
  C  Sn19      1.0  0.54797  0.38946  0.78536  1.0000
  C   C82       1.0  0.59703  0.39779  0.71101  1.0000
  C  Sn20      1.0  0.60959  0.42737  0.59143  1.0000
  O  Te17      1.0  0.58395  0.47877  0.42601  1.0000
  O  Te18      1.0  0.46129  0.40336  0.81177  1.0000
  O  Te19      1.0  0.53623  0.35973  0.90468  1.0000
  O  Te20      1.0  0.65890  0.43518  0.51886  1.0000
  Mg  Mg9       1.0  0.46383  0.36007  0.96816  1.0000
  Mg  Mg10      1.0  0.65643  0.47848  0.36249  1.0000
  C  Sn21      1.0  0.12080  0.51295  0.94531  1.0000
  C   C83       1.0  0.08392  0.51478  0.04665  1.0000
  C  Sn22      1.0  0.11111  0.56724  0.12230  1.0000
  C  Sn23      1.0  0.17117  0.61261  0.09605  1.0000
  C   C84       1.0  0.20801  0.61078  0.99475  1.0000
  C  Sn24      1.0  0.18086  0.55831  0.91907  1.0000
  O  Te21      1.0  0.09273  0.46014  0.87094  1.0000
  O  Te22      1.0  0.07857  0.57429  0.22312  1.0000
  O  Te23      1.0  0.19923  0.66544  0.17053  1.0000
  O  Te24      1.0  0.21337  0.55126  0.81829  1.0000
  Mg  Mg11      1.0  0.13635  0.65418  0.29714  1.0000
  Mg  Mg12      1.0  0.15562  0.47141  0.74416  1.0000
