data_image0
_chemical_formula_structural       H30C36N6SnCSn2CSnTe4Mg2SnCSn2CSnTe4Mg2SnCSn2CSnTe4Mg2SnCSn2CSnTe4Mg2SnCSn2CSnTe4Mg2SnCSn2CSnTe4Mg2SnCSn2CSnTe4Mg2SnCSn2CSnTe4Mg2SnCSn2CSnTe4Mg2SnCSn2CSnTe4Mg2SnCSn2CSnTe4Mg2SnCSn2CSnTe4Mg2
_chemical_formula_sum              "H30 C60 N6 Sn48 Te48 Mg24"
_cell_length_a       25.7264
_cell_length_b       25.9881
_cell_length_c       10.198
_cell_angle_alpha    90.5296
_cell_angle_beta     90.293
_cell_angle_gamma    120.47

_symmetry_space_group_name_H-M    'P1'
_space_group_IT_number       1

loop_
  _space_group_symop_operation_xyz
  'x, y, z'

loop_
  _atom_site_type_symbol
  _atom_site_label
  _atom_site_symmetry_multiplicity
  _atom_site_fract_x
  _atom_site_fract_y
  _atom_site_fract_z
  _atom_site_occupancy
  H   H1        1.0  0.51867  0.99138  0.23305  1.0000
  H   H2        1.0  0.01089  0.54067  0.22614  1.0000
  H   H3        1.0  0.46850  0.47446  0.22064  1.0000
  H   H4        1.0  0.72291  0.27801  0.19375  1.0000
  H   H5        1.0  0.72276  0.44318  0.17137  1.0000
  H   H6        1.0  0.55483  0.27613  0.17345  1.0000
  H   H7        1.0  0.26997  0.75523  0.38745  1.0000
  H   H8        1.0  0.27172  0.75700  0.55964  1.0000
  H   H9        1.0  0.21220  0.69493  0.47434  1.0000
  H   H10       1.0  0.48865  0.72639  0.50095  1.0000
  H   H11       1.0  0.48027  0.78686  0.44825  1.0000
  H   H12       1.0  0.47269  0.73187  0.33488  1.0000
  H   H13       1.0  0.30044  0.52035  0.46612  1.0000
  H   H14       1.0  0.23183  0.51640  0.42222  1.0000
  H   H15       1.0  0.25262  0.52221  0.58808  1.0000
  H   H16       1.0  0.54271  0.99647  0.65577  1.0000
  H   H17       1.0  0.00675  0.52794  0.73495  1.0000
  H   H18       1.0  0.45021  0.46400  0.71152  1.0000
  H   H19       1.0  0.71949  0.28137  0.67451  1.0000
  H   H20       1.0  0.71402  0.44372  0.68839  1.0000
  H   H21       1.0  0.54866  0.27388  0.69427  1.0000
  H   H22       1.0  0.28251  0.76549  0.01708  1.0000
  H   H23       1.0  0.21920  0.69618  0.96606  1.0000
  H   H24       1.0  0.27263  0.74325  0.85095  1.0000
  H   H25       1.0  0.47888  0.75010  0.85060  1.0000
  H   H26       1.0  0.49133  0.71286  0.98060  1.0000
  H   H27       1.0  0.48980  0.77942  0.01097  1.0000
  H   H28       1.0  0.30334  0.51866  0.97268  1.0000
  H   H29       1.0  0.23253  0.51400  0.95432  1.0000
  H   H30       1.0  0.26557  0.52500  0.11063  1.0000
  C   C1        1.0  0.36671  0.63956  0.47401  1.0000
  C   C2        1.0  0.36093  0.73065  0.46439  1.0000
  C   C3        1.0  0.26869  0.63366  0.48050  1.0000
  C   C4        1.0  0.50152  0.48558  0.14195  1.0000
  C   C5        1.0  0.51238  0.01324  0.14754  1.0000
  C   C6        1.0  0.98913  0.50532  0.15067  1.0000
  C   C7        1.0  0.63512  0.36343  0.17526  1.0000
  C   C8        1.0  0.63510  0.26966  0.18400  1.0000
  C   C9        1.0  0.73051  0.36447  0.18369  1.0000
  C   C10       1.0  0.69834  0.39471  0.17690  1.0000
  C   C11       1.0  0.60389  0.30086  0.17776  1.0000
  C   C12       1.0  0.69837  0.30190  0.18884  1.0000
  C   C13       1.0  0.39563  0.70246  0.45966  1.0000
  C   C14       1.0  0.29725  0.69638  0.47281  1.0000
  C   C15       1.0  0.30303  0.60498  0.48091  1.0000
  C   C16       1.0  0.26061  0.72714  0.47378  1.0000
  C   C17       1.0  0.46284  0.73899  0.43616  1.0000
  C   C18       1.0  0.27062  0.53757  0.48939  1.0000
  C   C19       1.0  0.37147  0.63811  0.98304  1.0000
  C   C20       1.0  0.36725  0.72993  0.97345  1.0000
  C   C21       1.0  0.27406  0.63324  0.98299  1.0000
  C   C22       1.0  0.48730  0.47831  0.64155  1.0000
  C   C23       1.0  0.51917  0.01602  0.60468  1.0000
  C   C24       1.0  0.98383  0.49807  0.65044  1.0000
  C   C25       1.0  0.62722  0.36226  0.69204  1.0000
  C   C26       1.0  0.63042  0.26987  0.68509  1.0000
  C   C27       1.0  0.72430  0.36637  0.68517  1.0000
  C   C28       1.0  0.69064  0.39518  0.68978  1.0000
  C   C29       1.0  0.59771  0.29966  0.69226  1.0000
  C   C30       1.0  0.69363  0.30384  0.68206  1.0000
  C   C31       1.0  0.40137  0.70105  0.97261  1.0000
  C   C32       1.0  0.30349  0.69600  0.97094  1.0000
  C   C33       1.0  0.30774  0.60405  0.99015  1.0000
  C   C34       1.0  0.26735  0.72662  0.95160  1.0000
  C   C35       1.0  0.46894  0.73762  0.95438  1.0000
  C   C36       1.0  0.27572  0.53702  0.00685  1.0000
  N   N1        1.0  0.50775  0.52041  0.04590  1.0000
  N   N2        1.0  0.48280  0.98450  0.04299  1.0000
  N   N3        1.0  0.01802  0.49778  0.05605  1.0000
  N   N4        1.0  0.49878  0.51755  0.55186  1.0000
  N   N5        1.0  0.47286  0.98481  0.52883  1.0000
  N   N6        1.0  0.01217  0.49399  0.55004  1.0000
  C  Sn1       1.0  0.44482  0.59197  0.88289  1.0000
  C   C37       1.0  0.40233  0.59380  0.96460  1.0000
  C  Sn2       1.0  0.39236  0.57026  0.09533  1.0000
  C  Sn3       1.0  0.43091  0.55077  0.14548  1.0000
  C   C38       1.0  0.47338  0.54895  0.06380  1.0000
  C  Sn4       1.0  0.48338  0.57247  0.93304  1.0000
  O  Te1       1.0  0.44877  0.60946  0.75252  1.0000
  O  Te2       1.0  0.34951  0.57247  0.17511  1.0000
  O  Te3       1.0  0.42693  0.53327  0.27596  1.0000
  O  Te4       1.0  0.52619  0.57029  0.85329  1.0000
  Mg  Mg1       1.0  0.36145  0.54413  0.34596  1.0000
  Mg  Mg2       1.0  0.51432  0.59864  0.68246  1.0000
  C  Sn5       1.0  0.42915  0.83483  0.13170  1.0000
  C   C39       1.0  0.39214  0.80139  0.02616  1.0000
  C  Sn6       1.0  0.39719  0.83566  0.91005  1.0000
  C  Sn7       1.0  0.43482  0.89840  0.89917  1.0000
  C   C40       1.0  0.46658  0.92555  0.00465  1.0000
  C  Sn8       1.0  0.46677  0.89757  0.12081  1.0000
  O  Te5       1.0  0.42859  0.80588  0.24683  1.0000
  O  Te6       1.0  0.35979  0.80130  0.80589  1.0000
  O  Te7       1.0  0.43534  0.92734  0.78391  1.0000
  O  Te8       1.0  0.50415  0.93189  0.22492  1.0000
  Mg  Mg3       1.0  0.37649  0.86123  0.66925  1.0000
  Mg  Mg4       1.0  0.48751  0.87201  0.36157  1.0000
  C  Sn9       1.0  0.13232  0.60252  0.10985  1.0000
  C   C41       1.0  0.08701  0.55548  0.03575  1.0000
  C  Sn10      1.0  0.10674  0.53038  0.94532  1.0000
  C  Sn11      1.0  0.16781  0.54635  0.92866  1.0000
  C   C42       1.0  0.20785  0.58711  0.00274  1.0000
  C  Sn12      1.0  0.19339  0.61849  0.09318  1.0000
  O  Te9       1.0  0.11679  0.63324  0.19969  1.0000
  O  Te10      1.0  0.06066  0.48353  0.87234  1.0000
  O  Te11      1.0  0.18331  0.51559  0.83872  1.0000
  O  Te12      1.0  0.23942  0.66531  0.16615  1.0000
  Mg  Mg5       1.0  0.10451  0.45511  0.76229  1.0000
  Mg  Mg6       1.0  0.19563  0.69374  0.27627  1.0000
  C  Sn13      1.0  0.39836  0.53211  0.60729  1.0000
  C   C43       1.0  0.44396  0.53213  0.53337  1.0000
  C  Sn14      1.0  0.47532  0.57650  0.44105  1.0000
  C  Sn15      1.0  0.46084  0.62182  0.42227  1.0000
  C   C44       1.0  0.41527  0.62179  0.49617  1.0000
  C  Sn16      1.0  0.38387  0.57743  0.58850  1.0000
  O  Te13      1.0  0.36759  0.48731  0.69904  1.0000
  O  Te14      1.0  0.52072  0.57557  0.36829  1.0000
  O  Te15      1.0  0.49165  0.66663  0.33043  1.0000
  O  Te16      1.0  0.33851  0.57835  0.66125  1.0000
  Mg  Mg7       1.0  0.54983  0.64626  0.25515  1.0000
  Mg  Mg8       1.0  0.30939  0.50771  0.77446  1.0000
  C  Sn17      1.0  0.42372  0.83636  0.61744  1.0000
  C   C45       1.0  0.38580  0.80193  0.51395  1.0000
  C  Sn18      1.0  0.38288  0.82908  0.39877  1.0000
  C  Sn19      1.0  0.41864  0.89196  0.38674  1.0000
  C   C46       1.0  0.45654  0.92635  0.49018  1.0000
  C  Sn20      1.0  0.45948  0.89923  0.60541  1.0000
  O  Te17      1.0  0.42592  0.80827  0.73168  1.0000
  O  Te18      1.0  0.34461  0.79373  0.29666  1.0000
  O  Te19      1.0  0.41641  0.92003  0.27238  1.0000
  O  Te20      1.0  0.49773  0.93455  0.70747  1.0000
  Mg  Mg9       1.0  0.35736  0.85274  0.16055  1.0000
  Mg  Mg10      1.0  0.48504  0.87559  0.84359  1.0000
  C  Sn21      1.0  0.11612  0.51314  0.43345  1.0000
  C   C47       1.0  0.08378  0.51659  0.53952  1.0000
  C  Sn22      1.0  0.11016  0.56591  0.62481  1.0000
  C  Sn23      1.0  0.17010  0.61279  0.60362  1.0000
  C   C48       1.0  0.20240  0.60933  0.49760  1.0000
  C  Sn24      1.0  0.17606  0.56002  0.41226  1.0000
  O  Te21      1.0  0.08885  0.46342  0.34943  1.0000
  O  Te22      1.0  0.07695  0.56835  0.73020  1.0000
  O  Te23      1.0  0.19736  0.66254  0.68776  1.0000
  O  Te24      1.0  0.20924  0.55757  0.30692  1.0000
  Mg  Mg11      1.0  0.13376  0.64535  0.81744  1.0000
  Mg  Mg12      1.0  0.15246  0.48061  0.21958  1.0000
  C  Sn25      1.0  0.53950  0.41724  0.28194  1.0000
  C   C49       1.0  0.54707  0.46079  0.19224  1.0000
  C  Sn26      1.0  0.57969  0.46886  0.07758  1.0000
  C  Sn27      1.0  0.60523  0.43263  0.05199  1.0000
  C   C50       1.0  0.59764  0.38910  0.14164  1.0000
  C  Sn28      1.0  0.56504  0.38100  0.25635  1.0000
  O  Te25      1.0  0.50672  0.40994  0.39593  1.0000
  O  Te26      1.0  0.59190  0.51896  0.98939  1.0000
  O  Te27      1.0  0.64326  0.44621  0.93789  1.0000
  O  Te28      1.0  0.55805  0.33718  0.34449  1.0000
  Mg  Mg13      1.0  0.64035  0.51185  0.84779  1.0000
  Mg  Mg14      1.0  0.50958  0.34423  0.48608  1.0000
  C  Sn29      1.0  0.57767  0.12048  0.29454  1.0000
  C   C51       1.0  0.53561  0.08358  0.19931  1.0000
  C  Sn30      1.0  0.52980  0.10742  0.08167  1.0000
  C  Sn31      1.0  0.56682  0.16943  0.05869  1.0000
  C   C52       1.0  0.60884  0.20629  0.15387  1.0000
  C  Sn32      1.0  0.61468  0.18249  0.27156  1.0000
  O  Te29      1.0  0.58271  0.09568  0.41142  1.0000
  O  Te30      1.0  0.49265  0.07589  0.98796  1.0000
  O  Te31      1.0  0.56697  0.20046  0.94169  1.0000
  O  Te32      1.0  0.65703  0.22023  0.36522  1.0000
  Mg  Mg15      1.0  0.50268  0.13076  0.84415  1.0000
  Mg  Mg16      1.0  0.64707  0.16541  0.50903  1.0000
  C  Sn33      1.0  0.84326  0.37574  0.11262  1.0000
  C   C53       1.0  0.80547  0.38577  0.19342  1.0000
  C  Sn34      1.0  0.82679  0.44120  0.25522  1.0000
  C  Sn35      1.0  0.88712  0.48759  0.23580  1.0000
  C   C54       1.0  0.92487  0.47755  0.15502  1.0000
  C  Sn36      1.0  0.90359  0.42213  0.09319  1.0000
  O  Te33      1.0  0.82099  0.31999  0.05181  1.0000
  O  Te34      1.0  0.78817  0.45015  0.33559  1.0000
  O  Te35      1.0  0.90937  0.54337  0.29669  1.0000
  O  Te36      1.0  0.94217  0.41317  0.01286  1.0000
  Mg  Mg17      1.0  0.83942  0.53386  0.39696  1.0000
  Mg  Mg18      1.0  0.89620  0.33575  0.95138  1.0000
  C  Sn37      1.0  0.52105  0.36792  0.74235  1.0000
  C   C55       1.0  0.57208  0.37849  0.67259  1.0000
  C  Sn38      1.0  0.60372  0.43009  0.59843  1.0000
  C  Sn39      1.0  0.58396  0.47204  0.59396  1.0000
  C   C56       1.0  0.53296  0.46148  0.66371  1.0000
  C  Sn40      1.0  0.50129  0.40987  0.73788  1.0000
  O  Te37      1.0  0.49011  0.31603  0.81586  1.0000
  O  Te38      1.0  0.65460  0.43967  0.52947  1.0000
  O  Te39      1.0  0.61495  0.52397  0.52037  1.0000
  O  Te40      1.0  0.45044  0.40029  0.80682  1.0000
  Mg  Mg19      1.0  0.68165  0.51706  0.44336  1.0000
  Mg  Mg20      1.0  0.42338  0.32294  0.89302  1.0000
  C  Sn41      1.0  0.63146  0.16170  0.69958  1.0000
  C   C57       1.0  0.61285  0.20026  0.65287  1.0000
  C  Sn42      1.0  0.55504  0.17749  0.59952  1.0000
  C  Sn43      1.0  0.51497  0.11487  0.59278  1.0000
  C   C58       1.0  0.53358  0.07634  0.63949  1.0000
  C  Sn44      1.0  0.59139  0.09908  0.69284  1.0000
  O  Te41      1.0  0.68945  0.18545  0.75253  1.0000
  O  Te42      1.0  0.53747  0.21692  0.55342  1.0000
  O  Te43      1.0  0.45694  0.09113  0.53978  1.0000
  O  Te44      1.0  0.60896  0.05968  0.73895  1.0000
  Mg  Mg21      1.0  0.45389  0.16299  0.48990  1.0000
  Mg  Mg22      1.0  0.69251  0.11356  0.80254  1.0000
  C  Sn45      1.0  0.86769  0.42242  0.53704  1.0000
  C   C59       1.0  0.90982  0.46668  0.62182  1.0000
  C  Sn46      1.0  0.89291  0.47447  0.74705  1.0000
  C  Sn47      1.0  0.83264  0.43721  0.78846  1.0000
  C   C60       1.0  0.79055  0.39298  0.70371  1.0000
  C  Sn48      1.0  0.80742  0.38517  0.57845  1.0000
  O  Te45      1.0  0.88559  0.41544  0.41229  1.0000
  O  Te46      1.0  0.93583  0.51903  0.83005  1.0000
  O  Te47      1.0  0.81476  0.44423  0.91333  1.0000
  O  Te48      1.0  0.76454  0.34063  0.49549  1.0000
  Mg  Mg23      1.0  0.88961  0.51114  0.99073  1.0000
  Mg  Mg24      1.0  0.81071  0.34846  0.33481  1.0000
