data_image0
_chemical_formula_structural       H54C72N6C2Sn2C2HTe2HMgC2Sn2C2HTe2HMgC2Sn2C2HTe2HMgC2Sn2C2HTe2HMgC2Sn2C2HTe2HMgC2Sn2C2HTe2HMg
_chemical_formula_sum              "H66 C96 N6 Sn12 Te12 Mg6"
_cell_length_a       25.7264
_cell_length_b       25.9881
_cell_length_c       10.198
_cell_angle_alpha    90.5296
_cell_angle_beta     90.293
_cell_angle_gamma    120.47

_symmetry_space_group_name_H-M    'P1'
_space_group_IT_number       1

loop_
  _space_group_symop_operation_xyz
  'x, y, z'

loop_
  _atom_site_type_symbol
  _atom_site_label
  _atom_site_symmetry_multiplicity
  _atom_site_fract_x
  _atom_site_fract_y
  _atom_site_fract_z
  _atom_site_occupancy
  H   H1        1.0  0.65304  0.44989  0.00560  1.0000
  H   H2        1.0  0.59545  0.50353  0.98981  1.0000
  H   H3        1.0  0.54355  0.34926  0.33002  1.0000
  H   H4        1.0  0.36704  0.57042  0.18446  1.0000
  H   H5        1.0  0.42137  0.51721  0.21767  1.0000
  H   H6        1.0  0.07145  0.48724  0.35613  1.0000
  H   H7        1.0  0.18142  0.54743  0.31720  1.0000
  H   H8        1.0  0.51867  0.99138  0.23305  1.0000
  H   H9        1.0  0.01089  0.54067  0.22614  1.0000
  H   H10       1.0  0.46850  0.47446  0.22064  1.0000
  H   H11       1.0  0.72291  0.27801  0.19375  1.0000
  H   H12       1.0  0.72276  0.44318  0.17137  1.0000
  H   H13       1.0  0.55483  0.27613  0.17345  1.0000
  H   H14       1.0  0.26997  0.75523  0.38745  1.0000
  H   H15       1.0  0.27172  0.75700  0.55964  1.0000
  H   H16       1.0  0.21220  0.69493  0.47434  1.0000
  H   H17       1.0  0.48865  0.72639  0.50095  1.0000
  H   H18       1.0  0.48027  0.78686  0.44825  1.0000
  H   H19       1.0  0.47269  0.73187  0.33488  1.0000
  H   H20       1.0  0.30044  0.52035  0.46612  1.0000
  H   H21       1.0  0.23183  0.51640  0.42222  1.0000
  H   H22       1.0  0.25262  0.52221  0.58808  1.0000
  H   H23       1.0  0.48757  0.40410  0.31692  1.0000
  H   H24       1.0  0.52968  0.19839  0.54391  1.0000
  H   H25       1.0  0.79229  0.35360  0.50258  1.0000
  H   H26       1.0  0.64474  0.44867  0.52502  1.0000
  H   H27       1.0  0.48085  0.08857  0.50598  1.0000
  H   H28       1.0  0.90432  0.41060  0.48377  1.0000
  H   H29       1.0  0.58477  0.49897  0.50127  1.0000
  H   H30       1.0  0.66279  0.19445  0.79442  1.0000
  H   H31       1.0  0.80540  0.45402  0.85191  1.0000
  H   H32       1.0  0.53001  0.34348  0.83930  1.0000
  H   H33       1.0  0.20546  0.63865  0.68602  1.0000
  H   H34       1.0  0.09638  0.58137  0.72196  1.0000
  H   H35       1.0  0.51389  0.58520  0.85369  1.0000
  H   H36       1.0  0.45604  0.63665  0.81700  1.0000
  H   H37       1.0  0.54271  0.99647  0.65577  1.0000
  H   H38       1.0  0.00675  0.52794  0.73495  1.0000
  H   H39       1.0  0.45021  0.46400  0.71152  1.0000
  H   H40       1.0  0.71949  0.28137  0.67451  1.0000
  H   H41       1.0  0.71402  0.44372  0.68839  1.0000
  H   H42       1.0  0.54866  0.27388  0.69427  1.0000
  H   H43       1.0  0.28251  0.76549  0.01708  1.0000
  H   H44       1.0  0.21920  0.69618  0.96606  1.0000
  H   H45       1.0  0.27263  0.74325  0.85095  1.0000
  H   H46       1.0  0.47888  0.75010  0.85060  1.0000
  H   H47       1.0  0.49133  0.71286  0.98060  1.0000
  H   H48       1.0  0.48980  0.77942  0.01097  1.0000
  H   H49       1.0  0.30334  0.51866  0.97268  1.0000
  H   H50       1.0  0.23253  0.51400  0.95432  1.0000
  H   H51       1.0  0.26557  0.52500  0.11063  1.0000
  H   H52       1.0  0.91709  0.50807  0.83722  1.0000
  H   H53       1.0  0.61482  0.08534  0.75395  1.0000
  H   H54       1.0  0.47042  0.39375  0.81535  1.0000
  C   C1        1.0  0.36671  0.63956  0.47401  1.0000
  C   C2        1.0  0.36093  0.73065  0.46439  1.0000
  C   C3        1.0  0.26869  0.63366  0.48050  1.0000
  C   C4        1.0  0.20210  0.59733  0.49919  1.0000
  C   C5        1.0  0.39828  0.57281  0.10994  1.0000
  C   C6        1.0  0.42952  0.54281  0.12879  1.0000
  C   C7        1.0  0.47219  0.54718  0.03663  1.0000
  C   C8        1.0  0.10124  0.52052  0.42815  1.0000
  C   C9        1.0  0.16318  0.55405  0.40753  1.0000
  C   C10       1.0  0.50152  0.48558  0.14195  1.0000
  C   C11       1.0  0.51238  0.01324  0.14754  1.0000
  C   C12       1.0  0.98913  0.50532  0.15067  1.0000
  C   C13       1.0  0.53762  0.45699  0.15156  1.0000
  C   C14       1.0  0.52332  0.41342  0.24775  1.0000
  C   C15       1.0  0.55450  0.38263  0.25497  1.0000
  C   C16       1.0  0.60189  0.39591  0.16846  1.0000
  C   C17       1.0  0.61711  0.44054  0.07418  1.0000
  C   C18       1.0  0.58519  0.47032  0.06484  1.0000
  C   C19       1.0  0.63512  0.36343  0.17526  1.0000
  C   C20       1.0  0.63510  0.26966  0.18400  1.0000
  C   C21       1.0  0.73051  0.36447  0.18369  1.0000
  C   C22       1.0  0.69834  0.39471  0.17690  1.0000
  C   C23       1.0  0.60389  0.30086  0.17776  1.0000
  C   C24       1.0  0.69837  0.30190  0.18884  1.0000
  C   C25       1.0  0.39563  0.70246  0.45966  1.0000
  C   C26       1.0  0.29725  0.69638  0.47281  1.0000
  C   C27       1.0  0.30303  0.60498  0.48091  1.0000
  C   C28       1.0  0.26061  0.72714  0.47378  1.0000
  C   C29       1.0  0.46284  0.73899  0.43616  1.0000
  C   C30       1.0  0.27062  0.53757  0.48939  1.0000
  C   C31       1.0  0.37147  0.63811  0.98304  1.0000
  C   C32       1.0  0.36725  0.72993  0.97345  1.0000
  C   C33       1.0  0.27406  0.63324  0.98299  1.0000
  C   C34       1.0  0.40672  0.60736  0.99786  1.0000
  C   C35       1.0  0.17616  0.60583  0.61259  1.0000
  C   C36       1.0  0.11425  0.57319  0.63290  1.0000
  C   C37       1.0  0.07536  0.52940  0.54104  1.0000
  C   C38       1.0  0.48118  0.58206  0.92513  1.0000
  C   C39       1.0  0.44891  0.61124  0.90580  1.0000
  C   C40       1.0  0.48730  0.47831  0.64155  1.0000
  C   C41       1.0  0.51917  0.01602  0.60468  1.0000
  C   C42       1.0  0.98383  0.49807  0.65044  1.0000
  C   C43       1.0  0.52342  0.44973  0.65591  1.0000
  C   C44       1.0  0.54465  0.07979  0.62738  1.0000
  C   C45       1.0  0.91815  0.46340  0.65871  1.0000
  C   C46       1.0  0.50834  0.40543  0.75087  1.0000
  C   C47       1.0  0.59627  0.11038  0.70830  1.0000
  C   C48       1.0  0.88950  0.47517  0.76224  1.0000
  C   C49       1.0  0.54179  0.37707  0.76432  1.0000
  C   C50       1.0  0.62340  0.17163  0.73022  1.0000
  C   C51       1.0  0.82679  0.44476  0.77060  1.0000
  C   C52       1.0  0.59186  0.39275  0.68417  1.0000
  C   C53       1.0  0.59971  0.20425  0.67144  1.0000
  C   C54       1.0  0.79102  0.40032  0.67752  1.0000
  C   C55       1.0  0.60723  0.43759  0.59018  1.0000
  C   C56       1.0  0.54735  0.17322  0.59229  1.0000
  C   C57       1.0  0.81986  0.38759  0.57560  1.0000
  C   C58       1.0  0.57362  0.46539  0.57576  1.0000
  C   C59       1.0  0.52021  0.11214  0.57004  1.0000
  C   C60       1.0  0.88226  0.41910  0.56485  1.0000
  C   C61       1.0  0.62722  0.36226  0.69204  1.0000
  C   C62       1.0  0.63042  0.26987  0.68509  1.0000
  C   C63       1.0  0.72430  0.36637  0.68517  1.0000
  C   C64       1.0  0.69064  0.39518  0.68978  1.0000
  C   C65       1.0  0.59771  0.29966  0.69226  1.0000
  C   C66       1.0  0.69363  0.30384  0.68206  1.0000
  C   C67       1.0  0.40137  0.70105  0.97261  1.0000
  C   C68       1.0  0.30349  0.69600  0.97094  1.0000
  C   C69       1.0  0.30774  0.60405  0.99015  1.0000
  C   C70       1.0  0.26735  0.72662  0.95160  1.0000
  C   C71       1.0  0.46894  0.73762  0.95438  1.0000
  C   C72       1.0  0.27572  0.53702  0.00685  1.0000
  N   N1        1.0  0.50775  0.52041  0.04590  1.0000
  N   N2        1.0  0.48280  0.98450  0.04299  1.0000
  N   N3        1.0  0.01802  0.49778  0.05605  1.0000
  N   N4        1.0  0.49878  0.51755  0.55186  1.0000
  N   N5        1.0  0.47286  0.98481  0.52883  1.0000
  N   N6        1.0  0.01217  0.49399  0.55004  1.0000
  C   C73       1.0  0.47537  0.59357  0.40930  1.0000
  C   C74       1.0  0.47277  0.55983  0.51763  1.0000
  C  Sn1       1.0  0.43115  0.54830  0.61688  1.0000
  C  Sn2       1.0  0.39144  0.57101  0.60722  1.0000
  C   C75       1.0  0.39437  0.60467  0.49841  1.0000
  C   C76       1.0  0.43620  0.61597  0.39967  1.0000
  H   H55       1.0  0.50771  0.60228  0.33286  1.0000
  O  Te1       1.0  0.42918  0.51453  0.72446  1.0000
  O  Te2       1.0  0.34940  0.56013  0.70499  1.0000
  H   H56       1.0  0.43817  0.64206  0.31577  1.0000
  Mg  Mg1       1.0  0.36406  0.51174  0.83250  1.0000
  C   C77       1.0  0.59470  0.12226  0.27755  1.0000
  C   C78       1.0  0.54813  0.08421  0.19164  1.0000
  C  Sn3       1.0  0.52969  0.10771  0.09099  1.0000
  C  Sn4       1.0  0.55851  0.17049  0.07631  1.0000
  C   C79       1.0  0.60509  0.20819  0.16271  1.0000
  C   C80       1.0  0.62317  0.18419  0.26311  1.0000
  H   H57       1.0  0.60872  0.10370  0.35519  1.0000
  O  Te3       1.0  0.48307  0.06905  0.00605  1.0000
  O  Te4       1.0  0.54622  0.20143  0.97654  1.0000
  H   H58       1.0  0.65926  0.21367  0.32956  1.0000
  Mg  Mg2       1.0  0.48047  0.13035  0.88540  1.0000
  C   C81       1.0  0.87646  0.40131  0.07478  1.0000
  C   C82       1.0  0.91647  0.45561  0.13666  1.0000
  C  Sn5       1.0  0.89556  0.48035  0.22993  1.0000
  C  Sn6       1.0  0.83342  0.45005  0.26166  1.0000
  C   C83       1.0  0.79378  0.39572  0.19927  1.0000
  C   C84       1.0  0.81518  0.37138  0.10606  1.0000
  H   H59       1.0  0.89302  0.38245  0.00271  1.0000
  O  Te5       1.0  0.93613  0.53465  0.29079  1.0000
  O  Te6       1.0  0.81132  0.47375  0.35455  1.0000
  H   H60       1.0  0.78420  0.32931  0.05822  1.0000
  Mg  Mg3       1.0  0.88431  0.54894  0.41081  1.0000
  C   C85       1.0  0.39398  0.84816  0.88874  1.0000
  C   C86       1.0  0.39920  0.80509  0.95917  1.0000
  C  Sn7       1.0  0.42771  0.81453  0.07563  1.0000
  C  Sn8       1.0  0.45670  0.87447  0.12222  1.0000
  C   C87       1.0  0.45117  0.91722  0.05108  1.0000
  C   C88       1.0  0.42254  0.90729  0.93464  1.0000
  H   H61       1.0  0.36775  0.83564  0.79868  1.0000
  O  Te7       1.0  0.43248  0.77094  0.14476  1.0000
  O  Te8       1.0  0.49069  0.89136  0.23835  1.0000
  H   H62       1.0  0.41847  0.94064  0.88017  1.0000
  Mg  Mg4       1.0  0.48382  0.81585  0.29777  1.0000
  C   C89       1.0  0.16877  0.61105  0.12546  1.0000
  C   C90       1.0  0.20187  0.59997  0.03278  1.0000
  C  Sn9       1.0  0.17746  0.56198  0.93639  1.0000
  C  Sn10      1.0  0.11350  0.52828  0.93295  1.0000
  C   C91       1.0  0.07557  0.53349  0.02605  1.0000
  C   C92       1.0  0.10569  0.57785  0.12210  1.0000
  H   H63       1.0  0.19207  0.64540  0.19973  1.0000
  O  Te9       1.0  0.21122  0.55147  0.84457  1.0000
  O  Te10      1.0  0.08273  0.48381  0.83765  1.0000
  H   H64       1.0  0.08005  0.58645  0.19379  1.0000
  Mg  Mg5       1.0  0.14868  0.48611  0.73384  1.0000
  C   C93       1.0  0.40130  0.88135  0.38448  1.0000
  C   C94       1.0  0.43516  0.91592  0.49229  1.0000
  C  Sn11      1.0  0.45039  0.89002  0.59370  1.0000
  C  Sn12      1.0  0.43131  0.82837  0.58675  1.0000
  C   C95       1.0  0.39749  0.79418  0.47843  1.0000
  C   C96       1.0  0.38249  0.82054  0.37753  1.0000
  H   H65       1.0  0.38972  0.90175  0.30637  1.0000
  O  Te11      1.0  0.48423  0.92520  0.70073  1.0000
  O  Te12      1.0  0.44592  0.80135  0.68671  1.0000
  H   H66       1.0  0.35631  0.79378  0.29403  1.0000
  Mg  Mg6       1.0  0.49284  0.86795  0.81243  1.0000
