data_image0
_chemical_formula_structural       H36C48S6N36SnCSn2CSnTe4Mg2SnCSn2CSnTe4Mg2SnCSn2CSnTe4Mg2SnCSn2CSnTe4Mg2SnCSn2CSnTe4Mg2SnCSn2CSnTe4Mg2SnCSn2CSnTe4Mg2SnCSn2CSnTe4Mg2SnCSn2CSnTe4Mg2SnCSn2CSnTe4Mg2SnCSn2CSnTe4Mg2SnCSn2CSnTe4Mg2
_chemical_formula_sum              "H36 C72 S6 N36 Sn48 Te48 Mg24"
_cell_length_a       31.7235
_cell_length_b       32.3911
_cell_length_c       7.89789
_cell_angle_alpha    100.586
_cell_angle_beta     87.8297
_cell_angle_gamma    120.709

_symmetry_space_group_name_H-M    'P1'
_space_group_IT_number       1

loop_
  _space_group_symop_operation_xyz
  'x, y, z'

loop_
  _atom_site_type_symbol
  _atom_site_label
  _atom_site_symmetry_multiplicity
  _atom_site_fract_x
  _atom_site_fract_y
  _atom_site_fract_z
  _atom_site_occupancy
  H   H1        1.0  0.10983  0.22893  0.90367  1.0000
  H   H2        1.0  0.23434  0.20968  0.86601  1.0000
  H   H3        1.0  0.25529  0.35311  0.91180  1.0000
  H   H4        1.0  0.47967  0.40587  0.91920  1.0000
  H   H5        1.0  0.47494  0.25963  0.36425  1.0000
  H   H6        1.0  0.54195  0.23755  0.40138  1.0000
  H   H7        1.0  0.78967  0.58577  0.03380  1.0000
  H   H8        1.0  0.88742  0.53743  0.13781  1.0000
  H   H9        1.0  0.92638  0.68683  0.32618  1.0000
  H   H10       1.0  0.23484  0.62770  0.55673  1.0000
  H   H11       1.0  0.24599  0.56943  0.31651  1.0000
  H   H12       1.0  0.91050  0.01237  0.20504  1.0000
  H   H13       1.0  0.81958  0.93744  0.10151  1.0000
  H   H14       1.0  0.04880  0.98369  0.76876  1.0000
  H   H15       1.0  0.12524  0.69127  0.59354  1.0000
  H   H16       1.0  0.78050  0.79055  0.33067  1.0000
  H   H17       1.0  0.05926  0.40330  0.99422  1.0000
  H   H18       1.0  0.71687  0.34828  0.56264  1.0000
  H   H19       1.0  0.10552  0.22509  0.40934  1.0000
  H   H20       1.0  0.22887  0.20410  0.35212  1.0000
  H   H21       1.0  0.25104  0.34830  0.41098  1.0000
  H   H22       1.0  0.47414  0.40247  0.41084  1.0000
  H   H23       1.0  0.47556  0.25817  0.86246  1.0000
  H   H24       1.0  0.54574  0.24097  0.90311  1.0000
  H   H25       1.0  0.79464  0.59082  0.54416  1.0000
  H   H26       1.0  0.89074  0.54026  0.64448  1.0000
  H   H27       1.0  0.93299  0.69067  0.82886  1.0000
  H   H28       1.0  0.23376  0.61949  0.05056  1.0000
  H   H29       1.0  0.24281  0.56147  0.80052  1.0000
  H   H30       1.0  0.89958  0.01220  0.70962  1.0000
  H   H31       1.0  0.81032  0.93453  0.61990  1.0000
  H   H32       1.0  0.03905  0.97972  0.28997  1.0000
  H   H33       1.0  0.12770  0.68841  0.10275  1.0000
  H   H34       1.0  0.77663  0.78658  0.83031  1.0000
  H   H35       1.0  0.05576  0.39945  0.47253  1.0000
  H   H36       1.0  0.71819  0.35508  0.06360  1.0000
  C   C1        1.0  0.14936  0.24460  0.90296  1.0000
  C   C2        1.0  0.16787  0.21295  0.88487  1.0000
  C   C3        1.0  0.21874  0.23304  0.87391  1.0000
  C   C4        1.0  0.25040  0.28343  0.88148  1.0000
  C   C5        1.0  0.23064  0.31403  0.90395  1.0000
  C   C6        1.0  0.18009  0.29535  0.91582  1.0000
  C   C7        1.0  0.45988  0.36939  0.83789  1.0000
  C   C8        1.0  0.50605  0.30670  0.58736  1.0000
  C   C9        1.0  0.58288  0.30953  0.50603  1.0000
  C   C10       1.0  0.70321  0.37115  0.63266  1.0000
  C   C11       1.0  0.83532  0.55601  0.07152  1.0000
  C   C12       1.0  0.82348  0.59293  0.09511  1.0000
  C   C13       1.0  0.87970  0.56676  0.14826  1.0000
  C   C14       1.0  0.85621  0.63997  0.18712  1.0000
  C   C15       1.0  0.91324  0.61341  0.24203  1.0000
  C   C16       1.0  0.90106  0.64997  0.25729  1.0000
  C   C17       1.0  0.10214  0.65724  0.50155  1.0000
  C   C18       1.0  0.17411  0.60864  0.41499  1.0000
  C   C19       1.0  0.17213  0.53253  0.27982  1.0000
  C   C20       1.0  0.09794  0.42092  0.03838  1.0000
  C   C21       1.0  0.03339  0.00517  0.83598  1.0000
  C   C22       1.0  0.92493  0.96931  0.02614  1.0000
  C   C23       1.0  0.85492  0.90278  0.14345  1.0000
  C   C24       1.0  0.80989  0.79240  0.24899  1.0000
  C   C25       1.0  0.14491  0.24038  0.40542  1.0000
  C   C26       1.0  0.16306  0.20839  0.38343  1.0000
  C   C27       1.0  0.21364  0.22788  0.36612  1.0000
  C   C28       1.0  0.24551  0.27830  0.37467  1.0000
  C   C29       1.0  0.22613  0.30926  0.40268  1.0000
  C   C30       1.0  0.17572  0.29099  0.41816  1.0000
  C   C31       1.0  0.45519  0.36573  0.33124  1.0000
  C   C32       1.0  0.50475  0.30590  0.08578  1.0000
  C   C33       1.0  0.58381  0.31269  0.01178  1.0000
  C   C34       1.0  0.70414  0.37670  0.14049  1.0000
  C   C35       1.0  0.83884  0.55957  0.58164  1.0000
  C   C36       1.0  0.82818  0.59722  0.60479  1.0000
  C   C37       1.0  0.88336  0.56984  0.65547  1.0000
  C   C38       1.0  0.86184  0.64443  0.69297  1.0000
  C   C39       1.0  0.91766  0.61645  0.74718  1.0000
  C   C40       1.0  0.90667  0.65389  0.76176  1.0000
  C   C41       1.0  0.10503  0.65572  0.00483  1.0000
  C   C42       1.0  0.17436  0.60432  0.91000  1.0000
  C   C43       1.0  0.16929  0.52760  0.76408  1.0000
  C   C44       1.0  0.09413  0.41710  0.52032  1.0000
  C   C45       1.0  0.02477  0.00260  0.35366  1.0000
  C   C46       1.0  0.91636  0.96907  0.53940  1.0000
  C   C47       1.0  0.84772  0.90135  0.65480  1.0000
  C   C48       1.0  0.80687  0.79058  0.74939  1.0000
  S   S1        1.0  0.56873  0.35100  0.63415  1.0000
  S   S2        1.0  0.13019  0.55310  0.28508  1.0000
  S   S3        1.0  0.90771  0.90901  0.04063  1.0000
  S   S4        1.0  0.56667  0.35179  0.13999  1.0000
  S   S5        1.0  0.12914  0.55046  0.77608  1.0000
  S   S6        1.0  0.90123  0.90946  0.55376  1.0000
  N   N1        1.0  0.48983  0.35683  0.76180  1.0000
  N   N2        1.0  0.47004  0.31068  0.65651  1.0000
  N   N3        1.0  0.49711  0.26502  0.46747  1.0000
  N   N4        1.0  0.54223  0.26948  0.40916  1.0000
  N   N5        1.0  0.62644  0.31506  0.50486  1.0000
  N   N6        1.0  0.65767  0.35894  0.61408  1.0000
  N   N7        1.0  0.11767  0.62784  0.43951  1.0000
  N   N8        1.0  0.16537  0.64237  0.49101  1.0000
  N   N9        1.0  0.21996  0.61286  0.43244  1.0000
  N   N10       1.0  0.21592  0.56605  0.37882  1.0000
  N   N11       1.0  0.16392  0.49069  0.19254  1.0000
  N   N12       1.0  0.11596  0.46582  0.11718  1.0000
  N   N13       1.0  0.98991  0.97763  0.88721  1.0000
  N   N14       1.0  0.96397  0.99982  0.95857  1.0000
  N   N15       1.0  0.89270  0.98387  0.10276  1.0000
  N   N16       1.0  0.85124  0.94471  0.16188  1.0000
  N   N17       1.0  0.82200  0.86433  0.19997  1.0000
  N   N18       1.0  0.83434  0.82823  0.16732  1.0000
  N   N19       1.0  0.48600  0.35448  0.25514  1.0000
  N   N20       1.0  0.46752  0.30845  0.15027  1.0000
  N   N21       1.0  0.49825  0.26519  0.96650  1.0000
  N   N22       1.0  0.54445  0.27210  0.91043  1.0000
  N   N23       1.0  0.62801  0.31988  0.01272  1.0000
  N   N24       1.0  0.65816  0.36333  0.12626  1.0000
  N   N25       1.0  0.12022  0.62640  0.93755  1.0000
  N   N26       1.0  0.16721  0.63885  0.98971  1.0000
  N   N27       1.0  0.21917  0.60627  0.92571  1.0000
  N   N28       1.0  0.21325  0.55897  0.86450  1.0000
  N   N29       1.0  0.16009  0.48602  0.67239  1.0000
  N   N30       1.0  0.11252  0.46239  0.59515  1.0000
  N   N31       1.0  0.98084  0.97657  0.40368  1.0000
  N   N32       1.0  0.95533  0.99970  0.47111  1.0000
  N   N33       1.0  0.88290  0.98200  0.61288  1.0000
  N   N34       1.0  0.84276  0.94266  0.67695  1.0000
  N   N35       1.0  0.81539  0.86186  0.70745  1.0000
  N   N36       1.0  0.83015  0.82752  0.67233  1.0000
  C  Sn1       1.0  0.33291  0.27396  0.78710  1.0000
  C   C49       1.0  0.30855  0.29494  0.88481  1.0000
  C  Sn2       1.0  0.33350  0.34498  0.95442  1.0000
  C  Sn3       1.0  0.38385  0.37468  0.92569  1.0000
  C   C50       1.0  0.40818  0.35370  0.82801  1.0000
  C  Sn4       1.0  0.38326  0.30366  0.75837  1.0000
  O  Te1       1.0  0.30723  0.22385  0.71874  1.0000
  O  Te2       1.0  0.28953  0.31090  0.05172  1.0000
  O  Te3       1.0  0.40953  0.42483  0.99415  1.0000
  O  Te4       1.0  0.40836  0.28352  0.66110  1.0000
  Mg  Mg1       1.0  0.34043  0.38101  0.11776  1.0000
  Mg  Mg2       1.0  0.35749  0.21343  0.59492  1.0000
  C  Sn5       1.0  0.12619  0.08492  0.80611  1.0000
  C   C51       1.0  0.08111  0.06233  0.88065  1.0000
  C  Sn6       1.0  0.05876  0.08899  0.94666  1.0000
  C  Sn7       1.0  0.08194  0.13926  0.93791  1.0000
  C   C52       1.0  0.12699  0.16182  0.86338  1.0000
  C  Sn8       1.0  0.14937  0.13520  0.79736  1.0000
  O  Te5       1.0  0.14786  0.05757  0.74092  1.0000
  O  Te6       1.0  0.99485  0.01139  0.02063  1.0000
  O  Te7       1.0  0.04138  0.11239  0.00318  1.0000
  O  Te8       1.0  0.19440  0.15855  0.72340  1.0000
  Mg  Mg3       1.0  0.97988  0.06418  0.09154  1.0000
  Mg  Mg4       1.0  0.20939  0.10579  0.65237  1.0000
  C  Sn9       1.0  0.10295  0.34060  0.09019  1.0000
  C   C53       1.0  0.12153  0.38650  0.04669  1.0000
  C  Sn10      1.0  0.17780  0.45729  0.93288  1.0000
  C  Sn11      1.0  0.19704  0.42735  0.86095  1.0000
  C   C54       1.0  0.17845  0.38148  0.90442  1.0000
  C  Sn12      1.0  0.12219  0.31066  0.01825  1.0000
  O  Te9       1.0  0.06553  0.32477  0.20422  1.0000
  O  Te10      1.0  0.19579  0.50332  0.89138  1.0000
  O  Te11      1.0  0.23449  0.44322  0.74683  1.0000
  O  Te12      1.0  0.10419  0.26466  0.05973  1.0000
  Mg  Mg5       1.0  0.24687  0.50868  0.72992  1.0000
  Mg  Mg6       1.0  0.05309  0.25925  0.22110  1.0000
  C  Sn13      1.0  0.79526  0.43611  0.82210  1.0000
  C   C55       1.0  0.74442  0.41364  0.79239  1.0000
  C  Sn14      1.0  0.72097  0.44020  0.84095  1.0000
  C  Sn15      1.0  0.74892  0.49027  0.92078  1.0000
  C   C56       1.0  0.79973  0.51271  0.95041  1.0000
  C  Sn16      1.0  0.82321  0.48618  0.90192  1.0000
  O  Te13      1.0  0.81794  0.40885  0.77248  1.0000
  O  Te14      1.0  0.67010  0.41694  0.80998  1.0000
  O  Te15      1.0  0.72620  0.51751  0.97040  1.0000
  O  Te16      1.0  0.87405  0.50941  0.93283  1.0000
  Mg  Mg7       1.0  0.65603  0.46954  0.90082  1.0000
  Mg  Mg8       1.0  0.88816  0.45686  0.84196  1.0000
  C  Sn17      1.0  0.88470  0.73939  0.19679  1.0000
  C   C57       1.0  0.85707  0.69388  0.24554  1.0000
  C  Sn18      1.0  0.80773  0.67557  0.27931  1.0000
  C  Sn19      1.0  0.78553  0.70332  0.26394  1.0000
  C   C58       1.0  0.81315  0.74879  0.21519  1.0000
  C  Sn20      1.0  0.86250  0.76714  0.18142  1.0000
  O  Te17      1.0  0.93397  0.75698  0.16365  1.0000
  O  Te18      1.0  0.78086  0.62998  0.32791  1.0000
  O  Te19      1.0  0.73622  0.68569  0.29713  1.0000
  O  Te20      1.0  0.88936  0.81269  0.13282  1.0000
  Mg  Mg9       1.0  0.71491  0.62165  0.35926  1.0000
  Mg  Mg10      1.0  0.95530  0.82105  0.10135  1.0000
  C  Sn21      1.0  0.98035  0.58342  0.31002  1.0000
  C   C59       1.0  0.95824  0.61162  0.34745  1.0000
  C  Sn22      1.0  0.98587  0.66074  0.42807  1.0000
  C  Sn23      1.0  0.03668  0.68215  0.47212  1.0000
  C   C60       1.0  0.05876  0.65396  0.43467  1.0000
  C  Sn24      1.0  0.03115  0.60482  0.35407  1.0000
  O  Te21      1.0  0.95202  0.53438  0.22936  1.0000
  O  Te22      1.0  0.96295  0.68819  0.46423  1.0000
  O  Te23      1.0  0.06500  0.73123  0.55285  1.0000
  O  Te24      1.0  0.05406  0.57738  0.31789  1.0000
  Mg  Mg11      1.0  0.01710  0.75354  0.57541  1.0000
  Mg  Mg12      1.0  0.99995  0.51204  0.20664  1.0000
  C  Sn25      1.0  0.32825  0.26880  0.27888  1.0000
  C   C61       1.0  0.30374  0.28948  0.37738  1.0000
  C  Sn26      1.0  0.32862  0.33939  0.44906  1.0000
  C  Sn27      1.0  0.37904  0.36927  0.42164  1.0000
  C   C62       1.0  0.40352  0.34859  0.32317  1.0000
  C  Sn28      1.0  0.37867  0.29868  0.25146  1.0000
  O  Te25      1.0  0.30265  0.21882  0.20844  1.0000
  O  Te26      1.0  0.30334  0.35923  0.54711  1.0000
  O  Te27      1.0  0.40463  0.41928  0.49218  1.0000
  O  Te28      1.0  0.40393  0.27884  0.15344  1.0000
  Mg  Mg13      1.0  0.35418  0.42926  0.61609  1.0000
  Mg  Mg14      1.0  0.35312  0.20882  0.08432  1.0000
  C  Sn29      1.0  0.08231  0.13091  0.51530  1.0000
  C   C63       1.0  0.12676  0.15172  0.43593  1.0000
  C  Sn30      1.0  0.13606  0.12351  0.30101  1.0000
  C  Sn31      1.0  0.10019  0.07347  0.24416  1.0000
  C   C64       1.0  0.05577  0.05269  0.32350  1.0000
  C  Sn32      1.0  0.04643  0.08087  0.45846  1.0000
  O  Te29      1.0  0.07379  0.15980  0.64994  1.0000
  O  Te30      1.0  0.18078  0.14513  0.22370  1.0000
  O  Te31      1.0  0.10874  0.04458  0.10942  1.0000
  O  Te32      1.0  0.00175  0.05928  0.53573  1.0000
  Mg  Mg15      1.0  0.17523  0.09067  0.04507  1.0000
  Mg  Mg16      1.0  0.00724  0.11370  0.71430  1.0000
  C  Sn33      1.0  0.09624  0.30738  0.47754  1.0000
  C   C65       1.0  0.14192  0.31696  0.41891  1.0000
  C  Sn34      1.0  0.17858  0.36465  0.40821  1.0000
  C  Sn35      1.0  0.16941  0.40358  0.45725  1.0000
  C   C66       1.0  0.12376  0.39399  0.51587  1.0000
  C  Sn36      1.0  0.08707  0.34631  0.52658  1.0000
  O  Te33      1.0  0.06013  0.25942  0.48719  1.0000
  O  Te34      1.0  0.22395  0.37332  0.34914  1.0000
  O  Te35      1.0  0.20556  0.45156  0.44755  1.0000
  O  Te36      1.0  0.04173  0.33763  0.58563  1.0000
  Mg  Mg17      1.0  0.26143  0.44490  0.35907  1.0000
  Mg  Mg18      1.0  0.00423  0.26608  0.57585  1.0000
  C  Sn37      1.0  0.81870  0.47984  0.31367  1.0000
  C   C67       1.0  0.80800  0.51122  0.42770  1.0000
  C  Sn38      1.0  0.75979  0.49558  0.47204  1.0000
  C  Sn39      1.0  0.72149  0.44755  0.40102  1.0000
  C   C68       1.0  0.73220  0.41619  0.28709  1.0000
  C  Sn40      1.0  0.78040  0.43181  0.24265  1.0000
  O  Te37      1.0  0.86716  0.49625  0.27116  1.0000
  O  Te38      1.0  0.74999  0.52762  0.58627  1.0000
  O  Te39      1.0  0.67300  0.43116  0.44363  1.0000
  O  Te40      1.0  0.79021  0.39979  0.12852  1.0000
  Mg  Mg19      1.0  0.67811  0.48832  0.60477  1.0000
  Mg  Mg20      1.0  0.86207  0.43904  0.11000  1.0000
  C  Sn41      1.0  0.86659  0.75193  0.61502  1.0000
  C   C69       1.0  0.82383  0.74955  0.67844  1.0000
  C  Sn42      1.0  0.79409  0.71444  0.77620  1.0000
  C  Sn43      1.0  0.80738  0.68103  0.81141  1.0000
  C   C70       1.0  0.85013  0.68343  0.74804  1.0000
  C  Sn44      1.0  0.87989  0.71853  0.65023  1.0000
  O  Te41      1.0  0.89578  0.78734  0.51758  1.0000
  O  Te42      1.0  0.75150  0.71275  0.83816  1.0000
  O  Te43      1.0  0.77815  0.64561  0.90894  1.0000
  O  Te44      1.0  0.92246  0.72022  0.58832  1.0000
  Mg  Mg21      1.0  0.72373  0.65794  0.96494  1.0000
  Mg  Mg22      1.0  0.95027  0.77504  0.46161  1.0000
  C  Sn45      1.0  0.02293  0.66792  0.04412  1.0000
  C   C71       1.0  0.06652  0.69736  0.98593  1.0000
  C  Sn46      1.0  0.05160  0.66443  0.82837  1.0000
  C  Sn47      1.0  0.01111  0.65613  0.72678  1.0000
  C   C72       1.0  0.98639  0.68090  0.78495  1.0000
  C  Sn48      1.0  0.00128  0.71383  0.94253  1.0000
  O  Te45      1.0  0.03848  0.70067  0.20204  1.0000
  O  Te46      1.0  0.07691  0.64008  0.77294  1.0000
  O  Te47      1.0  0.99557  0.62334  0.56875  1.0000
  O  Te48      1.0  0.97600  0.73818  0.99795  1.0000
  Mg  Mg23      1.0  0.04183  0.59901  0.54855  1.0000
  Mg  Mg24      1.0  0.99222  0.72506  0.22226  1.0000
