data_image0
_chemical_formula_structural       H36C48S6N36C2Sn2C2HTe2HMgC2Sn2C2HTe2HMgC2Sn2C2HTe2HMgC2Sn2C2HTe2HMgC2Sn2C2HTe2HMgC2Sn2C2HTe2HMgC2Sn2C2HTe2HMgC2Sn2C2HTe2HMgC2Sn2C2HTe2HMgC2Sn2C2HTe2HMgC2Sn2C2HTe2HMgC2Sn2C2HTe2HMg
_chemical_formula_sum              "H60 C96 S6 N36 Sn24 Te24 Mg12"
_cell_length_a       31.7235
_cell_length_b       32.3911
_cell_length_c       7.89789
_cell_angle_alpha    100.586
_cell_angle_beta     87.8297
_cell_angle_gamma    120.709

_symmetry_space_group_name_H-M    'P1'
_space_group_IT_number       1

loop_
  _space_group_symop_operation_xyz
  'x, y, z'

loop_
  _atom_site_type_symbol
  _atom_site_label
  _atom_site_symmetry_multiplicity
  _atom_site_fract_x
  _atom_site_fract_y
  _atom_site_fract_z
  _atom_site_occupancy
  H   H1        1.0  0.10983  0.22893  0.90367  1.0000
  H   H2        1.0  0.23434  0.20968  0.86601  1.0000
  H   H3        1.0  0.25529  0.35311  0.91180  1.0000
  H   H4        1.0  0.47967  0.40587  0.91920  1.0000
  H   H5        1.0  0.47494  0.25963  0.36425  1.0000
  H   H6        1.0  0.54195  0.23755  0.40138  1.0000
  H   H7        1.0  0.78967  0.58577  0.03380  1.0000
  H   H8        1.0  0.88742  0.53743  0.13781  1.0000
  H   H9        1.0  0.92638  0.68683  0.32618  1.0000
  H   H10       1.0  0.23484  0.62770  0.55673  1.0000
  H   H11       1.0  0.24599  0.56943  0.31651  1.0000
  H   H12       1.0  0.91050  0.01237  0.20504  1.0000
  H   H13       1.0  0.81958  0.93744  0.10151  1.0000
  H   H14       1.0  0.04880  0.98369  0.76876  1.0000
  H   H15       1.0  0.12524  0.69127  0.59354  1.0000
  H   H16       1.0  0.78050  0.79055  0.33067  1.0000
  H   H17       1.0  0.05926  0.40330  0.99422  1.0000
  H   H18       1.0  0.71687  0.34828  0.56264  1.0000
  H   H19       1.0  0.10552  0.22509  0.40934  1.0000
  H   H20       1.0  0.22887  0.20410  0.35212  1.0000
  H   H21       1.0  0.25104  0.34830  0.41098  1.0000
  H   H22       1.0  0.47414  0.40247  0.41084  1.0000
  H   H23       1.0  0.47556  0.25817  0.86246  1.0000
  H   H24       1.0  0.54574  0.24097  0.90311  1.0000
  H   H25       1.0  0.79464  0.59082  0.54416  1.0000
  H   H26       1.0  0.89074  0.54026  0.64448  1.0000
  H   H27       1.0  0.93299  0.69067  0.82886  1.0000
  H   H28       1.0  0.23376  0.61949  0.05056  1.0000
  H   H29       1.0  0.24281  0.56147  0.80052  1.0000
  H   H30       1.0  0.89958  0.01220  0.70962  1.0000
  H   H31       1.0  0.81032  0.93453  0.61990  1.0000
  H   H32       1.0  0.03905  0.97972  0.28997  1.0000
  H   H33       1.0  0.12770  0.68841  0.10275  1.0000
  H   H34       1.0  0.77663  0.78658  0.83031  1.0000
  H   H35       1.0  0.05576  0.39945  0.47253  1.0000
  H   H36       1.0  0.71819  0.35508  0.06360  1.0000
  C   C1        1.0  0.14936  0.24460  0.90296  1.0000
  C   C2        1.0  0.16787  0.21295  0.88487  1.0000
  C   C3        1.0  0.21874  0.23304  0.87391  1.0000
  C   C4        1.0  0.25040  0.28343  0.88148  1.0000
  C   C5        1.0  0.23064  0.31403  0.90395  1.0000
  C   C6        1.0  0.18009  0.29535  0.91582  1.0000
  C   C7        1.0  0.45988  0.36939  0.83789  1.0000
  C   C8        1.0  0.50605  0.30670  0.58736  1.0000
  C   C9        1.0  0.58288  0.30953  0.50603  1.0000
  C   C10       1.0  0.70321  0.37115  0.63266  1.0000
  C   C11       1.0  0.83532  0.55601  0.07152  1.0000
  C   C12       1.0  0.82348  0.59293  0.09511  1.0000
  C   C13       1.0  0.87970  0.56676  0.14826  1.0000
  C   C14       1.0  0.85621  0.63997  0.18712  1.0000
  C   C15       1.0  0.91324  0.61341  0.24203  1.0000
  C   C16       1.0  0.90106  0.64997  0.25729  1.0000
  C   C17       1.0  0.10214  0.65724  0.50155  1.0000
  C   C18       1.0  0.17411  0.60864  0.41499  1.0000
  C   C19       1.0  0.17213  0.53253  0.27982  1.0000
  C   C20       1.0  0.09794  0.42092  0.03838  1.0000
  C   C21       1.0  0.03339  0.00517  0.83598  1.0000
  C   C22       1.0  0.92493  0.96931  0.02614  1.0000
  C   C23       1.0  0.85492  0.90278  0.14345  1.0000
  C   C24       1.0  0.80989  0.79240  0.24899  1.0000
  C   C25       1.0  0.14491  0.24038  0.40542  1.0000
  C   C26       1.0  0.16306  0.20839  0.38343  1.0000
  C   C27       1.0  0.21364  0.22788  0.36612  1.0000
  C   C28       1.0  0.24551  0.27830  0.37467  1.0000
  C   C29       1.0  0.22613  0.30926  0.40268  1.0000
  C   C30       1.0  0.17572  0.29099  0.41816  1.0000
  C   C31       1.0  0.45519  0.36573  0.33124  1.0000
  C   C32       1.0  0.50475  0.30590  0.08578  1.0000
  C   C33       1.0  0.58381  0.31269  0.01178  1.0000
  C   C34       1.0  0.70414  0.37670  0.14049  1.0000
  C   C35       1.0  0.83884  0.55957  0.58164  1.0000
  C   C36       1.0  0.82818  0.59722  0.60479  1.0000
  C   C37       1.0  0.88336  0.56984  0.65547  1.0000
  C   C38       1.0  0.86184  0.64443  0.69297  1.0000
  C   C39       1.0  0.91766  0.61645  0.74718  1.0000
  C   C40       1.0  0.90667  0.65389  0.76176  1.0000
  C   C41       1.0  0.10503  0.65572  0.00483  1.0000
  C   C42       1.0  0.17436  0.60432  0.91000  1.0000
  C   C43       1.0  0.16929  0.52760  0.76408  1.0000
  C   C44       1.0  0.09413  0.41710  0.52032  1.0000
  C   C45       1.0  0.02477  0.00260  0.35366  1.0000
  C   C46       1.0  0.91636  0.96907  0.53940  1.0000
  C   C47       1.0  0.84772  0.90135  0.65480  1.0000
  C   C48       1.0  0.80687  0.79058  0.74939  1.0000
  S   S1        1.0  0.56873  0.35100  0.63415  1.0000
  S   S2        1.0  0.13019  0.55310  0.28508  1.0000
  S   S3        1.0  0.90771  0.90901  0.04063  1.0000
  S   S4        1.0  0.56667  0.35179  0.13999  1.0000
  S   S5        1.0  0.12914  0.55046  0.77608  1.0000
  S   S6        1.0  0.90123  0.90946  0.55376  1.0000
  N   N1        1.0  0.48983  0.35683  0.76180  1.0000
  N   N2        1.0  0.47004  0.31068  0.65651  1.0000
  N   N3        1.0  0.49711  0.26502  0.46747  1.0000
  N   N4        1.0  0.54223  0.26948  0.40916  1.0000
  N   N5        1.0  0.62644  0.31506  0.50486  1.0000
  N   N6        1.0  0.65767  0.35894  0.61408  1.0000
  N   N7        1.0  0.11767  0.62784  0.43951  1.0000
  N   N8        1.0  0.16537  0.64237  0.49101  1.0000
  N   N9        1.0  0.21996  0.61286  0.43244  1.0000
  N   N10       1.0  0.21592  0.56605  0.37882  1.0000
  N   N11       1.0  0.16392  0.49069  0.19254  1.0000
  N   N12       1.0  0.11596  0.46582  0.11718  1.0000
  N   N13       1.0  0.98991  0.97763  0.88721  1.0000
  N   N14       1.0  0.96397  0.99982  0.95857  1.0000
  N   N15       1.0  0.89270  0.98387  0.10276  1.0000
  N   N16       1.0  0.85124  0.94471  0.16188  1.0000
  N   N17       1.0  0.82200  0.86433  0.19997  1.0000
  N   N18       1.0  0.83434  0.82823  0.16732  1.0000
  N   N19       1.0  0.48600  0.35448  0.25514  1.0000
  N   N20       1.0  0.46752  0.30845  0.15027  1.0000
  N   N21       1.0  0.49825  0.26519  0.96650  1.0000
  N   N22       1.0  0.54445  0.27210  0.91043  1.0000
  N   N23       1.0  0.62801  0.31988  0.01272  1.0000
  N   N24       1.0  0.65816  0.36333  0.12626  1.0000
  N   N25       1.0  0.12022  0.62640  0.93755  1.0000
  N   N26       1.0  0.16721  0.63885  0.98971  1.0000
  N   N27       1.0  0.21917  0.60627  0.92571  1.0000
  N   N28       1.0  0.21325  0.55897  0.86450  1.0000
  N   N29       1.0  0.16009  0.48602  0.67239  1.0000
  N   N30       1.0  0.11252  0.46239  0.59515  1.0000
  N   N31       1.0  0.98084  0.97657  0.40368  1.0000
  N   N32       1.0  0.95533  0.99970  0.47111  1.0000
  N   N33       1.0  0.88290  0.98200  0.61288  1.0000
  N   N34       1.0  0.84276  0.94266  0.67695  1.0000
  N   N35       1.0  0.81539  0.86186  0.70745  1.0000
  N   N36       1.0  0.83015  0.82752  0.67233  1.0000
  C   C49       1.0  0.35035  0.36108  0.97858  1.0000
  C   C50       1.0  0.31143  0.31759  0.88653  1.0000
  C  Sn1       1.0  0.32070  0.28580  0.76849  1.0000
  C  Sn2       1.0  0.36990  0.29787  0.74244  1.0000
  C   C51       1.0  0.40859  0.34145  0.83526  1.0000
  C   C52       1.0  0.39889  0.37300  0.95302  1.0000
  H   H37       1.0  0.32401  0.33127  0.06976  1.0000
  O  Te1       1.0  0.28138  0.24251  0.67755  1.0000
  O  Te2       1.0  0.38021  0.26675  0.62531  1.0000
  H   H38       1.0  0.41019  0.35244  0.02435  1.0000
  Mg  Mg1       1.0  0.31416  0.21196  0.53208  1.0000
  C   C53       1.0  0.07736  0.13306  0.96969  1.0000
  C   C54       1.0  0.12428  0.15638  0.90825  1.0000
  C  Sn3       1.0  0.14157  0.12902  0.80469  1.0000
  C  Sn4       1.0  0.11124  0.07735  0.76202  1.0000
  C   C55       1.0  0.06435  0.05436  0.82403  1.0000
  C   C56       1.0  0.04742  0.08209  0.92761  1.0000
  H   H39       1.0  0.04541  0.10030  0.04975  1.0000
  O  Te3       1.0  0.18855  0.15291  0.74445  1.0000
  O  Te4       1.0  0.12760  0.04911  0.65870  1.0000
  H   H40       1.0  0.01108  0.06403  0.97506  1.0000
  Mg  Mg2       1.0  0.19440  0.09851  0.60782  1.0000
  C   C57       1.0  0.10441  0.31539  0.03506  1.0000
  C   C58       1.0  0.16607  0.37687  0.95611  1.0000
  C  Sn5       1.0  0.19757  0.42097  0.90230  1.0000
  C  Sn6       1.0  0.18589  0.45842  0.92823  1.0000
  C   C59       1.0  0.12413  0.39659  0.00744  1.0000
  C   C60       1.0  0.09287  0.35232  0.06074  1.0000
  H   H41       1.0  0.08023  0.28116  0.07638  1.0000
  O  Te5       1.0  0.24020  0.42761  0.82359  1.0000
  O  Te6       1.0  0.21672  0.50285  0.87575  1.0000
  H   H42       1.0  0.05973  0.34672  0.12196  1.0000
  Mg  Mg3       1.0  0.27058  0.49451  0.77440  1.0000
  C   C61       1.0  0.73847  0.48038  0.93251  1.0000
  C   C62       1.0  0.78880  0.50209  0.97225  1.0000
  C  Sn7       1.0  0.81476  0.48092  0.88875  1.0000
  C  Sn8       1.0  0.78976  0.43723  0.76317  1.0000
  C   C63       1.0  0.73940  0.41582  0.72425  1.0000
  C   C64       1.0  0.71379  0.43730  0.80861  1.0000
  H   H43       1.0  0.71865  0.49701  0.99771  1.0000
  O  Te7       1.0  0.86504  0.50307  0.93005  1.0000
  O  Te8       1.0  0.81481  0.41531  0.67772  1.0000
  H   H44       1.0  0.67482  0.42050  0.77774  1.0000
  Mg  Mg4       1.0  0.88311  0.45932  0.77860  1.0000
  C   C65       1.0  0.87959  0.73522  0.14030  1.0000
  C   C66       1.0  0.85523  0.69173  0.20396  1.0000
  C  Sn9       1.0  0.81099  0.67828  0.28240  1.0000
  C  Sn10      1.0  0.79084  0.70899  0.29715  1.0000
  C   C67       1.0  0.81547  0.75240  0.23294  1.0000
  C   C68       1.0  0.85973  0.76553  0.15473  1.0000
  H   H45       1.0  0.91381  0.74536  0.07971  1.0000
  O  Te9       1.0  0.78715  0.63472  0.34537  1.0000
  O  Te10      1.0  0.74667  0.69642  0.37490  1.0000
  H   H46       1.0  0.87856  0.79918  0.10536  1.0000
  Mg  Mg5       1.0  0.72791  0.63338  0.44086  1.0000
  C   C69       1.0  0.02705  0.68130  0.49780  1.0000
  C   C70       1.0  0.04926  0.65310  0.46664  1.0000
  C  Sn11      1.0  0.02666  0.60862  0.34941  1.0000
  C  Sn12      1.0  0.98098  0.59217  0.26191  1.0000
  C   C71       1.0  0.95908  0.62067  0.29390  1.0000
  C   C72       1.0  0.98201  0.66511  0.41151  1.0000
  H   H47       1.0  0.04480  0.71570  0.58872  1.0000
  O  Te11      1.0  0.04934  0.58089  0.31985  1.0000
  O  Te12      1.0  0.95760  0.54787  0.14404  1.0000
  H   H48       1.0  0.96482  0.68695  0.43552  1.0000
  Mg  Mg6       1.0  0.00306  0.52307  0.14744  1.0000
  C   C73       1.0  0.32810  0.27328  0.22803  1.0000
  C   C74       1.0  0.30290  0.29088  0.33831  1.0000
  C  Sn13      1.0  0.32864  0.33643  0.44845  1.0000
  C  Sn14      1.0  0.38057  0.36480  0.44786  1.0000
  C   C75       1.0  0.40543  0.34688  0.33696  1.0000
  C   C76       1.0  0.37931  0.30125  0.22732  1.0000
  H   H49       1.0  0.30789  0.23798  0.14312  1.0000
  O  Te13      1.0  0.30289  0.35346  0.55785  1.0000
  O  Te14      1.0  0.40721  0.41046  0.55657  1.0000
  H   H50       1.0  0.39883  0.28765  0.14187  1.0000
  Mg  Mg7       1.0  0.35556  0.41790  0.68231  1.0000
  C   C77       1.0  0.07240  0.13113  0.47621  1.0000
  C   C78       1.0  0.11919  0.15274  0.41304  1.0000
  C  Sn15      1.0  0.13521  0.12374  0.31273  1.0000
  C  Sn16      1.0  0.10372  0.07216  0.27515  1.0000
  C   C79       1.0  0.05696  0.05089  0.33886  1.0000
  C   C80       1.0  0.04131  0.08026  0.43915  1.0000
  H   H51       1.0  0.06028  0.15385  0.55373  1.0000
  O  Te15      1.0  0.18207  0.14592  0.25069  1.0000
  O  Te16      1.0  0.11879  0.04231  0.17515  1.0000
  H   H52       1.0  0.00507  0.06352  0.48795  1.0000
  Mg  Mg8       1.0  0.18595  0.08972  0.12005  1.0000
  C   C81       1.0  0.09999  0.31199  0.53517  1.0000
  C   C82       1.0  0.14314  0.31858  0.46056  1.0000
  C  Sn17      1.0  0.17527  0.36215  0.40454  1.0000
  C  Sn18      1.0  0.16390  0.39975  0.42381  1.0000
  C   C83       1.0  0.12066  0.39281  0.49873  1.0000
  C   C84       1.0  0.08876  0.34907  0.55428  1.0000
  H   H53       1.0  0.07532  0.27815  0.57824  1.0000
  O  Te17      1.0  0.21821  0.36812  0.33022  1.0000
  O  Te18      1.0  0.19537  0.44366  0.36900  1.0000
  H   H54       1.0  0.05537  0.34398  0.61215  1.0000
  Mg  Mg9       1.0  0.24945  0.43449  0.27552  1.0000
  C   C85       1.0  0.74091  0.48529  0.44686  1.0000
  C   C86       1.0  0.79130  0.50631  0.48344  1.0000
  C  Sn19      1.0  0.81646  0.48475  0.39606  1.0000
  C  Sn20      1.0  0.79061  0.44135  0.26975  1.0000
  C   C87       1.0  0.74021  0.42062  0.23401  1.0000
  C   C88       1.0  0.71539  0.44250  0.32225  1.0000
  H   H55       1.0  0.72171  0.50223  0.51506  1.0000
  O  Te19      1.0  0.86680  0.50622  0.43423  1.0000
  O  Te20      1.0  0.81485  0.41904  0.18045  1.0000
  H   H56       1.0  0.67639  0.42623  0.29383  1.0000
  Mg  Mg10      1.0  0.88359  0.46214  0.27805  1.0000
  C   C89       1.0  0.79508  0.67837  0.78845  1.0000
  C   C90       1.0  0.83567  0.67835  0.71330  1.0000
  C  Sn21      1.0  0.87198  0.71951  0.65323  1.0000
  C  Sn22      1.0  0.86748  0.76142  0.66890  1.0000
  C   C91       1.0  0.82675  0.76109  0.74438  1.0000
  C   C92       1.0  0.79062  0.71970  0.80401  1.0000
  H   H57       1.0  0.76713  0.64636  0.83467  1.0000
  O  Te21      1.0  0.91228  0.71887  0.57844  1.0000
  O  Te22      1.0  0.90324  0.80306  0.61000  1.0000
  H   H58       1.0  0.75922  0.71973  0.86228  1.0000
  Mg  Mg11      1.0  0.95138  0.78447  0.51751  1.0000
  C   C93       1.0  0.02963  0.67986  0.01251  1.0000
  C   C94       1.0  0.07169  0.70708  0.96904  1.0000
  C  Sn23      1.0  0.05053  0.66520  0.83933  1.0000
  C  Sn24      1.0  0.00529  0.65016  0.75170  1.0000
  C   C95       1.0  0.98237  0.67743  0.79606  1.0000
  C   C96       1.0  0.00386  0.71928  0.92610  1.0000
  H   H59       1.0  0.04627  0.71225  0.11305  1.0000
  O  Te23      1.0  0.07421  0.63865  0.79757  1.0000
  O  Te24      1.0  0.98334  0.60845  0.62151  1.0000
  H   H60       1.0  0.98590  0.74019  0.95965  1.0000
  Mg  Mg12      1.0  0.02975  0.58440  0.61096  1.0000
