data_image0
_chemical_formula_structural       H60C84S6N36C2Sn2C2HTe2HMgC2Sn2C2HTe2HMgC2Sn2C2HTe2HMgC2Sn2C2HTe2HMgC2Sn2C2HTe2HMgC2Sn2C2HTe2HMg
_chemical_formula_sum              "H72 C108 S6 N36 Sn12 Te12 Mg6"
_cell_length_a       31.7235
_cell_length_b       32.3911
_cell_length_c       7.89789
_cell_angle_alpha    100.586
_cell_angle_beta     87.8297
_cell_angle_gamma    120.709

_symmetry_space_group_name_H-M    'P1'
_space_group_IT_number       1

loop_
  _space_group_symop_operation_xyz
  'x, y, z'

loop_
  _atom_site_type_symbol
  _atom_site_label
  _atom_site_symmetry_multiplicity
  _atom_site_fract_x
  _atom_site_fract_y
  _atom_site_fract_z
  _atom_site_occupancy
  H   H1        1.0  0.10983  0.22893  0.90367  1.0000
  H   H2        1.0  0.23434  0.20968  0.86601  1.0000
  H   H3        1.0  0.25529  0.35311  0.91180  1.0000
  H   H4        1.0  0.32416  0.37113  0.05102  1.0000
  H   H5        1.0  0.29683  0.24367  0.67978  1.0000
  H   H6        1.0  0.41328  0.40691  0.02318  1.0000
  H   H7        1.0  0.38650  0.27883  0.65701  1.0000
  H   H8        1.0  0.47967  0.40587  0.91920  1.0000
  H   H9        1.0  0.47494  0.25963  0.36425  1.0000
  H   H10       1.0  0.54195  0.23755  0.40138  1.0000
  H   H11       1.0  0.80187  0.41301  0.68734  1.0000
  H   H12       1.0  0.67993  0.43101  0.84132  1.0000
  H   H13       1.0  0.85870  0.49197  0.87653  1.0000
  H   H14       1.0  0.73665  0.50956  0.03285  1.0000
  H   H15       1.0  0.78967  0.58577  0.03380  1.0000
  H   H16       1.0  0.88742  0.53743  0.13781  1.0000
  H   H17       1.0  0.92638  0.68683  0.32618  1.0000
  H   H18       1.0  0.23484  0.62770  0.55673  1.0000
  H   H19       1.0  0.24599  0.56943  0.31651  1.0000
  H   H20       1.0  0.91050  0.01237  0.20504  1.0000
  H   H21       1.0  0.81958  0.93744  0.10151  1.0000
  H   H22       1.0  0.04880  0.98369  0.76876  1.0000
  H   H23       1.0  0.12524  0.69127  0.59354  1.0000
  H   H24       1.0  0.78050  0.79055  0.33067  1.0000
  H   H25       1.0  0.05926  0.40330  0.99422  1.0000
  H   H26       1.0  0.71687  0.34828  0.56264  1.0000
  H   H27       1.0  0.10552  0.22509  0.40934  1.0000
  H   H28       1.0  0.22887  0.20410  0.35212  1.0000
  H   H29       1.0  0.25104  0.34830  0.41098  1.0000
  H   H30       1.0  0.31920  0.36560  0.54549  1.0000
  H   H31       1.0  0.29238  0.23863  0.17147  1.0000
  H   H32       1.0  0.40833  0.40096  0.52112  1.0000
  H   H33       1.0  0.38212  0.27394  0.15010  1.0000
  H   H34       1.0  0.07911  0.16820  0.54676  1.0000
  H   H35       1.0  0.16945  0.12934  0.21592  1.0000
  H   H36       1.0  0.01710  0.08073  0.52929  1.0000
  H   H37       1.0  0.10902  0.04235  0.20802  1.0000
  H   H38       1.0  0.21543  0.38161  0.33918  1.0000
  H   H39       1.0  0.08932  0.27463  0.55987  1.0000
  H   H40       1.0  0.18304  0.43738  0.39246  1.0000
  H   H41       1.0  0.05473  0.32806  0.59279  1.0000
  H   H42       1.0  0.47414  0.40247  0.41084  1.0000
  H   H43       1.0  0.47556  0.25817  0.86246  1.0000
  H   H44       1.0  0.54574  0.24097  0.90311  1.0000
  H   H45       1.0  0.79464  0.59082  0.54416  1.0000
  H   H46       1.0  0.89074  0.54026  0.64448  1.0000
  H   H47       1.0  0.93299  0.69067  0.82886  1.0000
  H   H48       1.0  0.91557  0.73531  0.60941  1.0000
  H   H49       1.0  0.77944  0.63965  0.81260  1.0000
  H   H50       1.0  0.89102  0.79772  0.62990  1.0000
  H   H51       1.0  0.75593  0.70275  0.84061  1.0000
  H   H52       1.0  0.23376  0.61949  0.05056  1.0000
  H   H53       1.0  0.24281  0.56147  0.80052  1.0000
  H   H54       1.0  0.89958  0.01220  0.70962  1.0000
  H   H55       1.0  0.81032  0.93453  0.61990  1.0000
  H   H56       1.0  0.03905  0.97972  0.28997  1.0000
  H   H57       1.0  0.12770  0.68841  0.10275  1.0000
  H   H58       1.0  0.77663  0.78658  0.83031  1.0000
  H   H59       1.0  0.05576  0.39945  0.47253  1.0000
  H   H60       1.0  0.71819  0.35508  0.06360  1.0000
  C   C1        1.0  0.14936  0.24460  0.90296  1.0000
  C   C2        1.0  0.16787  0.21295  0.88487  1.0000
  C   C3        1.0  0.21874  0.23304  0.87391  1.0000
  C   C4        1.0  0.25040  0.28343  0.88148  1.0000
  C   C5        1.0  0.23064  0.31403  0.90395  1.0000
  C   C6        1.0  0.18009  0.29535  0.91582  1.0000
  C   C7        1.0  0.30378  0.30452  0.86782  1.0000
  C   C8        1.0  0.33757  0.35117  0.96205  1.0000
  C   C9        1.0  0.32243  0.27896  0.75879  1.0000
  C   C10       1.0  0.38773  0.37101  0.94749  1.0000
  C   C11       1.0  0.37266  0.29855  0.74413  1.0000
  C   C12       1.0  0.40656  0.34516  0.83981  1.0000
  C   C13       1.0  0.45988  0.36939  0.83789  1.0000
  C   C14       1.0  0.50605  0.30670  0.58736  1.0000
  C   C15       1.0  0.58288  0.30953  0.50603  1.0000
  C   C16       1.0  0.70321  0.37115  0.63266  1.0000
  C   C17       1.0  0.73680  0.41673  0.74846  1.0000
  C   C18       1.0  0.78746  0.43412  0.76356  1.0000
  C   C19       1.0  0.71919  0.44489  0.84816  1.0000
  C   C20       1.0  0.81950  0.47872  0.87002  1.0000
  C   C21       1.0  0.75111  0.48903  0.95359  1.0000
  C   C22       1.0  0.80209  0.50749  0.96551  1.0000
  C   C23       1.0  0.83532  0.55601  0.07152  1.0000
  C   C24       1.0  0.82348  0.59293  0.09511  1.0000
  C   C25       1.0  0.87970  0.56676  0.14826  1.0000
  C   C26       1.0  0.85621  0.63997  0.18712  1.0000
  C   C27       1.0  0.91324  0.61341  0.24203  1.0000
  C   C28       1.0  0.90106  0.64997  0.25729  1.0000
  C   C29       1.0  0.10214  0.65724  0.50155  1.0000
  C   C30       1.0  0.17411  0.60864  0.41499  1.0000
  C   C31       1.0  0.17213  0.53253  0.27982  1.0000
  C   C32       1.0  0.09794  0.42092  0.03838  1.0000
  C   C33       1.0  0.03339  0.00517  0.83598  1.0000
  C   C34       1.0  0.92493  0.96931  0.02614  1.0000
  C   C35       1.0  0.85492  0.90278  0.14345  1.0000
  C   C36       1.0  0.80989  0.79240  0.24899  1.0000
  C   C37       1.0  0.14491  0.24038  0.40542  1.0000
  C   C38       1.0  0.16306  0.20839  0.38343  1.0000
  C   C39       1.0  0.21364  0.22788  0.36612  1.0000
  C   C40       1.0  0.24551  0.27830  0.37467  1.0000
  C   C41       1.0  0.22613  0.30926  0.40268  1.0000
  C   C42       1.0  0.17572  0.29099  0.41816  1.0000
  C   C43       1.0  0.29889  0.29929  0.35976  1.0000
  C   C44       1.0  0.33256  0.34571  0.45596  1.0000
  C   C45       1.0  0.31783  0.27392  0.25090  1.0000
  C   C46       1.0  0.38273  0.36550  0.44292  1.0000
  C   C47       1.0  0.36817  0.29362  0.23712  1.0000
  C   C48       1.0  0.40183  0.34022  0.33367  1.0000
  C   C49       1.0  0.12861  0.15581  0.38030  1.0000
  C   C50       1.0  0.08509  0.14064  0.46776  1.0000
  C   C51       1.0  0.13680  0.11927  0.28833  1.0000
  C   C52       1.0  0.05029  0.09158  0.46050  1.0000
  C   C53       1.0  0.10239  0.07006  0.28248  1.0000
  C   C54       1.0  0.05813  0.05498  0.36579  1.0000
  C   C55       1.0  0.15545  0.32376  0.44623  1.0000
  C   C56       1.0  0.18112  0.37034  0.40180  1.0000
  C   C57       1.0  0.10976  0.30949  0.51752  1.0000
  C   C58       1.0  0.16285  0.40183  0.42995  1.0000
  C   C59       1.0  0.09027  0.33993  0.53847  1.0000
  C   C60       1.0  0.11672  0.38676  0.49751  1.0000
  C   C61       1.0  0.45519  0.36573  0.33124  1.0000
  C   C62       1.0  0.50475  0.30590  0.08578  1.0000
  C   C63       1.0  0.58381  0.31269  0.01178  1.0000
  C   C64       1.0  0.70414  0.37670  0.14049  1.0000
  C   C65       1.0  0.83884  0.55957  0.58164  1.0000
  C   C66       1.0  0.82818  0.59722  0.60479  1.0000
  C   C67       1.0  0.88336  0.56984  0.65547  1.0000
  C   C68       1.0  0.86184  0.64443  0.69297  1.0000
  C   C69       1.0  0.91766  0.61645  0.74718  1.0000
  C   C70       1.0  0.90667  0.65389  0.76176  1.0000
  C   C71       1.0  0.84896  0.68284  0.70849  1.0000
  C   C72       1.0  0.88054  0.72812  0.65989  1.0000
  C   C73       1.0  0.80364  0.67411  0.77105  1.0000
  C   C74       1.0  0.86701  0.76308  0.67061  1.0000
  C   C75       1.0  0.79048  0.70952  0.78652  1.0000
  C   C76       1.0  0.82164  0.75433  0.73456  1.0000
  C   C77       1.0  0.10503  0.65572  0.00483  1.0000
  C   C78       1.0  0.17436  0.60432  0.91000  1.0000
  C   C79       1.0  0.16929  0.52760  0.76408  1.0000
  C   C80       1.0  0.09413  0.41710  0.52032  1.0000
  C   C81       1.0  0.02477  0.00260  0.35366  1.0000
  C   C82       1.0  0.91636  0.96907  0.53940  1.0000
  C   C83       1.0  0.84772  0.90135  0.65480  1.0000
  C   C84       1.0  0.80687  0.79058  0.74939  1.0000
  S   S1        1.0  0.56873  0.35100  0.63415  1.0000
  S   S2        1.0  0.13019  0.55310  0.28508  1.0000
  S   S3        1.0  0.90771  0.90901  0.04063  1.0000
  S   S4        1.0  0.56667  0.35179  0.13999  1.0000
  S   S5        1.0  0.12914  0.55046  0.77608  1.0000
  S   S6        1.0  0.90123  0.90946  0.55376  1.0000
  N   N1        1.0  0.48983  0.35683  0.76180  1.0000
  N   N2        1.0  0.47004  0.31068  0.65651  1.0000
  N   N3        1.0  0.49711  0.26502  0.46747  1.0000
  N   N4        1.0  0.54223  0.26948  0.40916  1.0000
  N   N5        1.0  0.62644  0.31506  0.50486  1.0000
  N   N6        1.0  0.65767  0.35894  0.61408  1.0000
  N   N7        1.0  0.11767  0.62784  0.43951  1.0000
  N   N8        1.0  0.16537  0.64237  0.49101  1.0000
  N   N9        1.0  0.21996  0.61286  0.43244  1.0000
  N   N10       1.0  0.21592  0.56605  0.37882  1.0000
  N   N11       1.0  0.16392  0.49069  0.19254  1.0000
  N   N12       1.0  0.11596  0.46582  0.11718  1.0000
  N   N13       1.0  0.98991  0.97763  0.88721  1.0000
  N   N14       1.0  0.96397  0.99982  0.95857  1.0000
  N   N15       1.0  0.89270  0.98387  0.10276  1.0000
  N   N16       1.0  0.85124  0.94471  0.16188  1.0000
  N   N17       1.0  0.82200  0.86433  0.19997  1.0000
  N   N18       1.0  0.83434  0.82823  0.16732  1.0000
  N   N19       1.0  0.48600  0.35448  0.25514  1.0000
  N   N20       1.0  0.46752  0.30845  0.15027  1.0000
  N   N21       1.0  0.49825  0.26519  0.96650  1.0000
  N   N22       1.0  0.54445  0.27210  0.91043  1.0000
  N   N23       1.0  0.62801  0.31988  0.01272  1.0000
  N   N24       1.0  0.65816  0.36333  0.12626  1.0000
  N   N25       1.0  0.12022  0.62640  0.93755  1.0000
  N   N26       1.0  0.16721  0.63885  0.98971  1.0000
  N   N27       1.0  0.21917  0.60627  0.92571  1.0000
  N   N28       1.0  0.21325  0.55897  0.86450  1.0000
  N   N29       1.0  0.16009  0.48602  0.67239  1.0000
  N   N30       1.0  0.11252  0.46239  0.59515  1.0000
  N   N31       1.0  0.98084  0.97657  0.40368  1.0000
  N   N32       1.0  0.95533  0.99970  0.47111  1.0000
  N   N33       1.0  0.88290  0.98200  0.61288  1.0000
  N   N34       1.0  0.84276  0.94266  0.67695  1.0000
  N   N35       1.0  0.81539  0.86186  0.70745  1.0000
  N   N36       1.0  0.83015  0.82752  0.67233  1.0000
  C   C85       1.0  0.00114  0.67431  0.47100  1.0000
  C   C86       1.0  0.96803  0.63583  0.34349  1.0000
  C  Sn1       1.0  0.97735  0.59904  0.26733  1.0000
  C  Sn2       1.0  0.02064  0.60090  0.32011  1.0000
  C   C87       1.0  0.05352  0.63953  0.44788  1.0000
  C   C88       1.0  0.04384  0.67616  0.52319  1.0000
  H   H61       1.0  0.99365  0.70264  0.52935  1.0000
  O  Te1       1.0  0.94388  0.56086  0.14007  1.0000
  O  Te2       1.0  0.03084  0.56460  0.24619  1.0000
  H   H62       1.0  0.06947  0.70593  0.62199  1.0000
  Mg  Mg1       1.0  0.97404  0.52003  0.07774  1.0000
  C   C89       1.0  0.07736  0.13306  0.96969  1.0000
  C   C90       1.0  0.12428  0.15638  0.90825  1.0000
  C  Sn3       1.0  0.14157  0.12902  0.80469  1.0000
  C  Sn4       1.0  0.11124  0.07735  0.76202  1.0000
  C   C91       1.0  0.06435  0.05436  0.82403  1.0000
  C   C92       1.0  0.04742  0.08209  0.92761  1.0000
  H   H63       1.0  0.04541  0.10030  0.04975  1.0000
  O  Te3       1.0  0.18855  0.15291  0.74445  1.0000
  O  Te4       1.0  0.12760  0.04911  0.65870  1.0000
  H   H64       1.0  0.01108  0.06403  0.97506  1.0000
  Mg  Mg2       1.0  0.19440  0.09851  0.60782  1.0000
  C   C93       1.0  0.18570  0.38658  0.89603  1.0000
  C   C94       1.0  0.16768  0.34042  0.93644  1.0000
  C  Sn5       1.0  0.10386  0.26327  0.01124  1.0000
  C  Sn6       1.0  0.07647  0.28708  0.04603  1.0000
  C   C95       1.0  0.09480  0.33325  0.00501  1.0000
  C   C96       1.0  0.15870  0.41008  0.93025  1.0000
  H   H65       1.0  0.22055  0.40408  0.83810  1.0000
  O  Te5       1.0  0.08641  0.21716  0.05085  1.0000
  O  Te6       1.0  0.03140  0.26499  0.12066  1.0000
  H   H66       1.0  0.17263  0.44581  0.89887  1.0000
  Mg  Mg3       1.0  0.02305  0.20197  0.15130  1.0000
  C   C97       1.0  0.87959  0.73522  0.14030  1.0000
  C   C98       1.0  0.85523  0.69173  0.20396  1.0000
  C  Sn7       1.0  0.81099  0.67828  0.28240  1.0000
  C  Sn8       1.0  0.79084  0.70899  0.29715  1.0000
  C   C99       1.0  0.81547  0.75240  0.23294  1.0000
  C   C100      1.0  0.85973  0.76553  0.15473  1.0000
  H   H67       1.0  0.91381  0.74536  0.07971  1.0000
  O  Te7       1.0  0.78715  0.63472  0.34537  1.0000
  O  Te8       1.0  0.74667  0.69642  0.37490  1.0000
  H   H68       1.0  0.87856  0.79918  0.10536  1.0000
  Mg  Mg4       1.0  0.72791  0.63338  0.44086  1.0000
  C   C101      1.0  0.72287  0.46029  0.39668  1.0000
  C   C102      1.0  0.73280  0.42924  0.27726  1.0000
  C  Sn9       1.0  0.78084  0.43863  0.26412  1.0000
  C  Sn10      1.0  0.81958  0.47989  0.37274  1.0000
  C   C103      1.0  0.80925  0.51071  0.49187  1.0000
  C   C104      1.0  0.76105  0.50098  0.50391  1.0000
  H   H69       1.0  0.68557  0.45275  0.40607  1.0000
  O  Te9       1.0  0.79013  0.40725  0.14407  1.0000
  O  Te10      1.0  0.86792  0.49012  0.36234  1.0000
  H   H70       1.0  0.75336  0.52501  0.59645  1.0000
  Mg  Mg5       1.0  0.86208  0.43657  0.17838  1.0000
  C   C105      1.0  0.02963  0.67986  0.01251  1.0000
  C   C106      1.0  0.07169  0.70708  0.96904  1.0000
  C  Sn11      1.0  0.05053  0.66520  0.83933  1.0000
  C  Sn12      1.0  0.00529  0.65016  0.75170  1.0000
  C   C107      1.0  0.98237  0.67743  0.79606  1.0000
  C   C108      1.0  0.00386  0.71928  0.92610  1.0000
  H   H71       1.0  0.04627  0.71225  0.11305  1.0000
  O  Te11      1.0  0.07421  0.63865  0.79757  1.0000
  O  Te12      1.0  0.98334  0.60845  0.62151  1.0000
  H   H72       1.0  0.98590  0.74019  0.95965  1.0000
  Mg  Mg6       1.0  0.02975  0.58440  0.61096  1.0000
