data_image0
_chemical_formula_structural       H60C84S6N36SnCSn2CSnTe4Mg2SnCSn2CSnTe4Mg2SnCSn2CSnTe4Mg2SnCSn2CSnTe4Mg2SnCSn2CSnTe4Mg2SnCSn2CSnTe4Mg2
_chemical_formula_sum              "H60 C96 S6 N36 Sn24 Te24 Mg12"
_cell_length_a       31.7235
_cell_length_b       32.3911
_cell_length_c       7.89789
_cell_angle_alpha    100.586
_cell_angle_beta     87.8297
_cell_angle_gamma    120.709

_symmetry_space_group_name_H-M    'P1'
_space_group_IT_number       1

loop_
  _space_group_symop_operation_xyz
  'x, y, z'

loop_
  _atom_site_type_symbol
  _atom_site_label
  _atom_site_symmetry_multiplicity
  _atom_site_fract_x
  _atom_site_fract_y
  _atom_site_fract_z
  _atom_site_occupancy
  H   H1        1.0  0.10983  0.22893  0.90367  1.0000
  H   H2        1.0  0.23434  0.20968  0.86601  1.0000
  H   H3        1.0  0.25529  0.35311  0.91180  1.0000
  H   H4        1.0  0.08286  0.16925  0.04449  1.0000
  H   H5        1.0  0.17648  0.13633  0.71028  1.0000
  H   H6        1.0  0.02277  0.08099  0.01798  1.0000
  H   H7        1.0  0.11759  0.04842  0.69186  1.0000
  H   H8        1.0  0.21922  0.38698  0.83837  1.0000
  H   H9        1.0  0.09444  0.27784  0.05584  1.0000
  H   H10       1.0  0.18583  0.44199  0.90005  1.0000
  H   H11       1.0  0.05923  0.33077  0.10084  1.0000
  H   H12       1.0  0.47967  0.40587  0.91920  1.0000
  H   H13       1.0  0.47494  0.25963  0.36425  1.0000
  H   H14       1.0  0.54195  0.23755  0.40138  1.0000
  H   H15       1.0  0.78967  0.58577  0.03380  1.0000
  H   H16       1.0  0.88742  0.53743  0.13781  1.0000
  H   H17       1.0  0.92638  0.68683  0.32618  1.0000
  H   H18       1.0  0.91047  0.72823  0.09636  1.0000
  H   H19       1.0  0.77636  0.64010  0.32594  1.0000
  H   H20       1.0  0.89027  0.79385  0.11927  1.0000
  H   H21       1.0  0.75747  0.70659  0.35727  1.0000
  H   H22       1.0  0.23484  0.62770  0.55673  1.0000
  H   H23       1.0  0.24599  0.56943  0.31651  1.0000
  H   H24       1.0  0.91050  0.01237  0.20504  1.0000
  H   H25       1.0  0.81958  0.93744  0.10151  1.0000
  H   H26       1.0  0.04880  0.98369  0.76876  1.0000
  H   H27       1.0  0.12524  0.69127  0.59354  1.0000
  H   H28       1.0  0.78050  0.79055  0.33067  1.0000
  H   H29       1.0  0.05926  0.40330  0.99422  1.0000
  H   H30       1.0  0.71687  0.34828  0.56264  1.0000
  H   H31       1.0  0.10552  0.22509  0.40934  1.0000
  H   H32       1.0  0.22887  0.20410  0.35212  1.0000
  H   H33       1.0  0.25104  0.34830  0.41098  1.0000
  H   H34       1.0  0.21543  0.38161  0.33918  1.0000
  H   H35       1.0  0.08932  0.27463  0.55987  1.0000
  H   H36       1.0  0.18304  0.43738  0.39246  1.0000
  H   H37       1.0  0.05473  0.32806  0.59279  1.0000
  H   H38       1.0  0.47414  0.40247  0.41084  1.0000
  H   H39       1.0  0.47556  0.25817  0.86246  1.0000
  H   H40       1.0  0.54574  0.24097  0.90311  1.0000
  H   H41       1.0  0.79464  0.59082  0.54416  1.0000
  H   H42       1.0  0.89074  0.54026  0.64448  1.0000
  H   H43       1.0  0.93299  0.69067  0.82886  1.0000
  H   H44       1.0  0.91557  0.73531  0.60941  1.0000
  H   H45       1.0  0.77944  0.63965  0.81260  1.0000
  H   H46       1.0  0.96246  0.56406  0.64992  1.0000
  H   H47       1.0  0.97918  0.68918  0.01140  1.0000
  H   H48       1.0  0.89102  0.79772  0.62990  1.0000
  H   H49       1.0  0.75593  0.70275  0.84061  1.0000
  H   H50       1.0  0.04180  0.58033  0.76164  1.0000
  H   H51       1.0  0.05999  0.70702  0.11630  1.0000
  H   H52       1.0  0.23376  0.61949  0.05056  1.0000
  H   H53       1.0  0.24281  0.56147  0.80052  1.0000
  H   H54       1.0  0.89958  0.01220  0.70962  1.0000
  H   H55       1.0  0.81032  0.93453  0.61990  1.0000
  H   H56       1.0  0.03905  0.97972  0.28997  1.0000
  H   H57       1.0  0.12770  0.68841  0.10275  1.0000
  H   H58       1.0  0.77663  0.78658  0.83031  1.0000
  H   H59       1.0  0.05576  0.39945  0.47253  1.0000
  H   H60       1.0  0.71819  0.35508  0.06360  1.0000
  C   C1        1.0  0.14936  0.24460  0.90296  1.0000
  C   C2        1.0  0.16787  0.21295  0.88487  1.0000
  C   C3        1.0  0.21874  0.23304  0.87391  1.0000
  C   C4        1.0  0.25040  0.28343  0.88148  1.0000
  C   C5        1.0  0.23064  0.31403  0.90395  1.0000
  C   C6        1.0  0.18009  0.29535  0.91582  1.0000
  C   C7        1.0  0.13390  0.15995  0.87669  1.0000
  C   C8        1.0  0.08996  0.14292  0.96209  1.0000
  C   C9        1.0  0.14339  0.12470  0.78094  1.0000
  C   C10       1.0  0.05624  0.09331  0.95020  1.0000
  C   C11       1.0  0.10993  0.07500  0.76954  1.0000
  C   C12       1.0  0.06537  0.05800  0.85205  1.0000
  C   C13       1.0  0.15967  0.32799  0.94303  1.0000
  C   C14       1.0  0.18488  0.37495  0.90137  1.0000
  C   C15       1.0  0.11414  0.31305  0.01587  1.0000
  C   C16       1.0  0.16622  0.40612  0.93514  1.0000
  C   C17       1.0  0.09440  0.34321  0.04325  1.0000
  C   C18       1.0  0.12050  0.39057  0.00648  1.0000
  C   C19       1.0  0.45988  0.36939  0.83789  1.0000
  C   C20       1.0  0.50605  0.30670  0.58736  1.0000
  C   C21       1.0  0.58288  0.30953  0.50603  1.0000
  C   C22       1.0  0.70321  0.37115  0.63266  1.0000
  C   C23       1.0  0.83532  0.55601  0.07152  1.0000
  C   C24       1.0  0.82348  0.59293  0.09511  1.0000
  C   C25       1.0  0.87970  0.56676  0.14826  1.0000
  C   C26       1.0  0.85621  0.63997  0.18712  1.0000
  C   C27       1.0  0.91324  0.61341  0.24203  1.0000
  C   C28       1.0  0.90106  0.64997  0.25729  1.0000
  C   C29       1.0  0.84432  0.67917  0.20598  1.0000
  C   C30       1.0  0.87677  0.72345  0.15233  1.0000
  C   C31       1.0  0.80096  0.67344  0.27822  1.0000
  C   C32       1.0  0.86567  0.76010  0.16446  1.0000
  C   C33       1.0  0.79039  0.71081  0.29581  1.0000
  C   C34       1.0  0.82201  0.75425  0.23596  1.0000
  C   C35       1.0  0.10214  0.65724  0.50155  1.0000
  C   C36       1.0  0.17411  0.60864  0.41499  1.0000
  C   C37       1.0  0.17213  0.53253  0.27982  1.0000
  C   C38       1.0  0.09794  0.42092  0.03838  1.0000
  C   C39       1.0  0.03339  0.00517  0.83598  1.0000
  C   C40       1.0  0.92493  0.96931  0.02614  1.0000
  C   C41       1.0  0.85492  0.90278  0.14345  1.0000
  C   C42       1.0  0.80989  0.79240  0.24899  1.0000
  C   C43       1.0  0.14491  0.24038  0.40542  1.0000
  C   C44       1.0  0.16306  0.20839  0.38343  1.0000
  C   C45       1.0  0.21364  0.22788  0.36612  1.0000
  C   C46       1.0  0.24551  0.27830  0.37467  1.0000
  C   C47       1.0  0.22613  0.30926  0.40268  1.0000
  C   C48       1.0  0.17572  0.29099  0.41816  1.0000
  C   C49       1.0  0.15545  0.32376  0.44623  1.0000
  C   C50       1.0  0.18112  0.37034  0.40180  1.0000
  C   C51       1.0  0.10976  0.30949  0.51752  1.0000
  C   C52       1.0  0.16285  0.40183  0.42995  1.0000
  C   C53       1.0  0.09027  0.33993  0.53847  1.0000
  C   C54       1.0  0.11672  0.38676  0.49751  1.0000
  C   C55       1.0  0.45519  0.36573  0.33124  1.0000
  C   C56       1.0  0.50475  0.30590  0.08578  1.0000
  C   C57       1.0  0.58381  0.31269  0.01178  1.0000
  C   C58       1.0  0.70414  0.37670  0.14049  1.0000
  C   C59       1.0  0.83884  0.55957  0.58164  1.0000
  C   C60       1.0  0.82818  0.59722  0.60479  1.0000
  C   C61       1.0  0.88336  0.56984  0.65547  1.0000
  C   C62       1.0  0.86184  0.64443  0.69297  1.0000
  C   C63       1.0  0.91766  0.61645  0.74718  1.0000
  C   C64       1.0  0.90667  0.65389  0.76176  1.0000
  C   C65       1.0  0.84896  0.68284  0.70849  1.0000
  C   C66       1.0  0.96448  0.62570  0.82054  1.0000
  C   C67       1.0  0.88054  0.72812  0.65989  1.0000
  C   C68       1.0  0.80364  0.67411  0.77105  1.0000
  C   C69       1.0  0.98287  0.59477  0.75529  1.0000
  C   C70       1.0  0.99325  0.66597  0.95221  1.0000
  C   C71       1.0  0.86701  0.76308  0.67061  1.0000
  C   C72       1.0  0.79048  0.70952  0.78652  1.0000
  C   C73       1.0  0.02778  0.60399  0.81610  1.0000
  C   C74       1.0  0.03875  0.67579  0.01294  1.0000
  C   C75       1.0  0.82164  0.75433  0.73456  1.0000
  C   C76       1.0  0.05703  0.64514  0.94499  1.0000
  C   C77       1.0  0.10503  0.65572  0.00483  1.0000
  C   C78       1.0  0.17436  0.60432  0.91000  1.0000
  C   C79       1.0  0.16929  0.52760  0.76408  1.0000
  C   C80       1.0  0.09413  0.41710  0.52032  1.0000
  C   C81       1.0  0.02477  0.00260  0.35366  1.0000
  C   C82       1.0  0.91636  0.96907  0.53940  1.0000
  C   C83       1.0  0.84772  0.90135  0.65480  1.0000
  C   C84       1.0  0.80687  0.79058  0.74939  1.0000
  S   S1        1.0  0.56873  0.35100  0.63415  1.0000
  S   S2        1.0  0.13019  0.55310  0.28508  1.0000
  S   S3        1.0  0.90771  0.90901  0.04063  1.0000
  S   S4        1.0  0.56667  0.35179  0.13999  1.0000
  S   S5        1.0  0.12914  0.55046  0.77608  1.0000
  S   S6        1.0  0.90123  0.90946  0.55376  1.0000
  N   N1        1.0  0.48983  0.35683  0.76180  1.0000
  N   N2        1.0  0.47004  0.31068  0.65651  1.0000
  N   N3        1.0  0.49711  0.26502  0.46747  1.0000
  N   N4        1.0  0.54223  0.26948  0.40916  1.0000
  N   N5        1.0  0.62644  0.31506  0.50486  1.0000
  N   N6        1.0  0.65767  0.35894  0.61408  1.0000
  N   N7        1.0  0.11767  0.62784  0.43951  1.0000
  N   N8        1.0  0.16537  0.64237  0.49101  1.0000
  N   N9        1.0  0.21996  0.61286  0.43244  1.0000
  N   N10       1.0  0.21592  0.56605  0.37882  1.0000
  N   N11       1.0  0.16392  0.49069  0.19254  1.0000
  N   N12       1.0  0.11596  0.46582  0.11718  1.0000
  N   N13       1.0  0.98991  0.97763  0.88721  1.0000
  N   N14       1.0  0.96397  0.99982  0.95857  1.0000
  N   N15       1.0  0.89270  0.98387  0.10276  1.0000
  N   N16       1.0  0.85124  0.94471  0.16188  1.0000
  N   N17       1.0  0.82200  0.86433  0.19997  1.0000
  N   N18       1.0  0.83434  0.82823  0.16732  1.0000
  N   N19       1.0  0.48600  0.35448  0.25514  1.0000
  N   N20       1.0  0.46752  0.30845  0.15027  1.0000
  N   N21       1.0  0.49825  0.26519  0.96650  1.0000
  N   N22       1.0  0.54445  0.27210  0.91043  1.0000
  N   N23       1.0  0.62801  0.31988  0.01272  1.0000
  N   N24       1.0  0.65816  0.36333  0.12626  1.0000
  N   N25       1.0  0.12022  0.62640  0.93755  1.0000
  N   N26       1.0  0.16721  0.63885  0.98971  1.0000
  N   N27       1.0  0.21917  0.60627  0.92571  1.0000
  N   N28       1.0  0.21325  0.55897  0.86450  1.0000
  N   N29       1.0  0.16009  0.48602  0.67239  1.0000
  N   N30       1.0  0.11252  0.46239  0.59515  1.0000
  N   N31       1.0  0.98084  0.97657  0.40368  1.0000
  N   N32       1.0  0.95533  0.99970  0.47111  1.0000
  N   N33       1.0  0.88290  0.98200  0.61288  1.0000
  N   N34       1.0  0.84276  0.94266  0.67695  1.0000
  N   N35       1.0  0.81539  0.86186  0.70745  1.0000
  N   N36       1.0  0.83015  0.82752  0.67233  1.0000
  C  Sn1       1.0  0.04884  0.10311  0.42810  1.0000
  C   C85       1.0  0.05076  0.06249  0.34123  1.0000
  C  Sn2       1.0  0.09513  0.06775  0.28371  1.0000
  C  Sn3       1.0  0.13849  0.11459  0.31373  1.0000
  C   C86       1.0  0.13657  0.15519  0.40057  1.0000
  C  Sn4       1.0  0.09221  0.14996  0.45812  1.0000
  O  Te1       1.0  0.00409  0.09700  0.48447  1.0000
  O  Te2       1.0  0.09612  0.02660  0.19710  1.0000
  O  Te3       1.0  0.18326  0.12068  0.25727  1.0000
  O  Te4       1.0  0.09120  0.19108  0.54470  1.0000
  Mg  Mg1       1.0  0.16592  0.05358  0.14536  1.0000
  Mg  Mg2       1.0  0.02143  0.16413  0.59658  1.0000
  C  Sn5       1.0  0.81723  0.47592  0.80443  1.0000
  C   C87       1.0  0.80577  0.50751  0.91346  1.0000
  C  Sn6       1.0  0.75739  0.49146  0.95636  1.0000
  C  Sn7       1.0  0.71967  0.44282  0.88897  1.0000
  C   C88       1.0  0.73115  0.41127  0.78004  1.0000
  C  Sn8       1.0  0.77952  0.42728  0.73704  1.0000
  O  Te5       1.0  0.86585  0.49274  0.76328  1.0000
  O  Te6       1.0  0.72798  0.46950  0.06556  1.0000
  O  Te7       1.0  0.67103  0.42602  0.93022  1.0000
  O  Te8       1.0  0.79009  0.39506  0.62794  1.0000
  Mg  Mg3       1.0  0.65617  0.42947  0.08406  1.0000
  Mg  Mg4       1.0  0.86189  0.43504  0.60943  1.0000
  C  Sn9       1.0  0.79600  0.43955  0.32846  1.0000
  C   C89       1.0  0.74533  0.41837  0.29872  1.0000
  C  Sn10      1.0  0.72292  0.44576  0.35136  1.0000
  C  Sn11      1.0  0.75176  0.49536  0.43537  1.0000
  C   C90       1.0  0.80240  0.51652  0.46504  1.0000
  C  Sn12      1.0  0.82485  0.48915  0.41248  1.0000
  O  Te9       1.0  0.81763  0.41148  0.27472  1.0000
  O  Te10      1.0  0.67219  0.42378  0.32026  1.0000
  O  Te11      1.0  0.73009  0.52342  0.48911  1.0000
  O  Te12      1.0  0.87554  0.51111  0.44351  1.0000
  Mg  Mg5       1.0  0.65971  0.47711  0.41761  1.0000
  Mg  Mg6       1.0  0.88806  0.45782  0.34613  1.0000
  C  Sn13      1.0  0.37314  0.35756  0.49257  1.0000
  C   C91       1.0  0.39755  0.33830  0.38562  1.0000
  C  Sn14      1.0  0.37196  0.29967  0.24690  1.0000
  C  Sn15      1.0  0.32090  0.27989  0.21431  1.0000
  C   C92       1.0  0.29651  0.29915  0.32120  1.0000
  C  Sn16      1.0  0.32207  0.33778  0.45998  1.0000
  O  Te13      1.0  0.39946  0.39618  0.63050  1.0000
  O  Te14      1.0  0.39717  0.28102  0.14181  1.0000
  O  Te15      1.0  0.29459  0.24124  0.07625  1.0000
  O  Te16      1.0  0.29690  0.35643  0.56501  1.0000
  Mg  Mg7       1.0  0.36407  0.28254  0.96975  1.0000
  Mg  Mg8       1.0  0.34880  0.40914  0.73704  1.0000
  C  Sn17      1.0  0.00671  0.67887  0.42008  1.0000
  C   C93       1.0  0.97196  0.63746  0.30543  1.0000
  C  Sn18      1.0  0.97564  0.59561  0.26733  1.0000
  C  Sn19      1.0  0.01486  0.59511  0.34553  1.0000
  C   C94       1.0  0.04957  0.63649  0.46012  1.0000
  C  Sn20      1.0  0.04593  0.67837  0.49828  1.0000
  O  Te17      1.0  0.00231  0.72030  0.45628  1.0000
  O  Te18      1.0  0.94047  0.55467  0.15226  1.0000
  O  Te19      1.0  0.01924  0.55362  0.30922  1.0000
  O  Te20      1.0  0.08107  0.71928  0.61329  1.0000
  Mg  Mg9       1.0  0.96223  0.50695  0.14417  1.0000
  Mg  Mg10      1.0  0.05933  0.76701  0.62155  1.0000
  C  Sn21      1.0  0.33291  0.27396  0.78710  1.0000
  C   C95       1.0  0.30855  0.29494  0.88481  1.0000
  C  Sn22      1.0  0.33350  0.34498  0.95442  1.0000
  C  Sn23      1.0  0.38385  0.37468  0.92569  1.0000
  C   C96       1.0  0.40818  0.35370  0.82801  1.0000
  C  Sn24      1.0  0.38326  0.30366  0.75837  1.0000
  O  Te21      1.0  0.30723  0.22385  0.71874  1.0000
  O  Te22      1.0  0.28953  0.31090  0.05172  1.0000
  O  Te23      1.0  0.40953  0.42483  0.99415  1.0000
  O  Te24      1.0  0.40836  0.28352  0.66110  1.0000
  Mg  Mg11      1.0  0.34043  0.38101  0.11776  1.0000
  Mg  Mg12      1.0  0.35749  0.21343  0.59492  1.0000
