data_image0
_chemical_formula_structural       H36C48N24C2Sn2C2HTe2HMgC2Sn2C2HTe2HMgC2Sn2C2HTe2HMgC2Sn2C2HTe2HMgC2Sn2C2HTe2HMgC2Sn2C2HTe2HMgC2Sn2C2HTe2HMgC2Sn2C2HTe2HMgC2Sn2C2HTe2HMgC2Sn2C2HTe2HMgC2Sn2C2HTe2HMgC2Sn2C2HTe2HMgC2Sn2C2HTe2HMgC2Sn2C2HTe2HMgC2Sn2C2HTe2HMgC2Sn2C2HTe2HMgC2Sn2C2HTe2HMgC2Sn2C2HTe2HMg
_chemical_formula_sum              "H72 C120 N24 Sn36 Te36 Mg18"
_cell_length_a       45.124
_cell_length_b       45.1101
_cell_length_c       8.19067
_cell_angle_alpha    83.3023
_cell_angle_beta     121.413
_cell_angle_gamma    120.453

_symmetry_space_group_name_H-M    'P1'
_space_group_IT_number       1

loop_
  _space_group_symop_operation_xyz
  'x, y, z'

loop_
  _atom_site_type_symbol
  _atom_site_label
  _atom_site_symmetry_multiplicity
  _atom_site_fract_x
  _atom_site_fract_y
  _atom_site_fract_z
  _atom_site_occupancy
  H   H1        1.0  0.26125  0.59008  0.99884  1.0000
  H   H2        1.0  0.41200  0.66937  0.00706  1.0000
  H   H3        1.0  0.33258  0.73978  0.00152  1.0000
  H   H4        1.0  0.74092  0.41187  0.99363  1.0000
  H   H5        1.0  0.59186  0.33103  0.00994  1.0000
  H   H6        1.0  0.66867  0.26127  0.98488  1.0000
  H   H7        1.0  0.24955  0.65094  0.01533  1.0000
  H   H8        1.0  0.34838  0.59465  0.98605  1.0000
  H   H9        1.0  0.40503  0.75494  0.98181  1.0000
  H   H10       1.0  0.75588  0.35184  0.01649  1.0000
  H   H11       1.0  0.64966  0.40532  0.99711  1.0000
  H   H12       1.0  0.59728  0.24765  0.01013  1.0000
  H   H13       1.0  0.49960  0.57979  0.04538  1.0000
  H   H14       1.0  0.41625  0.91470  0.98455  1.0000
  H   H15       1.0  0.08457  0.50273  0.98072  1.0000
  H   H16       1.0  0.49731  0.41481  0.96100  1.0000
  H   H17       1.0  0.57280  0.08432  0.92327  1.0000
  H   H18       1.0  0.91464  0.49551  0.97798  1.0000
  H   H19       1.0  0.26147  0.59019  0.52471  1.0000
  H   H20       1.0  0.40690  0.66644  0.48213  1.0000
  H   H21       1.0  0.33382  0.73978  0.51530  1.0000
  H   H22       1.0  0.74044  0.41016  0.50937  1.0000
  H   H23       1.0  0.59072  0.33245  0.51228  1.0000
  H   H24       1.0  0.66375  0.25925  0.48036  1.0000
  H   H25       1.0  0.24576  0.65002  0.49034  1.0000
  H   H26       1.0  0.35299  0.59482  0.54078  1.0000
  H   H27       1.0  0.40147  0.75155  0.46436  1.0000
  H   H28       1.0  0.75207  0.34904  0.49935  1.0000
  H   H29       1.0  0.65173  0.40629  0.50629  1.0000
  H   H30       1.0  0.59563  0.24685  0.52992  1.0000
  H   H31       1.0  0.49020  0.57973  0.45201  1.0000
  H   H32       1.0  0.41691  0.91237  0.47929  1.0000
  H   H33       1.0  0.08209  0.50387  0.48625  1.0000
  H   H34       1.0  0.50339  0.42088  0.47353  1.0000
  H   H35       1.0  0.57530  0.08473  0.44650  1.0000
  H   H36       1.0  0.91607  0.49702  0.51700  1.0000
  C   C1        1.0  0.34421  0.69934  0.99748  1.0000
  C   C2        1.0  0.30191  0.64282  0.99768  1.0000
  C   C3        1.0  0.35864  0.65745  0.00107  1.0000
  C   C4        1.0  0.65855  0.30252  0.00050  1.0000
  C   C5        1.0  0.70074  0.35936  0.00426  1.0000
  C   C6        1.0  0.64388  0.34400  0.00163  1.0000
  C   C7        1.0  0.26621  0.61630  0.00170  1.0000
  C   C8        1.0  0.38504  0.64775  0.00190  1.0000
  C   C9        1.0  0.35361  0.73541  0.99583  1.0000
  C   C10       1.0  0.73660  0.38590  0.00159  1.0000
  C   C11       1.0  0.61709  0.35274  0.00391  1.0000
  C   C12       1.0  0.64844  0.26624  0.99492  1.0000
  C   C13       1.0  0.24138  0.62365  0.01011  1.0000
  C   C14       1.0  0.37639  0.61426  0.99322  1.0000
  C   C15       1.0  0.38569  0.76181  0.98822  1.0000
  C   C16       1.0  0.76305  0.37874  0.00915  1.0000
  C   C17       1.0  0.62303  0.38533  0.99975  1.0000
  C   C18       1.0  0.61592  0.24028  0.99967  1.0000
  C   C19       1.0  0.46990  0.56029  0.02403  1.0000
  C   C20       1.0  0.43609  0.90715  0.98609  1.0000
  C   C21       1.0  0.09478  0.53068  0.00213  1.0000
  C   C22       1.0  0.52787  0.43517  0.99265  1.0000
  C   C23       1.0  0.55865  0.09368  0.96253  1.0000
  C   C24       1.0  0.90738  0.46851  0.99308  1.0000
  C   C25       1.0  0.34284  0.69802  0.49724  1.0000
  C   C26       1.0  0.30104  0.64193  0.50544  1.0000
  C   C27       1.0  0.35703  0.65584  0.50364  1.0000
  C   C28       1.0  0.65553  0.30112  0.50487  1.0000
  C   C29       1.0  0.69900  0.35754  0.50911  1.0000
  C   C30       1.0  0.64273  0.34378  0.50837  1.0000
  C   C31       1.0  0.26546  0.61599  0.51166  1.0000
  C   C32       1.0  0.38286  0.64589  0.50116  1.0000
  C   C33       1.0  0.35292  0.73435  0.49719  1.0000
  C   C34       1.0  0.73508  0.38379  0.50718  1.0000
  C   C35       1.0  0.61668  0.35373  0.50870  1.0000
  C   C36       1.0  0.64463  0.26462  0.49849  1.0000
  C   C37       1.0  0.23895  0.62329  0.50229  1.0000
  C   C38       1.0  0.37759  0.61361  0.52003  1.0000
  C   C39       1.0  0.38388  0.75953  0.48008  1.0000
  C   C40       1.0  0.76010  0.37627  0.50188  1.0000
  C   C41       1.0  0.62443  0.38690  0.50671  1.0000
  C   C42       1.0  0.61312  0.23913  0.51154  1.0000
  C   C43       1.0  0.46751  0.56174  0.48802  1.0000
  C   C44       1.0  0.43729  0.90525  0.48417  1.0000
  C   C45       1.0  0.09241  0.53191  0.49925  1.0000
  C   C46       1.0  0.53339  0.44115  0.49820  1.0000
  C   C47       1.0  0.55837  0.09274  0.47084  1.0000
  C   C48       1.0  0.90689  0.46923  0.50840  1.0000
  N   N1        1.0  0.30973  0.67608  0.99373  1.0000
  N   N2        1.0  0.32494  0.63211  0.99865  1.0000
  N   N3        1.0  0.37013  0.69151  0.00389  1.0000
  N   N4        1.0  0.69306  0.32611  0.00708  1.0000
  N   N5        1.0  0.67734  0.36971  0.00287  1.0000
  N   N6        1.0  0.63275  0.31003  0.99723  1.0000
  N   N7        1.0  0.45595  0.52694  0.00430  1.0000
  N   N8        1.0  0.46880  0.92916  0.98683  1.0000
  N   N9        1.0  0.07504  0.54205  0.01771  1.0000
  N   N10       1.0  0.54136  0.46837  0.01928  1.0000
  N   N11       1.0  0.53073  0.07366  0.99979  1.0000
  N   N12       1.0  0.92930  0.45696  0.00426  1.0000
  N   N13       1.0  0.30871  0.67515  0.49645  1.0000
  N   N14       1.0  0.32419  0.63101  0.50970  1.0000
  N   N15       1.0  0.36808  0.68976  0.50007  1.0000
  N   N16       1.0  0.68998  0.32392  0.50817  1.0000
  N   N17       1.0  0.67660  0.36884  0.51059  1.0000
  N   N18       1.0  0.63065  0.30957  0.50442  1.0000
  N   N19       1.0  0.45981  0.53032  0.51269  1.0000
  N   N20       1.0  0.47029  0.92761  0.48779  1.0000
  N   N21       1.0  0.07205  0.54366  0.50589  1.0000
  N   N22       1.0  0.54696  0.47442  0.52059  1.0000
  N   N23       1.0  0.52854  0.07146  0.49349  1.0000
  N   N24       1.0  0.92802  0.45811  0.50501  1.0000
  C   C49       1.0  0.45927  0.61785  0.01658  1.0000
  C   C50       1.0  0.45209  0.58393  0.03005  1.0000
  C  Sn1       1.0  0.41638  0.55725  0.01816  1.0000
  C  Sn2       1.0  0.50025  0.60079  0.99224  1.0000
  C   C51       1.0  0.50771  0.63480  0.97879  1.0000
  C   C52       1.0  0.54355  0.66130  0.99094  1.0000
  H   H37       1.0  0.48699  0.63835  0.02587  1.0000
  O  Te1       1.0  0.40969  0.52352  0.03197  1.0000
  O  Te2       1.0  0.46430  0.57461  0.97981  1.0000
  H   H38       1.0  0.54909  0.68755  0.98038  1.0000
  Mg  Mg1       1.0  0.35612  0.49669  0.00673  1.0000
  C   C53       1.0  0.43931  0.83063  0.97685  1.0000
  C   C54       1.0  0.40744  0.80432  0.99522  1.0000
  C  Sn3       1.0  0.26829  0.77526  0.00128  1.0000
  C  Sn4       1.0  0.38697  0.84529  0.98863  1.0000
  C   C55       1.0  0.41892  0.87142  0.97015  1.0000
  C   C56       1.0  0.44505  0.86414  0.96430  1.0000
  H   H39       1.0  0.45951  0.82499  0.97222  1.0000
  O  Te3       1.0  0.23661  0.74868  0.01974  1.0000
  O  Te4       1.0  0.36114  0.85299  0.99425  1.0000
  H   H40       1.0  0.46970  0.88451  0.94995  1.0000
  Mg  Mg2       1.0  0.20948  0.77199  0.02085  1.0000
  C   C57       1.0  0.15670  0.60007  0.03279  1.0000
  C   C58       1.0  0.13436  0.56344  0.00170  1.0000
  C  Sn5       1.0  0.26202  0.58016  0.98354  1.0000
  C  Sn6       1.0  0.29990  0.59790  0.99685  1.0000
  C   C59       1.0  0.20916  0.59850  0.02812  1.0000
  C   C60       1.0  0.19407  0.61758  0.04602  1.0000
  H   H41       1.0  0.14504  0.61484  0.04676  1.0000
  O  Te5       1.0  0.23930  0.54358  0.95244  1.0000
  O  Te6       1.0  0.31540  0.57922  0.97930  1.0000
  H   H42       1.0  0.21139  0.64594  0.07022  1.0000
  Mg  Mg3       1.0  0.27321  0.52972  0.93792  1.0000
  C   C61       1.0  0.60020  0.44772  0.02794  1.0000
  C   C62       1.0  0.67399  0.46501  0.99609  1.0000
  C  Sn7       1.0  0.65334  0.42848  0.97327  1.0000
  C  Sn8       1.0  0.67225  0.41048  0.98263  1.0000
  C   C63       1.0  0.59850  0.39344  0.01469  1.0000
  C   C64       1.0  0.61888  0.42998  0.03726  1.0000
  H   H43       1.0  0.61598  0.47600  0.04552  1.0000
  O  Te7       1.0  0.61431  0.41015  0.94148  1.0000
  O  Te8       1.0  0.65231  0.37399  0.96038  1.0000
  H   H44       1.0  0.64914  0.44450  0.06205  1.0000
  Mg  Mg4       1.0  0.59949  0.36062  0.91990  1.0000
  C   C65       1.0  0.55891  0.17138  0.98842  1.0000
  C   C66       1.0  0.48169  0.16228  0.00069  1.0000
  C  Sn9       1.0  0.61984  0.19059  0.98941  1.0000
  C  Sn10      1.0  0.60914  0.15520  0.96534  1.0000
  C   C67       1.0  0.57340  0.12844  0.95307  1.0000
  C   C68       1.0  0.54833  0.13647  0.96459  1.0000
  H   H45       1.0  0.53951  0.17760  0.99722  1.0000
  O  Te9       1.0  0.54248  0.18178  0.00202  1.0000
  O  Te10      1.0  0.63385  0.14673  0.95356  1.0000
  H   H46       1.0  0.52072  0.11561  0.95496  1.0000
  Mg  Mg5       1.0  0.67914  0.19304  0.97831  1.0000
  C   C69       1.0  0.82120  0.44750  0.99982  1.0000
  C   C70       1.0  0.80150  0.41147  0.99640  1.0000
  C  Sn11      1.0  0.70586  0.35646  0.00403  1.0000
  C  Sn12      1.0  0.74352  0.37396  0.01533  1.0000
  C   C71       1.0  0.76300  0.41002  0.01880  1.0000
  C   C72       1.0  0.74549  0.42874  0.01104  1.0000
  H   H47       1.0  0.80766  0.46200  0.99392  1.0000
  O  Te11      1.0  0.68576  0.32047  0.00040  1.0000
  O  Te12      1.0  0.76142  0.35564  0.02319  1.0000
  H   H48       1.0  0.76076  0.45664  0.01382  1.0000
  Mg  Mg6       1.0  0.72233  0.30691  0.01417  1.0000
  C   C73       1.0  0.46276  0.46928  0.01206  1.0000
  C   C74       1.0  0.47442  0.50453  0.01476  1.0000
  C  Sn13      1.0  0.50862  0.52841  0.00656  1.0000
  C  Sn14      1.0  0.64436  0.55276  0.99541  1.0000
  C   C75       1.0  0.63242  0.51744  0.99266  1.0000
  C   C76       1.0  0.48529  0.45772  0.00099  1.0000
  H   H49       1.0  0.43624  0.45096  0.01840  1.0000
  O  Te13      1.0  0.51985  0.56353  0.00946  1.0000
  O  Te14      1.0  0.67865  0.57607  0.98698  1.0000
  H   H50       1.0  0.58912  0.46648  0.99878  1.0000
  Mg  Mg7       1.0  0.68180  0.62133  0.99511  1.0000
  C   C77       1.0  0.46541  0.99041  0.01446  1.0000
  C   C78       1.0  0.58881  0.00407  0.98636  1.0000
  C  Sn15      1.0  0.62231  0.01753  0.96870  1.0000
  C  Sn16      1.0  0.13898  0.05408  0.97948  1.0000
  C   C79       1.0  0.01535  0.04022  0.00777  1.0000
  C   C80       1.0  0.98175  0.02647  0.02519  1.0000
  H   H51       1.0  0.43943  0.97978  0.02805  1.0000
  O  Te15      1.0  0.63240  0.99479  0.94060  1.0000
  O  Te16      1.0  0.17262  0.06823  0.96237  1.0000
  H   H52       1.0  0.97363  0.04381  0.04707  1.0000
  Mg  Mg8       1.0  0.68091  0.02659  0.92551  1.0000
  C   C81       1.0  0.99405  0.46354  0.00877  1.0000
  C   C82       1.0  0.97078  0.47484  0.01354  1.0000
  C  Sn17      1.0  0.98185  0.50990  0.01213  1.0000
  C  Sn18      1.0  0.01686  0.53403  0.00577  1.0000
  C   C83       1.0  0.03992  0.52247  0.00089  1.0000
  C   C84       1.0  0.02858  0.48733  0.00242  1.0000
  H   H53       1.0  0.98527  0.43635  0.00984  1.0000
  O  Te17      1.0  0.95827  0.52075  0.01702  1.0000
  O  Te18      1.0  0.02860  0.56922  0.00415  1.0000
  H   H54       1.0  0.15945  0.51463  0.99860  1.0000
  Mg  Mg9       1.0  0.98665  0.57138  0.01251  1.0000
  C   C85       1.0  0.39263  0.55908  0.53487  1.0000
  C   C86       1.0  0.39956  0.59298  0.52986  1.0000
  C  Sn19      1.0  0.43008  0.61871  0.50123  1.0000
  C  Sn20      1.0  0.45406  0.61026  0.47716  1.0000
  C   C87       1.0  0.44687  0.57626  0.48226  1.0000
  C   C88       1.0  0.41626  0.55071  0.51106  1.0000
  H   H55       1.0  0.36893  0.53931  0.55704  1.0000
  O  Te19      1.0  0.43661  0.65246  0.49669  1.0000
  O  Te20      1.0  0.48476  0.63547  0.44824  1.0000
  H   H56       1.0  0.41089  0.52446  0.51480  1.0000
  Mg  Mg10      1.0  0.48204  0.67777  0.45334  1.0000
  C   C89       1.0  0.44854  0.84772  0.48939  1.0000
  C   C90       1.0  0.42982  0.86560  0.47634  1.0000
  C  Sn21      1.0  0.39359  0.84811  0.47339  1.0000
  C  Sn22      1.0  0.37585  0.81205  0.48378  1.0000
  C   C91       1.0  0.39483  0.79440  0.49694  1.0000
  C   C92       1.0  0.43108  0.81215  0.49972  1.0000
  H   H57       1.0  0.47660  0.86145  0.49164  1.0000
  O  Te21      1.0  0.37527  0.86637  0.46022  1.0000
  O  Te22      1.0  0.33966  0.79393  0.48119  1.0000
  H   H58       1.0  0.44558  0.79830  0.50995  1.0000
  Mg  Mg11      1.0  0.32621  0.83023  0.46162  1.0000
  C   C93       1.0  0.18136  0.55475  0.51387  1.0000
  C   C94       1.0  0.19848  0.58991  0.49649  1.0000
  C  Sn23      1.0  0.18119  0.60872  0.49054  1.0000
  C  Sn24      1.0  0.14613  0.59194  0.50230  1.0000
  C   C95       1.0  0.12926  0.55676  0.51980  1.0000
  C   C96       1.0  0.14679  0.53819  0.52555  1.0000
  H   H59       1.0  0.19494  0.54038  0.51843  1.0000
  O  Te23      1.0  0.19867  0.64383  0.47306  1.0000
  O  Te24      1.0  0.12825  0.61013  0.49678  1.0000
  H   H60       1.0  0.13355  0.51097  0.53914  1.0000
  Mg  Mg12      1.0  0.16321  0.65753  0.47168  1.0000
  C   C97       1.0  0.55407  0.37601  0.49139  1.0000
  C   C98       1.0  0.58999  0.39303  0.49160  1.0000
  C  Sn25      1.0  0.61096  0.42938  0.50664  1.0000
  C  Sn26      1.0  0.59561  0.44898  0.52179  1.0000
  C   C99       1.0  0.55966  0.43171  0.52159  1.0000
  C   C100      1.0  0.53892  0.39533  0.50640  1.0000
  H   H61       1.0  0.53803  0.34786  0.47975  1.0000
  O  Te25      1.0  0.64680  0.44597  0.50656  1.0000
  O  Te26      1.0  0.61596  0.48534  0.53708  1.0000
  H   H62       1.0  0.51112  0.38216  0.50637  1.0000
  Mg  Mg13      1.0  0.66359  0.49601  0.53048  1.0000
  C   C101      1.0  0.55572  0.16911  0.49203  1.0000
  C   C102      1.0  0.59177  0.19686  0.51122  1.0000
  C  Sn27      1.0  0.61827  0.19024  0.50486  1.0000
  C  Sn28      1.0  0.60841  0.15517  0.47873  1.0000
  C   C103      1.0  0.57225  0.12759  0.45954  1.0000
  C   C104      1.0  0.54596  0.13451  0.46618  1.0000
  H   H63       1.0  0.53537  0.17446  0.49706  1.0000
  O  Te27      1.0  0.65417  0.21827  0.52434  1.0000
  O  Te28      1.0  0.63434  0.14781  0.47176  1.0000
  H   H64       1.0  0.51804  0.11302  0.45120  1.0000
  Mg  Mg14      1.0  0.67971  0.19489  0.50528  1.0000
  C   C105      1.0  0.84861  0.40097  0.51237  1.0000
  C   C106      1.0  0.86569  0.43623  0.49675  1.0000
  C  Sn29      1.0  0.84811  0.45477  0.49048  1.0000
  C  Sn30      1.0  0.81277  0.43763  0.50011  1.0000
  C   C107      1.0  0.79594  0.40235  0.51586  1.0000
  C   C108      1.0  0.81377  0.38405  0.52195  1.0000
  H   H65       1.0  0.86242  0.38681  0.51719  1.0000
  O  Te29      1.0  0.86555  0.48998  0.47478  1.0000
  O  Te30      1.0  0.79459  0.45554  0.49422  1.0000
  H   H66       1.0  0.80056  0.35675  0.53417  1.0000
  Mg  Mg15      1.0  0.82964  0.50322  0.47207  1.0000
  C   C109      1.0  0.53969  0.53137  0.52534  1.0000
  C   C110      1.0  0.52924  0.49644  0.52635  1.0000
  C  Sn31      1.0  0.49261  0.47110  0.51050  1.0000
  C  Sn32      1.0  0.46599  0.48099  0.49327  1.0000
  C   C111      1.0  0.47670  0.51599  0.49226  1.0000
  C   C112      1.0  0.51344  0.54114  0.50827  1.0000
  H   H67       1.0  0.56811  0.55082  0.53762  1.0000
  O  Te31      1.0  0.48265  0.43632  0.51183  1.0000
  O  Te32      1.0  0.42917  0.45619  0.47713  1.0000
  H   H68       1.0  0.52151  0.56817  0.50735  1.0000
  Mg  Mg16      1.0  0.42910  0.41210  0.48605  1.0000
  C   C113      1.0  0.52593  0.99222  0.47789  1.0000
  C   C114      1.0  0.49354  0.96847  0.49944  1.0000
  C  Sn33      1.0  0.47038  0.97910  0.51088  1.0000
  C  Sn34      1.0  0.47988  0.01418  0.50046  1.0000
  C   C115      1.0  0.00566  0.03773  0.47876  1.0000
  C   C116      1.0  0.02865  0.02681  0.46752  1.0000
  H   H69       1.0  0.54370  0.98377  0.46909  1.0000
  O  Te33      1.0  0.43812  0.95504  0.53248  1.0000
  O  Te34      1.0  0.95055  0.02550  0.51144  1.0000
  H   H70       1.0  0.05371  0.04520  0.45071  1.0000
  Mg  Mg17      1.0  0.41619  0.98297  0.54069  1.0000
  C   C117      1.0  0.01879  0.48007  0.56937  1.0000
  C   C118      1.0  0.03366  0.51208  0.51113  1.0000
  C  Sn35      1.0  0.01275  0.52973  0.45048  1.0000
  C  Sn36      1.0  0.97628  0.51501  0.44830  1.0000
  C   C119      1.0  0.96167  0.48299  0.50697  1.0000
  C   C120      1.0  0.98283  0.46554  0.56734  1.0000
  H   H71       1.0  0.03517  0.46658  0.61618  1.0000
  O  Te35      1.0  0.02802  0.56167  0.39270  1.0000
  O  Te36      1.0  0.95478  0.53210  0.38842  1.0000
  H   H72       1.0  0.97133  0.44078  0.61254  1.0000
  Mg  Mg18      1.0  0.98783  0.57500  0.32304  1.0000
