data_image0
_chemical_formula_structural       H36C48N24SnCSn2CSnTe4Mg2SnCSn2CSnTe4Mg2SnCSn2CSnTe4Mg2SnCSn2CSnTe4Mg2SnCSn2CSnTe4Mg2SnCSn2CSnTe4Mg2SnCSn2CSnTe4Mg2SnCSn2CSnTe4Mg2SnCSn2CSnTe4Mg2SnCSn2CSnTe4Mg2SnCSn2CSnTe4Mg2SnCSn2CSnTe4Mg2SnCSn2CSnTe4Mg2SnCSn2CSnTe4Mg2SnCSn2CSnTe4Mg2SnCSn2CSnTe4Mg2SnCSn2CSnTe4Mg2SnCSn2CSnTe4Mg2
_chemical_formula_sum              "H36 C84 N24 Sn72 Te72 Mg36"
_cell_length_a       45.124
_cell_length_b       45.1101
_cell_length_c       8.19067
_cell_angle_alpha    83.3023
_cell_angle_beta     121.413
_cell_angle_gamma    120.453

_symmetry_space_group_name_H-M    'P1'
_space_group_IT_number       1

loop_
  _space_group_symop_operation_xyz
  'x, y, z'

loop_
  _atom_site_type_symbol
  _atom_site_label
  _atom_site_symmetry_multiplicity
  _atom_site_fract_x
  _atom_site_fract_y
  _atom_site_fract_z
  _atom_site_occupancy
  H   H1        1.0  0.26125  0.59008  0.99884  1.0000
  H   H2        1.0  0.41200  0.66937  0.00706  1.0000
  H   H3        1.0  0.33258  0.73978  0.00152  1.0000
  H   H4        1.0  0.74092  0.41187  0.99363  1.0000
  H   H5        1.0  0.59186  0.33103  0.00994  1.0000
  H   H6        1.0  0.66867  0.26127  0.98488  1.0000
  H   H7        1.0  0.24955  0.65094  0.01533  1.0000
  H   H8        1.0  0.34838  0.59465  0.98605  1.0000
  H   H9        1.0  0.40503  0.75494  0.98181  1.0000
  H   H10       1.0  0.75588  0.35184  0.01649  1.0000
  H   H11       1.0  0.64966  0.40532  0.99711  1.0000
  H   H12       1.0  0.59728  0.24765  0.01013  1.0000
  H   H13       1.0  0.49960  0.57979  0.04538  1.0000
  H   H14       1.0  0.41625  0.91470  0.98455  1.0000
  H   H15       1.0  0.08457  0.50273  0.98072  1.0000
  H   H16       1.0  0.49731  0.41481  0.96100  1.0000
  H   H17       1.0  0.57280  0.08432  0.92327  1.0000
  H   H18       1.0  0.91464  0.49551  0.97798  1.0000
  H   H19       1.0  0.26147  0.59019  0.52471  1.0000
  H   H20       1.0  0.40690  0.66644  0.48213  1.0000
  H   H21       1.0  0.33382  0.73978  0.51530  1.0000
  H   H22       1.0  0.74044  0.41016  0.50937  1.0000
  H   H23       1.0  0.59072  0.33245  0.51228  1.0000
  H   H24       1.0  0.66375  0.25925  0.48036  1.0000
  H   H25       1.0  0.24576  0.65002  0.49034  1.0000
  H   H26       1.0  0.35299  0.59482  0.54078  1.0000
  H   H27       1.0  0.40147  0.75155  0.46436  1.0000
  H   H28       1.0  0.75207  0.34904  0.49935  1.0000
  H   H29       1.0  0.65173  0.40629  0.50629  1.0000
  H   H30       1.0  0.59563  0.24685  0.52992  1.0000
  H   H31       1.0  0.49020  0.57973  0.45201  1.0000
  H   H32       1.0  0.41691  0.91237  0.47929  1.0000
  H   H33       1.0  0.08209  0.50387  0.48625  1.0000
  H   H34       1.0  0.50339  0.42088  0.47353  1.0000
  H   H35       1.0  0.57530  0.08473  0.44650  1.0000
  H   H36       1.0  0.91607  0.49702  0.51700  1.0000
  C   C1        1.0  0.34421  0.69934  0.99748  1.0000
  C   C2        1.0  0.30191  0.64282  0.99768  1.0000
  C   C3        1.0  0.35864  0.65745  0.00107  1.0000
  C   C4        1.0  0.65855  0.30252  0.00050  1.0000
  C   C5        1.0  0.70074  0.35936  0.00426  1.0000
  C   C6        1.0  0.64388  0.34400  0.00163  1.0000
  C   C7        1.0  0.26621  0.61630  0.00170  1.0000
  C   C8        1.0  0.38504  0.64775  0.00190  1.0000
  C   C9        1.0  0.35361  0.73541  0.99583  1.0000
  C   C10       1.0  0.73660  0.38590  0.00159  1.0000
  C   C11       1.0  0.61709  0.35274  0.00391  1.0000
  C   C12       1.0  0.64844  0.26624  0.99492  1.0000
  C   C13       1.0  0.24138  0.62365  0.01011  1.0000
  C   C14       1.0  0.37639  0.61426  0.99322  1.0000
  C   C15       1.0  0.38569  0.76181  0.98822  1.0000
  C   C16       1.0  0.76305  0.37874  0.00915  1.0000
  C   C17       1.0  0.62303  0.38533  0.99975  1.0000
  C   C18       1.0  0.61592  0.24028  0.99967  1.0000
  C   C19       1.0  0.46990  0.56029  0.02403  1.0000
  C   C20       1.0  0.43609  0.90715  0.98609  1.0000
  C   C21       1.0  0.09478  0.53068  0.00213  1.0000
  C   C22       1.0  0.52787  0.43517  0.99265  1.0000
  C   C23       1.0  0.55865  0.09368  0.96253  1.0000
  C   C24       1.0  0.90738  0.46851  0.99308  1.0000
  C   C25       1.0  0.34284  0.69802  0.49724  1.0000
  C   C26       1.0  0.30104  0.64193  0.50544  1.0000
  C   C27       1.0  0.35703  0.65584  0.50364  1.0000
  C   C28       1.0  0.65553  0.30112  0.50487  1.0000
  C   C29       1.0  0.69900  0.35754  0.50911  1.0000
  C   C30       1.0  0.64273  0.34378  0.50837  1.0000
  C   C31       1.0  0.26546  0.61599  0.51166  1.0000
  C   C32       1.0  0.38286  0.64589  0.50116  1.0000
  C   C33       1.0  0.35292  0.73435  0.49719  1.0000
  C   C34       1.0  0.73508  0.38379  0.50718  1.0000
  C   C35       1.0  0.61668  0.35373  0.50870  1.0000
  C   C36       1.0  0.64463  0.26462  0.49849  1.0000
  C   C37       1.0  0.23895  0.62329  0.50229  1.0000
  C   C38       1.0  0.37759  0.61361  0.52003  1.0000
  C   C39       1.0  0.38388  0.75953  0.48008  1.0000
  C   C40       1.0  0.76010  0.37627  0.50188  1.0000
  C   C41       1.0  0.62443  0.38690  0.50671  1.0000
  C   C42       1.0  0.61312  0.23913  0.51154  1.0000
  C   C43       1.0  0.46751  0.56174  0.48802  1.0000
  C   C44       1.0  0.43729  0.90525  0.48417  1.0000
  C   C45       1.0  0.09241  0.53191  0.49925  1.0000
  C   C46       1.0  0.53339  0.44115  0.49820  1.0000
  C   C47       1.0  0.55837  0.09274  0.47084  1.0000
  C   C48       1.0  0.90689  0.46923  0.50840  1.0000
  N   N1        1.0  0.30973  0.67608  0.99373  1.0000
  N   N2        1.0  0.32494  0.63211  0.99865  1.0000
  N   N3        1.0  0.37013  0.69151  0.00389  1.0000
  N   N4        1.0  0.69306  0.32611  0.00708  1.0000
  N   N5        1.0  0.67734  0.36971  0.00287  1.0000
  N   N6        1.0  0.63275  0.31003  0.99723  1.0000
  N   N7        1.0  0.45595  0.52694  0.00430  1.0000
  N   N8        1.0  0.46880  0.92916  0.98683  1.0000
  N   N9        1.0  0.07504  0.54205  0.01771  1.0000
  N   N10       1.0  0.54136  0.46837  0.01928  1.0000
  N   N11       1.0  0.53073  0.07366  0.99979  1.0000
  N   N12       1.0  0.92930  0.45696  0.00426  1.0000
  N   N13       1.0  0.30871  0.67515  0.49645  1.0000
  N   N14       1.0  0.32419  0.63101  0.50970  1.0000
  N   N15       1.0  0.36808  0.68976  0.50007  1.0000
  N   N16       1.0  0.68998  0.32392  0.50817  1.0000
  N   N17       1.0  0.67660  0.36884  0.51059  1.0000
  N   N18       1.0  0.63065  0.30957  0.50442  1.0000
  N   N19       1.0  0.45981  0.53032  0.51269  1.0000
  N   N20       1.0  0.47029  0.92761  0.48779  1.0000
  N   N21       1.0  0.07205  0.54366  0.50589  1.0000
  N   N22       1.0  0.54696  0.47442  0.52059  1.0000
  N   N23       1.0  0.52854  0.07146  0.49349  1.0000
  N   N24       1.0  0.92802  0.45811  0.50501  1.0000
  C  Sn1       1.0  0.50899  0.58673  0.94022  1.0000
  C   C49       1.0  0.54697  0.60502  0.96003  1.0000
  C  Sn2       1.0  0.45836  0.60551  0.01718  1.0000
  C  Sn3       1.0  0.44437  0.62417  0.05545  1.0000
  C   C50       1.0  0.40641  0.60589  0.03567  1.0000
  C  Sn4       1.0  0.49500  0.60539  0.97849  1.0000
  O  Te1       1.0  0.48525  0.55020  0.88292  1.0000
  O  Te2       1.0  0.49622  0.62322  0.03593  1.0000
  O  Te3       1.0  0.46814  0.66073  0.11279  1.0000
  O  Te4       1.0  0.45716  0.58769  0.95977  1.0000
  Mg  Mg1       1.0  0.51747  0.67305  0.11802  1.0000
  Mg  Mg2       1.0  0.43589  0.53786  0.87779  1.0000
  C  Sn5       1.0  0.36852  0.81654  0.93054  1.0000
  C   C51       1.0  0.38728  0.79943  0.93319  1.0000
  C  Sn6       1.0  0.42750  0.81874  0.97974  1.0000
  C  Sn7       1.0  0.33656  0.81989  0.02471  1.0000
  C   C52       1.0  0.31780  0.83699  0.02208  1.0000
  C  Sn8       1.0  0.39045  0.85374  0.97551  1.0000
  O  Te5       1.0  0.32828  0.79671  0.88360  1.0000
  O  Te6       1.0  0.44560  0.80105  0.98137  1.0000
  O  Te7       1.0  0.37682  0.83973  0.07166  1.0000
  O  Te8       1.0  0.37235  0.87142  0.97390  1.0000
  Mg  Mg3       1.0  0.38821  0.80360  0.05444  1.0000
  Mg  Mg4       1.0  0.31688  0.83284  0.90095  1.0000
  C  Sn9       1.0  0.05480  0.50890  0.05278  1.0000
  C   C53       1.0  0.03003  0.51783  0.06067  1.0000
  C  Sn10      1.0  0.03429  0.55045  0.02736  1.0000
  C  Sn11      1.0  0.17677  0.61069  0.98516  1.0000
  C   C54       1.0  0.20151  0.60176  0.97725  1.0000
  C  Sn12      1.0  0.08441  0.53309  0.01058  1.0000
  O  Te9       1.0  0.05001  0.47614  0.08656  1.0000
  O  Te10      1.0  0.00919  0.55879  0.03611  1.0000
  O  Te11      1.0  0.18155  0.64347  0.95138  1.0000
  O  Te12      1.0  0.10949  0.52475  0.00182  1.0000
  Mg  Mg5       1.0  0.14017  0.64270  0.97931  1.0000
  Mg  Mg6       1.0  0.09139  0.47689  0.05849  1.0000
  C  Sn13      1.0  0.43327  0.34626  0.03646  1.0000
  C   C55       1.0  0.44259  0.38089  0.04829  1.0000
  C  Sn14      1.0  0.47282  0.40660  0.01788  1.0000
  C  Sn15      1.0  0.60704  0.43357  0.97462  1.0000
  C   C56       1.0  0.59772  0.39896  0.96278  1.0000
  C  Sn16      1.0  0.56749  0.37323  0.99320  1.0000
  O  Te13      1.0  0.40293  0.32099  0.06738  1.0000
  O  Te14      1.0  0.48161  0.44105  0.03054  1.0000
  O  Te15      1.0  0.63740  0.45888  0.94370  1.0000
  O  Te16      1.0  0.55870  0.33880  0.98052  1.0000
  Mg  Mg7       1.0  0.63835  0.50219  0.97656  1.0000
  Mg  Mg8       1.0  0.40196  0.27763  0.03437  1.0000
  C  Sn17      1.0  0.61579  0.18055  0.91800  1.0000
  C   C57       1.0  0.60027  0.19892  0.93901  1.0000
  C  Sn18      1.0  0.57215  0.18342  0.99556  1.0000
  C  Sn19      1.0  0.44642  0.11281  0.03200  1.0000
  C   C58       1.0  0.46194  0.09447  0.01103  1.0000
  C  Sn20      1.0  0.60293  0.14599  0.95444  1.0000
  O  Te17      1.0  0.64388  0.19656  0.86133  1.0000
  O  Te18      1.0  0.44419  0.16625  0.01552  1.0000
  O  Te19      1.0  0.41831  0.09682  0.08871  1.0000
  O  Te20      1.0  0.61803  0.12714  0.93451  1.0000
  Mg  Mg9       1.0  0.40652  0.13317  0.09611  1.0000
  Mg  Mg10      1.0  0.65571  0.16020  0.85403  1.0000
  C  Sn21      1.0  0.81360  0.44220  0.93644  1.0000
  C   C59       1.0  0.79679  0.40700  0.95340  1.0000
  C  Sn22      1.0  0.70687  0.35521  0.01348  1.0000
  C  Sn23      1.0  0.74748  0.37507  0.05765  1.0000
  C   C60       1.0  0.76427  0.41024  0.04071  1.0000
  C  Sn24      1.0  0.85421  0.46205  0.98061  1.0000
  O  Te21      1.0  0.79011  0.45740  0.87613  1.0000
  O  Te22      1.0  0.68939  0.31999  0.02929  1.0000
  O  Te23      1.0  0.77097  0.35983  0.11799  1.0000
  O  Te24      1.0  0.87167  0.49726  0.96483  1.0000
  Mg  Mg11      1.0  0.73365  0.31103  0.11734  1.0000
  Mg  Mg12      1.0  0.82745  0.50625  0.87689  1.0000
  C  Sn25      1.0  0.51201  0.52841  0.93612  1.0000
  C   C61       1.0  0.47755  0.51387  0.94700  1.0000
  C  Sn26      1.0  0.35147  0.44628  0.01139  1.0000
  C  Sn27      1.0  0.37317  0.42891  0.06618  1.0000
  C   C62       1.0  0.40761  0.44345  0.05533  1.0000
  C  Sn28      1.0  0.53371  0.51104  0.99091  1.0000
  O  Te25      1.0  0.52467  0.55997  0.87134  1.0000
  O  Te26      1.0  0.31693  0.43225  0.02096  1.0000
  O  Te27      1.0  0.36048  0.39732  0.13100  1.0000
  O  Te28      1.0  0.56824  0.52507  0.98137  1.0000
  Mg  Mg13      1.0  0.31168  0.38867  0.11867  1.0000
  Mg  Mg14      1.0  0.57352  0.56865  0.88378  1.0000
  C  Sn29      1.0  0.03195  0.01108  0.92155  1.0000
  C   C63       1.0  0.01990  0.03269  0.94293  1.0000
  C  Sn30      1.0  0.88084  0.98514  0.00971  1.0000
  C  Sn31      1.0  0.86641  0.95133  0.05621  1.0000
  C   C64       1.0  0.87846  0.92974  0.03486  1.0000
  C  Sn32      1.0  0.01751  0.97727  0.96805  1.0000
  O  Te29      1.0  0.05816  0.02312  0.85456  1.0000
  O  Te30      1.0  0.36254  0.00721  0.02984  1.0000
  O  Te31      1.0  0.84018  0.93929  0.12324  1.0000
  O  Te32      1.0  0.02915  0.95522  0.94795  1.0000
  Mg  Mg15      1.0  0.83303  0.97899  0.12654  1.0000
  Mg  Mg16      1.0  0.06534  0.98342  0.85135  1.0000
  C  Sn33      1.0  0.01640  0.53482  0.06275  1.0000
  C   C65       1.0  0.03993  0.52310  0.06508  1.0000
  C  Sn34      1.0  0.02364  0.48727  0.01652  1.0000
  C  Sn35      1.0  0.09584  0.49869  0.96441  1.0000
  C   C66       1.0  0.07233  0.51041  0.96207  1.0000
  C  Sn36      1.0  0.97573  0.51019  0.01065  1.0000
  O  Te33      1.0  0.03331  0.57076  0.11182  1.0000
  O  Te34      1.0  0.04777  0.47619  0.01996  1.0000
  O  Te35      1.0  0.07895  0.46273  0.91533  1.0000
  O  Te36      1.0  0.95163  0.52128  0.00719  1.0000
  Mg  Mg17      1.0  0.12391  0.46054  0.94140  1.0000
  Mg  Mg18      1.0  0.98832  0.57297  0.08562  1.0000
  C  Sn37      1.0  0.43235  0.61894  0.42623  1.0000
  C   C67       1.0  0.40075  0.60204  0.46010  1.0000
  C  Sn38      1.0  0.39320  0.57139  0.53541  1.0000
  C  Sn39      1.0  0.41778  0.55733  0.57788  1.0000
  C   C68       1.0  0.44937  0.57423  0.54405  1.0000
  C  Sn40      1.0  0.45693  0.60488  0.46870  1.0000
  O  Te37      1.0  0.43934  0.64955  0.35088  1.0000
  O  Te38      1.0  0.36142  0.55496  0.56797  1.0000
  O  Te39      1.0  0.41076  0.52669  0.65328  1.0000
  O  Te40      1.0  0.48869  0.62131  0.43617  1.0000
  Mg  Mg19      1.0  0.36390  0.51388  0.67254  1.0000
  Mg  Mg20      1.0  0.48625  0.66240  0.33171  1.0000
  C  Sn41      1.0  0.36848  0.81519  0.42090  1.0000
  C   C69       1.0  0.38686  0.79757  0.42510  1.0000
  C  Sn42      1.0  0.42748  0.81637  0.47758  1.0000
  C  Sn43      1.0  0.45021  0.85356  0.52702  1.0000
  C   C70       1.0  0.43183  0.87116  0.52284  1.0000
  C  Sn44      1.0  0.39121  0.85238  0.47034  1.0000
  O  Te41      1.0  0.32784  0.79586  0.36801  1.0000
  O  Te42      1.0  0.44519  0.79817  0.48065  1.0000
  O  Te43      1.0  0.49088  0.87288  0.57993  1.0000
  O  Te44      1.0  0.37351  0.87056  0.46729  1.0000
  Mg  Mg21      1.0  0.50147  0.83619  0.56245  1.0000
  Mg  Mg22      1.0  0.31723  0.83257  0.38562  1.0000
  C  Sn45      1.0  0.17826  0.61203  0.55883  1.0000
  C   C71       1.0  0.20362  0.60311  0.55744  1.0000
  C  Sn46      1.0  0.19007  0.56799  0.50955  1.0000
  C  Sn47      1.0  0.15034  0.54121  0.46193  1.0000
  C   C72       1.0  0.12499  0.55013  0.46331  1.0000
  C  Sn48      1.0  0.13852  0.58525  0.51122  1.0000
  O  Te45      1.0  0.19243  0.64731  0.60715  1.0000
  O  Te46      1.0  0.21599  0.55972  0.50921  1.0000
  O  Te47      1.0  0.13617  0.50591  0.41361  1.0000
  O  Te48      1.0  0.11263  0.59353  0.51154  1.0000
  Mg  Mg23      1.0  0.18278  0.50786  0.43344  1.0000
  Mg  Mg24      1.0  0.14579  0.64538  0.58718  1.0000
  C  Sn49      1.0  0.55021  0.37677  0.42860  1.0000
  C   C73       1.0  0.58828  0.39489  0.44928  1.0000
  C  Sn50      1.0  0.61361  0.43122  0.51642  1.0000
  C  Sn51      1.0  0.60064  0.44983  0.56400  1.0000
  C   C74       1.0  0.56260  0.43172  0.54335  1.0000
  C  Sn52      1.0  0.53724  0.39538  0.47619  1.0000
  O  Te49      1.0  0.52539  0.34044  0.36123  1.0000
  O  Te50      1.0  0.65153  0.44876  0.53583  1.0000
  O  Te51      1.0  0.62551  0.48619  0.63141  1.0000
  O  Te52      1.0  0.49935  0.37785  0.45680  1.0000
  Mg  Mg25      1.0  0.67447  0.49833  0.63343  1.0000
  Mg  Mg26      1.0  0.47640  0.32827  0.35932  1.0000
  C  Sn53      1.0  0.61473  0.18043  0.43240  1.0000
  C   C75       1.0  0.59791  0.19783  0.44952  1.0000
  C  Sn54      1.0  0.56877  0.18125  0.49969  1.0000
  C  Sn55      1.0  0.55620  0.14655  0.53357  1.0000
  C   C76       1.0  0.57302  0.12917  0.51648  1.0000
  C  Sn56      1.0  0.60215  0.14573  0.46628  1.0000
  O  Te53      1.0  0.64381  0.19751  0.38210  1.0000
  O  Te54      1.0  0.55239  0.19919  0.51587  1.0000
  O  Te55      1.0  0.52709  0.12948  0.58390  1.0000
  O  Te56      1.0  0.61854  0.12781  0.45014  1.0000
  Mg  Mg27      1.0  0.51370  0.16481  0.58806  1.0000
  Mg  Mg28      1.0  0.65724  0.16217  0.37805  1.0000
  C  Sn57      1.0  0.83424  0.39282  0.56409  1.0000
  C   C77       1.0  0.80736  0.40101  0.55359  1.0000
  C  Sn58      1.0  0.80943  0.43225  0.50005  1.0000
  C  Sn59      1.0  0.83897  0.45578  0.45596  1.0000
  C   C78       1.0  0.86582  0.44758  0.46644  1.0000
  C  Sn60      1.0  0.86378  0.41636  0.52000  1.0000
  O  Te57      1.0  0.83162  0.36145  0.61793  1.0000
  O  Te58      1.0  0.78224  0.43987  0.49064  1.0000
  O  Te59      1.0  0.84157  0.48717  0.40210  1.0000
  O  Te60      1.0  0.89094  0.40873  0.52939  1.0000
  Mg  Mg29      1.0  0.79783  0.48586  0.41004  1.0000
  Mg  Mg30      1.0  0.87537  0.36274  0.60988  1.0000
  C  Sn61      1.0  0.52065  0.53635  0.46786  1.0000
  C   C79       1.0  0.48382  0.52020  0.45856  1.0000
  C  Sn62      1.0  0.46707  0.48621  0.49341  1.0000
  C  Sn63      1.0  0.48758  0.46799  0.53863  1.0000
  C   C80       1.0  0.52439  0.48414  0.54795  1.0000
  C  Sn64      1.0  0.54116  0.51813  0.51308  1.0000
  O  Te61      1.0  0.53684  0.57034  0.43250  1.0000
  O  Te62      1.0  0.43020  0.47061  0.48322  1.0000
  O  Te63      1.0  0.47136  0.43398  0.57400  1.0000
  O  Te64      1.0  0.57801  0.53373  0.52329  1.0000
  Mg  Mg31      1.0  0.42040  0.42388  0.54312  1.0000
  Mg  Mg32      1.0  0.58785  0.58047  0.46352  1.0000
  C  Sn65      1.0  0.53119  0.99376  0.54286  1.0000
  C   C81       1.0  0.49615  0.96975  0.54428  1.0000
  C  Sn66      1.0  0.46757  0.97839  0.50256  1.0000
  C  Sn67      1.0  0.47412  0.01171  0.45838  1.0000
  C   C82       1.0  0.00246  0.03569  0.45694  1.0000
  C  Sn68      1.0  0.03107  0.02708  0.49868  1.0000
  O  Te65      1.0  0.55935  0.98456  0.58500  1.0000
  O  Te66      1.0  0.43278  0.95395  0.50494  1.0000
  O  Te67      1.0  0.93924  0.02088  0.41623  1.0000
  O  Te68      1.0  0.06583  0.05148  0.49628  1.0000
  Mg  Mg33      1.0  0.40328  0.97870  0.43771  1.0000
  Mg  Mg34      1.0  0.09534  0.02676  0.56338  1.0000
  C  Sn69      1.0  0.01231  0.47738  0.50374  1.0000
  C   C83       1.0  0.02861  0.51102  0.46396  1.0000
  C  Sn70      1.0  0.01349  0.53195  0.45576  1.0000
  C  Sn71      1.0  0.98142  0.51899  0.48812  1.0000
  C   C84       1.0  0.96515  0.48537  0.52791  1.0000
  C  Sn72      1.0  0.98024  0.46442  0.53610  1.0000
  O  Te69      1.0  0.02790  0.45692  0.51125  1.0000
  O  Te70      1.0  0.03026  0.56549  0.41568  1.0000
  O  Te71      1.0  0.96584  0.53948  0.48058  1.0000
  O  Te72      1.0  0.96349  0.43091  0.57619  1.0000
  Mg  Mg35      1.0  0.99873  0.58342  0.42096  1.0000
  Mg  Mg36      1.0  0.99501  0.41296  0.57104  1.0000
