data_image0
_chemical_formula_structural       H72C102N24C2Sn2C2HTe2HMgC2Sn2C2HTe2HMgC2Sn2C2HTe2HMgC2Sn2C2HTe2HMgC2Sn2C2HTe2HMgC2Sn2C2HTe2HMgC2Sn2C2HTe2HMgC2Sn2C2HTe2HMgC2Sn2C2HTe2HMg
_chemical_formula_sum              "H90 C138 N24 Sn18 Te18 Mg9"
_cell_length_a       45.124
_cell_length_b       45.1101
_cell_length_c       8.19067
_cell_angle_alpha    83.3023
_cell_angle_beta     121.413
_cell_angle_gamma    120.453

_symmetry_space_group_name_H-M    'P1'
_space_group_IT_number       1

loop_
  _space_group_symop_operation_xyz
  'x, y, z'

loop_
  _atom_site_type_symbol
  _atom_site_label
  _atom_site_symmetry_multiplicity
  _atom_site_fract_x
  _atom_site_fract_y
  _atom_site_fract_z
  _atom_site_occupancy
  H   H1        1.0  0.26125  0.59008  0.99884  1.0000
  H   H2        1.0  0.41200  0.66937  0.00706  1.0000
  H   H3        1.0  0.33258  0.73978  0.00152  1.0000
  H   H4        1.0  0.74092  0.41187  0.99363  1.0000
  H   H5        1.0  0.59186  0.33103  0.00994  1.0000
  H   H6        1.0  0.66867  0.26127  0.98488  1.0000
  H   H7        1.0  0.24955  0.65094  0.01533  1.0000
  H   H8        1.0  0.34838  0.59465  0.98605  1.0000
  H   H9        1.0  0.40503  0.75494  0.98181  1.0000
  H   H10       1.0  0.75588  0.35184  0.01649  1.0000
  H   H11       1.0  0.64966  0.40532  0.99711  1.0000
  H   H12       1.0  0.59728  0.24765  0.01013  1.0000
  H   H13       1.0  0.44967  0.65154  0.01442  1.0000
  H   H14       1.0  0.34809  0.79455  0.99494  1.0000
  H   H15       1.0  0.20426  0.55157  0.98492  1.0000
  H   H16       1.0  0.54802  0.34548  0.96374  1.0000
  H   H17       1.0  0.65101  0.20647  0.97716  1.0000
  H   H18       1.0  0.79657  0.44951  0.99348  1.0000
  H   H19       1.0  0.48968  0.62756  0.03302  1.0000
  H   H20       1.0  0.37066  0.85691  0.99226  1.0000
  H   H21       1.0  0.14064  0.51278  0.98097  1.0000
  H   H22       1.0  0.50839  0.36823  0.96267  1.0000
  H   H23       1.0  0.62461  0.14296  0.95618  1.0000
  H   H24       1.0  0.85877  0.48719  0.98613  1.0000
  H   H25       1.0  0.39830  0.52430  0.99967  1.0000
  H   H26       1.0  0.47223  0.87512  0.97843  1.0000
  H   H27       1.0  0.13223  0.60114  0.03730  1.0000
  H   H28       1.0  0.60122  0.47356  0.03350  1.0000
  H   H29       1.0  0.52558  0.12698  0.98886  1.0000
  H   H30       1.0  0.87604  0.40093  0.02161  1.0000
  H   H31       1.0  0.35765  0.54826  0.98164  1.0000
  H   H32       1.0  0.44943  0.81196  0.97795  1.0000
  H   H33       1.0  0.19642  0.64088  0.04232  1.0000
  H   H34       1.0  0.64156  0.45101  0.03253  1.0000
  H   H35       1.0  0.55128  0.19106  0.00443  1.0000
  H   H36       1.0  0.81271  0.36227  0.02657  1.0000
  H   H37       1.0  0.49960  0.57979  0.04538  1.0000
  H   H38       1.0  0.41625  0.91470  0.98455  1.0000
  H   H39       1.0  0.08457  0.50273  0.98072  1.0000
  H   H40       1.0  0.49731  0.41481  0.96100  1.0000
  H   H41       1.0  0.57280  0.08432  0.92327  1.0000
  H   H42       1.0  0.91464  0.49551  0.97798  1.0000
  H   H43       1.0  0.03816  0.47049  0.02695  1.0000
  H   H44       1.0  0.96673  0.52812  0.99657  1.0000
  H   H45       1.0  0.97270  0.43550  0.01210  1.0000
  H   H46       1.0  0.03152  0.56273  0.00699  1.0000
  H   H47       1.0  0.26147  0.59019  0.52471  1.0000
  H   H48       1.0  0.40690  0.66644  0.48213  1.0000
  H   H49       1.0  0.33382  0.73978  0.51530  1.0000
  H   H50       1.0  0.74044  0.41016  0.50937  1.0000
  H   H51       1.0  0.59072  0.33245  0.51228  1.0000
  H   H52       1.0  0.66375  0.25925  0.48036  1.0000
  H   H53       1.0  0.24576  0.65002  0.49034  1.0000
  H   H54       1.0  0.35299  0.59482  0.54078  1.0000
  H   H55       1.0  0.40147  0.75155  0.46436  1.0000
  H   H56       1.0  0.75207  0.34904  0.49935  1.0000
  H   H57       1.0  0.65173  0.40629  0.50629  1.0000
  H   H58       1.0  0.59563  0.24685  0.52992  1.0000
  H   H59       1.0  0.20489  0.55259  0.50881  1.0000
  H   H60       1.0  0.79344  0.44716  0.49387  1.0000
  H   H61       1.0  0.14181  0.51411  0.50661  1.0000
  H   H62       1.0  0.85696  0.48617  0.49871  1.0000
  H   H63       1.0  0.12622  0.60080  0.49423  1.0000
  H   H64       1.0  0.87336  0.39996  0.51093  1.0000
  H   H65       1.0  0.19013  0.64006  0.49625  1.0000
  H   H66       1.0  0.80910  0.36017  0.50479  1.0000
  H   H67       1.0  0.49020  0.57973  0.45201  1.0000
  H   H68       1.0  0.41691  0.91237  0.47929  1.0000
  H   H69       1.0  0.08209  0.50387  0.48625  1.0000
  H   H70       1.0  0.50339  0.42088  0.47353  1.0000
  H   H71       1.0  0.57530  0.08473  0.44650  1.0000
  H   H72       1.0  0.91607  0.49702  0.51700  1.0000
  C   C1        1.0  0.34421  0.69934  0.99748  1.0000
  C   C2        1.0  0.30191  0.64282  0.99768  1.0000
  C   C3        1.0  0.35864  0.65745  0.00107  1.0000
  C   C4        1.0  0.65855  0.30252  0.00050  1.0000
  C   C5        1.0  0.70074  0.35936  0.00426  1.0000
  C   C6        1.0  0.64388  0.34400  0.00163  1.0000
  C   C7        1.0  0.26621  0.61630  0.00170  1.0000
  C   C8        1.0  0.38504  0.64775  0.00190  1.0000
  C   C9        1.0  0.35361  0.73541  0.99583  1.0000
  C   C10       1.0  0.73660  0.38590  0.00159  1.0000
  C   C11       1.0  0.61709  0.35274  0.00391  1.0000
  C   C12       1.0  0.64844  0.26624  0.99492  1.0000
  C   C13       1.0  0.24138  0.62365  0.01011  1.0000
  C   C14       1.0  0.37639  0.61426  0.99322  1.0000
  C   C15       1.0  0.38569  0.76181  0.98822  1.0000
  C   C16       1.0  0.76305  0.37874  0.00915  1.0000
  C   C17       1.0  0.62303  0.38533  0.99975  1.0000
  C   C18       1.0  0.61592  0.24028  0.99967  1.0000
  C   C19       1.0  0.40056  0.60165  0.99672  1.0000
  C   C20       1.0  0.39706  0.79827  0.98684  1.0000
  C   C21       1.0  0.20504  0.59929  0.01239  1.0000
  C   C22       1.0  0.59817  0.39667  0.00037  1.0000
  C   C23       1.0  0.60294  0.20349  0.99209  1.0000
  C   C24       1.0  0.79958  0.40274  0.00759  1.0000
  C   C25       1.0  0.43820  0.62370  0.01153  1.0000
  C   C26       1.0  0.37505  0.81172  0.98971  1.0000
  C   C27       1.0  0.18906  0.56283  0.99804  1.0000
  C   C28       1.0  0.56018  0.37358  0.98066  1.0000
  C   C29       1.0  0.62362  0.18939  0.98026  1.0000
  C   C30       1.0  0.81337  0.43844  0.99721  1.0000
  C   C31       1.0  0.46079  0.61027  0.02268  1.0000
  C   C32       1.0  0.38781  0.84692  0.98879  1.0000
  C   C33       1.0  0.15326  0.54097  0.99463  1.0000
  C   C34       1.0  0.53773  0.38628  0.97901  1.0000
  C   C35       1.0  0.60882  0.15370  0.96850  1.0000
  C   C36       1.0  0.84850  0.45971  0.99418  1.0000
  C   C37       1.0  0.44651  0.57418  0.01777  1.0000
  C   C38       1.0  0.42317  0.87032  0.98602  1.0000
  C   C39       1.0  0.13224  0.55448  0.00727  1.0000
  C   C40       1.0  0.55233  0.42252  0.99862  1.0000
  C   C41       1.0  0.57334  0.13090  0.97154  1.0000
  C   C42       1.0  0.87124  0.44623  0.00097  1.0000
  C   C43       1.0  0.40890  0.55201  0.00211  1.0000
  C   C44       1.0  0.44531  0.85714  0.98302  1.0000
  C   C45       1.0  0.14832  0.59088  0.02439  1.0000
  C   C46       1.0  0.59034  0.44571  0.01978  1.0000
  C   C47       1.0  0.55277  0.14483  0.98512  1.0000
  C   C48       1.0  0.85800  0.41085  0.01457  1.0000
  C   C49       1.0  0.38652  0.56549  0.99167  1.0000
  C   C50       1.0  0.43238  0.82195  0.98262  1.0000
  C   C51       1.0  0.18397  0.61269  0.02731  1.0000
  C   C52       1.0  0.61249  0.43296  0.01913  1.0000
  C   C53       1.0  0.56728  0.18038  0.99409  1.0000
  C   C54       1.0  0.82288  0.38965  0.01676  1.0000
  C   C55       1.0  0.46990  0.56029  0.02403  1.0000
  C   C56       1.0  0.43609  0.90715  0.98609  1.0000
  C   C57       1.0  0.09478  0.53068  0.00213  1.0000
  C   C58       1.0  0.52787  0.43517  0.99265  1.0000
  C   C59       1.0  0.55865  0.09368  0.96253  1.0000
  C   C60       1.0  0.90738  0.46851  0.99308  1.0000
  C   C61       1.0  0.03900  0.51926  0.01316  1.0000
  C   C62       1.0  0.96476  0.47890  0.00264  1.0000
  C   C63       1.0  0.02244  0.48316  0.01823  1.0000
  C   C64       1.0  0.98160  0.51506  0.99870  1.0000
  C   C65       1.0  0.98594  0.46345  0.01116  1.0000
  C   C66       1.0  0.01788  0.53469  0.00520  1.0000
  C   C67       1.0  0.34284  0.69802  0.49724  1.0000
  C   C68       1.0  0.30104  0.64193  0.50544  1.0000
  C   C69       1.0  0.35703  0.65584  0.50364  1.0000
  C   C70       1.0  0.65553  0.30112  0.50487  1.0000
  C   C71       1.0  0.69900  0.35754  0.50911  1.0000
  C   C72       1.0  0.64273  0.34378  0.50837  1.0000
  C   C73       1.0  0.26546  0.61599  0.51166  1.0000
  C   C74       1.0  0.38286  0.64589  0.50116  1.0000
  C   C75       1.0  0.35292  0.73435  0.49719  1.0000
  C   C76       1.0  0.73508  0.38379  0.50718  1.0000
  C   C77       1.0  0.61668  0.35373  0.50870  1.0000
  C   C78       1.0  0.64463  0.26462  0.49849  1.0000
  C   C79       1.0  0.23895  0.62329  0.50229  1.0000
  C   C80       1.0  0.37759  0.61361  0.52003  1.0000
  C   C81       1.0  0.38388  0.75953  0.48008  1.0000
  C   C82       1.0  0.76010  0.37627  0.50188  1.0000
  C   C83       1.0  0.62443  0.38690  0.50671  1.0000
  C   C84       1.0  0.61312  0.23913  0.51154  1.0000
  C   C85       1.0  0.20259  0.59944  0.50533  1.0000
  C   C86       1.0  0.79659  0.40061  0.50016  1.0000
  C   C87       1.0  0.18823  0.56350  0.50839  1.0000
  C   C88       1.0  0.81059  0.43652  0.49683  1.0000
  C   C89       1.0  0.15253  0.54180  0.50572  1.0000
  C   C90       1.0  0.84638  0.45848  0.50028  1.0000
  C   C91       1.0  0.12982  0.55500  0.50209  1.0000
  C   C92       1.0  0.86956  0.44563  0.50569  1.0000
  C   C93       1.0  0.14401  0.59082  0.49860  1.0000
  C   C94       1.0  0.85550  0.40978  0.50746  1.0000
  C   C95       1.0  0.17955  0.61244  0.50018  1.0000
  C   C96       1.0  0.81981  0.38789  0.50393  1.0000
  C   C97       1.0  0.46751  0.56174  0.48802  1.0000
  C   C98       1.0  0.43729  0.90525  0.48417  1.0000
  C   C99       1.0  0.09241  0.53191  0.49925  1.0000
  C   C100      1.0  0.53339  0.44115  0.49820  1.0000
  C   C101      1.0  0.55837  0.09274  0.47084  1.0000
  C   C102      1.0  0.90689  0.46923  0.50840  1.0000
  N   N1        1.0  0.30973  0.67608  0.99373  1.0000
  N   N2        1.0  0.32494  0.63211  0.99865  1.0000
  N   N3        1.0  0.37013  0.69151  0.00389  1.0000
  N   N4        1.0  0.69306  0.32611  0.00708  1.0000
  N   N5        1.0  0.67734  0.36971  0.00287  1.0000
  N   N6        1.0  0.63275  0.31003  0.99723  1.0000
  N   N7        1.0  0.45595  0.52694  0.00430  1.0000
  N   N8        1.0  0.46880  0.92916  0.98683  1.0000
  N   N9        1.0  0.07504  0.54205  0.01771  1.0000
  N   N10       1.0  0.54136  0.46837  0.01928  1.0000
  N   N11       1.0  0.53073  0.07366  0.99979  1.0000
  N   N12       1.0  0.92930  0.45696  0.00426  1.0000
  N   N13       1.0  0.30871  0.67515  0.49645  1.0000
  N   N14       1.0  0.32419  0.63101  0.50970  1.0000
  N   N15       1.0  0.36808  0.68976  0.50007  1.0000
  N   N16       1.0  0.68998  0.32392  0.50817  1.0000
  N   N17       1.0  0.67660  0.36884  0.51059  1.0000
  N   N18       1.0  0.63065  0.30957  0.50442  1.0000
  N   N19       1.0  0.45981  0.53032  0.51269  1.0000
  N   N20       1.0  0.47029  0.92761  0.48779  1.0000
  N   N21       1.0  0.07205  0.54366  0.50589  1.0000
  N   N22       1.0  0.54696  0.47442  0.52059  1.0000
  N   N23       1.0  0.52854  0.07146  0.49349  1.0000
  N   N24       1.0  0.92802  0.45811  0.50501  1.0000
  C   C103      1.0  0.61480  0.44377  0.51853  1.0000
  C   C104      1.0  0.60612  0.40931  0.51984  1.0000
  C  Sn1       1.0  0.56993  0.38270  0.50395  1.0000
  C  Sn2       1.0  0.54197  0.39082  0.48639  1.0000
  C   C105      1.0  0.55093  0.42537  0.48509  1.0000
  C   C106      1.0  0.58723  0.45179  0.50115  1.0000
  H   H73       1.0  0.64288  0.46421  0.53084  1.0000
  O  Te1       1.0  0.56174  0.34842  0.50558  1.0000
  O  Te2       1.0  0.50558  0.36473  0.47022  1.0000
  H   H74       1.0  0.59393  0.47847  0.50000  1.0000
  Mg  Mg1       1.0  0.50810  0.32196  0.47961  1.0000
  C   C107      1.0  0.43973  0.82816  0.47715  1.0000
  C   C108      1.0  0.40692  0.80205  0.48973  1.0000
  C  Sn3       1.0  0.38066  0.80957  0.49209  1.0000
  C  Sn4       1.0  0.38745  0.84389  0.48160  1.0000
  C   C109      1.0  0.42035  0.86982  0.46892  1.0000
  C   C110      1.0  0.44644  0.86201  0.46672  1.0000
  H   H75       1.0  0.45991  0.82212  0.47534  1.0000
  O  Te3       1.0  0.34804  0.78318  0.50479  1.0000
  O  Te4       1.0  0.36168  0.85212  0.48363  1.0000
  H   H76       1.0  0.47183  0.88223  0.45685  1.0000
  Mg  Mg2       1.0  0.32137  0.80724  0.50270  1.0000
  C   C111      1.0  0.52593  0.99222  0.47789  1.0000
  C   C112      1.0  0.49354  0.96847  0.49944  1.0000
  C  Sn5       1.0  0.47038  0.97910  0.51088  1.0000
  C  Sn6       1.0  0.47988  0.01418  0.50046  1.0000
  C   C113      1.0  0.00566  0.03773  0.47876  1.0000
  C   C114      1.0  0.02865  0.02681  0.46752  1.0000
  H   H77       1.0  0.54370  0.98377  0.46909  1.0000
  O  Te5       1.0  0.43812  0.95504  0.53248  1.0000
  O  Te6       1.0  0.95055  0.02550  0.51144  1.0000
  H   H78       1.0  0.05371  0.04520  0.45071  1.0000
  Mg  Mg3       1.0  0.41619  0.98297  0.54069  1.0000
  C   C115      1.0  0.62404  0.18188  0.49610  1.0000
  C   C116      1.0  0.60560  0.19936  0.49308  1.0000
  C  Sn7       1.0  0.56940  0.18106  0.49054  1.0000
  C  Sn8       1.0  0.55140  0.14460  0.49109  1.0000
  C   C117      1.0  0.57010  0.12736  0.49425  1.0000
  C   C118      1.0  0.60632  0.14592  0.49672  1.0000
  H   H79       1.0  0.65207  0.19624  0.49811  1.0000
  O  Te7       1.0  0.55138  0.19892  0.48747  1.0000
  O  Te8       1.0  0.51524  0.12567  0.48867  1.0000
  H   H80       1.0  0.62060  0.13239  0.49918  1.0000
  Mg  Mg4       1.0  0.50223  0.16168  0.48487  1.0000
  C   C119      1.0  0.01879  0.48007  0.56937  1.0000
  C   C120      1.0  0.03366  0.51208  0.51113  1.0000
  C  Sn9       1.0  0.01275  0.52973  0.45048  1.0000
  C  Sn10      1.0  0.97628  0.51501  0.44830  1.0000
  C   C121      1.0  0.96167  0.48299  0.50697  1.0000
  C   C122      1.0  0.98283  0.46554  0.56734  1.0000
  H   H81       1.0  0.03517  0.46658  0.61618  1.0000
  O  Te9       1.0  0.02802  0.56167  0.39270  1.0000
  O  Te10      1.0  0.95478  0.53210  0.38842  1.0000
  H   H82       1.0  0.97133  0.44078  0.61254  1.0000
  Mg  Mg5       1.0  0.98783  0.57500  0.32304  1.0000
  C   C123      1.0  0.47472  0.46112  0.02468  1.0000
  C   C124      1.0  0.50759  0.47442  0.00209  1.0000
  C  Sn11      1.0  0.64030  0.54546  0.98617  1.0000
  C  Sn12      1.0  0.62690  0.56749  0.99309  1.0000
  C   C125      1.0  0.48113  0.51789  0.01586  1.0000
  C   C126      1.0  0.46150  0.48283  0.03159  1.0000
  H   H83       1.0  0.45954  0.43399  0.03696  1.0000
  O  Te11      1.0  0.67308  0.55833  0.96360  1.0000
  O  Te12      1.0  0.64619  0.60258  0.97760  1.0000
  H   H84       1.0  0.43606  0.47254  0.04921  1.0000
  Mg  Mg6       1.0  0.68948  0.60795  0.94872  1.0000
  C   C127      1.0  0.47712  0.46513  0.49888  1.0000
  C   C128      1.0  0.51292  0.48041  0.49920  1.0000
  C  Sn13      1.0  0.53550  0.51664  0.51432  1.0000
  C  Sn14      1.0  0.52191  0.53789  0.52943  1.0000
  C   C129      1.0  0.48606  0.52235  0.52912  1.0000
  C   C130      1.0  0.46370  0.48607  0.51386  1.0000
  H   H85       1.0  0.45982  0.43706  0.48719  1.0000
  O  Te13      1.0  0.57120  0.53149  0.51434  1.0000
  O  Te14      1.0  0.54390  0.57417  0.54479  1.0000
  H   H86       1.0  0.43599  0.47424  0.51375  1.0000
  Mg  Mg7       1.0  0.59062  0.58214  0.53833  1.0000
  C   C131      1.0  0.46541  0.99041  0.01446  1.0000
  C   C132      1.0  0.58881  0.00407  0.98636  1.0000
  C  Sn15      1.0  0.62231  0.01753  0.96870  1.0000
  C  Sn16      1.0  0.13898  0.05408  0.97948  1.0000
  C   C133      1.0  0.01535  0.04022  0.00777  1.0000
  C   C134      1.0  0.98175  0.02647  0.02519  1.0000
  H   H87       1.0  0.43943  0.97978  0.02805  1.0000
  O  Te15      1.0  0.63240  0.99479  0.94060  1.0000
  O  Te16      1.0  0.17262  0.06823  0.96237  1.0000
  H   H88       1.0  0.97363  0.04381  0.04707  1.0000
  Mg  Mg8       1.0  0.68091  0.02659  0.92551  1.0000
  C   C135      1.0  0.39263  0.55908  0.53487  1.0000
  C   C136      1.0  0.39956  0.59298  0.52986  1.0000
  C  Sn17      1.0  0.43008  0.61871  0.50123  1.0000
  C  Sn18      1.0  0.45406  0.61026  0.47716  1.0000
  C   C137      1.0  0.44687  0.57626  0.48226  1.0000
  C   C138      1.0  0.41626  0.55071  0.51106  1.0000
  H   H89       1.0  0.36893  0.53931  0.55704  1.0000
  O  Te17      1.0  0.43661  0.65246  0.49669  1.0000
  O  Te18      1.0  0.48476  0.63547  0.44824  1.0000
  H   H90       1.0  0.41089  0.52446  0.51480  1.0000
  Mg  Mg9       1.0  0.48204  0.67777  0.45334  1.0000
