data_image0
_chemical_formula_structural       H72C102N24SnCSn2CSnTe4Mg2SnCSn2CSnTe4Mg2SnCSn2CSnTe4Mg2SnCSn2CSnTe4Mg2SnCSn2CSnTe4Mg2SnCSn2CSnTe4Mg2SnCSn2CSnTe4Mg2SnCSn2CSnTe4Mg2SnCSn2CSnTe4Mg2
_chemical_formula_sum              "H72 C120 N24 Sn36 Te36 Mg18"
_cell_length_a       45.124
_cell_length_b       45.1101
_cell_length_c       8.19067
_cell_angle_alpha    83.3023
_cell_angle_beta     121.413
_cell_angle_gamma    120.453

_symmetry_space_group_name_H-M    'P1'
_space_group_IT_number       1

loop_
  _space_group_symop_operation_xyz
  'x, y, z'

loop_
  _atom_site_type_symbol
  _atom_site_label
  _atom_site_symmetry_multiplicity
  _atom_site_fract_x
  _atom_site_fract_y
  _atom_site_fract_z
  _atom_site_occupancy
  H   H1        1.0  0.26125  0.59008  0.99884  1.0000
  H   H2        1.0  0.41200  0.66937  0.00706  1.0000
  H   H3        1.0  0.33258  0.73978  0.00152  1.0000
  H   H4        1.0  0.74092  0.41187  0.99363  1.0000
  H   H5        1.0  0.59186  0.33103  0.00994  1.0000
  H   H6        1.0  0.66867  0.26127  0.98488  1.0000
  H   H7        1.0  0.24955  0.65094  0.01533  1.0000
  H   H8        1.0  0.34838  0.59465  0.98605  1.0000
  H   H9        1.0  0.40503  0.75494  0.98181  1.0000
  H   H10       1.0  0.75588  0.35184  0.01649  1.0000
  H   H11       1.0  0.64966  0.40532  0.99711  1.0000
  H   H12       1.0  0.59728  0.24765  0.01013  1.0000
  H   H13       1.0  0.44967  0.65154  0.01442  1.0000
  H   H14       1.0  0.65101  0.20647  0.97716  1.0000
  H   H15       1.0  0.48968  0.62756  0.03302  1.0000
  H   H16       1.0  0.62461  0.14296  0.95618  1.0000
  H   H17       1.0  0.39830  0.52430  0.99967  1.0000
  H   H18       1.0  0.52558  0.12698  0.98886  1.0000
  H   H19       1.0  0.35765  0.54826  0.98164  1.0000
  H   H20       1.0  0.55128  0.19106  0.00443  1.0000
  H   H21       1.0  0.49960  0.57979  0.04538  1.0000
  H   H22       1.0  0.41625  0.91470  0.98455  1.0000
  H   H23       1.0  0.08457  0.50273  0.98072  1.0000
  H   H24       1.0  0.49731  0.41481  0.96100  1.0000
  H   H25       1.0  0.57280  0.08432  0.92327  1.0000
  H   H26       1.0  0.91464  0.49551  0.97798  1.0000
  H   H27       1.0  0.43937  0.96806  0.02506  1.0000
  H   H28       1.0  0.03816  0.47049  0.02695  1.0000
  H   H29       1.0  0.56101  0.03523  0.97260  1.0000
  H   H30       1.0  0.96673  0.52812  0.99657  1.0000
  H   H31       1.0  0.46926  0.03172  0.02490  1.0000
  H   H32       1.0  0.97270  0.43550  0.01210  1.0000
  H   H33       1.0  0.53062  0.97132  0.96804  1.0000
  H   H34       1.0  0.03152  0.56273  0.00699  1.0000
  H   H35       1.0  0.26147  0.59019  0.52471  1.0000
  H   H36       1.0  0.40690  0.66644  0.48213  1.0000
  H   H37       1.0  0.33382  0.73978  0.51530  1.0000
  H   H38       1.0  0.74044  0.41016  0.50937  1.0000
  H   H39       1.0  0.59072  0.33245  0.51228  1.0000
  H   H40       1.0  0.66375  0.25925  0.48036  1.0000
  H   H41       1.0  0.24576  0.65002  0.49034  1.0000
  H   H42       1.0  0.35299  0.59482  0.54078  1.0000
  H   H43       1.0  0.40147  0.75155  0.46436  1.0000
  H   H44       1.0  0.75207  0.34904  0.49935  1.0000
  H   H45       1.0  0.65173  0.40629  0.50629  1.0000
  H   H46       1.0  0.59563  0.24685  0.52992  1.0000
  H   H47       1.0  0.44242  0.64971  0.47083  1.0000
  H   H48       1.0  0.34671  0.79283  0.47867  1.0000
  H   H49       1.0  0.79344  0.44716  0.49387  1.0000
  H   H50       1.0  0.48019  0.62627  0.45734  1.0000
  H   H51       1.0  0.37120  0.85584  0.48295  1.0000
  H   H52       1.0  0.85696  0.48617  0.49871  1.0000
  H   H53       1.0  0.40605  0.52714  0.55052  1.0000
  H   H54       1.0  0.47402  0.87267  0.48467  1.0000
  H   H55       1.0  0.87336  0.39996  0.51093  1.0000
  H   H56       1.0  0.36705  0.55029  0.56049  1.0000
  H   H57       1.0  0.44930  0.80898  0.47886  1.0000
  H   H58       1.0  0.80910  0.36017  0.50479  1.0000
  H   H59       1.0  0.49020  0.57973  0.45201  1.0000
  H   H60       1.0  0.41691  0.91237  0.47929  1.0000
  H   H61       1.0  0.08209  0.50387  0.48625  1.0000
  H   H62       1.0  0.50339  0.42088  0.47353  1.0000
  H   H63       1.0  0.57530  0.08473  0.44650  1.0000
  H   H64       1.0  0.91607  0.49702  0.51700  1.0000
  H   H65       1.0  0.43771  0.96474  0.51079  1.0000
  H   H66       1.0  0.04544  0.47801  0.60328  1.0000
  H   H67       1.0  0.56177  0.03476  0.47862  1.0000
  H   H68       1.0  0.95433  0.52382  0.40609  1.0000
  H   H69       1.0  0.46614  0.02818  0.50868  1.0000
  H   H70       1.0  0.98057  0.44243  0.59363  1.0000
  H   H71       1.0  0.53262  0.97095  0.47585  1.0000
  H   H72       1.0  0.01919  0.55946  0.41656  1.0000
  C   C1        1.0  0.34421  0.69934  0.99748  1.0000
  C   C2        1.0  0.30191  0.64282  0.99768  1.0000
  C   C3        1.0  0.35864  0.65745  0.00107  1.0000
  C   C4        1.0  0.65855  0.30252  0.00050  1.0000
  C   C5        1.0  0.70074  0.35936  0.00426  1.0000
  C   C6        1.0  0.64388  0.34400  0.00163  1.0000
  C   C7        1.0  0.26621  0.61630  0.00170  1.0000
  C   C8        1.0  0.38504  0.64775  0.00190  1.0000
  C   C9        1.0  0.35361  0.73541  0.99583  1.0000
  C   C10       1.0  0.73660  0.38590  0.00159  1.0000
  C   C11       1.0  0.61709  0.35274  0.00391  1.0000
  C   C12       1.0  0.64844  0.26624  0.99492  1.0000
  C   C13       1.0  0.24138  0.62365  0.01011  1.0000
  C   C14       1.0  0.37639  0.61426  0.99322  1.0000
  C   C15       1.0  0.38569  0.76181  0.98822  1.0000
  C   C16       1.0  0.76305  0.37874  0.00915  1.0000
  C   C17       1.0  0.62303  0.38533  0.99975  1.0000
  C   C18       1.0  0.61592  0.24028  0.99967  1.0000
  C   C19       1.0  0.40056  0.60165  0.99672  1.0000
  C   C20       1.0  0.60294  0.20349  0.99209  1.0000
  C   C21       1.0  0.43820  0.62370  0.01153  1.0000
  C   C22       1.0  0.62362  0.18939  0.98026  1.0000
  C   C23       1.0  0.46079  0.61027  0.02268  1.0000
  C   C24       1.0  0.60882  0.15370  0.96850  1.0000
  C   C25       1.0  0.44651  0.57418  0.01777  1.0000
  C   C26       1.0  0.57334  0.13090  0.97154  1.0000
  C   C27       1.0  0.40890  0.55201  0.00211  1.0000
  C   C28       1.0  0.55277  0.14483  0.98512  1.0000
  C   C29       1.0  0.38652  0.56549  0.99167  1.0000
  C   C30       1.0  0.56728  0.18038  0.99409  1.0000
  C   C31       1.0  0.46990  0.56029  0.02403  1.0000
  C   C32       1.0  0.43609  0.90715  0.98609  1.0000
  C   C33       1.0  0.09478  0.53068  0.00213  1.0000
  C   C34       1.0  0.52787  0.43517  0.99265  1.0000
  C   C35       1.0  0.55865  0.09368  0.96253  1.0000
  C   C36       1.0  0.90738  0.46851  0.99308  1.0000
  C   C37       1.0  0.48236  0.96481  0.98991  1.0000
  C   C38       1.0  0.03900  0.51926  0.01316  1.0000
  C   C39       1.0  0.51651  0.03789  0.99503  1.0000
  C   C40       1.0  0.96476  0.47890  0.00264  1.0000
  C   C41       1.0  0.46511  0.98221  0.00691  1.0000
  C   C42       1.0  0.02244  0.48316  0.01823  1.0000
  C   C43       1.0  0.53426  0.02064  0.98231  1.0000
  C   C44       1.0  0.98160  0.51506  0.99870  1.0000
  C   C45       1.0  0.48189  0.01792  0.00890  1.0000
  C   C46       1.0  0.98594  0.46345  0.01116  1.0000
  C   C47       1.0  0.51746  0.98495  0.97973  1.0000
  C   C48       1.0  0.01788  0.53469  0.00520  1.0000
  C   C49       1.0  0.34284  0.69802  0.49724  1.0000
  C   C50       1.0  0.30104  0.64193  0.50544  1.0000
  C   C51       1.0  0.35703  0.65584  0.50364  1.0000
  C   C52       1.0  0.65553  0.30112  0.50487  1.0000
  C   C53       1.0  0.69900  0.35754  0.50911  1.0000
  C   C54       1.0  0.64273  0.34378  0.50837  1.0000
  C   C55       1.0  0.26546  0.61599  0.51166  1.0000
  C   C56       1.0  0.38286  0.64589  0.50116  1.0000
  C   C57       1.0  0.35292  0.73435  0.49719  1.0000
  C   C58       1.0  0.73508  0.38379  0.50718  1.0000
  C   C59       1.0  0.61668  0.35373  0.50870  1.0000
  C   C60       1.0  0.64463  0.26462  0.49849  1.0000
  C   C61       1.0  0.23895  0.62329  0.50229  1.0000
  C   C62       1.0  0.37759  0.61361  0.52003  1.0000
  C   C63       1.0  0.38388  0.75953  0.48008  1.0000
  C   C64       1.0  0.76010  0.37627  0.50188  1.0000
  C   C65       1.0  0.62443  0.38690  0.50671  1.0000
  C   C66       1.0  0.61312  0.23913  0.51154  1.0000
  C   C67       1.0  0.40153  0.60159  0.51497  1.0000
  C   C68       1.0  0.39642  0.79622  0.48000  1.0000
  C   C69       1.0  0.79659  0.40061  0.50016  1.0000
  C   C70       1.0  0.43419  0.62289  0.48846  1.0000
  C   C71       1.0  0.37451  0.81005  0.47961  1.0000
  C   C72       1.0  0.81059  0.43652  0.49683  1.0000
  C   C73       1.0  0.45553  0.60979  0.48136  1.0000
  C   C74       1.0  0.38820  0.84540  0.48147  1.0000
  C   C75       1.0  0.84638  0.45848  0.50028  1.0000
  C   C76       1.0  0.44530  0.57499  0.50162  1.0000
  C   C77       1.0  0.42431  0.86846  0.48420  1.0000
  C   C78       1.0  0.86956  0.44563  0.50569  1.0000
  C   C79       1.0  0.41323  0.55373  0.53170  1.0000
  C   C80       1.0  0.44644  0.85490  0.48492  1.0000
  C   C81       1.0  0.85550  0.40978  0.50746  1.0000
  C   C82       1.0  0.39175  0.56682  0.53704  1.0000
  C   C83       1.0  0.43251  0.81949  0.48153  1.0000
  C   C84       1.0  0.81981  0.38789  0.50393  1.0000
  C   C85       1.0  0.46751  0.56174  0.48802  1.0000
  C   C86       1.0  0.43729  0.90525  0.48417  1.0000
  C   C87       1.0  0.09241  0.53191  0.49925  1.0000
  C   C88       1.0  0.53339  0.44115  0.49820  1.0000
  C   C89       1.0  0.55837  0.09274  0.47084  1.0000
  C   C90       1.0  0.90689  0.46923  0.50840  1.0000
  C   C91       1.0  0.48297  0.96306  0.48907  1.0000
  C   C92       1.0  0.03667  0.52138  0.50697  1.0000
  C   C93       1.0  0.51547  0.03594  0.49149  1.0000
  C   C94       1.0  0.96315  0.48046  0.50204  1.0000
  C   C95       1.0  0.46419  0.97956  0.49854  1.0000
  C   C96       1.0  0.02535  0.48795  0.55706  1.0000
  C   C97       1.0  0.53461  0.01958  0.48563  1.0000
  C   C98       1.0  0.97430  0.51380  0.45091  1.0000
  C   C99       1.0  0.48015  0.01518  0.49925  1.0000
  C   C100      1.0  0.98929  0.46801  0.55267  1.0000
  C   C101      1.0  0.51853  0.98395  0.48408  1.0000
  C   C102      1.0  0.01043  0.53379  0.45592  1.0000
  N   N1        1.0  0.30973  0.67608  0.99373  1.0000
  N   N2        1.0  0.32494  0.63211  0.99865  1.0000
  N   N3        1.0  0.37013  0.69151  0.00389  1.0000
  N   N4        1.0  0.69306  0.32611  0.00708  1.0000
  N   N5        1.0  0.67734  0.36971  0.00287  1.0000
  N   N6        1.0  0.63275  0.31003  0.99723  1.0000
  N   N7        1.0  0.45595  0.52694  0.00430  1.0000
  N   N8        1.0  0.46880  0.92916  0.98683  1.0000
  N   N9        1.0  0.07504  0.54205  0.01771  1.0000
  N   N10       1.0  0.54136  0.46837  0.01928  1.0000
  N   N11       1.0  0.53073  0.07366  0.99979  1.0000
  N   N12       1.0  0.92930  0.45696  0.00426  1.0000
  N   N13       1.0  0.30871  0.67515  0.49645  1.0000
  N   N14       1.0  0.32419  0.63101  0.50970  1.0000
  N   N15       1.0  0.36808  0.68976  0.50007  1.0000
  N   N16       1.0  0.68998  0.32392  0.50817  1.0000
  N   N17       1.0  0.67660  0.36884  0.51059  1.0000
  N   N18       1.0  0.63065  0.30957  0.50442  1.0000
  N   N19       1.0  0.45981  0.53032  0.51269  1.0000
  N   N20       1.0  0.47029  0.92761  0.48779  1.0000
  N   N21       1.0  0.07205  0.54366  0.50589  1.0000
  N   N22       1.0  0.54696  0.47442  0.52059  1.0000
  N   N23       1.0  0.52854  0.07146  0.49349  1.0000
  N   N24       1.0  0.92802  0.45811  0.50501  1.0000
  C  Sn1       1.0  0.16701  0.54673  0.56543  1.0000
  C   C103      1.0  0.14047  0.55524  0.55620  1.0000
  C  Sn2       1.0  0.14261  0.58646  0.50179  1.0000
  C  Sn3       1.0  0.17189  0.60965  0.45551  1.0000
  C   C104      1.0  0.19841  0.60113  0.46472  1.0000
  C  Sn4       1.0  0.19629  0.56992  0.51916  1.0000
  O  Te1       1.0  0.16432  0.51538  0.62018  1.0000
  O  Te2       1.0  0.11576  0.59441  0.49368  1.0000
  O  Te3       1.0  0.17456  0.64101  0.40075  1.0000
  O  Te4       1.0  0.22312  0.56197  0.52725  1.0000
  Mg  Mg1       1.0  0.13132  0.64022  0.41110  1.0000
  Mg  Mg2       1.0  0.20757  0.51615  0.60970  1.0000
  C  Sn5       1.0  0.17502  0.55484  0.93732  1.0000
  C   C105      1.0  0.19569  0.59135  0.95849  1.0000
  C  Sn6       1.0  0.07387  0.57492  0.02521  1.0000
  C  Sn7       1.0  0.04362  0.55770  0.07188  1.0000
  C   C106      1.0  0.02297  0.52121  0.05074  1.0000
  C  Sn8       1.0  0.14477  0.53762  0.98399  1.0000
  O  Te5       1.0  0.18447  0.53575  0.87038  1.0000
  O  Te6       1.0  0.09494  0.61139  0.04513  1.0000
  O  Te7       1.0  0.03418  0.57682  0.13886  1.0000
  O  Te8       1.0  0.12373  0.50117  0.96410  1.0000
  Mg  Mg3       1.0  0.07122  0.62592  0.14185  1.0000
  Mg  Mg4       1.0  0.14744  0.48661  0.86750  1.0000
  C  Sn9       1.0  0.53743  0.52503  0.05682  1.0000
  C   C107      1.0  0.52652  0.49013  0.06620  1.0000
  C  Sn10      1.0  0.48752  0.46476  0.02511  1.0000
  C  Sn11      1.0  0.57167  0.51053  0.97346  1.0000
  C   C108      1.0  0.58257  0.54541  0.96407  1.0000
  C  Sn12      1.0  0.50871  0.53475  0.00517  1.0000
  O  Te9       1.0  0.57659  0.54995  0.09847  1.0000
  O  Te10      1.0  0.47733  0.43004  0.03552  1.0000
  O  Te11      1.0  0.53248  0.48557  0.93180  1.0000
  O  Te12      1.0  0.63177  0.60550  0.99475  1.0000
  Mg  Mg5       1.0  0.53305  0.44166  0.96566  1.0000
  Mg  Mg6       1.0  0.57602  0.59389  0.06448  1.0000
  C  Sn13      1.0  0.61558  0.43901  0.07965  1.0000
  C   C109      1.0  0.60510  0.40417  0.05593  1.0000
  C  Sn14      1.0  0.67780  0.41271  0.98442  1.0000
  C  Sn15      1.0  0.64746  0.42017  0.93549  1.0000
  C   C110      1.0  0.65794  0.45498  0.95918  1.0000
  C  Sn16      1.0  0.58524  0.44647  0.03071  1.0000
  O  Te13      1.0  0.65592  0.46610  0.15137  1.0000
  O  Te14      1.0  0.66807  0.37810  0.96203  1.0000
  O  Te15      1.0  0.60710  0.39304  0.86373  1.0000
  O  Te16      1.0  0.59497  0.48106  0.05308  1.0000
  Mg  Mg7       1.0  0.60888  0.35023  0.85887  1.0000
  Mg  Mg8       1.0  0.65415  0.50895  0.15613  1.0000
  C  Sn17      1.0  0.47335  0.46578  0.43610  1.0000
  C   C111      1.0  0.51133  0.48218  0.45689  1.0000
  C  Sn18      1.0  0.53820  0.51843  0.52410  1.0000
  C  Sn19      1.0  0.52689  0.53870  0.57164  1.0000
  C   C112      1.0  0.48894  0.52230  0.55089  1.0000
  C  Sn20      1.0  0.46204  0.48605  0.48365  1.0000
  O  Te17      1.0  0.44697  0.42950  0.36867  1.0000
  O  Te18      1.0  0.57599  0.53424  0.54361  1.0000
  O  Te19      1.0  0.55331  0.57500  0.63911  1.0000
  O  Te20      1.0  0.42427  0.47024  0.46416  1.0000
  Mg  Mg9       1.0  0.60142  0.58446  0.64127  1.0000
  Mg  Mg10      1.0  0.39883  0.42002  0.36662  1.0000
  C  Sn21      1.0  0.61936  0.44256  0.58136  1.0000
  C   C113      1.0  0.60795  0.40738  0.56217  1.0000
  C  Sn22      1.0  0.56763  0.38064  0.49420  1.0000
  C  Sn23      1.0  0.53809  0.38923  0.44425  1.0000
  C   C114      1.0  0.54951  0.42438  0.46341  1.0000
  C  Sn24      1.0  0.58983  0.45115  0.53141  1.0000
  O  Te21      1.0  0.65984  0.46886  0.64960  1.0000
  O  Te22      1.0  0.55695  0.34567  0.47631  1.0000
  O  Te23      1.0  0.49759  0.36289  0.37597  1.0000
  O  Te24      1.0  0.60051  0.48610  0.54928  1.0000
  Mg  Mg11      1.0  0.49795  0.31917  0.37670  1.0000
  Mg  Mg12      1.0  0.65949  0.51261  0.64877  1.0000
  C  Sn25      1.0  0.61473  0.18043  0.43240  1.0000
  C   C115      1.0  0.59791  0.19783  0.44952  1.0000
  C  Sn26      1.0  0.56877  0.18125  0.49969  1.0000
  C  Sn27      1.0  0.55620  0.14655  0.53357  1.0000
  C   C116      1.0  0.57302  0.12917  0.51648  1.0000
  C  Sn28      1.0  0.60215  0.14573  0.46628  1.0000
  O  Te25      1.0  0.64381  0.19751  0.38210  1.0000
  O  Te26      1.0  0.55239  0.19919  0.51587  1.0000
  O  Te27      1.0  0.52709  0.12948  0.58390  1.0000
  O  Te28      1.0  0.61854  0.12781  0.45014  1.0000
  Mg  Mg13      1.0  0.51370  0.16481  0.58806  1.0000
  Mg  Mg14      1.0  0.65724  0.16217  0.37805  1.0000
  C  Sn29      1.0  0.95703  0.43774  0.95680  1.0000
  C   C117      1.0  0.97523  0.47348  0.95191  1.0000
  C  Sn30      1.0  0.96404  0.49389  0.99424  1.0000
  C  Sn31      1.0  0.82117  0.44220  0.04258  1.0000
  C   C118      1.0  0.80300  0.40648  0.04748  1.0000
  C  Sn32      1.0  0.81417  0.38605  0.00514  1.0000
  O  Te29      1.0  0.96869  0.41784  0.91398  1.0000
  O  Te30      1.0  0.98265  0.52957  0.98834  1.0000
  O  Te31      1.0  0.80952  0.46214  0.08540  1.0000
  O  Te32      1.0  0.79558  0.35039  0.01106  1.0000
  Mg  Mg15      1.0  0.84363  0.50967  0.05812  1.0000
  Mg  Mg16      1.0  0.93459  0.37028  0.94140  1.0000
  C  Sn33      1.0  0.36852  0.81654  0.93054  1.0000
  C   C119      1.0  0.38728  0.79943  0.93319  1.0000
  C  Sn34      1.0  0.42750  0.81874  0.97974  1.0000
  C  Sn35      1.0  0.33656  0.81989  0.02471  1.0000
  C   C120      1.0  0.31780  0.83699  0.02208  1.0000
  C  Sn36      1.0  0.39045  0.85374  0.97551  1.0000
  O  Te33      1.0  0.32828  0.79671  0.88360  1.0000
  O  Te34      1.0  0.44560  0.80105  0.98137  1.0000
  O  Te35      1.0  0.37682  0.83973  0.07166  1.0000
  O  Te36      1.0  0.37235  0.87142  0.97390  1.0000
  Mg  Mg17      1.0  0.38821  0.80360  0.05444  1.0000
  Mg  Mg18      1.0  0.31688  0.83284  0.90095  1.0000
