data_image0
_chemical_formula_structural       H64C112N24SnCSn2CSnTe4Mg2SnCSn2CSnTe4Mg2SnCSn2CSnTe4Mg2SnCSn2CSnTe4Mg2SnCSn2CSnTe4Mg2SnCSn2CSnTe4Mg2SnCSn2CSnTe4Mg2SnCSn2CSnTe4Mg2SnCSn2CSnTe4Mg2SnCSn2CSnTe4Mg2SnCSn2CSnTe4Mg2SnCSn2CSnTe4Mg2SnCSn2CSnTe4Mg2SnCSn2CSnTe4Mg2SnCSn2CSnTe4Mg2SnCSn2CSnTe4Mg2SnCSn2CSnTe4Mg2SnCSn2CSnTe4Mg2SnCSn2CSnTe4Mg2SnCSn2CSnTe4Mg2SnCSn2CSnTe4Mg2SnCSn2CSnTe4Mg2SnCSn2CSnTe4Mg2SnCSn2CSnTe4Mg2
_chemical_formula_sum              "H64 C160 N24 Sn96 Te96 Mg48"
_cell_length_a       35.9206
_cell_length_b       41.9674
_cell_length_c       8.21407
_cell_angle_alpha    90.8987
_cell_angle_beta     90.8656
_cell_angle_gamma    89.9295

_symmetry_space_group_name_H-M    'P1'
_space_group_IT_number       1

loop_
  _space_group_symop_operation_xyz
  'x, y, z'

loop_
  _atom_site_type_symbol
  _atom_site_label
  _atom_site_symmetry_multiplicity
  _atom_site_fract_x
  _atom_site_fract_y
  _atom_site_fract_z
  _atom_site_occupancy
  H   H1        1.0  0.42763  0.99547  0.11119  1.0000
  H   H2        1.0  0.57338  0.00473  0.11517  1.0000
  H   H3        1.0  0.57367  0.99706  0.38343  1.0000
  H   H4        1.0  0.42817  0.00347  0.37596  1.0000
  H   H5        1.0  0.38417  0.95116  0.04908  1.0000
  H   H6        1.0  0.61604  0.04885  0.05124  1.0000
  H   H7        1.0  0.61804  0.95367  0.44688  1.0000
  H   H8        1.0  0.38347  0.04690  0.43481  1.0000
  H   H9        1.0  0.46794  0.88220  0.17771  1.0000
  H   H10       1.0  0.53460  0.11825  0.19985  1.0000
  H   H11       1.0  0.53958  0.88314  0.27225  1.0000
  H   H12       1.0  0.46400  0.11749  0.30368  1.0000
  H   H13       1.0  0.29552  0.81424  0.21363  1.0000
  H   H14       1.0  0.70571  0.18676  0.18327  1.0000
  H   H15       1.0  0.71808  0.82179  0.36219  1.0000
  H   H16       1.0  0.28476  0.17843  0.36923  1.0000
  H   H17       1.0  0.24000  0.64940  0.40875  1.0000
  H   H18       1.0  0.76309  0.34559  0.39812  1.0000
  H   H19       1.0  0.76571  0.65355  0.12273  1.0000
  H   H20       1.0  0.23591  0.34592  0.11842  1.0000
  H   H21       1.0  0.94255  0.40086  0.04012  1.0000
  H   H22       1.0  0.05570  0.59809  0.04308  1.0000
  H   H23       1.0  0.05377  0.40109  0.44997  1.0000
  H   H24       1.0  0.94706  0.59999  0.45339  1.0000
  H   H25       1.0  0.99445  0.43694  0.11689  1.0000
  H   H26       1.0  0.00456  0.56133  0.11234  1.0000
  H   H27       1.0  0.00328  0.43913  0.37749  1.0000
  H   H28       1.0  0.99744  0.56219  0.37866  1.0000
  H   H29       1.0  0.86219  0.47145  0.18601  1.0000
  H   H30       1.0  0.13778  0.52957  0.19691  1.0000
  H   H31       1.0  0.13727  0.46955  0.32519  1.0000
  H   H32       1.0  0.86356  0.53216  0.29800  1.0000
  H   H33       1.0  0.42689  0.99561  0.61540  1.0000
  H   H34       1.0  0.57479  0.00313  0.62530  1.0000
  H   H35       1.0  0.57433  0.99435  0.88464  1.0000
  H   H36       1.0  0.42884  0.00365  0.87968  1.0000
  H   H37       1.0  0.38191  0.95220  0.56418  1.0000
  H   H38       1.0  0.61806  0.04688  0.56259  1.0000
  H   H39       1.0  0.61692  0.94965  0.95012  1.0000
  H   H40       1.0  0.38450  0.04736  0.93516  1.0000
  H   H41       1.0  0.46309  0.88222  0.70893  1.0000
  H   H42       1.0  0.53615  0.11696  0.69738  1.0000
  H   H43       1.0  0.53492  0.88124  0.78621  1.0000
  H   H44       1.0  0.46525  0.11709  0.79591  1.0000
  H   H45       1.0  0.28861  0.81543  0.69007  1.0000
  H   H46       1.0  0.70779  0.18577  0.68563  1.0000
  H   H47       1.0  0.70692  0.81140  0.81076  1.0000
  H   H48       1.0  0.28760  0.18014  0.83388  1.0000
  H   H49       1.0  0.22919  0.65729  0.88527  1.0000
  H   H50       1.0  0.76296  0.34726  0.88197  1.0000
  H   H51       1.0  0.77171  0.65709  0.63836  1.0000
  H   H52       1.0  0.22380  0.33766  0.64147  1.0000
  H   H53       1.0  0.94517  0.39952  0.55370  1.0000
  H   H54       1.0  0.05775  0.59695  0.53244  1.0000
  H   H55       1.0  0.05366  0.40235  0.96769  1.0000
  H   H56       1.0  0.94484  0.59928  0.95926  1.0000
  H   H57       1.0  0.99606  0.43707  0.62135  1.0000
  H   H58       1.0  0.00599  0.56177  0.61301  1.0000
  H   H59       1.0  0.00365  0.43927  0.88405  1.0000
  H   H60       1.0  0.99595  0.56311  0.87744  1.0000
  H   H61       1.0  0.86298  0.47003  0.67970  1.0000
  H   H62       1.0  0.13855  0.52883  0.70124  1.0000
  H   H63       1.0  0.13724  0.47028  0.83485  1.0000
  H   H64       1.0  0.86275  0.53048  0.80085  1.0000
  C   C1        1.0  0.53114  0.96447  0.29505  1.0000
  C   C2        1.0  0.47136  0.03597  0.30363  1.0000
  C   C3        1.0  0.47237  0.96389  0.18243  1.0000
  C   C4        1.0  0.52963  0.03658  0.19353  1.0000
  C   C5        1.0  0.48398  0.93170  0.19868  1.0000
  C   C6        1.0  0.51843  0.06879  0.21705  1.0000
  C   C7        1.0  0.52126  0.93208  0.26587  1.0000
  C   C8        1.0  0.48153  0.06840  0.28366  1.0000
  C   C9        1.0  0.43662  0.97105  0.12512  1.0000
  C   C10       1.0  0.56470  0.02920  0.13280  1.0000
  C   C11       1.0  0.56598  0.97245  0.36079  1.0000
  C   C12       1.0  0.43621  0.02807  0.36076  1.0000
  C   C13       1.0  0.41226  0.94586  0.09208  1.0000
  C   C14       1.0  0.58855  0.05425  0.09815  1.0000
  C   C15       1.0  0.59089  0.94784  0.39412  1.0000
  C   C16       1.0  0.41118  0.05273  0.39259  1.0000
  C   C17       1.0  0.42269  0.91366  0.11239  1.0000
  C   C18       1.0  0.57831  0.08650  0.12168  1.0000
  C   C19       1.0  0.58210  0.91545  0.36309  1.0000
  C   C20       1.0  0.42055  0.08517  0.37367  1.0000
  C   C21       1.0  0.45935  0.90681  0.16082  1.0000
  C   C22       1.0  0.54269  0.09353  0.17932  1.0000
  C   C23       1.0  0.54670  0.90784  0.30023  1.0000
  C   C24       1.0  0.45641  0.09272  0.32182  1.0000
  C   C25       1.0  0.31474  0.81205  0.11101  1.0000
  C   C26       1.0  0.68363  0.18923  0.09021  1.0000
  C   C27       1.0  0.69152  0.81571  0.41887  1.0000
  C   C28       1.0  0.31170  0.18535  0.42437  1.0000
  C   C29       1.0  0.21583  0.65746  0.47918  1.0000
  C   C30       1.0  0.78522  0.33913  0.48564  1.0000
  C   C31       1.0  0.78752  0.66053  0.03763  1.0000
  C   C32       1.0  0.21428  0.34006  0.02659  1.0000
  C   C33       1.0  0.89900  0.43366  0.10765  1.0000
  C   C34       1.0  0.10006  0.56638  0.11504  1.0000
  C   C35       1.0  0.09871  0.43283  0.39265  1.0000
  C   C36       1.0  0.90208  0.56876  0.38012  1.0000
  C   C37       1.0  0.93658  0.42454  0.08874  1.0000
  C   C38       1.0  0.06220  0.57483  0.09293  1.0000
  C   C39       1.0  0.06074  0.42459  0.40558  1.0000
  C   C40       1.0  0.94008  0.57669  0.40178  1.0000
  C   C41       1.0  0.96600  0.44492  0.12853  1.0000
  C   C42       1.0  0.03329  0.55427  0.12958  1.0000
  C   C43       1.0  0.03222  0.44569  0.36611  1.0000
  C   C44       1.0  0.96854  0.55552  0.36278  1.0000
  C   C45       1.0  0.95764  0.47537  0.18779  1.0000
  C   C46       1.0  0.04245  0.52463  0.19277  1.0000
  C   C47       1.0  0.04204  0.47535  0.30689  1.0000
  C   C48       1.0  0.95870  0.52558  0.30050  1.0000
  C   C49       1.0  0.92005  0.48518  0.20776  1.0000
  C   C50       1.0  0.08021  0.51554  0.21888  1.0000
  C   C51       1.0  0.07995  0.48429  0.29006  1.0000
  C   C52       1.0  0.92075  0.51694  0.27707  1.0000
  C   C53       1.0  0.89096  0.46434  0.16643  1.0000
  C   C54       1.0  0.10884  0.53632  0.17675  1.0000
  C   C55       1.0  0.10812  0.46312  0.33727  1.0000
  C   C56       1.0  0.89264  0.53852  0.31820  1.0000
  C   C57       1.0  0.53002  0.96292  0.80192  1.0000
  C   C58       1.0  0.47220  0.03561  0.80443  1.0000
  C   C59       1.0  0.47085  0.96357  0.69213  1.0000
  C   C60       1.0  0.53065  0.03531  0.69649  1.0000
  C   C61       1.0  0.48109  0.93120  0.71471  1.0000
  C   C62       1.0  0.51970  0.06770  0.71658  1.0000
  C   C63       1.0  0.51859  0.93077  0.77851  1.0000
  C   C64       1.0  0.48267  0.06786  0.78199  1.0000
  C   C65       1.0  0.43518  0.97116  0.63457  1.0000
  C   C66       1.0  0.56603  0.02766  0.63977  1.0000
  C   C67       1.0  0.56539  0.96997  0.86523  1.0000
  C   C68       1.0  0.43704  0.02812  0.86239  1.0000
  C   C69       1.0  0.40982  0.94642  0.60761  1.0000
  C   C70       1.0  0.59034  0.05252  0.60633  1.0000
  C   C71       1.0  0.58933  0.94468  0.89940  1.0000
  C   C72       1.0  0.41221  0.05296  0.89248  1.0000
  C   C73       1.0  0.41906  0.91415  0.63408  1.0000
  C   C74       1.0  0.58022  0.08489  0.62594  1.0000
  C   C75       1.0  0.57904  0.91259  0.87062  1.0000
  C   C76       1.0  0.42172  0.08524  0.86982  1.0000
  C   C77       1.0  0.45541  0.90680  0.68470  1.0000
  C   C78       1.0  0.54429  0.09219  0.67891  1.0000
  C   C79       1.0  0.54312  0.90579  0.81214  1.0000
  C   C80       1.0  0.45758  0.09244  0.81694  1.0000
  C   C81       1.0  0.31152  0.81226  0.60394  1.0000
  C   C82       1.0  0.68538  0.18780  0.59357  1.0000
  C   C83       1.0  0.68552  0.81044  0.90492  1.0000
  C   C84       1.0  0.31269  0.18576  0.90734  1.0000
  C   C85       1.0  0.20818  0.66320  0.97701  1.0000
  C   C86       1.0  0.78326  0.34153  0.97884  1.0000
  C   C87       1.0  0.79129  0.66281  0.54126  1.0000
  C   C88       1.0  0.20815  0.33577  0.52549  1.0000
  C   C89       1.0  0.90054  0.43227  0.60957  1.0000
  C   C90       1.0  0.10163  0.56527  0.60996  1.0000
  C   C91       1.0  0.09907  0.43363  0.90761  1.0000
  C   C92       1.0  0.90040  0.56738  0.88622  1.0000
  C   C93       1.0  0.93841  0.42353  0.59542  1.0000
  C   C94       1.0  0.06391  0.57407  0.58698  1.0000
  C   C95       1.0  0.06101  0.42549  0.91983  1.0000
  C   C96       1.0  0.93827  0.57606  0.90568  1.0000
  C   C97       1.0  0.96737  0.44464  0.63178  1.0000
  C   C98       1.0  0.03461  0.55431  0.62908  1.0000
  C   C99       1.0  0.03250  0.44618  0.87446  1.0000
  C   C100      1.0  0.96726  0.55565  0.86305  1.0000
  C   C101      1.0  0.95836  0.47530  0.68680  1.0000
  C   C102      1.0  0.04313  0.52473  0.69463  1.0000
  C   C103      1.0  0.04209  0.47576  0.81287  1.0000
  C   C104      1.0  0.95821  0.52561  0.79937  1.0000
  C   C105      1.0  0.92052  0.48458  0.70556  1.0000
  C   C106      1.0  0.08075  0.51544  0.72236  1.0000
  C   C107      1.0  0.08006  0.48455  0.79710  1.0000
  C   C108      1.0  0.92040  0.51635  0.77575  1.0000
  C   C109      1.0  0.89196  0.46319  0.66408  1.0000
  C   C110      1.0  0.10973  0.53563  0.67814  1.0000
  C   C111      1.0  0.10817  0.46368  0.84756  1.0000
  C   C112      1.0  0.89176  0.53721  0.82076  1.0000
  N   N1        1.0  0.31348  0.78825  0.00898  1.0000
  N   N2        1.0  0.68092  0.21390  0.99822  1.0000
  N   N3        1.0  0.68616  0.78868  0.48859  1.0000
  N   N4        1.0  0.31791  0.21376  0.48165  1.0000
  N   N5        1.0  0.20698  0.69030  0.05434  1.0000
  N   N6        1.0  0.78284  0.31539  0.05983  1.0000
  N   N7        1.0  0.79066  0.68896  0.46016  1.0000
  N   N8        1.0  0.21250  0.31253  0.42228  1.0000
  N   N9        1.0  0.50133  0.98370  0.24215  1.0000
  N   N10       1.0  0.50087  0.01676  0.24761  1.0000
  N   N11       1.0  0.98093  0.50018  0.24537  1.0000
  N   N12       1.0  0.01953  0.49996  0.24661  1.0000
  N   N13       1.0  0.31461  0.78724  0.51073  1.0000
  N   N14       1.0  0.68241  0.21230  0.50051  1.0000
  N   N15       1.0  0.68365  0.78712  0.00560  1.0000
  N   N16       1.0  0.31761  0.21298  0.98081  1.0000
  N   N17       1.0  0.21212  0.68610  0.53737  1.0000
  N   N18       1.0  0.78673  0.31194  0.55736  1.0000
  N   N19       1.0  0.78896  0.68811  0.96999  1.0000
  N   N20       1.0  0.21345  0.31351  0.94412  1.0000
  N   N21       1.0  0.50097  0.98280  0.74601  1.0000
  N   N22       1.0  0.50151  0.01592  0.75115  1.0000
  N   N23       1.0  0.98110  0.50064  0.74281  1.0000
  N   N24       1.0  0.01979  0.50043  0.75051  1.0000
  C  Sn1       1.0  0.38743  0.83465  0.04770  1.0000
  C   C113      1.0  0.35244  0.83454  0.11978  1.0000
  C  Sn2       1.0  0.33622  0.86303  0.17322  1.0000
  C  Sn3       1.0  0.35536  0.89224  0.15413  1.0000
  C   C114      1.0  0.39033  0.89234  0.08206  1.0000
  C  Sn4       1.0  0.40657  0.86386  0.02861  1.0000
  O  Te1       1.0  0.40656  0.80895  0.99516  1.0000
  O  Te2       1.0  0.30121  0.86232  0.24497  1.0000
  O  Te3       1.0  0.33964  0.92102  0.20674  1.0000
  O  Te4       1.0  0.44500  0.86763  0.95687  1.0000
  Mg  Mg1       1.0  0.29139  0.90776  0.29698  1.0000
  Mg  Mg2       1.0  0.45484  0.82221  0.90475  1.0000
  C  Sn5       1.0  0.64459  0.11694  0.21268  1.0000
  C   C115      1.0  0.60913  0.11504  0.14081  1.0000
  C  Sn6       1.0  0.59828  0.13661  0.02128  1.0000
  C  Sn7       1.0  0.62684  0.16364  0.97248  1.0000
  C   C116      1.0  0.65882  0.16246  0.04432  1.0000
  C  Sn8       1.0  0.66970  0.14090  0.16389  1.0000
  O  Te5       1.0  0.65485  0.09512  0.33194  1.0000
  O  Te6       1.0  0.56613  0.13731  0.95122  1.0000
  O  Te7       1.0  0.61655  0.18547  0.85313  1.0000
  O  Te8       1.0  0.70528  0.14326  0.23390  1.0000
  Mg  Mg3       1.0  0.56508  0.17253  0.79366  1.0000
  Mg  Mg4       1.0  0.70636  0.10804  0.39141  1.0000
  C  Sn9       1.0  0.61610  0.83660  0.42107  1.0000
  C   C117      1.0  0.65358  0.83729  0.37795  1.0000
  C  Sn10      1.0  0.67127  0.86629  0.35048  1.0000
  C  Sn11      1.0  0.65110  0.89521  0.36654  1.0000
  C   C118      1.0  0.61366  0.89452  0.40966  1.0000
  C  Sn12      1.0  0.59593  0.86553  0.43713  1.0000
  O  Te9       1.0  0.59898  0.80733  0.44797  1.0000
  O  Te10      1.0  0.70876  0.86637  0.30743  1.0000
  O  Te11      1.0  0.66827  0.92449  0.33959  1.0000
  O  Te12      1.0  0.55848  0.86544  0.48017  1.0000
  Mg  Mg5       1.0  0.71979  0.91225  0.28353  1.0000
  Mg  Mg6       1.0  0.54742  0.81957  0.50419  1.0000
  C  Sn13      1.0  0.38658  0.16387  0.44747  1.0000
  C   C119      1.0  0.34940  0.16359  0.39476  1.0000
  C  Sn14      1.0  0.33173  0.13484  0.35454  1.0000
  C  Sn15      1.0  0.35162  0.10575  0.36737  1.0000
  C   C120      1.0  0.38877  0.10603  0.42008  1.0000
  C  Sn16      1.0  0.40647  0.13478  0.46030  1.0000
  O  Te13      1.0  0.40368  0.19289  0.48705  1.0000
  O  Te14      1.0  0.29455  0.13517  0.30209  1.0000
  O  Te15      1.0  0.33448  0.07671  0.32774  1.0000
  O  Te16      1.0  0.44362  0.13446  0.51275  1.0000
  Mg  Mg7       1.0  0.28342  0.08949  0.26227  1.0000
  Mg  Mg8       1.0  0.45477  0.18012  0.55269  1.0000
  C  Sn17      1.0  0.25025  0.76143  0.15486  1.0000
  C   C121      1.0  0.28391  0.76254  0.07205  1.0000
  C  Sn18      1.0  0.29566  0.74255  0.95350  1.0000
  C  Sn19      1.0  0.26976  0.71789  0.91686  1.0000
  C   C122      1.0  0.23612  0.71679  0.99962  1.0000
  C  Sn20      1.0  0.22435  0.73676  0.11822  1.0000
  O  Te17      1.0  0.24253  0.78472  0.27291  1.0000
  O  Te18      1.0  0.32950  0.74416  0.87238  1.0000
  O  Te19      1.0  0.27750  0.69459  0.79871  1.0000
  O  Te20      1.0  0.19053  0.73517  0.19930  1.0000
  Mg  Mg9       1.0  0.32729  0.70695  0.72138  1.0000
  Mg  Mg10      1.0  0.19270  0.77238  0.35025  1.0000
  C  Sn21      1.0  0.70770  0.27066  0.88880  1.0000
  C   C123      1.0  0.71173  0.24116  0.96373  1.0000
  C  Sn22      1.0  0.73405  0.23423  0.09098  1.0000
  C  Sn23      1.0  0.75624  0.26040  0.14455  1.0000
  C   C124      1.0  0.75220  0.28988  0.06966  1.0000
  C  Sn24      1.0  0.72989  0.29683  0.94236  1.0000
  O  Te21      1.0  0.68177  0.27398  0.76181  1.0000
  O  Te22      1.0  0.73758  0.20451  0.16396  1.0000
  O  Te23      1.0  0.78219  0.25706  0.27164  1.0000
  O  Te24      1.0  0.72635  0.32653  0.86942  1.0000
  Mg  Mg11      1.0  0.77677  0.21187  0.33242  1.0000
  Mg  Mg12      1.0  0.68717  0.31920  0.70102  1.0000
  C  Sn25      1.0  0.77279  0.75110  0.41701  1.0000
  C   C125      1.0  0.77030  0.72257  0.50162  1.0000
  C  Sn26      1.0  0.73680  0.71365  0.57197  1.0000
  C  Sn27      1.0  0.70511  0.73365  0.55737  1.0000
  C   C126      1.0  0.70760  0.76216  0.47278  1.0000
  C  Sn28      1.0  0.74110  0.77110  0.40241  1.0000
  O  Te25      1.0  0.80656  0.75955  0.34764  1.0000
  O  Te26      1.0  0.73500  0.68501  0.65601  1.0000
  O  Te27      1.0  0.67132  0.72518  0.62683  1.0000
  O  Te28      1.0  0.74290  0.79971  0.31839  1.0000
  Mg  Mg13      1.0  0.68277  0.68386  0.72924  1.0000
  Mg  Mg14      1.0  0.79511  0.80089  0.24505  1.0000
  C  Sn29      1.0  0.28367  0.29046  0.51934  1.0000
  C   C127      1.0  0.25029  0.29206  0.43021  1.0000
  C  Sn30      1.0  0.23390  0.26435  0.36584  1.0000
  C  Sn31      1.0  0.25124  0.23441  0.39116  1.0000
  C   C128      1.0  0.28459  0.23282  0.48026  1.0000
  C  Sn32      1.0  0.30100  0.26053  0.54466  1.0000
  O  Te29      1.0  0.29954  0.31847  0.58257  1.0000
  O  Te30      1.0  0.20053  0.26655  0.27710  1.0000
  O  Te31      1.0  0.23533  0.20639  0.32783  1.0000
  O  Te32      1.0  0.33434  0.25834  0.63337  1.0000
  Mg  Mg15      1.0  0.18971  0.22167  0.21548  1.0000
  Mg  Mg16      1.0  0.34518  0.30319  0.69512  1.0000
  C  Sn33      1.0  0.28963  0.72940  0.39423  1.0000
  C   C129      1.0  0.28425  0.75971  0.46277  1.0000
  C  Sn34      1.0  0.25618  0.76495  0.57600  1.0000
  C  Sn35      1.0  0.23302  0.73936  0.62178  1.0000
  C   C130      1.0  0.23841  0.70907  0.55328  1.0000
  C  Sn36      1.0  0.26647  0.70380  0.44001  1.0000
  O  Te33      1.0  0.31786  0.72470  0.28127  1.0000
  O  Te34      1.0  0.25133  0.79547  0.64281  1.0000
  O  Te35      1.0  0.20477  0.74408  0.73483  1.0000
  O  Te36      1.0  0.27133  0.67331  0.37323  1.0000
  Mg  Mg17      1.0  0.20910  0.78994  0.79188  1.0000
  Mg  Mg18      1.0  0.31355  0.67881  0.22423  1.0000
  C  Sn37      1.0  0.70558  0.27195  0.41347  1.0000
  C   C131      1.0  0.71179  0.24053  0.46083  1.0000
  C  Sn38      1.0  0.74203  0.23306  0.56220  1.0000
  C  Sn39      1.0  0.76656  0.25752  0.61750  1.0000
  C   C132      1.0  0.76034  0.28892  0.57017  1.0000
  C  Sn40      1.0  0.73011  0.29641  0.46876  1.0000
  O  Te37      1.0  0.67518  0.27887  0.31206  1.0000
  O  Te38      1.0  0.74767  0.20147  0.60787  1.0000
  O  Te39      1.0  0.79698  0.25057  0.71898  1.0000
  O  Te40      1.0  0.72446  0.32798  0.42313  1.0000
  Mg  Mg19      1.0  0.79298  0.20397  0.74775  1.0000
  Mg  Mg20      1.0  0.67916  0.32550  0.28332  1.0000
  C  Sn41      1.0  0.71492  0.70920  0.00559  1.0000
  C   C133      1.0  0.75573  0.71261  0.96055  1.0000
  C  Sn42      1.0  0.77488  0.74143  0.94998  1.0000
  C  Sn43      1.0  0.75632  0.77052  0.98526  1.0000
  C   C134      1.0  0.71554  0.76710  0.03030  1.0000
  C  Sn44      1.0  0.69636  0.73828  0.04087  1.0000
  O  Te41      1.0  0.69632  0.68010  0.01539  1.0000
  O  Te42      1.0  0.81222  0.74117  0.90464  1.0000
  O  Te43      1.0  0.77495  0.79962  0.97542  1.0000
  O  Te44      1.0  0.65905  0.73853  0.08621  1.0000
  Mg  Mg21      1.0  0.82562  0.78692  0.90853  1.0000
  Mg  Mg22      1.0  0.64562  0.69280  0.08244  1.0000
  C  Sn45      1.0  0.29337  0.27157  0.08279  1.0000
  C   C135      1.0  0.28759  0.24078  0.02031  1.0000
  C  Sn46      1.0  0.26184  0.23767  0.91010  1.0000
  C  Sn47      1.0  0.23793  0.26281  0.86122  1.0000
  C   C136      1.0  0.24373  0.29358  0.92367  1.0000
  C  Sn48      1.0  0.26947  0.29670  0.03392  1.0000
  O  Te45      1.0  0.32274  0.27719  0.19282  1.0000
  O  Te46      1.0  0.25660  0.20669  0.84934  1.0000
  O  Te47      1.0  0.20855  0.25716  0.75110  1.0000
  O  Te48      1.0  0.27471  0.32766  0.09464  1.0000
  Mg  Mg23      1.0  0.21276  0.21097  0.70231  1.0000
  Mg  Mg24      1.0  0.31855  0.32342  0.24160  1.0000
  C  Sn49      1.0  0.87234  0.37002  0.09931  1.0000
  C   C137      1.0  0.87440  0.40131  0.04443  1.0000
  C  Sn50      1.0  0.84622  0.41946  0.98129  1.0000
  C  Sn51      1.0  0.81181  0.40294  0.97290  1.0000
  C   C138      1.0  0.80631  0.36860  0.02778  1.0000
  C  Sn52      1.0  0.83793  0.35349  0.09092  1.0000
  O  Te49      1.0  0.90431  0.35540  0.16198  1.0000
  O  Te50      1.0  0.84897  0.45076  0.92713  1.0000
  O  Te51      1.0  0.77983  0.41758  0.91016  1.0000
  O  Te52      1.0  0.83519  0.32222  0.14508  1.0000
  Mg  Mg25      1.0  0.79765  0.46047  0.85178  1.0000
  Mg  Mg26      1.0  0.88649  0.31250  0.22052  1.0000
  C  Sn53      1.0  0.12253  0.63063  0.10029  1.0000
  C   C139      1.0  0.12270  0.59869  0.04956  1.0000
  C  Sn54      1.0  0.15844  0.58798  0.98694  1.0000
  C  Sn55      1.0  0.19125  0.60650  0.97485  1.0000
  C   C140      1.0  0.18762  0.63535  0.02558  1.0000
  C  Sn56      1.0  0.15534  0.64915  0.08820  1.0000
  O  Te53      1.0  0.08994  0.64391  0.16252  1.0000
  O  Te54      1.0  0.15793  0.55600  0.93696  1.0000
  O  Te55      1.0  0.22386  0.59319  0.91255  1.0000
  O  Te56      1.0  0.15584  0.68111  0.13818  1.0000
  Mg  Mg27      1.0  0.20930  0.54867  0.86053  1.0000
  Mg  Mg28      1.0  0.10451  0.68845  0.21470  1.0000
  C  Sn57      1.0  0.17061  0.41398  0.51632  1.0000
  C   C141      1.0  0.13978  0.41231  0.41070  1.0000
  C  Sn58      1.0  0.12661  0.38283  0.35361  1.0000
  C  Sn59      1.0  0.14461  0.35441  0.40319  1.0000
  C   C142      1.0  0.17541  0.35608  0.50877  1.0000
  C  Sn60      1.0  0.18861  0.38556  0.56590  1.0000
  O  Te57      1.0  0.18330  0.44371  0.57188  1.0000
  O  Te58      1.0  0.09575  0.38177  0.24806  1.0000
  O  Te59      1.0  0.13189  0.32467  0.34753  1.0000
  O  Te60      1.0  0.21944  0.38662  0.67140  1.0000
  Mg  Mg29      1.0  0.08887  0.33557  0.20558  1.0000
  Mg  Mg30      1.0  0.22634  0.43281  0.71403  1.0000
  C  Sn61      1.0  0.82931  0.58542  0.48852  1.0000
  C   C143      1.0  0.86132  0.58945  0.39649  1.0000
  C  Sn62      1.0  0.87498  0.61996  0.36763  1.0000
  C  Sn63      1.0  0.85627  0.64701  0.43218  1.0000
  C   C144      1.0  0.82428  0.64298  0.52417  1.0000
  C  Sn64      1.0  0.81060  0.61247  0.55307  1.0000
  O  Te61      1.0  0.81614  0.55470  0.51585  1.0000
  O  Te62      1.0  0.90703  0.62339  0.27522  1.0000
  O  Te63      1.0  0.86946  0.67775  0.40477  1.0000
  O  Te64      1.0  0.77858  0.60904  0.64545  1.0000
  Mg  Mg31      1.0  0.91415  0.67014  0.27148  1.0000
  Mg  Mg32      1.0  0.77144  0.56230  0.64933  1.0000
  C  Sn65      1.0  0.84923  0.36078  0.65878  1.0000
  C   C145      1.0  0.81597  0.36451  0.57068  1.0000
  C  Sn66      1.0  0.81112  0.39038  0.46747  1.0000
  C  Sn67      1.0  0.84013  0.41297  0.45190  1.0000
  C   C146      1.0  0.87337  0.40923  0.53995  1.0000
  C  Sn68      1.0  0.87824  0.38337  0.64322  1.0000
  O  Te65      1.0  0.85347  0.33474  0.76124  1.0000
  O  Te66      1.0  0.77761  0.39362  0.38067  1.0000
  O  Te67      1.0  0.83586  0.43903  0.34934  1.0000
  O  Te68      1.0  0.91173  0.38013  0.72995  1.0000
  Mg  Mg33      1.0  0.78513  0.43309  0.25654  1.0000
  Mg  Mg34      1.0  0.90425  0.34065  0.85405  1.0000
  C  Sn69      1.0  0.18249  0.59690  0.42003  1.0000
  C   C147      1.0  0.18266  0.62941  0.45958  1.0000
  C  Sn70      1.0  0.15780  0.64179  0.57345  1.0000
  C  Sn71      1.0  0.13225  0.62124  0.64947  1.0000
  C   C148      1.0  0.13209  0.58876  0.60994  1.0000
  C  Sn72      1.0  0.15694  0.57635  0.49605  1.0000
  O  Te69      1.0  0.20760  0.58504  0.30585  1.0000
  O  Te70      1.0  0.15848  0.67437  0.61096  1.0000
  O  Te71      1.0  0.10713  0.63313  0.76372  1.0000
  O  Te72      1.0  0.15627  0.54379  0.45855  1.0000
  Mg  Mg35      1.0  0.11882  0.67920  0.77432  1.0000
  Mg  Mg36      1.0  0.19593  0.53893  0.29528  1.0000
  C  Sn73      1.0  0.14815  0.36063  0.86930  1.0000
  C   C149      1.0  0.18252  0.36500  0.94851  1.0000
  C  Sn74      1.0  0.18562  0.38905  0.04545  1.0000
  C  Sn75      1.0  0.15722  0.41229  0.06370  1.0000
  C   C150      1.0  0.12633  0.41098  0.98455  1.0000
  C  Sn76      1.0  0.11976  0.38387  0.88755  1.0000
  O  Te73      1.0  0.14222  0.33334  0.77300  1.0000
  O  Te74      1.0  0.22020  0.39289  0.12339  1.0000
  O  Te75      1.0  0.16318  0.43959  0.16010  1.0000
  O  Te76      1.0  0.08520  0.38002  0.80967  1.0000
  Mg  Mg37      1.0  0.21488  0.43408  0.24162  1.0000
  Mg  Mg38      1.0  0.09047  0.33884  0.69148  1.0000
  C  Sn77      1.0  0.87628  0.63139  0.92554  1.0000
  C   C151      1.0  0.87666  0.59902  0.96291  1.0000
  C  Sn78      1.0  0.84068  0.58083  0.01152  1.0000
  C  Sn79      1.0  0.80706  0.59843  0.02291  1.0000
  C   C152      1.0  0.81014  0.63385  0.98553  1.0000
  C  Sn80      1.0  0.84266  0.64899  0.93694  1.0000
  O  Te77      1.0  0.90913  0.64601  0.87720  1.0000
  O  Te78      1.0  0.84175  0.54845  0.04830  1.0000
  O  Te79      1.0  0.77419  0.58378  0.07131  1.0000
  O  Te80      1.0  0.84160  0.68135  0.90014  1.0000
  Mg  Mg39      1.0  0.78975  0.53919  0.10851  1.0000
  Mg  Mg40      1.0  0.89357  0.69063  0.83985  1.0000
  C  Sn81      1.0  0.35255  0.88507  0.73208  1.0000
  C   C153      1.0  0.38781  0.88596  0.66265  1.0000
  C  Sn82      1.0  0.39795  0.86325  0.54532  1.0000
  C  Sn83      1.0  0.37232  0.83915  0.49627  1.0000
  C   C154      1.0  0.33708  0.83827  0.56565  1.0000
  C  Sn84      1.0  0.32692  0.86097  0.68302  1.0000
  O  Te81      1.0  0.34301  0.90802  0.84916  1.0000
  O  Te82      1.0  0.43336  0.86463  0.47770  1.0000
  O  Te83      1.0  0.38189  0.81619  0.37909  1.0000
  O  Te84      1.0  0.29153  0.85961  0.75060  1.0000
  Mg  Mg41      1.0  0.43337  0.82805  0.32251  1.0000
  Mg  Mg42      1.0  0.29149  0.89618  0.90573  1.0000
  C  Sn85      1.0  0.66903  0.12295  0.63595  1.0000
  C   C155      1.0  0.66414  0.15258  0.56326  1.0000
  C  Sn86      1.0  0.62857  0.16300  0.51793  1.0000
  C  Sn87      1.0  0.59724  0.14341  0.54592  1.0000
  C   C156      1.0  0.60214  0.11380  0.61860  1.0000
  C  Sn88      1.0  0.63770  0.10336  0.66395  1.0000
  O  Te85      1.0  0.70484  0.11302  0.68030  1.0000
  O  Te86      1.0  0.62438  0.19271  0.44539  1.0000
  O  Te87      1.0  0.56141  0.15337  0.50150  1.0000
  O  Te88      1.0  0.64190  0.07367  0.73647  1.0000
  Mg  Mg43      1.0  0.56997  0.19575  0.40657  1.0000
  Mg  Mg44      1.0  0.69629  0.07062  0.77541  1.0000
  C  Sn89      1.0  0.64202  0.88020  0.76147  1.0000
  C   C157      1.0  0.60882  0.88333  0.84685  1.0000
  C  Sn90      1.0  0.60161  0.86366  0.97826  1.0000
  C  Sn91      1.0  0.62469  0.83730  0.02540  1.0000
  C   C158      1.0  0.66131  0.83724  0.94006  1.0000
  C  Sn92      1.0  0.66855  0.85691  0.80860  1.0000
  O  Te89      1.0  0.64865  0.90013  0.63048  1.0000
  O  Te90      1.0  0.56477  0.86417  0.06172  1.0000
  O  Te91      1.0  0.61803  0.81737  0.15650  1.0000
  O  Te92      1.0  0.70192  0.85335  0.72519  1.0000
  Mg  Mg45      1.0  0.56849  0.83140  0.23202  1.0000
  Mg  Mg46      1.0  0.69823  0.88611  0.55494  1.0000
  C  Sn93      1.0  0.39067  0.13910  0.02413  1.0000
  C   C159      1.0  0.39092  0.11280  0.94254  1.0000
  C  Sn94      1.0  0.36241  0.10761  0.82768  1.0000
  C  Sn95      1.0  0.33657  0.13229  0.79357  1.0000
  C   C160      1.0  0.33979  0.16164  0.87511  1.0000
  C  Sn96      1.0  0.36829  0.16684  0.99002  1.0000
  O  Te93      1.0  0.41940  0.14376  0.13848  1.0000
  O  Te94      1.0  0.35977  0.07805  0.74771  1.0000
  O  Te95      1.0  0.30784  0.12761  0.67911  1.0000
  O  Te96      1.0  0.36749  0.19332  0.06994  1.0000
  Mg  Mg47      1.0  0.31584  0.08324  0.60203  1.0000
  Mg  Mg48      1.0  0.41142  0.18816  0.21558  1.0000
