data_image0
_chemical_formula_structural       H64C112N24C2Sn2C2HTe2HMgC2Sn2C2HTe2HMgC2Sn2C2HTe2HMgC2Sn2C2HTe2HMgC2Sn2C2HTe2HMgC2Sn2C2HTe2HMgC2Sn2C2HTe2HMgC2Sn2C2HTe2HMgC2Sn2C2HTe2HMgC2Sn2C2HTe2HMgC2Sn2C2HTe2HMgC2Sn2C2HTe2HMgC2Sn2C2HTe2HMgC2Sn2C2HTe2HMgC2Sn2C2HTe2HMgC2Sn2C2HTe2HMgC2Sn2C2HTe2HMgC2Sn2C2HTe2HMgC2Sn2C2HTe2HMgC2Sn2C2HTe2HMgC2Sn2C2HTe2HMgC2Sn2C2HTe2HMgC2Sn2C2HTe2HMgC2Sn2C2HTe2HMg
_chemical_formula_sum              "H112 C208 N24 Sn48 Te48 Mg24"
_cell_length_a       35.9206
_cell_length_b       41.9674
_cell_length_c       8.21407
_cell_angle_alpha    90.8987
_cell_angle_beta     90.8656
_cell_angle_gamma    89.9295

_symmetry_space_group_name_H-M    'P1'
_space_group_IT_number       1

loop_
  _space_group_symop_operation_xyz
  'x, y, z'

loop_
  _atom_site_type_symbol
  _atom_site_label
  _atom_site_symmetry_multiplicity
  _atom_site_fract_x
  _atom_site_fract_y
  _atom_site_fract_z
  _atom_site_occupancy
  H   H1        1.0  0.42763  0.99547  0.11119  1.0000
  H   H2        1.0  0.57338  0.00473  0.11517  1.0000
  H   H3        1.0  0.57367  0.99706  0.38343  1.0000
  H   H4        1.0  0.42817  0.00347  0.37596  1.0000
  H   H5        1.0  0.38417  0.95116  0.04908  1.0000
  H   H6        1.0  0.61604  0.04885  0.05124  1.0000
  H   H7        1.0  0.61804  0.95367  0.44688  1.0000
  H   H8        1.0  0.38347  0.04690  0.43481  1.0000
  H   H9        1.0  0.46794  0.88220  0.17771  1.0000
  H   H10       1.0  0.53460  0.11825  0.19985  1.0000
  H   H11       1.0  0.53958  0.88314  0.27225  1.0000
  H   H12       1.0  0.46400  0.11749  0.30368  1.0000
  H   H13       1.0  0.29552  0.81424  0.21363  1.0000
  H   H14       1.0  0.70571  0.18676  0.18327  1.0000
  H   H15       1.0  0.71808  0.82179  0.36219  1.0000
  H   H16       1.0  0.28476  0.17843  0.36923  1.0000
  H   H17       1.0  0.24000  0.64940  0.40875  1.0000
  H   H18       1.0  0.76309  0.34559  0.39812  1.0000
  H   H19       1.0  0.76571  0.65355  0.12273  1.0000
  H   H20       1.0  0.23591  0.34592  0.11842  1.0000
  H   H21       1.0  0.94255  0.40086  0.04012  1.0000
  H   H22       1.0  0.05570  0.59809  0.04308  1.0000
  H   H23       1.0  0.05377  0.40109  0.44997  1.0000
  H   H24       1.0  0.94706  0.59999  0.45339  1.0000
  H   H25       1.0  0.99445  0.43694  0.11689  1.0000
  H   H26       1.0  0.00456  0.56133  0.11234  1.0000
  H   H27       1.0  0.00328  0.43913  0.37749  1.0000
  H   H28       1.0  0.99744  0.56219  0.37866  1.0000
  H   H29       1.0  0.86219  0.47145  0.18601  1.0000
  H   H30       1.0  0.13778  0.52957  0.19691  1.0000
  H   H31       1.0  0.13727  0.46955  0.32519  1.0000
  H   H32       1.0  0.86356  0.53216  0.29800  1.0000
  H   H33       1.0  0.42689  0.99561  0.61540  1.0000
  H   H34       1.0  0.57479  0.00313  0.62530  1.0000
  H   H35       1.0  0.57433  0.99435  0.88464  1.0000
  H   H36       1.0  0.42884  0.00365  0.87968  1.0000
  H   H37       1.0  0.38191  0.95220  0.56418  1.0000
  H   H38       1.0  0.61806  0.04688  0.56259  1.0000
  H   H39       1.0  0.61692  0.94965  0.95012  1.0000
  H   H40       1.0  0.38450  0.04736  0.93516  1.0000
  H   H41       1.0  0.46309  0.88222  0.70893  1.0000
  H   H42       1.0  0.53615  0.11696  0.69738  1.0000
  H   H43       1.0  0.53492  0.88124  0.78621  1.0000
  H   H44       1.0  0.46525  0.11709  0.79591  1.0000
  H   H45       1.0  0.28861  0.81543  0.69007  1.0000
  H   H46       1.0  0.70779  0.18577  0.68563  1.0000
  H   H47       1.0  0.70692  0.81140  0.81076  1.0000
  H   H48       1.0  0.28760  0.18014  0.83388  1.0000
  H   H49       1.0  0.22919  0.65729  0.88527  1.0000
  H   H50       1.0  0.76296  0.34726  0.88197  1.0000
  H   H51       1.0  0.77171  0.65709  0.63836  1.0000
  H   H52       1.0  0.22380  0.33766  0.64147  1.0000
  H   H53       1.0  0.94517  0.39952  0.55370  1.0000
  H   H54       1.0  0.05775  0.59695  0.53244  1.0000
  H   H55       1.0  0.05366  0.40235  0.96769  1.0000
  H   H56       1.0  0.94484  0.59928  0.95926  1.0000
  H   H57       1.0  0.99606  0.43707  0.62135  1.0000
  H   H58       1.0  0.00599  0.56177  0.61301  1.0000
  H   H59       1.0  0.00365  0.43927  0.88405  1.0000
  H   H60       1.0  0.99595  0.56311  0.87744  1.0000
  H   H61       1.0  0.86298  0.47003  0.67970  1.0000
  H   H62       1.0  0.13855  0.52883  0.70124  1.0000
  H   H63       1.0  0.13724  0.47028  0.83485  1.0000
  H   H64       1.0  0.86275  0.53048  0.80085  1.0000
  C   C1        1.0  0.53114  0.96447  0.29505  1.0000
  C   C2        1.0  0.47136  0.03597  0.30363  1.0000
  C   C3        1.0  0.47237  0.96389  0.18243  1.0000
  C   C4        1.0  0.52963  0.03658  0.19353  1.0000
  C   C5        1.0  0.48398  0.93170  0.19868  1.0000
  C   C6        1.0  0.51843  0.06879  0.21705  1.0000
  C   C7        1.0  0.52126  0.93208  0.26587  1.0000
  C   C8        1.0  0.48153  0.06840  0.28366  1.0000
  C   C9        1.0  0.43662  0.97105  0.12512  1.0000
  C   C10       1.0  0.56470  0.02920  0.13280  1.0000
  C   C11       1.0  0.56598  0.97245  0.36079  1.0000
  C   C12       1.0  0.43621  0.02807  0.36076  1.0000
  C   C13       1.0  0.41226  0.94586  0.09208  1.0000
  C   C14       1.0  0.58855  0.05425  0.09815  1.0000
  C   C15       1.0  0.59089  0.94784  0.39412  1.0000
  C   C16       1.0  0.41118  0.05273  0.39259  1.0000
  C   C17       1.0  0.42269  0.91366  0.11239  1.0000
  C   C18       1.0  0.57831  0.08650  0.12168  1.0000
  C   C19       1.0  0.58210  0.91545  0.36309  1.0000
  C   C20       1.0  0.42055  0.08517  0.37367  1.0000
  C   C21       1.0  0.45935  0.90681  0.16082  1.0000
  C   C22       1.0  0.54269  0.09353  0.17932  1.0000
  C   C23       1.0  0.54670  0.90784  0.30023  1.0000
  C   C24       1.0  0.45641  0.09272  0.32182  1.0000
  C   C25       1.0  0.31474  0.81205  0.11101  1.0000
  C   C26       1.0  0.68363  0.18923  0.09021  1.0000
  C   C27       1.0  0.69152  0.81571  0.41887  1.0000
  C   C28       1.0  0.31170  0.18535  0.42437  1.0000
  C   C29       1.0  0.21583  0.65746  0.47918  1.0000
  C   C30       1.0  0.78522  0.33913  0.48564  1.0000
  C   C31       1.0  0.78752  0.66053  0.03763  1.0000
  C   C32       1.0  0.21428  0.34006  0.02659  1.0000
  C   C33       1.0  0.89900  0.43366  0.10765  1.0000
  C   C34       1.0  0.10006  0.56638  0.11504  1.0000
  C   C35       1.0  0.09871  0.43283  0.39265  1.0000
  C   C36       1.0  0.90208  0.56876  0.38012  1.0000
  C   C37       1.0  0.93658  0.42454  0.08874  1.0000
  C   C38       1.0  0.06220  0.57483  0.09293  1.0000
  C   C39       1.0  0.06074  0.42459  0.40558  1.0000
  C   C40       1.0  0.94008  0.57669  0.40178  1.0000
  C   C41       1.0  0.96600  0.44492  0.12853  1.0000
  C   C42       1.0  0.03329  0.55427  0.12958  1.0000
  C   C43       1.0  0.03222  0.44569  0.36611  1.0000
  C   C44       1.0  0.96854  0.55552  0.36278  1.0000
  C   C45       1.0  0.95764  0.47537  0.18779  1.0000
  C   C46       1.0  0.04245  0.52463  0.19277  1.0000
  C   C47       1.0  0.04204  0.47535  0.30689  1.0000
  C   C48       1.0  0.95870  0.52558  0.30050  1.0000
  C   C49       1.0  0.92005  0.48518  0.20776  1.0000
  C   C50       1.0  0.08021  0.51554  0.21888  1.0000
  C   C51       1.0  0.07995  0.48429  0.29006  1.0000
  C   C52       1.0  0.92075  0.51694  0.27707  1.0000
  C   C53       1.0  0.89096  0.46434  0.16643  1.0000
  C   C54       1.0  0.10884  0.53632  0.17675  1.0000
  C   C55       1.0  0.10812  0.46312  0.33727  1.0000
  C   C56       1.0  0.89264  0.53852  0.31820  1.0000
  C   C57       1.0  0.53002  0.96292  0.80192  1.0000
  C   C58       1.0  0.47220  0.03561  0.80443  1.0000
  C   C59       1.0  0.47085  0.96357  0.69213  1.0000
  C   C60       1.0  0.53065  0.03531  0.69649  1.0000
  C   C61       1.0  0.48109  0.93120  0.71471  1.0000
  C   C62       1.0  0.51970  0.06770  0.71658  1.0000
  C   C63       1.0  0.51859  0.93077  0.77851  1.0000
  C   C64       1.0  0.48267  0.06786  0.78199  1.0000
  C   C65       1.0  0.43518  0.97116  0.63457  1.0000
  C   C66       1.0  0.56603  0.02766  0.63977  1.0000
  C   C67       1.0  0.56539  0.96997  0.86523  1.0000
  C   C68       1.0  0.43704  0.02812  0.86239  1.0000
  C   C69       1.0  0.40982  0.94642  0.60761  1.0000
  C   C70       1.0  0.59034  0.05252  0.60633  1.0000
  C   C71       1.0  0.58933  0.94468  0.89940  1.0000
  C   C72       1.0  0.41221  0.05296  0.89248  1.0000
  C   C73       1.0  0.41906  0.91415  0.63408  1.0000
  C   C74       1.0  0.58022  0.08489  0.62594  1.0000
  C   C75       1.0  0.57904  0.91259  0.87062  1.0000
  C   C76       1.0  0.42172  0.08524  0.86982  1.0000
  C   C77       1.0  0.45541  0.90680  0.68470  1.0000
  C   C78       1.0  0.54429  0.09219  0.67891  1.0000
  C   C79       1.0  0.54312  0.90579  0.81214  1.0000
  C   C80       1.0  0.45758  0.09244  0.81694  1.0000
  C   C81       1.0  0.31152  0.81226  0.60394  1.0000
  C   C82       1.0  0.68538  0.18780  0.59357  1.0000
  C   C83       1.0  0.68552  0.81044  0.90492  1.0000
  C   C84       1.0  0.31269  0.18576  0.90734  1.0000
  C   C85       1.0  0.20818  0.66320  0.97701  1.0000
  C   C86       1.0  0.78326  0.34153  0.97884  1.0000
  C   C87       1.0  0.79129  0.66281  0.54126  1.0000
  C   C88       1.0  0.20815  0.33577  0.52549  1.0000
  C   C89       1.0  0.90054  0.43227  0.60957  1.0000
  C   C90       1.0  0.10163  0.56527  0.60996  1.0000
  C   C91       1.0  0.09907  0.43363  0.90761  1.0000
  C   C92       1.0  0.90040  0.56738  0.88622  1.0000
  C   C93       1.0  0.93841  0.42353  0.59542  1.0000
  C   C94       1.0  0.06391  0.57407  0.58698  1.0000
  C   C95       1.0  0.06101  0.42549  0.91983  1.0000
  C   C96       1.0  0.93827  0.57606  0.90568  1.0000
  C   C97       1.0  0.96737  0.44464  0.63178  1.0000
  C   C98       1.0  0.03461  0.55431  0.62908  1.0000
  C   C99       1.0  0.03250  0.44618  0.87446  1.0000
  C   C100      1.0  0.96726  0.55565  0.86305  1.0000
  C   C101      1.0  0.95836  0.47530  0.68680  1.0000
  C   C102      1.0  0.04313  0.52473  0.69463  1.0000
  C   C103      1.0  0.04209  0.47576  0.81287  1.0000
  C   C104      1.0  0.95821  0.52561  0.79937  1.0000
  C   C105      1.0  0.92052  0.48458  0.70556  1.0000
  C   C106      1.0  0.08075  0.51544  0.72236  1.0000
  C   C107      1.0  0.08006  0.48455  0.79710  1.0000
  C   C108      1.0  0.92040  0.51635  0.77575  1.0000
  C   C109      1.0  0.89196  0.46319  0.66408  1.0000
  C   C110      1.0  0.10973  0.53563  0.67814  1.0000
  C   C111      1.0  0.10817  0.46368  0.84756  1.0000
  C   C112      1.0  0.89176  0.53721  0.82076  1.0000
  N   N1        1.0  0.31348  0.78825  0.00898  1.0000
  N   N2        1.0  0.68092  0.21390  0.99822  1.0000
  N   N3        1.0  0.68616  0.78868  0.48859  1.0000
  N   N4        1.0  0.31791  0.21376  0.48165  1.0000
  N   N5        1.0  0.20698  0.69030  0.05434  1.0000
  N   N6        1.0  0.78284  0.31539  0.05983  1.0000
  N   N7        1.0  0.79066  0.68896  0.46016  1.0000
  N   N8        1.0  0.21250  0.31253  0.42228  1.0000
  N   N9        1.0  0.50133  0.98370  0.24215  1.0000
  N   N10       1.0  0.50087  0.01676  0.24761  1.0000
  N   N11       1.0  0.98093  0.50018  0.24537  1.0000
  N   N12       1.0  0.01953  0.49996  0.24661  1.0000
  N   N13       1.0  0.31461  0.78724  0.51073  1.0000
  N   N14       1.0  0.68241  0.21230  0.50051  1.0000
  N   N15       1.0  0.68365  0.78712  0.00560  1.0000
  N   N16       1.0  0.31761  0.21298  0.98081  1.0000
  N   N17       1.0  0.21212  0.68610  0.53737  1.0000
  N   N18       1.0  0.78673  0.31194  0.55736  1.0000
  N   N19       1.0  0.78896  0.68811  0.96999  1.0000
  N   N20       1.0  0.21345  0.31351  0.94412  1.0000
  N   N21       1.0  0.50097  0.98280  0.74601  1.0000
  N   N22       1.0  0.50151  0.01592  0.75115  1.0000
  N   N23       1.0  0.98110  0.50064  0.74281  1.0000
  N   N24       1.0  0.01979  0.50043  0.75051  1.0000
  C   C113      1.0  0.35119  0.88873  0.19118  1.0000
  C   C114      1.0  0.38655  0.88925  0.12268  1.0000
  C  Sn1       1.0  0.39924  0.86314  0.03151  1.0000
  C  Sn2       1.0  0.37603  0.83606  0.00867  1.0000
  C   C115      1.0  0.34068  0.83579  0.07760  1.0000
  C   C116      1.0  0.32827  0.86204  0.16866  1.0000
  H   H65       1.0  0.34157  0.90905  0.26156  1.0000
  O  Te1       1.0  0.43811  0.86711  0.96398  1.0000
  O  Te2       1.0  0.39146  0.81272  0.91805  1.0000
  H   H66       1.0  0.30088  0.86164  0.22159  1.0000
  Mg  Mg1       1.0  0.44197  0.82529  0.85036  1.0000
  C   C117      1.0  0.61625  0.16495  0.99364  1.0000
  C   C118      1.0  0.64815  0.16454  0.06589  1.0000
  C  Sn3       1.0  0.66332  0.13912  0.15254  1.0000
  C  Sn4       1.0  0.64265  0.11054  0.16686  1.0000
  C   C119      1.0  0.60732  0.10811  0.09404  1.0000
  C   C120      1.0  0.59240  0.13369  0.00766  1.0000
  H   H67       1.0  0.60471  0.18473  0.92673  1.0000
  O  Te3       1.0  0.69868  0.14219  0.22402  1.0000
  O  Te4       1.0  0.65716  0.08477  0.25272  1.0000
  H   H68       1.0  0.56848  0.13469  0.95164  1.0000
  Mg  Mg2       1.0  0.70650  0.10045  0.32862  1.0000
  C   C121      1.0  0.61712  0.83912  0.47469  1.0000
  C   C122      1.0  0.65353  0.83809  0.41724  1.0000
  C  Sn5       1.0  0.66921  0.86498  0.34727  1.0000
  C  Sn6       1.0  0.64797  0.89339  0.33479  1.0000
  C   C123      1.0  0.61158  0.89418  0.39273  1.0000
  C   C124      1.0  0.59617  0.86714  0.46248  1.0000
  H   H69       1.0  0.60520  0.81821  0.52874  1.0000
  O  Te5       1.0  0.70562  0.86353  0.29044  1.0000
  O  Te6       1.0  0.66296  0.92061  0.26545  1.0000
  H   H70       1.0  0.56798  0.86795  0.50705  1.0000
  Mg  Mg3       1.0  0.71376  0.90685  0.20555  1.0000
  C   C125      1.0  0.38520  0.16109  0.50003  1.0000
  C   C126      1.0  0.34919  0.16260  0.43378  1.0000
  C  Sn7       1.0  0.33382  0.13615  0.35224  1.0000
  C  Sn8       1.0  0.35496  0.10771  0.33698  1.0000
  C   C127      1.0  0.39095  0.10644  0.40379  1.0000
  C   C128      1.0  0.40606  0.13304  0.48509  1.0000
  H   H71       1.0  0.39689  0.18167  0.56301  1.0000
  O  Te7       1.0  0.29781  0.13806  0.28672  1.0000
  O  Te8       1.0  0.34027  0.08092  0.25615  1.0000
  H   H72       1.0  0.43394  0.13187  0.53647  1.0000
  Mg  Mg4       1.0  0.28997  0.09523  0.18748  1.0000
  C   C129      1.0  0.22965  0.75166  0.12727  1.0000
  C   C130      1.0  0.23076  0.72191  0.04863  1.0000
  C  Sn9       1.0  0.26503  0.71623  0.95620  1.0000
  C  Sn10      1.0  0.29525  0.73771  0.94251  1.0000
  C   C131      1.0  0.29043  0.76434  0.02175  1.0000
  C   C132      1.0  0.25945  0.77286  0.11388  1.0000
  H   H73       1.0  0.20569  0.75825  0.19863  1.0000
  O  Te9       1.0  0.26568  0.68642  0.87838  1.0000
  O  Te10      1.0  0.32639  0.72957  0.85097  1.0000
  H   H74       1.0  0.25861  0.79589  0.17484  1.0000
  Mg  Mg5       1.0  0.31427  0.68624  0.76752  1.0000
  C   C133      1.0  0.75045  0.23989  0.11576  1.0000
  C   C134      1.0  0.71513  0.23739  0.04302  1.0000
  C  Sn11      1.0  0.70370  0.26589  0.95562  1.0000
  C  Sn12      1.0  0.72463  0.29433  0.94094  1.0000
  C   C135      1.0  0.75650  0.29351  0.01406  1.0000
  C   C136      1.0  0.77112  0.26792  0.10129  1.0000
  H   H75       1.0  0.76177  0.22008  0.18318  1.0000
  O  Te11      1.0  0.66836  0.26300  0.88376  1.0000
  O  Te12      1.0  0.71043  0.32011  0.85423  1.0000
  H   H76       1.0  0.79848  0.26985  0.15751  1.0000
  Mg  Mg6       1.0  0.66099  0.30469  0.77810  1.0000
  C   C137      1.0  0.76749  0.74811  0.36886  1.0000
  C   C138      1.0  0.76768  0.72087  0.46457  1.0000
  C  Sn13      1.0  0.73863  0.71530  0.57161  1.0000
  C  Sn14      1.0  0.70886  0.73744  0.58273  1.0000
  C   C139      1.0  0.70892  0.76461  0.48637  1.0000
  C   C140      1.0  0.73814  0.76996  0.37971  1.0000
  H   H77       1.0  0.79009  0.75224  0.28626  1.0000
  O  Te13      1.0  0.73926  0.68797  0.66640  1.0000
  O  Te14      1.0  0.67946  0.73245  0.68866  1.0000
  H   H78       1.0  0.73797  0.79104  0.30554  1.0000
  Mg  Mg7       1.0  0.69287  0.69168  0.79265  1.0000
  C   C141      1.0  0.27935  0.28734  0.56801  1.0000
  C   C142      1.0  0.24792  0.29077  0.46744  1.0000
  C  Sn15      1.0  0.23613  0.26559  0.36609  1.0000
  C  Sn16      1.0  0.25623  0.23647  0.36572  1.0000
  C   C143      1.0  0.28762  0.23327  0.46686  1.0000
  C   C144      1.0  0.29918  0.25862  0.56776  1.0000
  H   H79       1.0  0.28829  0.30695  0.64615  1.0000
  O  Te15      1.0  0.20467  0.26943  0.26633  1.0000
  O  Te16      1.0  0.24505  0.21091  0.26566  1.0000
  H   H80       1.0  0.32350  0.25595  0.64570  1.0000
  Mg  Mg8       1.0  0.20042  0.22771  0.15139  1.0000
  C   C145      1.0  0.24280  0.76271  0.59388  1.0000
  C   C146      1.0  0.27929  0.76447  0.53804  1.0000
  C  Sn17      1.0  0.29572  0.73805  0.46233  1.0000
  C  Sn18      1.0  0.27516  0.70937  0.44229  1.0000
  C   C147      1.0  0.23867  0.70786  0.49848  1.0000
  C   C148      1.0  0.22251  0.73444  0.57411  1.0000
  H   H81       1.0  0.23029  0.78328  0.65232  1.0000
  O  Te17      1.0  0.33220  0.74022  0.40731  1.0000
  O  Te18      1.0  0.29090  0.68262  0.36700  1.0000
  H   H82       1.0  0.19425  0.73307  0.61724  1.0000
  Mg  Mg9       1.0  0.34150  0.69731  0.31247  1.0000
  C   C149      1.0  0.75579  0.23493  0.57892  1.0000
  C   C150      1.0  0.71824  0.23450  0.53185  1.0000
  C  Sn19      1.0  0.70086  0.26231  0.47820  1.0000
  C  Sn20      1.0  0.72153  0.29104  0.47163  1.0000
  C   C151      1.0  0.75909  0.29121  0.51887  1.0000
  C   C152      1.0  0.77620  0.26325  0.57242  1.0000
  H   H83       1.0  0.76904  0.21329  0.62026  1.0000
  O  Te19      1.0  0.66333  0.26147  0.43168  1.0000
  O  Te20      1.0  0.70486  0.31917  0.41843  1.0000
  H   H84       1.0  0.80528  0.26358  0.60875  1.0000
  Mg  Mg10      1.0  0.65301  0.30597  0.36792  1.0000
  C   C153      1.0  0.70205  0.72378  0.05573  1.0000
  C   C154      1.0  0.70838  0.75595  0.02465  1.0000
  C  Sn21      1.0  0.74634  0.76896  0.96799  1.0000
  C  Sn22      1.0  0.77499  0.74622  0.94205  1.0000
  C   C155      1.0  0.76837  0.71409  0.97340  1.0000
  C   C156      1.0  0.73029  0.70133  0.03011  1.0000
  H   H85       1.0  0.67525  0.71628  0.09952  1.0000
  O  Te21      1.0  0.75219  0.80120  0.93761  1.0000
  O  Te22      1.0  0.80973  0.75551  0.88544  1.0000
  H   H86       1.0  0.72539  0.67642  0.05406  1.0000
  Mg  Mg11      1.0  0.80425  0.80216  0.86168  1.0000
  C   C157      1.0  0.29930  0.27600  0.04056  1.0000
  C   C158      1.0  0.29627  0.24735  0.99427  1.0000
  C  Sn23      1.0  0.26244  0.23852  0.92068  1.0000
  C  Sn24      1.0  0.23462  0.26193  0.89303  1.0000
  C   C159      1.0  0.24138  0.29361  0.93968  1.0000
  C   C160      1.0  0.27189  0.29911  0.01328  1.0000
  H   H87       1.0  0.32558  0.28264  0.09742  1.0000
  O  Te23      1.0  0.25642  0.20672  0.87524  1.0000
  O  Te24      1.0  0.20056  0.25376  0.81965  1.0000
  H   H88       1.0  0.27690  0.32368  0.04901  1.0000
  Mg  Mg12      1.0  0.20550  0.20732  0.77935  1.0000
  C   C161      1.0  0.81316  0.40418  0.94322  1.0000
  C   C162      1.0  0.81189  0.37210  0.98597  1.0000
  C  Sn25      1.0  0.83642  0.35611  0.08487  1.0000
  C  Sn26      1.0  0.86617  0.37571  0.14189  1.0000
  C   C163      1.0  0.86716  0.40778  0.09852  1.0000
  C   C164      1.0  0.84248  0.42354  0.99945  1.0000
  H   H89       1.0  0.79138  0.41401  0.86664  1.0000
  O  Te25      1.0  0.83473  0.32401  0.12638  1.0000
  O  Te26      1.0  0.89448  0.36340  0.24095  1.0000
  H   H90       1.0  0.84345  0.44838  0.96646  1.0000
  Mg  Mg13      1.0  0.87989  0.31824  0.26423  1.0000
  C   C165      1.0  0.14088  0.64304  0.12534  1.0000
  C   C166      1.0  0.17463  0.64029  0.04388  1.0000
  C  Sn27      1.0  0.18824  0.61441  0.97072  1.0000
  C  Sn28      1.0  0.16409  0.58778  0.97943  1.0000
  C   C167      1.0  0.12692  0.58773  0.06111  1.0000
  C   C168      1.0  0.11704  0.61680  0.13394  1.0000
  H   H91       1.0  0.13322  0.66554  0.18162  1.0000
  O  Te27      1.0  0.22207  0.61206  0.88987  1.0000
  O  Te28      1.0  0.17354  0.55858  0.90733  1.0000
  H   H92       1.0  0.09089  0.61893  0.19691  1.0000
  Mg  Mg14      1.0  0.22263  0.56723  0.81093  1.0000
  C   C169      1.0  0.16515  0.41161  0.56389  1.0000
  C   C170      1.0  0.13648  0.41164  0.44698  1.0000
  C  Sn29      1.0  0.12875  0.38417  0.35431  1.0000
  C  Sn30      1.0  0.15016  0.35620  0.37946  1.0000
  C   C171      1.0  0.17876  0.35641  0.49681  1.0000
  C   C172      1.0  0.18627  0.38402  0.58883  1.0000
  H   H93       1.0  0.17095  0.43297  0.63516  1.0000
  O  Te29      1.0  0.10002  0.38462  0.23797  1.0000
  O  Te30      1.0  0.14301  0.32841  0.28858  1.0000
  H   H94       1.0  0.20845  0.38399  0.67941  1.0000
  Mg  Mg15      1.0  0.10095  0.34084  0.14442  1.0000
  C   C173      1.0  0.87311  0.63244  0.36331  1.0000
  C   C174      1.0  0.87664  0.60112  0.41693  1.0000
  C  Sn31      1.0  0.84918  0.58783  0.51344  1.0000
  C  Sn32      1.0  0.81762  0.60628  0.55686  1.0000
  C   C175      1.0  0.81433  0.63758  0.50251  1.0000
  C   C176      1.0  0.84199  0.65065  0.40602  1.0000
  H   H95       1.0  0.89450  0.64254  0.28859  1.0000
  O  Te31      1.0  0.85315  0.55651  0.56602  1.0000
  O  Te32      1.0  0.78975  0.59358  0.65314  1.0000
  H   H96       1.0  0.83924  0.67488  0.36444  1.0000
  Mg  Mg16      1.0  0.80775  0.54981  0.69497  1.0000
  C   C177      1.0  0.81346  0.40256  0.45712  1.0000
  C   C178      1.0  0.81332  0.37009  0.49249  1.0000
  C  Sn33      1.0  0.84269  0.35672  0.58164  1.0000
  C  Sn34      1.0  0.87271  0.37627  0.63626  1.0000
  C   C179      1.0  0.87257  0.40873  0.60033  1.0000
  C   C180      1.0  0.84305  0.42186  0.51099  1.0000
  H   H97       1.0  0.79061  0.41272  0.38807  1.0000
  O  Te33      1.0  0.84212  0.32424  0.61586  1.0000
  O  Te34      1.0  0.90241  0.36353  0.72563  1.0000
  H   H98       1.0  0.84315  0.44700  0.48371  1.0000
  Mg  Mg17      1.0  0.88897  0.31795  0.74158  1.0000
  C   C181      1.0  0.18896  0.59304  0.46311  1.0000
  C   C182      1.0  0.18811  0.62610  0.48620  1.0000
  C  Sn35      1.0  0.15798  0.64060  0.56346  1.0000
  C  Sn36      1.0  0.12819  0.62161  0.61854  1.0000
  C   C183      1.0  0.12932  0.58855  0.59496  1.0000
  C   C184      1.0  0.15960  0.57429  0.51745  1.0000
  H   H99       1.0  0.21240  0.58200  0.40322  1.0000
  O  Te35      1.0  0.15756  0.67366  0.58549  1.0000
  O  Te36      1.0  0.09774  0.63549  0.69619  1.0000
  H   H100      1.0  0.16026  0.54869  0.49969  1.0000
  Mg  Mg18      1.0  0.10995  0.68149  0.69796  1.0000
  C   C185      1.0  0.17097  0.41642  0.04655  1.0000
  C   C186      1.0  0.14113  0.41625  0.95762  1.0000
  C  Sn37      1.0  0.13039  0.38651  0.89421  1.0000
  C  Sn38      1.0  0.15346  0.35956  0.92058  1.0000
  C   C187      1.0  0.18325  0.35998  0.00982  1.0000
  C   C188      1.0  0.19373  0.38984  0.07267  1.0000
  H   H101      1.0  0.17907  0.43952  0.09526  1.0000
  O  Te37      1.0  0.09705  0.38370  0.80559  1.0000
  O  Te38      1.0  0.14339  0.32956  0.85863  1.0000
  H   H102      1.0  0.21949  0.39234  0.14161  1.0000
  Mg  Mg19      1.0  0.09533  0.33782  0.74574  1.0000
  C   C189      1.0  0.81500  0.59647  0.05048  1.0000
  C   C190      1.0  0.81545  0.62934  0.02593  1.0000
  C  Sn39      1.0  0.84781  0.64628  0.94003  1.0000
  C  Sn40      1.0  0.87678  0.62681  0.87766  1.0000
  C   C191      1.0  0.87607  0.59395  0.90277  1.0000
  C   C192      1.0  0.84701  0.58032  0.98895  1.0000
  H   H103      1.0  0.79251  0.58592  0.11707  1.0000
  O  Te39      1.0  0.84783  0.67916  0.91666  1.0000
  O  Te40      1.0  0.90601  0.64005  0.79132  1.0000
  H   H104      1.0  0.84321  0.55180  0.00784  1.0000
  Mg  Mg20      1.0  0.89370  0.68605  0.79111  1.0000
  C   C193      1.0  0.33266  0.87537  0.69734  1.0000
  C   C194      1.0  0.33493  0.84584  0.61710  1.0000
  C  Sn41      1.0  0.36749  0.83694  0.53733  1.0000
  C  Sn42      1.0  0.39833  0.85804  0.53817  1.0000
  C   C195      1.0  0.39580  0.88752  0.61890  1.0000
  C   C196      1.0  0.36307  0.89619  0.69828  1.0000
  H   H105      1.0  0.30735  0.88207  0.75885  1.0000
  O  Te41      1.0  0.36928  0.80735  0.45769  1.0000
  O  Te42      1.0  0.43122  0.84974  0.45946  1.0000
  H   H106      1.0  0.36134  0.91905  0.76050  1.0000
  Mg  Mg21      1.0  0.42013  0.80682  0.36775  1.0000
  C   C197      1.0  0.61495  0.15994  0.49511  1.0000
  C   C198      1.0  0.64984  0.16313  0.57122  1.0000
  C  Sn43      1.0  0.66473  0.13813  0.66187  1.0000
  C  Sn44      1.0  0.64427  0.10945  0.67633  1.0000
  C   C199      1.0  0.60940  0.10649  0.59963  1.0000
  C   C200      1.0  0.59475  0.13166  0.50926  1.0000
  H   H107      1.0  0.60363  0.17941  0.42512  1.0000
  O  Te43      1.0  0.69962  0.14171  0.73718  1.0000
  O  Te44      1.0  0.65850  0.08409  0.76614  1.0000
  H   H108      1.0  0.56776  0.12918  0.45026  1.0000
  Mg  Mg22      1.0  0.70722  0.10042  0.84637  1.0000
  C   C201      1.0  0.66275  0.87118  0.79172  1.0000
  C   C202      1.0  0.66216  0.84360  0.88485  1.0000
  C  Sn45      1.0  0.63163  0.83710  0.98232  1.0000
  C  Sn46      1.0  0.60117  0.85865  0.98635  1.0000
  C   C203      1.0  0.60203  0.88615  0.89264  1.0000
  C   C204      1.0  0.63272  0.89243  0.79556  1.0000
  H   H109      1.0  0.68649  0.87603  0.71654  1.0000
  O  Te45      1.0  0.62804  0.80639  0.07466  1.0000
  O  Te46      1.0  0.56685  0.84966  0.08266  1.0000
  H   H110      1.0  0.63316  0.91377  0.72339  1.0000
  Mg  Mg23      1.0  0.57967  0.80878  0.18686  1.0000
  C   C205      1.0  0.34799  0.10941  0.81450  1.0000
  C   C206      1.0  0.38503  0.10929  0.86903  1.0000
  C  Sn47      1.0  0.39953  0.13543  0.95609  1.0000
  C  Sn48      1.0  0.37645  0.16215  0.98901  1.0000
  C   C207      1.0  0.33943  0.16204  0.93402  1.0000
  C   C208      1.0  0.32520  0.13575  0.84697  1.0000
  H   H111      1.0  0.33698  0.08907  0.74722  1.0000
  O  Te47      1.0  0.43315  0.13185  0.00963  1.0000
  O  Te48      1.0  0.38678  0.18553  0.07580  1.0000
  H   H112      1.0  0.29652  0.13585  0.80485  1.0000
  Mg  Mg24      1.0  0.43912  0.17356  0.12315  1.0000
