data_image0
_chemical_formula_structural       H112C184N24C2Sn2C2HTe2HMgC2Sn2C2HTe2HMgC2Sn2C2HTe2HMgC2Sn2C2HTe2HMgC2Sn2C2HTe2HMgC2Sn2C2HTe2HMgC2Sn2C2HTe2HMgC2Sn2C2HTe2HMgC2Sn2C2HTe2HMgC2Sn2C2HTe2HMgC2Sn2C2HTe2HMgC2Sn2C2HTe2HMg
_chemical_formula_sum              "H136 C232 N24 Sn24 Te24 Mg12"
_cell_length_a       35.9206
_cell_length_b       41.9674
_cell_length_c       8.21407
_cell_angle_alpha    90.8987
_cell_angle_beta     90.8656
_cell_angle_gamma    89.9295

_symmetry_space_group_name_H-M    'P1'
_space_group_IT_number       1

loop_
  _space_group_symop_operation_xyz
  'x, y, z'

loop_
  _atom_site_type_symbol
  _atom_site_label
  _atom_site_symmetry_multiplicity
  _atom_site_fract_x
  _atom_site_fract_y
  _atom_site_fract_z
  _atom_site_occupancy
  H   H1        1.0  0.42763  0.99547  0.11119  1.0000
  H   H2        1.0  0.57338  0.00473  0.11517  1.0000
  H   H3        1.0  0.57367  0.99706  0.38343  1.0000
  H   H4        1.0  0.42817  0.00347  0.37596  1.0000
  H   H5        1.0  0.38417  0.95116  0.04908  1.0000
  H   H6        1.0  0.61604  0.04885  0.05124  1.0000
  H   H7        1.0  0.61804  0.95367  0.44688  1.0000
  H   H8        1.0  0.38347  0.04690  0.43481  1.0000
  H   H9        1.0  0.46794  0.88220  0.17771  1.0000
  H   H10       1.0  0.53460  0.11825  0.19985  1.0000
  H   H11       1.0  0.53958  0.88314  0.27225  1.0000
  H   H12       1.0  0.46400  0.11749  0.30368  1.0000
  H   H13       1.0  0.35542  0.91345  0.24822  1.0000
  H   H14       1.0  0.64910  0.08761  0.23014  1.0000
  H   H15       1.0  0.30974  0.86929  0.25276  1.0000
  H   H16       1.0  0.69387  0.13236  0.22120  1.0000
  H   H17       1.0  0.61723  0.18506  0.44337  1.0000
  H   H18       1.0  0.62071  0.81440  0.06760  1.0000
  H   H19       1.0  0.57152  0.14055  0.45939  1.0000
  H   H20       1.0  0.57403  0.85850  0.05151  1.0000
  H   H21       1.0  0.29552  0.81424  0.21363  1.0000
  H   H22       1.0  0.70571  0.18676  0.18327  1.0000
  H   H23       1.0  0.71808  0.82179  0.36219  1.0000
  H   H24       1.0  0.28476  0.17843  0.36923  1.0000
  H   H25       1.0  0.24547  0.79104  0.16673  1.0000
  H   H26       1.0  0.75123  0.78583  0.31001  1.0000
  H   H27       1.0  0.25300  0.21367  0.29235  1.0000
  H   H28       1.0  0.20106  0.74599  0.17944  1.0000
  H   H29       1.0  0.79475  0.74024  0.30953  1.0000
  H   H30       1.0  0.20882  0.25852  0.27720  1.0000
  H   H31       1.0  0.28190  0.68510  0.38751  1.0000
  H   H32       1.0  0.71407  0.31609  0.43374  1.0000
  H   H33       1.0  0.28541  0.31593  0.08047  1.0000
  H   H34       1.0  0.32448  0.73168  0.38534  1.0000
  H   H35       1.0  0.67053  0.27013  0.41341  1.0000
  H   H36       1.0  0.32849  0.26952  0.08815  1.0000
  H   H37       1.0  0.24000  0.64940  0.40875  1.0000
  H   H38       1.0  0.76309  0.34559  0.39812  1.0000
  H   H39       1.0  0.76571  0.65355  0.12273  1.0000
  H   H40       1.0  0.23591  0.34592  0.11842  1.0000
  H   H41       1.0  0.14743  0.66912  0.15877  1.0000
  H   H42       1.0  0.10081  0.62696  0.21760  1.0000
  H   H43       1.0  0.16827  0.55434  0.45745  1.0000
  H   H44       1.0  0.21688  0.59450  0.39845  1.0000
  H   H45       1.0  0.94255  0.40086  0.04012  1.0000
  H   H46       1.0  0.05570  0.59809  0.04308  1.0000
  H   H47       1.0  0.05377  0.40109  0.44997  1.0000
  H   H48       1.0  0.94706  0.59999  0.45339  1.0000
  H   H49       1.0  0.99445  0.43694  0.11689  1.0000
  H   H50       1.0  0.00456  0.56133  0.11234  1.0000
  H   H51       1.0  0.00328  0.43913  0.37749  1.0000
  H   H52       1.0  0.99744  0.56219  0.37866  1.0000
  H   H53       1.0  0.86219  0.47145  0.18601  1.0000
  H   H54       1.0  0.13778  0.52957  0.19691  1.0000
  H   H55       1.0  0.13727  0.46955  0.32519  1.0000
  H   H56       1.0  0.86356  0.53216  0.29800  1.0000
  H   H57       1.0  0.42689  0.99561  0.61540  1.0000
  H   H58       1.0  0.57479  0.00313  0.62530  1.0000
  H   H59       1.0  0.57433  0.99435  0.88464  1.0000
  H   H60       1.0  0.42884  0.00365  0.87968  1.0000
  H   H61       1.0  0.38191  0.95220  0.56418  1.0000
  H   H62       1.0  0.61806  0.04688  0.56259  1.0000
  H   H63       1.0  0.61692  0.94965  0.95012  1.0000
  H   H64       1.0  0.38450  0.04736  0.93516  1.0000
  H   H65       1.0  0.46309  0.88222  0.70893  1.0000
  H   H66       1.0  0.53615  0.11696  0.69738  1.0000
  H   H67       1.0  0.53492  0.88124  0.78621  1.0000
  H   H68       1.0  0.46525  0.11709  0.79591  1.0000
  H   H69       1.0  0.65049  0.08680  0.74307  1.0000
  H   H70       1.0  0.64558  0.90910  0.73068  1.0000
  H   H71       1.0  0.69528  0.13149  0.73148  1.0000
  H   H72       1.0  0.69076  0.86440  0.73781  1.0000
  H   H73       1.0  0.38040  0.81234  0.94637  1.0000
  H   H74       1.0  0.61510  0.18710  0.94332  1.0000
  H   H75       1.0  0.42731  0.85608  0.94881  1.0000
  H   H76       1.0  0.56900  0.14280  0.96086  1.0000
  H   H77       1.0  0.28861  0.81543  0.69007  1.0000
  H   H78       1.0  0.70779  0.18577  0.68563  1.0000
  H   H79       1.0  0.70692  0.81140  0.81076  1.0000
  H   H80       1.0  0.28760  0.18014  0.83388  1.0000
  H   H81       1.0  0.24326  0.78840  0.63871  1.0000
  H   H82       1.0  0.75558  0.20843  0.60566  1.0000
  H   H83       1.0  0.24539  0.21095  0.84872  1.0000
  H   H84       1.0  0.20134  0.74169  0.64435  1.0000
  H   H85       1.0  0.79869  0.25461  0.63096  1.0000
  H   H86       1.0  0.20273  0.25712  0.83980  1.0000
  H   H87       1.0  0.27380  0.68802  0.88794  1.0000
  H   H88       1.0  0.72730  0.69209  0.65673  1.0000
  H   H89       1.0  0.27656  0.31284  0.61632  1.0000
  H   H90       1.0  0.31831  0.73289  0.87574  1.0000
  H   H91       1.0  0.68341  0.73768  0.65742  1.0000
  H   H92       1.0  0.32120  0.26754  0.63247  1.0000
  H   H93       1.0  0.22919  0.65729  0.88527  1.0000
  H   H94       1.0  0.76296  0.34726  0.88197  1.0000
  H   H95       1.0  0.77171  0.65709  0.63836  1.0000
  H   H96       1.0  0.22380  0.33766  0.64147  1.0000
  H   H97       1.0  0.15045  0.66773  0.62141  1.0000
  H   H98       1.0  0.10128  0.62780  0.67717  1.0000
  H   H99       1.0  0.16379  0.55936  0.93511  1.0000
  H   H100      1.0  0.20868  0.60190  0.86770  1.0000
  H   H101      1.0  0.94517  0.39952  0.55370  1.0000
  H   H102      1.0  0.05775  0.59695  0.53244  1.0000
  H   H103      1.0  0.05366  0.40235  0.96769  1.0000
  H   H104      1.0  0.94484  0.59928  0.95926  1.0000
  H   H105      1.0  0.99606  0.43707  0.62135  1.0000
  H   H106      1.0  0.00599  0.56177  0.61301  1.0000
  H   H107      1.0  0.00365  0.43927  0.88405  1.0000
  H   H108      1.0  0.99595  0.56311  0.87744  1.0000
  H   H109      1.0  0.86298  0.47003  0.67970  1.0000
  H   H110      1.0  0.13855  0.52883  0.70124  1.0000
  H   H111      1.0  0.13724  0.47028  0.83485  1.0000
  H   H112      1.0  0.86275  0.53048  0.80085  1.0000
  C   C1        1.0  0.53114  0.96447  0.29505  1.0000
  C   C2        1.0  0.47136  0.03597  0.30363  1.0000
  C   C3        1.0  0.47237  0.96389  0.18243  1.0000
  C   C4        1.0  0.52963  0.03658  0.19353  1.0000
  C   C5        1.0  0.48398  0.93170  0.19868  1.0000
  C   C6        1.0  0.51843  0.06879  0.21705  1.0000
  C   C7        1.0  0.52126  0.93208  0.26587  1.0000
  C   C8        1.0  0.48153  0.06840  0.28366  1.0000
  C   C9        1.0  0.43662  0.97105  0.12512  1.0000
  C   C10       1.0  0.56470  0.02920  0.13280  1.0000
  C   C11       1.0  0.56598  0.97245  0.36079  1.0000
  C   C12       1.0  0.43621  0.02807  0.36076  1.0000
  C   C13       1.0  0.41226  0.94586  0.09208  1.0000
  C   C14       1.0  0.58855  0.05425  0.09815  1.0000
  C   C15       1.0  0.59089  0.94784  0.39412  1.0000
  C   C16       1.0  0.41118  0.05273  0.39259  1.0000
  C   C17       1.0  0.42269  0.91366  0.11239  1.0000
  C   C18       1.0  0.57831  0.08650  0.12168  1.0000
  C   C19       1.0  0.58210  0.91545  0.36309  1.0000
  C   C20       1.0  0.42055  0.08517  0.37367  1.0000
  C   C21       1.0  0.45935  0.90681  0.16082  1.0000
  C   C22       1.0  0.54269  0.09353  0.17932  1.0000
  C   C23       1.0  0.54670  0.90784  0.30023  1.0000
  C   C24       1.0  0.45641  0.09272  0.32182  1.0000
  C   C25       1.0  0.39466  0.88794  0.09858  1.0000
  C   C26       1.0  0.60568  0.11216  0.09802  1.0000
  C   C27       1.0  0.36072  0.89149  0.18015  1.0000
  C   C28       1.0  0.64169  0.10920  0.16563  1.0000
  C   C29       1.0  0.33524  0.86658  0.18376  1.0000
  C   C30       1.0  0.66673  0.13439  0.16131  1.0000
  C   C31       1.0  0.34208  0.83764  0.10070  1.0000
  C   C32       1.0  0.65723  0.16293  0.08338  1.0000
  C   C33       1.0  0.37542  0.83443  0.01367  1.0000
  C   C34       1.0  0.62195  0.16532  0.00738  1.0000
  C   C35       1.0  0.40147  0.85897  0.01512  1.0000
  C   C36       1.0  0.59645  0.14055  0.01737  1.0000
  C   C37       1.0  0.31474  0.81205  0.11101  1.0000
  C   C38       1.0  0.68363  0.18923  0.09021  1.0000
  C   C39       1.0  0.69152  0.81571  0.41887  1.0000
  C   C40       1.0  0.31170  0.18535  0.42437  1.0000
  C   C41       1.0  0.28584  0.76482  0.02254  1.0000
  C   C42       1.0  0.71393  0.76511  0.48594  1.0000
  C   C43       1.0  0.29019  0.23721  0.46786  1.0000
  C   C44       1.0  0.25198  0.76856  0.10578  1.0000
  C   C45       1.0  0.74603  0.76588  0.38916  1.0000
  C   C46       1.0  0.25800  0.23480  0.36772  1.0000
  C   C47       1.0  0.22679  0.74355  0.11219  1.0000
  C   C48       1.0  0.77058  0.74045  0.38759  1.0000
  C   C49       1.0  0.23312  0.25997  0.35744  1.0000
  C   C50       1.0  0.23385  0.71397  0.03455  1.0000
  C   C51       1.0  0.76453  0.71320  0.48205  1.0000
  C   C52       1.0  0.23887  0.28846  0.44754  1.0000
  C   C53       1.0  0.27347  0.70748  0.44466  1.0000
  C   C54       1.0  0.72326  0.29265  0.47251  1.0000
  C   C55       1.0  0.27642  0.29305  0.02979  1.0000
  C   C56       1.0  0.29744  0.73344  0.44269  1.0000
  C   C57       1.0  0.69872  0.26710  0.46107  1.0000
  C   C58       1.0  0.30071  0.26722  0.03455  1.0000
  C   C59       1.0  0.21583  0.65746  0.47918  1.0000
  C   C60       1.0  0.78522  0.33913  0.48564  1.0000
  C   C61       1.0  0.78752  0.66053  0.03763  1.0000
  C   C62       1.0  0.21428  0.34006  0.02659  1.0000
  C   C63       1.0  0.18107  0.63838  0.01038  1.0000
  C   C64       1.0  0.15019  0.64511  0.10855  1.0000
  C   C65       1.0  0.12444  0.62160  0.14051  1.0000
  C   C66       1.0  0.12885  0.59024  0.07943  1.0000
  C   C67       1.0  0.16439  0.57910  0.49466  1.0000
  C   C68       1.0  0.19169  0.60164  0.46170  1.0000
  C   C69       1.0  0.89900  0.43366  0.10765  1.0000
  C   C70       1.0  0.10006  0.56638  0.11504  1.0000
  C   C71       1.0  0.09871  0.43283  0.39265  1.0000
  C   C72       1.0  0.90208  0.56876  0.38012  1.0000
  C   C73       1.0  0.93658  0.42454  0.08874  1.0000
  C   C74       1.0  0.06220  0.57483  0.09293  1.0000
  C   C75       1.0  0.06074  0.42459  0.40558  1.0000
  C   C76       1.0  0.94008  0.57669  0.40178  1.0000
  C   C77       1.0  0.96600  0.44492  0.12853  1.0000
  C   C78       1.0  0.03329  0.55427  0.12958  1.0000
  C   C79       1.0  0.03222  0.44569  0.36611  1.0000
  C   C80       1.0  0.96854  0.55552  0.36278  1.0000
  C   C81       1.0  0.95764  0.47537  0.18779  1.0000
  C   C82       1.0  0.04245  0.52463  0.19277  1.0000
  C   C83       1.0  0.04204  0.47535  0.30689  1.0000
  C   C84       1.0  0.95870  0.52558  0.30050  1.0000
  C   C85       1.0  0.92005  0.48518  0.20776  1.0000
  C   C86       1.0  0.08021  0.51554  0.21888  1.0000
  C   C87       1.0  0.07995  0.48429  0.29006  1.0000
  C   C88       1.0  0.92075  0.51694  0.27707  1.0000
  C   C89       1.0  0.89096  0.46434  0.16643  1.0000
  C   C90       1.0  0.10884  0.53632  0.17675  1.0000
  C   C91       1.0  0.10812  0.46312  0.33727  1.0000
  C   C92       1.0  0.89264  0.53852  0.31820  1.0000
  C   C93       1.0  0.53002  0.96292  0.80192  1.0000
  C   C94       1.0  0.47220  0.03561  0.80443  1.0000
  C   C95       1.0  0.47085  0.96357  0.69213  1.0000
  C   C96       1.0  0.53065  0.03531  0.69649  1.0000
  C   C97       1.0  0.48109  0.93120  0.71471  1.0000
  C   C98       1.0  0.51970  0.06770  0.71658  1.0000
  C   C99       1.0  0.51859  0.93077  0.77851  1.0000
  C   C100      1.0  0.48267  0.06786  0.78199  1.0000
  C   C101      1.0  0.43518  0.97116  0.63457  1.0000
  C   C102      1.0  0.56603  0.02766  0.63977  1.0000
  C   C103      1.0  0.56539  0.96997  0.86523  1.0000
  C   C104      1.0  0.43704  0.02812  0.86239  1.0000
  C   C105      1.0  0.40982  0.94642  0.60761  1.0000
  C   C106      1.0  0.59034  0.05252  0.60633  1.0000
  C   C107      1.0  0.58933  0.94468  0.89940  1.0000
  C   C108      1.0  0.41221  0.05296  0.89248  1.0000
  C   C109      1.0  0.41906  0.91415  0.63408  1.0000
  C   C110      1.0  0.58022  0.08489  0.62594  1.0000
  C   C111      1.0  0.57904  0.91259  0.87062  1.0000
  C   C112      1.0  0.42172  0.08524  0.86982  1.0000
  C   C113      1.0  0.45541  0.90680  0.68470  1.0000
  C   C114      1.0  0.54429  0.09219  0.67891  1.0000
  C   C115      1.0  0.54312  0.90579  0.81214  1.0000
  C   C116      1.0  0.45758  0.09244  0.81694  1.0000
  C   C117      1.0  0.60770  0.11053  0.60310  1.0000
  C   C118      1.0  0.60673  0.88684  0.89026  1.0000
  C   C119      1.0  0.64333  0.10803  0.67507  1.0000
  C   C120      1.0  0.64043  0.88861  0.80640  1.0000
  C   C121      1.0  0.66834  0.13325  0.66968  1.0000
  C   C122      1.0  0.66574  0.86351  0.81066  1.0000
  C   C123      1.0  0.65903  0.16144  0.58811  1.0000
  C   C124      1.0  0.65877  0.83653  0.90468  1.0000
  C   C125      1.0  0.62399  0.16350  0.50961  1.0000
  C   C126      1.0  0.62561  0.83519  0.99354  1.0000
  C   C127      1.0  0.59865  0.13861  0.51925  1.0000
  C   C128      1.0  0.59977  0.85976  0.98394  1.0000
  C   C129      1.0  0.31152  0.81226  0.60394  1.0000
  C   C130      1.0  0.68538  0.18780  0.59357  1.0000
  C   C131      1.0  0.68552  0.81044  0.90492  1.0000
  C   C132      1.0  0.31269  0.18576  0.90734  1.0000
  C   C133      1.0  0.28781  0.76294  0.51554  1.0000
  C   C134      1.0  0.70933  0.23645  0.51249  1.0000
  C   C135      1.0  0.29050  0.23705  0.97016  1.0000
  C   C136      1.0  0.25229  0.76589  0.58517  1.0000
  C   C137      1.0  0.74609  0.23200  0.57067  1.0000
  C   C138      1.0  0.25448  0.23368  0.90091  1.0000
  C   C139      1.0  0.22846  0.73996  0.58777  1.0000
  C   C140      1.0  0.77045  0.25755  0.58364  1.0000
  C   C141      1.0  0.23030  0.25945  0.89539  1.0000
  C   C142      1.0  0.23851  0.71015  0.51981  1.0000
  C   C143      1.0  0.75971  0.28833  0.53485  1.0000
  C   C144      1.0  0.24043  0.28962  0.96043  1.0000
  C   C145      1.0  0.26741  0.71045  0.94933  1.0000
  C   C146      1.0  0.73282  0.71254  0.58116  1.0000
  C   C147      1.0  0.27107  0.29099  0.54722  1.0000
  C   C148      1.0  0.29255  0.73545  0.94246  1.0000
  C   C149      1.0  0.70807  0.73804  0.58220  1.0000
  C   C150      1.0  0.29621  0.26583  0.55639  1.0000
  C   C151      1.0  0.20818  0.66320  0.97701  1.0000
  C   C152      1.0  0.78326  0.34153  0.97884  1.0000
  C   C153      1.0  0.79129  0.66281  0.54126  1.0000
  C   C154      1.0  0.20815  0.33577  0.52549  1.0000
  C   C155      1.0  0.18698  0.63382  0.50783  1.0000
  C   C156      1.0  0.15374  0.64289  0.58468  1.0000
  C   C157      1.0  0.12643  0.62058  0.61437  1.0000
  C   C158      1.0  0.13118  0.58818  0.57091  1.0000
  C   C159      1.0  0.16015  0.58331  0.98474  1.0000
  C   C160      1.0  0.18548  0.60723  0.94754  1.0000
  C   C161      1.0  0.90054  0.43227  0.60957  1.0000
  C   C162      1.0  0.10163  0.56527  0.60996  1.0000
  C   C163      1.0  0.09907  0.43363  0.90761  1.0000
  C   C164      1.0  0.90040  0.56738  0.88622  1.0000
  C   C165      1.0  0.93841  0.42353  0.59542  1.0000
  C   C166      1.0  0.06391  0.57407  0.58698  1.0000
  C   C167      1.0  0.06101  0.42549  0.91983  1.0000
  C   C168      1.0  0.93827  0.57606  0.90568  1.0000
  C   C169      1.0  0.96737  0.44464  0.63178  1.0000
  C   C170      1.0  0.03461  0.55431  0.62908  1.0000
  C   C171      1.0  0.03250  0.44618  0.87446  1.0000
  C   C172      1.0  0.96726  0.55565  0.86305  1.0000
  C   C173      1.0  0.95836  0.47530  0.68680  1.0000
  C   C174      1.0  0.04313  0.52473  0.69463  1.0000
  C   C175      1.0  0.04209  0.47576  0.81287  1.0000
  C   C176      1.0  0.95821  0.52561  0.79937  1.0000
  C   C177      1.0  0.92052  0.48458  0.70556  1.0000
  C   C178      1.0  0.08075  0.51544  0.72236  1.0000
  C   C179      1.0  0.08006  0.48455  0.79710  1.0000
  C   C180      1.0  0.92040  0.51635  0.77575  1.0000
  C   C181      1.0  0.89196  0.46319  0.66408  1.0000
  C   C182      1.0  0.10973  0.53563  0.67814  1.0000
  C   C183      1.0  0.10817  0.46368  0.84756  1.0000
  C   C184      1.0  0.89176  0.53721  0.82076  1.0000
  N   N1        1.0  0.31348  0.78825  0.00898  1.0000
  N   N2        1.0  0.68092  0.21390  0.99822  1.0000
  N   N3        1.0  0.68616  0.78868  0.48859  1.0000
  N   N4        1.0  0.31791  0.21376  0.48165  1.0000
  N   N5        1.0  0.20698  0.69030  0.05434  1.0000
  N   N6        1.0  0.78284  0.31539  0.05983  1.0000
  N   N7        1.0  0.79066  0.68896  0.46016  1.0000
  N   N8        1.0  0.21250  0.31253  0.42228  1.0000
  N   N9        1.0  0.50133  0.98370  0.24215  1.0000
  N   N10       1.0  0.50087  0.01676  0.24761  1.0000
  N   N11       1.0  0.98093  0.50018  0.24537  1.0000
  N   N12       1.0  0.01953  0.49996  0.24661  1.0000
  N   N13       1.0  0.31461  0.78724  0.51073  1.0000
  N   N14       1.0  0.68241  0.21230  0.50051  1.0000
  N   N15       1.0  0.68365  0.78712  0.00560  1.0000
  N   N16       1.0  0.31761  0.21298  0.98081  1.0000
  N   N17       1.0  0.21212  0.68610  0.53737  1.0000
  N   N18       1.0  0.78673  0.31194  0.55736  1.0000
  N   N19       1.0  0.78896  0.68811  0.96999  1.0000
  N   N20       1.0  0.21345  0.31351  0.94412  1.0000
  N   N21       1.0  0.50097  0.98280  0.74601  1.0000
  N   N22       1.0  0.50151  0.01592  0.75115  1.0000
  N   N23       1.0  0.98110  0.50064  0.74281  1.0000
  N   N24       1.0  0.01979  0.50043  0.75051  1.0000
  C   C185      1.0  0.61712  0.83912  0.47469  1.0000
  C   C186      1.0  0.65353  0.83809  0.41724  1.0000
  C  Sn1       1.0  0.66921  0.86498  0.34727  1.0000
  C  Sn2       1.0  0.64797  0.89339  0.33479  1.0000
  C   C187      1.0  0.61158  0.89418  0.39273  1.0000
  C   C188      1.0  0.59617  0.86714  0.46248  1.0000
  H   H113      1.0  0.60520  0.81821  0.52874  1.0000
  O  Te1       1.0  0.70562  0.86353  0.29044  1.0000
  O  Te2       1.0  0.66296  0.92061  0.26545  1.0000
  H   H114      1.0  0.56798  0.86795  0.50705  1.0000
  Mg  Mg1       1.0  0.71376  0.90685  0.20555  1.0000
  C   C189      1.0  0.33266  0.87537  0.69734  1.0000
  C   C190      1.0  0.33493  0.84584  0.61710  1.0000
  C  Sn3       1.0  0.36749  0.83694  0.53733  1.0000
  C  Sn4       1.0  0.39833  0.85804  0.53817  1.0000
  C   C191      1.0  0.39580  0.88752  0.61890  1.0000
  C   C192      1.0  0.36307  0.89619  0.69828  1.0000
  H   H115      1.0  0.30735  0.88207  0.75885  1.0000
  O  Te3       1.0  0.36928  0.80735  0.45769  1.0000
  O  Te4       1.0  0.43122  0.84974  0.45946  1.0000
  H   H116      1.0  0.36134  0.91905  0.76050  1.0000
  Mg  Mg2       1.0  0.42013  0.80682  0.36775  1.0000
  C   C193      1.0  0.76236  0.25445  0.12868  1.0000
  C   C194      1.0  0.75974  0.28364  0.04973  1.0000
  C  Sn5       1.0  0.73200  0.29368  0.95295  1.0000
  C  Sn6       1.0  0.70294  0.27096  0.93515  1.0000
  C   C195      1.0  0.70237  0.23877  0.01473  1.0000
  C   C196      1.0  0.73371  0.23203  0.11124  1.0000
  H   H117      1.0  0.78659  0.24924  0.20343  1.0000
  O  Te5       1.0  0.72984  0.32295  0.87488  1.0000
  O  Te6       1.0  0.67146  0.27732  0.83920  1.0000
  H   H118      1.0  0.73572  0.20944  0.17244  1.0000
  Mg  Mg3       1.0  0.68136  0.32056  0.75722  1.0000
  C   C197      1.0  0.87138  0.63092  0.87452  1.0000
  C   C198      1.0  0.87427  0.59934  0.92478  1.0000
  C  Sn7       1.0  0.84232  0.58257  0.01391  1.0000
  C  Sn8       1.0  0.81037  0.60087  0.05324  1.0000
  C   C199      1.0  0.80773  0.63243  0.00230  1.0000
  C   C200      1.0  0.83986  0.64898  0.91320  1.0000
  H   H119      1.0  0.89356  0.64135  0.80550  1.0000
  O  Te7       1.0  0.84567  0.55099  0.06322  1.0000
  O  Te8       1.0  0.78147  0.58776  0.14214  1.0000
  H   H120      1.0  0.83760  0.67342  0.87422  1.0000
  Mg  Mg4       1.0  0.79892  0.54375  0.18197  1.0000
  C   C201      1.0  0.39972  0.14795  0.98548  1.0000
  C   C202      1.0  0.39589  0.11722  0.91929  1.0000
  C  Sn9       1.0  0.36293  0.10823  0.83872  1.0000
  C  Sn10      1.0  0.33331  0.13045  0.82430  1.0000
  C   C203      1.0  0.33743  0.16113  0.89084  1.0000
  C   C204      1.0  0.37053  0.16988  0.97126  1.0000
  H   H121      1.0  0.42189  0.15166  0.04763  1.0000
  O  Te9       1.0  0.35956  0.07743  0.77336  1.0000
  O  Te10      1.0  0.30007  0.12209  0.74435  1.0000
  H   H122      1.0  0.37005  0.19061  0.02240  1.0000
  Mg  Mg5       1.0  0.30882  0.07731  0.67556  1.0000
  C   C205      1.0  0.75750  0.76509  0.94443  1.0000
  C   C206      1.0  0.71982  0.76520  0.98441  1.0000
  C  Sn11      1.0  0.69929  0.73424  0.03611  1.0000
  C  Sn12      1.0  0.72041  0.70575  0.04793  1.0000
  C   C207      1.0  0.75809  0.70590  0.00776  1.0000
  C   C208      1.0  0.77834  0.73701  0.95611  1.0000
  H   H123      1.0  0.77051  0.78679  0.90455  1.0000
  O  Te11      1.0  0.66162  0.73477  0.07553  1.0000
  O  Te12      1.0  0.70404  0.67754  0.09932  1.0000
  H   H124      1.0  0.80752  0.73692  0.92526  1.0000
  Mg  Mg6       1.0  0.65184  0.69028  0.13946  1.0000
  C   C209      1.0  0.33259  0.12282  0.33253  1.0000
  C   C210      1.0  0.33552  0.15213  0.41477  1.0000
  C  Sn13      1.0  0.36929  0.16143  0.48742  1.0000
  C  Sn14      1.0  0.40066  0.14096  0.47730  1.0000
  C   C211      1.0  0.39745  0.11169  0.39465  1.0000
  C   C212      1.0  0.36352  0.10262  0.32244  1.0000
  H   H125      1.0  0.30634  0.11580  0.27658  1.0000
  O  Te13      1.0  0.37174  0.19080  0.56916  1.0000
  O  Te14      1.0  0.43475  0.14967  0.54875  1.0000
  H   H126      1.0  0.36127  0.07993  0.25868  1.0000
  Mg  Mg7       1.0  0.42419  0.19206  0.64684  1.0000
  C   C213      1.0  0.81346  0.40256  0.45712  1.0000
  C   C214      1.0  0.81332  0.37009  0.49249  1.0000
  C  Sn15      1.0  0.84269  0.35672  0.58164  1.0000
  C  Sn16      1.0  0.87271  0.37627  0.63626  1.0000
  C   C215      1.0  0.87257  0.40873  0.60033  1.0000
  C   C216      1.0  0.84305  0.42186  0.51099  1.0000
  H   H127      1.0  0.79061  0.41272  0.38807  1.0000
  O  Te15      1.0  0.84212  0.32424  0.61586  1.0000
  O  Te16      1.0  0.90241  0.36353  0.72563  1.0000
  H   H128      1.0  0.84315  0.44700  0.48371  1.0000
  Mg  Mg8       1.0  0.88897  0.31795  0.74158  1.0000
  C   C217      1.0  0.14174  0.35699  0.36399  1.0000
  C   C218      1.0  0.17468  0.35913  0.45619  1.0000
  C  Sn17      1.0  0.18297  0.38688  0.54561  1.0000
  C  Sn18      1.0  0.15776  0.41293  0.54248  1.0000
  C   C219      1.0  0.12486  0.41053  0.44995  1.0000
  C   C220      1.0  0.11684  0.38266  0.36088  1.0000
  H   H129      1.0  0.13552  0.33542  0.29514  1.0000
  O  Te17      1.0  0.21602  0.38863  0.63703  1.0000
  O  Te18      1.0  0.16535  0.44094  0.63076  1.0000
  H   H130      1.0  0.09132  0.38100  0.28960  1.0000
  Mg  Mg9       1.0  0.21399  0.43185  0.73690  1.0000
  C   C221      1.0  0.17097  0.41642  0.04655  1.0000
  C   C222      1.0  0.14113  0.41625  0.95762  1.0000
  C  Sn19      1.0  0.13039  0.38651  0.89421  1.0000
  C  Sn20      1.0  0.15346  0.35956  0.92058  1.0000
  C   C223      1.0  0.18325  0.35998  0.00982  1.0000
  C   C224      1.0  0.19373  0.38984  0.07267  1.0000
  H   H131      1.0  0.17907  0.43952  0.09526  1.0000
  O  Te19      1.0  0.09705  0.38370  0.80559  1.0000
  O  Te20      1.0  0.14339  0.32956  0.85863  1.0000
  H   H132      1.0  0.21949  0.39234  0.14161  1.0000
  Mg  Mg10      1.0  0.09533  0.33782  0.74574  1.0000
  C   C225      1.0  0.83417  0.58662  0.53935  1.0000
  C   C226      1.0  0.86417  0.58925  0.43407  1.0000
  C  Sn21      1.0  0.87284  0.61862  0.36651  1.0000
  C  Sn22      1.0  0.85103  0.64583  0.40534  1.0000
  C   C227      1.0  0.82109  0.64295  0.51089  1.0000
  C   C228      1.0  0.81265  0.61344  0.57777  1.0000
  H   H133      1.0  0.82766  0.56379  0.59117  1.0000
  O  Te21      1.0  0.90291  0.62083  0.26150  1.0000
  O  Te22      1.0  0.85908  0.67547  0.33958  1.0000
  H   H134      1.0  0.78943  0.61142  0.65936  1.0000
  Mg  Mg11      1.0  0.90285  0.66641  0.20258  1.0000
  C   C229      1.0  0.82926  0.41590  0.95356  1.0000
  C   C230      1.0  0.85661  0.41078  0.05889  1.0000
  C  Sn23      1.0  0.86439  0.38238  0.13925  1.0000
  C  Sn24      1.0  0.84086  0.35559  0.11340  1.0000
  C   C231      1.0  0.81013  0.35789  0.00770  1.0000
  C   C232      1.0  0.80605  0.38949  0.92795  1.0000
  H   H135      1.0  0.82344  0.43797  0.89179  1.0000
  O  Te23      1.0  0.89527  0.38074  0.24412  1.0000
  O  Te24      1.0  0.84800  0.32692  0.19211  1.0000
  H   H136      1.0  0.78222  0.39107  0.84633  1.0000
  Mg  Mg12      1.0  0.89342  0.33645  0.32341  1.0000
