data_image0
_chemical_formula_structural       H88C152N16C2Sn2C2HTe2HMgC2Sn2C2HTe2HMgC2Sn2C2HTe2HMgC2Sn2C2HTe2HMgC2Sn2C2HTe2HMgC2Sn2C2HTe2HMgC2Sn2C2HTe2HMgC2Sn2C2HTe2HMg
_chemical_formula_sum              "H104 C184 N16 Sn16 Te16 Mg8"
_cell_length_a       28.6259
_cell_length_b       31.4867
_cell_length_c       8.15553
_cell_angle_alpha    88.6239
_cell_angle_beta     90.1013
_cell_angle_gamma    89.9945

_symmetry_space_group_name_H-M    'P1'
_space_group_IT_number       1

loop_
  _space_group_symop_operation_xyz
  'x, y, z'

loop_
  _atom_site_type_symbol
  _atom_site_label
  _atom_site_symmetry_multiplicity
  _atom_site_fract_x
  _atom_site_fract_y
  _atom_site_fract_z
  _atom_site_occupancy
  H   H1        1.0  0.54755  0.84436  0.22892  1.0000
  H   H2        1.0  0.45178  0.15588  0.25006  1.0000
  H   H3        1.0  0.45315  0.84494  0.26779  1.0000
  H   H4        1.0  0.54676  0.15714  0.29556  1.0000
  H   H5        1.0  0.64968  0.93783  0.07887  1.0000
  H   H6        1.0  0.35336  0.06295  0.08271  1.0000
  H   H7        1.0  0.35324  0.93664  0.43431  1.0000
  H   H8        1.0  0.65079  0.06403  0.43118  1.0000
  H   H9        1.0  0.59366  0.99590  0.12741  1.0000
  H   H10       1.0  0.41180  0.00569  0.12140  1.0000
  H   H11       1.0  0.41120  0.99434  0.39938  1.0000
  H   H12       1.0  0.59446  0.00575  0.39063  1.0000
  H   H13       1.0  0.59735  0.80436  0.06090  1.0000
  H   H14       1.0  0.40157  0.19708  0.07236  1.0000
  H   H15       1.0  0.40328  0.80237  0.43238  1.0000
  H   H16       1.0  0.65702  0.74762  0.11020  1.0000
  H   H17       1.0  0.34099  0.25222  0.12192  1.0000
  H   H18       1.0  0.34326  0.74715  0.37766  1.0000
  H   H19       1.0  0.75075  0.83995  0.30701  1.0000
  H   H20       1.0  0.25007  0.15626  0.32584  1.0000
  H   H21       1.0  0.25070  0.84383  0.18718  1.0000
  H   H22       1.0  0.69103  0.89615  0.26440  1.0000
  H   H23       1.0  0.31059  0.10146  0.28031  1.0000
  H   H24       1.0  0.31082  0.89868  0.23677  1.0000
  H   H25       1.0  0.77533  0.76833  0.30145  1.0000
  H   H26       1.0  0.22347  0.22805  0.31509  1.0000
  H   H27       1.0  0.22441  0.77206  0.19384  1.0000
  H   H28       1.0  0.77117  0.23206  0.15839  1.0000
  H   H29       1.0  0.17445  0.27410  0.16256  1.0000
  H   H30       1.0  0.82186  0.72294  0.16064  1.0000
  H   H31       1.0  0.11429  0.32940  0.19807  1.0000
  H   H32       1.0  0.88254  0.66835  0.20984  1.0000
  H   H33       1.0  0.21486  0.40798  0.43895  1.0000
  H   H34       1.0  0.78286  0.58980  0.46888  1.0000
  H   H35       1.0  0.27569  0.35286  0.39776  1.0000
  H   H36       1.0  0.72161  0.64476  0.41698  1.0000
  H   H37       1.0  0.92957  0.36953  0.04008  1.0000
  H   H38       1.0  0.06957  0.63931  0.08836  1.0000
  H   H39       1.0  0.06835  0.36402  0.39925  1.0000
  H   H40       1.0  0.92869  0.63394  0.42503  1.0000
  H   H41       1.0  0.99295  0.42149  0.08505  1.0000
  H   H42       1.0  0.00551  0.58722  0.11772  1.0000
  H   H43       1.0  0.00481  0.41632  0.36069  1.0000
  H   H44       1.0  0.99294  0.58318  0.37868  1.0000
  H   H45       1.0  0.82795  0.45627  0.23032  1.0000
  H   H46       1.0  0.17129  0.54371  0.21904  1.0000
  H   H47       1.0  0.17098  0.45766  0.25627  1.0000
  H   H48       1.0  0.82682  0.54174  0.27913  1.0000
  H   H49       1.0  0.54534  0.84291  0.73582  1.0000
  H   H50       1.0  0.45600  0.15666  0.72769  1.0000
  H   H51       1.0  0.45153  0.84341  0.78202  1.0000
  H   H52       1.0  0.54827  0.15545  0.77803  1.0000
  H   H53       1.0  0.64702  0.93603  0.57886  1.0000
  H   H54       1.0  0.35172  0.06614  0.58552  1.0000
  H   H55       1.0  0.34955  0.93595  0.92351  1.0000
  H   H56       1.0  0.64951  0.06131  0.92948  1.0000
  H   H57       1.0  0.59060  0.99418  0.62298  1.0000
  H   H58       1.0  0.40755  0.00705  0.62567  1.0000
  H   H59       1.0  0.40737  0.99380  0.88994  1.0000
  H   H60       1.0  0.59213  0.00384  0.88937  1.0000
  H   H61       1.0  0.40357  0.19833  0.54765  1.0000
  H   H62       1.0  0.39692  0.80344  0.96872  1.0000
  H   H63       1.0  0.59965  0.19473  0.95570  1.0000
  H   H64       1.0  0.34581  0.25556  0.60561  1.0000
  H   H65       1.0  0.33894  0.74693  0.90498  1.0000
  H   H66       1.0  0.65792  0.25179  0.89465  1.0000
  H   H67       1.0  0.25736  0.16373  0.84906  1.0000
  H   H68       1.0  0.25585  0.83893  0.63844  1.0000
  H   H69       1.0  0.74785  0.16021  0.67368  1.0000
  H   H70       1.0  0.31521  0.10706  0.79577  1.0000
  H   H71       1.0  0.31352  0.89509  0.70040  1.0000
  H   H72       1.0  0.68952  0.10362  0.72989  1.0000
  H   H73       1.0  0.77323  0.76789  0.82058  1.0000
  H   H74       1.0  0.23100  0.23441  0.82358  1.0000
  H   H75       1.0  0.22826  0.76842  0.65944  1.0000
  H   H76       1.0  0.77322  0.23111  0.68021  1.0000
  H   H77       1.0  0.92811  0.36624  0.54919  1.0000
  H   H78       1.0  0.06777  0.63680  0.58242  1.0000
  H   H79       1.0  0.07147  0.36161  0.89451  1.0000
  H   H80       1.0  0.93015  0.63120  0.93026  1.0000
  H   H81       1.0  0.99209  0.41771  0.59217  1.0000
  H   H82       1.0  0.00436  0.58417  0.61422  1.0000
  H   H83       1.0  0.00628  0.41209  0.85441  1.0000
  H   H84       1.0  0.99345  0.57919  0.88504  1.0000
  H   H85       1.0  0.82666  0.45628  0.71607  1.0000
  H   H86       1.0  0.16998  0.54344  0.73283  1.0000
  H   H87       1.0  0.17177  0.45927  0.77630  1.0000
  H   H88       1.0  0.82697  0.54155  0.77191  1.0000
  C   C1        1.0  0.46488  0.95220  0.31352  1.0000
  C   C2        1.0  0.53868  0.04848  0.31770  1.0000
  C   C3        1.0  0.53881  0.95286  0.20613  1.0000
  C   C4        1.0  0.46462  0.04850  0.21033  1.0000
  C   C5        1.0  0.86353  0.44909  0.19307  1.0000
  C   C6        1.0  0.13536  0.55293  0.19276  1.0000
  C   C7        1.0  0.13501  0.44885  0.28350  1.0000
  C   C8        1.0  0.86278  0.55024  0.30686  1.0000
  C   C9        1.0  0.47753  0.90943  0.28454  1.0000
  C   C10       1.0  0.52442  0.09156  0.29810  1.0000
  C   C11       1.0  0.52501  0.90970  0.22599  1.0000
  C   C12       1.0  0.47686  0.09142  0.23893  1.0000
  C   C13       1.0  0.55721  0.87719  0.20127  1.0000
  C   C14       1.0  0.44348  0.12343  0.21746  1.0000
  C   C15       1.0  0.44436  0.87715  0.30208  1.0000
  C   C16       1.0  0.55664  0.12426  0.32116  1.0000
  C   C17       1.0  0.60313  0.88723  0.15547  1.0000
  C   C18       1.0  0.39802  0.11319  0.16783  1.0000
  C   C19       1.0  0.39859  0.88694  0.34896  1.0000
  C   C20       1.0  0.60308  0.11443  0.36123  1.0000
  C   C21       1.0  0.61470  0.93025  0.12269  1.0000
  C   C22       1.0  0.38803  0.07068  0.12808  1.0000
  C   C23       1.0  0.38810  0.92924  0.39025  1.0000
  C   C24       1.0  0.61524  0.07150  0.39286  1.0000
  C   C25       1.0  0.58326  0.96320  0.14787  1.0000
  C   C26       1.0  0.42077  0.03820  0.14775  1.0000
  C   C27       1.0  0.42065  0.96196  0.37352  1.0000
  C   C28       1.0  0.58366  0.03841  0.37211  1.0000
  C   C29       1.0  0.63965  0.85424  0.16176  1.0000
  C   C30       1.0  0.36070  0.14539  0.17561  1.0000
  C   C31       1.0  0.36162  0.85453  0.33656  1.0000
  C   C32       1.0  0.63073  0.81202  0.11705  1.0000
  C   C33       1.0  0.36861  0.18828  0.13012  1.0000
  C   C34       1.0  0.37008  0.81137  0.37645  1.0000
  C   C35       1.0  0.66380  0.78031  0.14343  1.0000
  C   C36       1.0  0.33498  0.21912  0.15682  1.0000
  C   C37       1.0  0.33672  0.78046  0.34707  1.0000
  C   C38       1.0  0.70717  0.78982  0.21547  1.0000
  C   C39       1.0  0.29201  0.20816  0.23006  1.0000
  C   C40       1.0  0.29337  0.79165  0.27659  1.0000
  C   C41       1.0  0.71717  0.83226  0.25209  1.0000
  C   C42       1.0  0.28322  0.16517  0.26943  1.0000
  C   C43       1.0  0.28409  0.83479  0.24202  1.0000
  C   C44       1.0  0.68387  0.86391  0.22639  1.0000
  C   C45       1.0  0.31700  0.13431  0.24249  1.0000
  C   C46       1.0  0.31768  0.86568  0.27125  1.0000
  C   C47       1.0  0.74111  0.75699  0.25877  1.0000
  C   C48       1.0  0.25714  0.24018  0.26854  1.0000
  C   C49       1.0  0.25853  0.75981  0.23601  1.0000
  C   C50       1.0  0.73966  0.24377  0.22018  1.0000
  C   C51       1.0  0.22920  0.30946  0.28044  1.0000
  C   C52       1.0  0.76772  0.68790  0.28912  1.0000
  C   C53       1.0  0.18295  0.30285  0.22775  1.0000
  C   C54       1.0  0.81377  0.69461  0.23403  1.0000
  C   C55       1.0  0.14915  0.33409  0.24771  1.0000
  C   C56       1.0  0.84784  0.66380  0.26154  1.0000
  C   C57       1.0  0.15984  0.37288  0.32127  1.0000
  C   C58       1.0  0.83740  0.62526  0.34424  1.0000
  C   C59       1.0  0.20593  0.37888  0.37673  1.0000
  C   C60       1.0  0.79150  0.61900  0.40144  1.0000
  C   C61       1.0  0.24012  0.34810  0.35486  1.0000
  C   C62       1.0  0.75710  0.64958  0.37304  1.0000
  C   C63       1.0  0.87449  0.40870  0.13564  1.0000
  C   C64       1.0  0.12467  0.59552  0.15570  1.0000
  C   C65       1.0  0.12399  0.40664  0.32640  1.0000
  C   C66       1.0  0.87348  0.59176  0.35201  1.0000
  C   C67       1.0  0.92130  0.40015  0.09195  1.0000
  C   C68       1.0  0.07765  0.60656  0.12348  1.0000
  C   C69       1.0  0.07681  0.39631  0.35933  1.0000
  C   C70       1.0  0.92062  0.60216  0.38373  1.0000
  C   C71       1.0  0.95723  0.42932  0.11503  1.0000
  C   C72       1.0  0.04127  0.57733  0.13832  1.0000
  C   C73       1.0  0.04070  0.42566  0.33981  1.0000
  C   C74       1.0  0.95708  0.57371  0.35915  1.0000
  C   C75       1.0  0.94617  0.46811  0.18431  1.0000
  C   C76       1.0  0.05211  0.53576  0.18895  1.0000
  C   C77       1.0  0.05199  0.46679  0.28598  1.0000
  C   C78       1.0  0.94615  0.53368  0.30017  1.0000
  C   C79       1.0  0.89893  0.47890  0.21634  1.0000
  C   C80       1.0  0.09947  0.52304  0.21012  1.0000
  C   C81       1.0  0.09939  0.47895  0.26313  1.0000
  C   C82       1.0  0.89877  0.52121  0.28027  1.0000
  C   C83       1.0  0.46213  0.95143  0.81231  1.0000
  C   C84       1.0  0.53768  0.04711  0.80923  1.0000
  C   C85       1.0  0.53629  0.95140  0.70668  1.0000
  C   C86       1.0  0.46344  0.04834  0.70281  1.0000
  C   C87       1.0  0.86245  0.44830  0.68436  1.0000
  C   C88       1.0  0.13420  0.55203  0.70124  1.0000
  C   C89       1.0  0.13584  0.44919  0.79679  1.0000
  C   C90       1.0  0.86304  0.54941  0.80076  1.0000
  C   C91       1.0  0.47520  0.90840  0.78929  1.0000
  C   C92       1.0  0.52488  0.09035  0.78403  1.0000
  C   C93       1.0  0.52273  0.90832  0.73079  1.0000
  C   C94       1.0  0.47751  0.09110  0.72463  1.0000
  C   C95       1.0  0.55498  0.87568  0.70690  1.0000
  C   C96       1.0  0.44572  0.12428  0.70094  1.0000
  C   C97       1.0  0.44231  0.87598  0.81002  1.0000
  C   C98       1.0  0.55750  0.12260  0.80716  1.0000
  C   C99       1.0  0.60083  0.88556  0.65935  1.0000
  C   C100      1.0  0.39946  0.11533  0.65784  1.0000
  C   C101      1.0  0.39617  0.88590  0.85129  1.0000
  C   C102      1.0  0.60333  0.11232  0.85357  1.0000
  C   C103      1.0  0.61214  0.92851  0.62361  1.0000
  C   C104      1.0  0.38717  0.07287  0.62555  1.0000
  C   C105      1.0  0.38494  0.92849  0.88511  1.0000
  C   C106      1.0  0.61438  0.06926  0.88789  1.0000
  C   C107      1.0  0.58055  0.96151  0.64623  1.0000
  C   C108      1.0  0.41856  0.03933  0.64603  1.0000
  C   C109      1.0  0.41741  0.96132  0.86807  1.0000
  C   C110      1.0  0.58222  0.03659  0.86692  1.0000
  C   C111      1.0  0.36358  0.14873  0.66909  1.0000
  C   C112      1.0  0.35961  0.85315  0.83665  1.0000
  C   C113      1.0  0.63994  0.14523  0.84346  1.0000
  C   C114      1.0  0.37174  0.19096  0.61536  1.0000
  C   C115      1.0  0.36622  0.81105  0.89480  1.0000
  C   C116      1.0  0.63179  0.18735  0.89120  1.0000
  C   C117      1.0  0.33970  0.22290  0.64673  1.0000
  C   C118      1.0  0.33399  0.77947  0.86032  1.0000
  C   C119      1.0  0.66419  0.21927  0.85816  1.0000
  C   C120      1.0  0.29826  0.21348  0.73275  1.0000
  C   C121      1.0  0.29403  0.78902  0.76561  1.0000
  C   C122      1.0  0.70614  0.21001  0.77649  1.0000
  C   C123      1.0  0.28919  0.17114  0.78119  1.0000
  C   C124      1.0  0.28642  0.83131  0.71307  1.0000
  C   C125      1.0  0.71548  0.16765  0.73684  1.0000
  C   C126      1.0  0.32140  0.13930  0.75009  1.0000
  C   C127      1.0  0.31863  0.86289  0.74841  1.0000
  C   C128      1.0  0.68292  0.13580  0.76966  1.0000
  C   C129      1.0  0.74027  0.75629  0.76809  1.0000
  C   C130      1.0  0.26461  0.24611  0.77501  1.0000
  C   C131      1.0  0.26036  0.75665  0.71982  1.0000
  C   C132      1.0  0.73965  0.24273  0.72747  1.0000
  C   C133      1.0  0.87313  0.40729  0.63302  1.0000
  C   C134      1.0  0.12327  0.59411  0.65695  1.0000
  C   C135      1.0  0.12602  0.40652  0.83455  1.0000
  C   C136      1.0  0.87434  0.59050  0.85011  1.0000
  C   C137      1.0  0.92003  0.39755  0.59526  1.0000
  C   C138      1.0  0.07621  0.60441  0.62151  1.0000
  C   C139      1.0  0.07897  0.39446  0.85943  1.0000
  C   C140      1.0  0.92155  0.59987  0.88548  1.0000
  C   C141      1.0  0.95633  0.42635  0.61795  1.0000
  C   C142      1.0  0.04015  0.57481  0.63731  1.0000
  C   C143      1.0  0.04191  0.42281  0.83849  1.0000
  C   C144      1.0  0.95747  0.57079  0.86152  1.0000
  C   C145      1.0  0.94555  0.46583  0.68210  1.0000
  C   C146      1.0  0.05132  0.53361  0.69147  1.0000
  C   C147      1.0  0.05206  0.46458  0.78893  1.0000
  C   C148      1.0  0.94602  0.53138  0.79819  1.0000
  C   C149      1.0  0.89830  0.47759  0.70941  1.0000
  C   C150      1.0  0.09868  0.52191  0.71859  1.0000
  C   C151      1.0  0.09924  0.47803  0.77267  1.0000
  C   C152      1.0  0.89855  0.51986  0.77403  1.0000
  N   N1        1.0  0.26713  0.71955  0.24475  1.0000
  N   N2        1.0  0.73290  0.28387  0.24000  1.0000
  N   N3        1.0  0.73168  0.71690  0.25481  1.0000
  N   N4        1.0  0.26526  0.28043  0.25314  1.0000
  N   N5        1.0  0.50223  0.97850  0.26297  1.0000
  N   N6        1.0  0.50208  0.02253  0.26252  1.0000
  N   N7        1.0  0.97484  0.50127  0.23944  1.0000
  N   N8        1.0  0.02338  0.50132  0.23751  1.0000
  N   N9        1.0  0.26734  0.71648  0.74440  1.0000
  N   N10       1.0  0.73075  0.28289  0.73300  1.0000
  N   N11       1.0  0.73248  0.71613  0.75439  1.0000
  N   N12       1.0  0.27302  0.28632  0.76070  1.0000
  N   N13       1.0  0.49956  0.97749  0.75978  1.0000
  N   N14       1.0  0.50015  0.02163  0.75737  1.0000
  N   N15       1.0  0.97446  0.49854  0.73929  1.0000
  N   N16       1.0  0.02299  0.49860  0.73714  1.0000
  C   C153      1.0  0.71023  0.15775  0.22293  1.0000
  C   C154      1.0  0.70859  0.20114  0.25473  1.0000
  C  Sn1       1.0  0.67172  0.21778  0.34502  1.0000
  C  Sn2       1.0  0.63588  0.19039  0.40446  1.0000
  C   C155      1.0  0.63785  0.14702  0.37209  1.0000
  C   C156      1.0  0.67490  0.13071  0.28157  1.0000
  H   H89       1.0  0.73891  0.14512  0.15297  1.0000
  O  Te1       1.0  0.67062  0.26121  0.37562  1.0000
  O  Te2       1.0  0.59863  0.20618  0.49507  1.0000
  H   H90       1.0  0.67618  0.09711  0.25706  1.0000
  Mg  Mg1       1.0  0.61263  0.26765  0.50482  1.0000
  C   C157      1.0  0.82881  0.30641  0.23253  1.0000
  C   C158      1.0  0.78041  0.30957  0.21304  1.0000
  C  Sn3       1.0  0.76059  0.34638  0.14368  1.0000
  C  Sn4       1.0  0.78985  0.38059  0.09298  1.0000
  C   C159      1.0  0.83823  0.37710  0.11291  1.0000
  C   C160      1.0  0.85770  0.34013  0.18250  1.0000
  H   H91       1.0  0.84387  0.27780  0.28629  1.0000
  O  Te3       1.0  0.71217  0.34902  0.12516  1.0000
  O  Te4       1.0  0.77097  0.41773  0.02325  1.0000
  H   H92       1.0  0.89517  0.33768  0.19747  1.0000
  Mg  Mg2       1.0  0.70297  0.40619  0.02363  1.0000
  C   C161      1.0  0.77917  0.37616  0.57260  1.0000
  C   C162      1.0  0.82519  0.37700  0.62995  1.0000
  C  Sn5       1.0  0.84324  0.34254  0.72065  1.0000
  C  Sn6       1.0  0.81462  0.30660  0.75433  1.0000
  C   C163      1.0  0.76864  0.30605  0.69631  1.0000
  C   C164      1.0  0.75092  0.34072  0.60571  1.0000
  H   H93       1.0  0.76547  0.40297  0.50242  1.0000
  O  Te5       1.0  0.88928  0.34391  0.77708  1.0000
  O  Te6       1.0  0.83178  0.27171  0.84465  1.0000
  H   H94       1.0  0.71530  0.34005  0.56123  1.0000
  Mg  Mg3       1.0  0.89677  0.28860  0.89504  1.0000
  C   C165      1.0  0.23775  0.64278  0.11621  1.0000
  C   C166      1.0  0.23412  0.68216  0.19067  1.0000
  C  Sn7       1.0  0.19219  0.69432  0.26334  1.0000
  C  Sn8       1.0  0.15324  0.66648  0.26127  1.0000
  C   C167      1.0  0.15723  0.62714  0.18657  1.0000
  C   C168      1.0  0.19935  0.61529  0.11417  1.0000
  H   H95       1.0  0.27034  0.63360  0.06026  1.0000
  O  Te7       1.0  0.18916  0.73378  0.33715  1.0000
  O  Te8       1.0  0.11092  0.67783  0.33304  1.0000
  H   H96       1.0  0.20216  0.58480  0.05662  1.0000
  Mg  Mg4       1.0  0.12403  0.73495  0.41854  1.0000
  C   C169      1.0  0.24063  0.36292  0.88666  1.0000
  C   C170      1.0  0.23892  0.32316  0.81433  1.0000
  C  Sn9       1.0  0.19781  0.30932  0.74002  1.0000
  C  Sn10      1.0  0.15774  0.33585  0.73823  1.0000
  C   C171      1.0  0.15982  0.37559  0.81082  1.0000
  C   C172      1.0  0.20113  0.38912  0.88489  1.0000
  H   H97       1.0  0.27260  0.37339  0.94389  1.0000
  O  Te9       1.0  0.19669  0.26950  0.66839  1.0000
  O  Te10      1.0  0.11621  0.32282  0.66475  1.0000
  H   H98       1.0  0.20246  0.41991  0.94078  1.0000
  Mg  Mg5       1.0  0.13199  0.26585  0.58339  1.0000
  C   C173      1.0  0.23775  0.63843  0.62520  1.0000
  C   C174      1.0  0.23431  0.67911  0.68895  1.0000
  C  Sn11      1.0  0.19167  0.69368  0.74888  1.0000
  C  Sn12      1.0  0.15180  0.66696  0.74478  1.0000
  C   C175      1.0  0.15561  0.62630  0.68085  1.0000
  C   C176      1.0  0.19845  0.61204  0.62116  1.0000
  H   H99       1.0  0.27089  0.62738  0.57909  1.0000
  O  Te11      1.0  0.18884  0.73442  0.81210  1.0000
  O  Te12      1.0  0.10876  0.68072  0.80392  1.0000
  H   H100      1.0  0.20111  0.58053  0.57191  1.0000
  Mg  Mg6       1.0  0.12250  0.73882  0.87813  1.0000
  C   C177      1.0  0.84530  0.67322  0.74056  1.0000
  C   C178      1.0  0.84285  0.63534  0.83304  1.0000
  C  Sn13      1.0  0.80060  0.62234  0.90347  1.0000
  C  Sn14      1.0  0.76009  0.64780  0.88065  1.0000
  C   C179      1.0  0.76289  0.68562  0.78782  1.0000
  C   C180      1.0  0.80536  0.69833  0.71793  1.0000
  H   H101      1.0  0.87815  0.68305  0.68641  1.0000
  O  Te13      1.0  0.79877  0.58442  0.99556  1.0000
  O  Te14      1.0  0.71741  0.63555  0.94962  1.0000
  H   H102      1.0  0.80723  0.72765  0.64625  1.0000
  Mg  Mg7       1.0  0.73206  0.58744  0.06498  1.0000
  C   C181      1.0  0.71066  0.84235  0.77295  1.0000
  C   C182      1.0  0.70870  0.79906  0.73959  1.0000
  C  Sn15      1.0  0.67028  0.78242  0.65703  1.0000
  C  Sn16      1.0  0.63319  0.80971  0.60705  1.0000
  C   C183      1.0  0.63549  0.85298  0.64091  1.0000
  C   C184      1.0  0.67410  0.86929  0.72364  1.0000
  H   H103      1.0  0.74054  0.85498  0.83688  1.0000
  O  Te15      1.0  0.66888  0.73909  0.62474  1.0000
  O  Te16      1.0  0.59438  0.79392  0.52430  1.0000
  H   H104      1.0  0.67562  0.90282  0.74936  1.0000
  Mg  Mg8       1.0  0.60857  0.73261  0.50859  1.0000
