data_image0
_chemical_formula_structural       H112C184N24SnCSn2CSnTe4Mg2SnCSn2CSnTe4Mg2SnCSn2CSnTe4Mg2SnCSn2CSnTe4Mg2SnCSn2CSnTe4Mg2SnCSn2CSnTe4Mg2SnCSn2CSnTe4Mg2SnCSn2CSnTe4Mg2SnCSn2CSnTe4Mg2SnCSn2CSnTe4Mg2SnCSn2CSnTe4Mg2SnCSn2CSnTe4Mg2
_chemical_formula_sum              "H112 C208 N24 Sn48 Te48 Mg24"
_cell_length_a       38.7357
_cell_length_b       39.3566
_cell_length_c       8.33331
_cell_angle_alpha    94.1312
_cell_angle_beta     110.265
_cell_angle_gamma    89.8507

_symmetry_space_group_name_H-M    'P1'
_space_group_IT_number       1

loop_
  _space_group_symop_operation_xyz
  'x, y, z'

loop_
  _atom_site_type_symbol
  _atom_site_label
  _atom_site_symmetry_multiplicity
  _atom_site_fract_x
  _atom_site_fract_y
  _atom_site_fract_z
  _atom_site_occupancy
  H   H1        1.0  0.87132  0.47006  0.25003  1.0000
  H   H2        1.0  0.12402  0.53822  0.25287  1.0000
  H   H3        1.0  0.53701  0.87322  0.30333  1.0000
  H   H4        1.0  0.47020  0.12250  0.29901  1.0000
  H   H5        1.0  0.12439  0.47274  0.18478  1.0000
  H   H6        1.0  0.86957  0.53197  0.17082  1.0000
  H   H7        1.0  0.46444  0.87368  0.23987  1.0000
  H   H8        1.0  0.53172  0.12245  0.22840  1.0000
  H   H9        1.0  0.95404  0.39456  0.42579  1.0000
  H   H10       1.0  0.06442  0.60790  0.47990  1.0000
  H   H11       1.0  0.62380  0.94985  0.46525  1.0000
  H   H12       1.0  0.39929  0.04845  0.39554  1.0000
  H   H13       1.0  0.05077  0.38717  0.12280  1.0000
  H   H14       1.0  0.93974  0.60385  0.05380  1.0000
  H   H15       1.0  0.37759  0.94233  0.00136  1.0000
  H   H16       1.0  0.59822  0.04706  0.08017  1.0000
  H   H17       1.0  0.00085  0.43252  0.39476  1.0000
  H   H18       1.0  0.01636  0.56469  0.43550  1.0000
  H   H19       1.0  0.57897  0.99559  0.39832  1.0000
  H   H20       1.0  0.43857  0.00186  0.35427  1.0000
  H   H21       1.0  0.00447  0.42458  0.17416  1.0000
  H   H22       1.0  0.98883  0.56235  0.10520  1.0000
  H   H23       1.0  0.42204  0.98910  0.05382  1.0000
  H   H24       1.0  0.55846  0.00085  0.10765  1.0000
  H   H25       1.0  0.83510  0.42638  0.15857  1.0000
  H   H26       1.0  0.16287  0.57157  0.30586  1.0000
  H   H27       1.0  0.58600  0.84235  0.48327  1.0000
  H   H28       1.0  0.84687  0.57009  0.25304  1.0000
  H   H29       1.0  0.42749  0.83754  0.19843  1.0000
  H   H30       1.0  0.57791  0.15340  0.30923  1.0000
  H   H31       1.0  0.78942  0.38312  0.16503  1.0000
  H   H32       1.0  0.20595  0.61720  0.30545  1.0000
  H   H33       1.0  0.63048  0.79805  0.46233  1.0000
  H   H34       1.0  0.80392  0.61484  0.27173  1.0000
  H   H35       1.0  0.38195  0.79652  0.22308  1.0000
  H   H36       1.0  0.62326  0.19723  0.30795  1.0000
  H   H37       1.0  0.87363  0.33327  0.55034  1.0000
  H   H38       1.0  0.13827  0.69147  0.44789  1.0000
  H   H39       1.0  0.68790  0.87108  0.28014  1.0000
  H   H40       1.0  0.85166  0.68052  0.01117  1.0000
  H   H41       1.0  0.29722  0.87008  0.05724  1.0000
  H   H42       1.0  0.66387  0.12846  0.99327  1.0000
  H   H43       1.0  0.91875  0.37806  0.55628  1.0000
  H   H44       1.0  0.09469  0.64643  0.44532  1.0000
  H   H45       1.0  0.64393  0.91444  0.29828  1.0000
  H   H46       1.0  0.89275  0.63519  0.97898  1.0000
  H   H47       1.0  0.34199  0.91120  0.03824  1.0000
  H   H48       1.0  0.61798  0.08564  0.98622  1.0000
  H   H49       1.0  0.83490  0.71791  0.18276  1.0000
  H   H50       1.0  0.16654  0.29287  0.20944  1.0000
  H   H51       1.0  0.26815  0.83569  0.14085  1.0000
  H   H52       1.0  0.70888  0.16520  0.07633  1.0000
  H   H53       1.0  0.16190  0.72032  0.29482  1.0000
  H   H54       1.0  0.83790  0.29020  0.31079  1.0000
  H   H55       1.0  0.72818  0.83605  0.35499  1.0000
  H   H56       1.0  0.29174  0.17234  0.42920  1.0000
  H   H57       1.0  0.18508  0.23950  0.30790  1.0000
  H   H58       1.0  0.21224  0.81813  0.16421  1.0000
  H   H59       1.0  0.17324  0.77545  0.23379  1.0000
  H   H60       1.0  0.23138  0.19417  0.39327  1.0000
  H   H61       1.0  0.25926  0.29795  0.14734  1.0000
  H   H62       1.0  0.30572  0.25169  0.22941  1.0000
  H   H63       1.0  0.26129  0.70432  0.33760  1.0000
  H   H64       1.0  0.30078  0.74757  0.26867  1.0000
  H   H65       1.0  0.87222  0.47124  0.76884  1.0000
  H   H66       1.0  0.12730  0.53506  0.78002  1.0000
  H   H67       1.0  0.53653  0.87235  0.78668  1.0000
  H   H68       1.0  0.46724  0.12151  0.77617  1.0000
  H   H69       1.0  0.12563  0.47106  0.70045  1.0000
  H   H70       1.0  0.87253  0.53489  0.70580  1.0000
  H   H71       1.0  0.46403  0.87171  0.71094  1.0000
  H   H72       1.0  0.53138  0.12162  0.72415  1.0000
  H   H73       1.0  0.95317  0.39363  0.92272  1.0000
  H   H74       1.0  0.06257  0.60863  0.95383  1.0000
  H   H75       1.0  0.62330  0.94902  0.96602  1.0000
  H   H76       1.0  0.40530  0.04801  0.93495  1.0000
  H   H77       1.0  0.05030  0.38612  0.62175  1.0000
  H   H78       1.0  0.93854  0.60112  0.53051  1.0000
  H   H79       1.0  0.37654  0.94281  0.53368  1.0000
  H   H80       1.0  0.59696  0.04584  0.56968  1.0000
  H   H81       1.0  0.00030  0.43103  0.88975  1.0000
  H   H82       1.0  0.01465  0.56540  0.91596  1.0000
  H   H83       1.0  0.57840  0.99480  0.89845  1.0000
  H   H84       1.0  0.44283  0.00148  0.87436  1.0000
  H   H85       1.0  0.00390  0.42364  0.66937  1.0000
  H   H86       1.0  0.98701  0.55886  0.58237  1.0000
  H   H87       1.0  0.42112  0.98944  0.56981  1.0000
  H   H88       1.0  0.55874  0.00000  0.60994  1.0000
  H   H89       1.0  0.15674  0.57100  0.74949  1.0000
  H   H90       1.0  0.43046  0.84940  0.81773  1.0000
  H   H91       1.0  0.20051  0.61585  0.74902  1.0000
  H   H92       1.0  0.38643  0.80509  0.83043  1.0000
  H   H93       1.0  0.14501  0.68849  0.97709  1.0000
  H   H94       1.0  0.29789  0.85598  0.47334  1.0000
  H   H95       1.0  0.10243  0.64368  0.98854  1.0000
  H   H96       1.0  0.34201  0.89769  0.44205  1.0000
  H   H97       1.0  0.82774  0.71935  0.61902  1.0000
  H   H98       1.0  0.16224  0.28735  0.70742  1.0000
  H   H99       1.0  0.27296  0.83531  0.66501  1.0000
  H   H100      1.0  0.70181  0.17044  0.54396  1.0000
  H   H101      1.0  0.16308  0.71939  0.80288  1.0000
  H   H102      1.0  0.83307  0.29292  0.75956  1.0000
  H   H103      1.0  0.72822  0.83521  0.85893  1.0000
  H   H104      1.0  0.29293  0.16918  0.93396  1.0000
  H   H105      1.0  0.81393  0.77619  0.67544  1.0000
  H   H106      1.0  0.21611  0.81850  0.68791  1.0000
  H   H107      1.0  0.17595  0.77594  0.75117  1.0000
  H   H108      1.0  0.77606  0.81962  0.76469  1.0000
  H   H109      1.0  0.25972  0.70112  0.81485  1.0000
  H   H110      1.0  0.30034  0.74424  0.75176  1.0000
  H   H111      1.0  0.70852  0.74009  0.84013  1.0000
  H   H112      1.0  0.74810  0.69625  0.75923  1.0000
  C   C1        1.0  0.96245  0.47197  0.29209  1.0000
  C   C2        1.0  0.04291  0.52649  0.31936  1.0000
  C   C3        1.0  0.53188  0.96025  0.30740  1.0000
  C   C4        1.0  0.47483  0.03566  0.28753  1.0000
  C   C5        1.0  0.03860  0.47026  0.21824  1.0000
  C   C6        1.0  0.95832  0.52429  0.18241  1.0000
  C   C7        1.0  0.46901  0.95785  0.17451  1.0000
  C   C8        1.0  0.52412  0.03549  0.19513  1.0000
  C   C9        1.0  0.21140  0.24192  0.28929  1.0000
  C   C10       1.0  0.22301  0.79326  0.20295  1.0000
  C   C11       1.0  0.20116  0.76940  0.24104  1.0000
  C   C12       1.0  0.23738  0.21659  0.33743  1.0000
  C   C13       1.0  0.92351  0.51583  0.19233  1.0000
  C   C14       1.0  0.07284  0.48350  0.22078  1.0000
  C   C15       1.0  0.48058  0.92439  0.21680  1.0000
  C   C16       1.0  0.51603  0.07002  0.22471  1.0000
  C   C17       1.0  0.07487  0.51912  0.27822  1.0000
  C   C18       1.0  0.92561  0.48241  0.25379  1.0000
  C   C19       1.0  0.52029  0.92554  0.29063  1.0000
  C   C20       1.0  0.48395  0.07006  0.27530  1.0000
  C   C21       1.0  0.89931  0.46130  0.27860  1.0000
  C   C22       1.0  0.10129  0.54444  0.29687  1.0000
  C   C23       1.0  0.54621  0.89981  0.32838  1.0000
  C   C24       1.0  0.46240  0.09629  0.30605  1.0000
  C   C25       1.0  0.09846  0.46210  0.18427  1.0000
  C   C26       1.0  0.89546  0.53925  0.15786  1.0000
  C   C27       1.0  0.45467  0.89829  0.19370  1.0000
  C   C28       1.0  0.53824  0.09608  0.20540  1.0000
  C   C29       1.0  0.90886  0.42905  0.33961  1.0000
  C   C30       1.0  0.09761  0.57752  0.36357  1.0000
  C   C31       1.0  0.58388  0.90822  0.38371  1.0000
  C   C32       1.0  0.43067  0.08898  0.34354  1.0000
  C   C33       1.0  0.09101  0.42697  0.14993  1.0000
  C   C34       1.0  0.90124  0.57223  0.11720  1.0000
  C   C35       1.0  0.41681  0.90439  0.12279  1.0000
  C   C36       1.0  0.56892  0.08834  0.15745  1.0000
  C   C37       1.0  0.94596  0.41955  0.37934  1.0000
  C   C38       1.0  0.06697  0.58333  0.41720  1.0000
  C   C39       1.0  0.59459  0.94313  0.41412  1.0000
  C   C40       1.0  0.42323  0.05455  0.36235  1.0000
  C   C41       1.0  0.05667  0.41445  0.14727  1.0000
  C   C42       1.0  0.93497  0.57905  0.09299  1.0000
  C   C43       1.0  0.40649  0.93719  0.06535  1.0000
  C   C44       1.0  0.57511  0.05358  0.12126  1.0000
  C   C45       1.0  0.97270  0.44053  0.35798  1.0000
  C   C46       1.0  0.03960  0.55863  0.39533  1.0000
  C   C47       1.0  0.56936  0.96926  0.37737  1.0000
  C   C48       1.0  0.44512  0.02786  0.33801  1.0000
  C   C49       1.0  0.03051  0.43542  0.18014  1.0000
  C   C50       1.0  0.96329  0.55558  0.12233  1.0000
  C   C51       1.0  0.43170  0.96400  0.09134  1.0000
  C   C52       1.0  0.55300  0.02713  0.13741  1.0000
  C   C53       1.0  0.87430  0.59891  0.11771  1.0000
  C   C54       1.0  0.38906  0.87848  0.12084  1.0000
  C   C55       1.0  0.59454  0.11539  0.15016  1.0000
  C   C56       1.0  0.12432  0.60494  0.37117  1.0000
  C   C57       1.0  0.88104  0.40495  0.35295  1.0000
  C   C58       1.0  0.61157  0.88193  0.39243  1.0000
  C   C59       1.0  0.84375  0.40659  0.24795  1.0000
  C   C60       1.0  0.15671  0.59771  0.33543  1.0000
  C   C61       1.0  0.60816  0.84863  0.43745  1.0000
  C   C62       1.0  0.84789  0.59382  0.19574  1.0000
  C   C63       1.0  0.39919  0.84535  0.17009  1.0000
  C   C64       1.0  0.59591  0.14782  0.23601  1.0000
  C   C65       1.0  0.81795  0.38225  0.24931  1.0000
  C   C66       1.0  0.18148  0.62323  0.33655  1.0000
  C   C67       1.0  0.63313  0.82377  0.42729  1.0000
  C   C68       1.0  0.82373  0.61905  0.20895  1.0000
  C   C69       1.0  0.37376  0.82185  0.18246  1.0000
  C   C70       1.0  0.62156  0.17255  0.23766  1.0000
  C   C71       1.0  0.82881  0.35425  0.34955  1.0000
  C   C72       1.0  0.17497  0.65770  0.37138  1.0000
  C   C73       1.0  0.66282  0.83120  0.37349  1.0000
  C   C74       1.0  0.82578  0.65143  0.15113  1.0000
  C   C75       1.0  0.33652  0.82997  0.14568  1.0000
  C   C76       1.0  0.64754  0.16605  0.15652  1.0000
  C   C77       1.0  0.86553  0.35323  0.46163  1.0000
  C   C78       1.0  0.14326  0.66525  0.41241  1.0000
  C   C79       1.0  0.66668  0.86476  0.33163  1.0000
  C   C80       1.0  0.85127  0.65660  0.06819  1.0000
  C   C81       1.0  0.32573  0.86258  0.08920  1.0000
  C   C82       1.0  0.64567  0.13402  0.06560  1.0000
  C   C83       1.0  0.89089  0.37846  0.46405  1.0000
  C   C84       1.0  0.11869  0.63949  0.41205  1.0000
  C   C85       1.0  0.64163  0.88939  0.34140  1.0000
  C   C86       1.0  0.87461  0.63078  0.05035  1.0000
  C   C87       1.0  0.35140  0.88608  0.07814  1.0000
  C   C88       1.0  0.61960  0.10957  0.06248  1.0000
  C   C89       1.0  0.80922  0.70788  0.19218  1.0000
  C   C90       1.0  0.19268  0.29879  0.19133  1.0000
  C   C91       1.0  0.28122  0.81090  0.17024  1.0000
  C   C92       1.0  0.70232  0.18890  0.13700  1.0000
  C   C93       1.0  0.19030  0.71204  0.31829  1.0000
  C   C94       1.0  0.81044  0.29737  0.31128  1.0000
  C   C95       1.0  0.71638  0.81008  0.33829  1.0000
  C   C96       1.0  0.29852  0.19314  0.36291  1.0000
  C   C97       1.0  0.27170  0.22012  0.31681  1.0000
  C   C98       1.0  0.21472  0.73706  0.28951  1.0000
  C   C99       1.0  0.25900  0.78542  0.21079  1.0000
  C   C100      1.0  0.21929  0.27162  0.22313  1.0000
  C   C101      1.0  0.27920  0.24966  0.24621  1.0000
  C   C102      1.0  0.25109  0.72938  0.30013  1.0000
  C   C103      1.0  0.27277  0.75308  0.26143  1.0000
  C   C104      1.0  0.25357  0.27503  0.20050  1.0000
  C   C105      1.0  0.96255  0.47152  0.79647  1.0000
  C   C106      1.0  0.04270  0.52580  0.81642  1.0000
  C   C107      1.0  0.53147  0.95943  0.80138  1.0000
  C   C108      1.0  0.47574  0.03537  0.79043  1.0000
  C   C109      1.0  0.03874  0.46913  0.72170  1.0000
  C   C110      1.0  0.95823  0.52345  0.68330  1.0000
  C   C111      1.0  0.46839  0.95749  0.67450  1.0000
  C   C112      1.0  0.52395  0.03486  0.69211  1.0000
  C   C113      1.0  0.79118  0.76834  0.71385  1.0000
  C   C114      1.0  0.22558  0.79280  0.71612  1.0000
  C   C115      1.0  0.20314  0.76898  0.75088  1.0000
  C   C116      1.0  0.76985  0.79259  0.76280  1.0000
  C   C117      1.0  0.92419  0.51619  0.70429  1.0000
  C   C118      1.0  0.07359  0.48194  0.73031  1.0000
  C   C119      1.0  0.48012  0.92371  0.70811  1.0000
  C   C120      1.0  0.51552  0.06944  0.71795  1.0000
  C   C121      1.0  0.07561  0.51765  0.78506  1.0000
  C   C122      1.0  0.92620  0.48280  0.76600  1.0000
  C   C123      1.0  0.51983  0.92466  0.77859  1.0000
  C   C124      1.0  0.48390  0.06967  0.77205  1.0000
  C   C125      1.0  0.89984  0.46193  0.79178  1.0000
  C   C126      1.0  0.10286  0.54240  0.80835  1.0000
  C   C127      1.0  0.54570  0.89892  0.81539  1.0000
  C   C128      1.0  0.46178  0.09568  0.80063  1.0000
  C   C129      1.0  0.09938  0.46045  0.69598  1.0000
  C   C130      1.0  0.89699  0.54045  0.67588  1.0000
  C   C131      1.0  0.45440  0.89732  0.68260  1.0000
  C   C132      1.0  0.53763  0.09538  0.69688  1.0000
  C   C133      1.0  0.90893  0.42916  0.84613  1.0000
  C   C134      1.0  0.09829  0.57621  0.86248  1.0000
  C   C135      1.0  0.58340  0.90736  0.87678  1.0000
  C   C136      1.0  0.43196  0.08824  0.85267  1.0000
  C   C137      1.0  0.09147  0.42548  0.65736  1.0000
  C   C138      1.0  0.90244  0.57241  0.62284  1.0000
  C   C139      1.0  0.41661  0.90392  0.62669  1.0000
  C   C140      1.0  0.56806  0.08759  0.64692  1.0000
  C   C141      1.0  0.94563  0.41898  0.88028  1.0000
  C   C142      1.0  0.06627  0.58311  0.90393  1.0000
  C   C143      1.0  0.59412  0.94226  0.91117  1.0000
  C   C144      1.0  0.42646  0.05398  0.88252  1.0000
  C   C145      1.0  0.05661  0.41329  0.64962  1.0000
  C   C146      1.0  0.93489  0.57763  0.58465  1.0000
  C   C147      1.0  0.40572  0.93730  0.58090  1.0000
  C   C148      1.0  0.57440  0.05272  0.61394  1.0000
  C   C149      1.0  0.97245  0.43966  0.85787  1.0000
  C   C150      1.0  0.03871  0.55863  0.88337  1.0000
  C   C151      1.0  0.56889  0.96842  0.87454  1.0000
  C   C152      1.0  0.44776  0.02748  0.85171  1.0000
  C   C153      1.0  0.03034  0.43437  0.68064  1.0000
  C   C154      1.0  0.96261  0.55366  0.61271  1.0000
  C   C155      1.0  0.43084  0.96408  0.60164  1.0000
  C   C156      1.0  0.55288  0.02636  0.63533  1.0000
  C   C157      1.0  0.38984  0.87754  0.63017  1.0000
  C   C158      1.0  0.12522  0.60327  0.86728  1.0000
  C   C159      1.0  0.15398  0.59641  0.80306  1.0000
  C   C160      1.0  0.40165  0.85059  0.73776  1.0000
  C   C161      1.0  0.17885  0.62159  0.80126  1.0000
  C   C162      1.0  0.37719  0.82585  0.74766  1.0000
  C   C163      1.0  0.17543  0.65556  0.85787  1.0000
  C   C164      1.0  0.33918  0.82800  0.65844  1.0000
  C   C165      1.0  0.14719  0.66278  0.92475  1.0000
  C   C166      1.0  0.32696  0.85472  0.54981  1.0000
  C   C167      1.0  0.12306  0.63716  0.93085  1.0000
  C   C168      1.0  0.35194  0.87849  0.53390  1.0000
  C   C169      1.0  0.80639  0.70858  0.66108  1.0000
  C   C170      1.0  0.18922  0.29377  0.69934  1.0000
  C   C171      1.0  0.28413  0.80955  0.68322  1.0000
  C   C172      1.0  0.70035  0.19089  0.63846  1.0000
  C   C173      1.0  0.19081  0.71063  0.81446  1.0000
  C   C174      1.0  0.80805  0.29878  0.78944  1.0000
  C   C175      1.0  0.71689  0.80914  0.84646  1.0000
  C   C176      1.0  0.29786  0.19011  0.86330  1.0000
  C   C177      1.0  0.73952  0.78267  0.80631  1.0000
  C   C178      1.0  0.21536  0.73573  0.78689  1.0000
  C   C179      1.0  0.26073  0.78395  0.71548  1.0000
  C   C180      1.0  0.78333  0.73336  0.71121  1.0000
  C   C181      1.0  0.73171  0.74754  0.80413  1.0000
  C   C182      1.0  0.25082  0.72698  0.78761  1.0000
  C   C183      1.0  0.27302  0.75060  0.75212  1.0000
  C   C184      1.0  0.75347  0.72337  0.75921  1.0000
  N   N1        1.0  0.98229  0.49746  0.24762  1.0000
  N   N2        1.0  0.01985  0.49704  0.27405  1.0000
  N   N3        1.0  0.50029  0.97967  0.23447  1.0000
  N   N4        1.0  0.49933  0.01482  0.23629  1.0000
  N   N5        1.0  0.80165  0.67559  0.17990  1.0000
  N   N6        1.0  0.19974  0.32888  0.15666  1.0000
  N   N7        1.0  0.31432  0.80482  0.17375  1.0000
  N   N8        1.0  0.67325  0.19241  0.17909  1.0000
  N   N9        1.0  0.20042  0.68150  0.35830  1.0000
  N   N10       1.0  0.80208  0.32887  0.32948  1.0000
  N   N11       1.0  0.68473  0.80407  0.35222  1.0000
  N   N12       1.0  0.32770  0.19415  0.32112  1.0000
  N   N13       1.0  0.98206  0.49647  0.74602  1.0000
  N   N14       1.0  0.01960  0.49631  0.77154  1.0000
  N   N15       1.0  0.49995  0.97917  0.73472  1.0000
  N   N16       1.0  0.49967  0.01434  0.73725  1.0000
  N   N17       1.0  0.80212  0.67620  0.66886  1.0000
  N   N18       1.0  0.19738  0.32418  0.67323  1.0000
  N   N19       1.0  0.31678  0.80272  0.68373  1.0000
  N   N20       1.0  0.67481  0.19192  0.70566  1.0000
  N   N21       1.0  0.20037  0.67947  0.84143  1.0000
  N   N22       1.0  0.80153  0.32951  0.83410  1.0000
  N   N23       1.0  0.68535  0.80306  0.86140  1.0000
  N   N24       1.0  0.32674  0.19195  0.81959  1.0000
  C  Sn1       1.0  0.16577  0.40958  0.20768  1.0000
  C   C185      1.0  0.12800  0.40767  0.11481  1.0000
  C  Sn2       1.0  0.11101  0.37658  0.03590  1.0000
  C  Sn3       1.0  0.13221  0.34677  0.05019  1.0000
  C   C186      1.0  0.16995  0.34870  0.14304  1.0000
  C  Sn4       1.0  0.18697  0.37978  0.22198  1.0000
  O  Te1       1.0  0.18217  0.44094  0.28553  1.0000
  O  Te2       1.0  0.14768  0.39036  0.94368  1.0000
  O  Te3       1.0  0.19024  0.33047  0.97224  1.0000
  O  Te4       1.0  0.22474  0.38107  0.31417  1.0000
  Mg  Mg1       1.0  0.13791  0.34171  0.86061  1.0000
  Mg  Mg2       1.0  0.23453  0.42970  0.39736  1.0000
  C  Sn5       1.0  0.40899  0.15818  0.31840  1.0000
  C   C187      1.0  0.41167  0.12623  0.38430  1.0000
  C  Sn6       1.0  0.38276  0.11302  0.42663  1.0000
  C  Sn7       1.0  0.35049  0.13214  0.40248  1.0000
  C   C188      1.0  0.34782  0.16406  0.33659  1.0000
  C  Sn8       1.0  0.37672  0.17729  0.29425  1.0000
  O  Te5       1.0  0.43823  0.17088  0.27697  1.0000
  O  Te6       1.0  0.38608  0.08102  0.49237  1.0000
  O  Te7       1.0  0.32125  0.11940  0.44398  1.0000
  O  Te8       1.0  0.37341  0.20927  0.22852  1.0000
  Mg  Mg3       1.0  0.33880  0.07461  0.52950  1.0000
  Mg  Mg4       1.0  0.42066  0.21570  0.19127  1.0000
  C  Sn9       1.0  0.86431  0.65606  0.57803  1.0000
  C   C189      1.0  0.82910  0.65317  0.58726  1.0000
  C  Sn10      1.0  0.81691  0.62254  0.62662  1.0000
  C  Sn11      1.0  0.84041  0.59421  0.65751  1.0000
  C   C190      1.0  0.87559  0.59711  0.64831  1.0000
  C  Sn12      1.0  0.88780  0.62773  0.60893  1.0000
  O  Te9       1.0  0.87592  0.68693  0.53848  1.0000
  O  Te10      1.0  0.78160  0.62026  0.63505  1.0000
  O  Te11      1.0  0.82876  0.56332  0.69708  1.0000
  O  Te12      1.0  0.92309  0.63002  0.60052  1.0000
  Mg  Mg5       1.0  0.77831  0.57280  0.69364  1.0000
  Mg  Mg6       1.0  0.92642  0.67747  0.54203  1.0000
  C  Sn13      1.0  0.77537  0.23815  0.61160  1.0000
  C   C191      1.0  0.77736  0.26860  0.71198  1.0000
  C  Sn14      1.0  0.75590  0.27272  0.81621  1.0000
  C  Sn15      1.0  0.73196  0.24585  0.82030  1.0000
  C   C192      1.0  0.72999  0.21542  0.71999  1.0000
  C  Sn16      1.0  0.75144  0.21127  0.61568  1.0000
  O  Te13      1.0  0.79708  0.23458  0.50836  1.0000
  O  Te14      1.0  0.75835  0.30340  0.91538  1.0000
  O  Te15      1.0  0.71025  0.24944  0.92365  1.0000
  O  Te16      1.0  0.74900  0.18062  0.51658  1.0000
  Mg  Mg7       1.0  0.64880  0.28096  0.03553  1.0000
  Mg  Mg8       1.0  0.78408  0.18796  0.39646  1.0000
  C  Sn17      1.0  0.74450  0.26867  0.32649  1.0000
  C   C193      1.0  0.77980  0.26792  0.31681  1.0000
  C  Sn18      1.0  0.78955  0.24141  0.22132  1.0000
  C  Sn19      1.0  0.76346  0.21510  0.13357  1.0000
  C   C194      1.0  0.72819  0.21587  0.14325  1.0000
  C  Sn20      1.0  0.71841  0.24237  0.23874  1.0000
  O  Te17      1.0  0.73535  0.29543  0.42270  1.0000
  O  Te18      1.0  0.82501  0.24120  0.21360  1.0000
  O  Te19      1.0  0.77264  0.18834  0.03732  1.0000
  O  Te20      1.0  0.68297  0.24259  0.24646  1.0000
  Mg  Mg9       1.0  0.82437  0.19932  0.06583  1.0000
  Mg  Mg10      1.0  0.68358  0.28446  0.39411  1.0000
  C  Sn21      1.0  0.35165  0.12546  0.90974  1.0000
  C   C195      1.0  0.35488  0.16055  0.89999  1.0000
  C  Sn22      1.0  0.38371  0.17400  0.85794  1.0000
  C  Sn23      1.0  0.40986  0.15192  0.82484  1.0000
  C   C196      1.0  0.40663  0.11686  0.83456  1.0000
  C  Sn24      1.0  0.37780  0.10338  0.87663  1.0000
  O  Te21      1.0  0.32261  0.11258  0.95199  1.0000
  O  Te22      1.0  0.38636  0.20916  0.84904  1.0000
  O  Te23      1.0  0.43892  0.16484  0.78256  1.0000
  O  Te24      1.0  0.37514  0.06824  0.88551  1.0000
  Mg  Mg11      1.0  0.43080  0.21452  0.78641  1.0000
  Mg  Mg12      1.0  0.33070  0.06286  0.94804  1.0000
  C  Sn25      1.0  0.22435  0.21066  0.78245  1.0000
  C   C197      1.0  0.26016  0.21198  0.77923  1.0000
  C  Sn26      1.0  0.27599  0.24294  0.76490  1.0000
  C  Sn27      1.0  0.25563  0.27323  0.75365  1.0000
  C   C198      1.0  0.21985  0.27190  0.75689  1.0000
  C  Sn28      1.0  0.20399  0.24095  0.77120  1.0000
  O  Te25      1.0  0.20907  0.17943  0.79686  1.0000
  O  Te26      1.0  0.31182  0.24362  0.76189  1.0000
  O  Te27      1.0  0.27094  0.30448  0.73922  1.0000
  O  Te28      1.0  0.16818  0.24026  0.77423  1.0000
  Mg  Mg13      1.0  0.32066  0.29234  0.74064  1.0000
  Mg  Mg14      1.0  0.15933  0.19156  0.79556  1.0000
  C  Sn29      1.0  0.88953  0.36600  0.93337  1.0000
  C   C199      1.0  0.88389  0.39540  0.84382  1.0000
  C  Sn30      1.0  0.84829  0.40676  0.76338  1.0000
  C  Sn31      1.0  0.81768  0.38838  0.77271  1.0000
  C   C200      1.0  0.82333  0.35901  0.86223  1.0000
  C  Sn32      1.0  0.85893  0.34762  0.94270  1.0000
  O  Te29      1.0  0.85090  0.34004  0.01282  1.0000
  O  Te30      1.0  0.84334  0.43622  0.67456  1.0000
  O  Te31      1.0  0.78183  0.39930  0.69315  1.0000
  O  Te32      1.0  0.78941  0.30313  0.03150  1.0000
  Mg  Mg15      1.0  0.78921  0.44088  0.58753  1.0000
  Mg  Mg16      1.0  0.84353  0.29846  0.11865  1.0000
  C  Sn33      1.0  0.73980  0.72757  0.20971  1.0000
  C   C201      1.0  0.77331  0.73235  0.18523  1.0000
  C  Sn34      1.0  0.79213  0.76377  0.23309  1.0000
  C  Sn35      1.0  0.77716  0.79096  0.30707  1.0000
  C   C202      1.0  0.74366  0.78617  0.33155  1.0000
  C  Sn36      1.0  0.72482  0.75476  0.28369  1.0000
  O  Te33      1.0  0.72146  0.69595  0.16090  1.0000
  O  Te34      1.0  0.82559  0.76794  0.20730  1.0000
  O  Te35      1.0  0.79553  0.82260  0.35587  1.0000
  O  Te36      1.0  0.69138  0.75058  0.30948  1.0000
  Mg  Mg17      1.0  0.84024  0.81578  0.29486  1.0000
  Mg  Mg18      1.0  0.67672  0.70275  0.22205  1.0000
  C  Sn37      1.0  0.66945  0.87353  0.88542  1.0000
  C   C203      1.0  0.66958  0.83938  0.92135  1.0000
  C  Sn38      1.0  0.63800  0.82392  0.93095  1.0000
  C  Sn39      1.0  0.60561  0.84299  0.90398  1.0000
  C   C204      1.0  0.60550  0.87712  0.86805  1.0000
  C  Sn40      1.0  0.63706  0.89260  0.85845  1.0000
  O  Te37      1.0  0.70133  0.88846  0.87643  1.0000
  O  Te38      1.0  0.63880  0.78975  0.96710  1.0000
  O  Te39      1.0  0.57372  0.82803  0.91301  1.0000
  O  Te40      1.0  0.63628  0.92675  0.82230  1.0000
  Mg  Mg19      1.0  0.58843  0.78076  0.96583  1.0000
  Mg  Mg20      1.0  0.68662  0.93575  0.82345  1.0000
  C  Sn41      1.0  0.16612  0.40606  0.72221  1.0000
  C   C205      1.0  0.12864  0.40554  0.62380  1.0000
  C  Sn42      1.0  0.11076  0.37511  0.53999  1.0000
  C  Sn43      1.0  0.13073  0.34454  0.55492  1.0000
  C   C206      1.0  0.16818  0.34506  0.65330  1.0000
  C  Sn44      1.0  0.18609  0.37549  0.73714  1.0000
  O  Te41      1.0  0.18343  0.43677  0.80489  1.0000
  O  Te42      1.0  0.07328  0.37523  0.44229  1.0000
  O  Te43      1.0  0.11338  0.31381  0.47213  1.0000
  O  Te44      1.0  0.22355  0.37537  0.83481  1.0000
  Mg  Mg21      1.0  0.06194  0.32698  0.35394  1.0000
  Mg  Mg22      1.0  0.23491  0.42360  0.92328  1.0000
  C  Sn45      1.0  0.61313  0.16864  0.74882  1.0000
  C   C207      1.0  0.64660  0.16490  0.72156  1.0000
  C  Sn46      1.0  0.65307  0.13559  0.63218  1.0000
  C  Sn47      1.0  0.62549  0.10950  0.56863  1.0000
  C   C208      1.0  0.59204  0.11326  0.59587  1.0000
  C  Sn48      1.0  0.58555  0.14255  0.68526  1.0000
  O  Te45      1.0  0.60726  0.19815  0.83851  1.0000
  O  Te46      1.0  0.68676  0.13242  0.60658  1.0000
  O  Te47      1.0  0.63139  0.07998  0.47889  1.0000
  O  Te48      1.0  0.55188  0.14573  0.71085  1.0000
  Mg  Mg23      1.0  0.68172  0.08747  0.47660  1.0000
  Mg  Mg24      1.0  0.55689  0.19068  0.84073  1.0000
