data_image0
_chemical_formula_structural       H56C104N16C2Sn2C2HTe2HMgC2Sn2C2HTe2HMgC2Sn2C2HTe2HMgC2Sn2C2HTe2HMgC2Sn2C2HTe2HMgC2Sn2C2HTe2HMgC2Sn2C2HTe2HMgC2Sn2C2HTe2HMgC2Sn2C2HTe2HMgC2Sn2C2HTe2HMgC2Sn2C2HTe2HMgC2Sn2C2HTe2HMgC2Sn2C2HTe2HMgC2Sn2C2HTe2HMgC2Sn2C2HTe2HMgC2Sn2C2HTe2HMg
_chemical_formula_sum              "H88 C168 N16 Sn32 Te32 Mg16"
_cell_length_a       28.6259
_cell_length_b       31.4867
_cell_length_c       8.15553
_cell_angle_alpha    88.6239
_cell_angle_beta     90.1013
_cell_angle_gamma    89.9945

_symmetry_space_group_name_H-M    'P1'
_space_group_IT_number       1

loop_
  _space_group_symop_operation_xyz
  'x, y, z'

loop_
  _atom_site_type_symbol
  _atom_site_label
  _atom_site_symmetry_multiplicity
  _atom_site_fract_x
  _atom_site_fract_y
  _atom_site_fract_z
  _atom_site_occupancy
  H   H1        1.0  0.54755  0.84436  0.22892  1.0000
  H   H2        1.0  0.45178  0.15588  0.25006  1.0000
  H   H3        1.0  0.45315  0.84494  0.26779  1.0000
  H   H4        1.0  0.54676  0.15714  0.29556  1.0000
  H   H5        1.0  0.64968  0.93783  0.07887  1.0000
  H   H6        1.0  0.35336  0.06295  0.08271  1.0000
  H   H7        1.0  0.35324  0.93664  0.43431  1.0000
  H   H8        1.0  0.65079  0.06403  0.43118  1.0000
  H   H9        1.0  0.59366  0.99590  0.12741  1.0000
  H   H10       1.0  0.41180  0.00569  0.12140  1.0000
  H   H11       1.0  0.41120  0.99434  0.39938  1.0000
  H   H12       1.0  0.59446  0.00575  0.39063  1.0000
  H   H13       1.0  0.77533  0.76833  0.30145  1.0000
  H   H14       1.0  0.22347  0.22805  0.31509  1.0000
  H   H15       1.0  0.22441  0.77206  0.19384  1.0000
  H   H16       1.0  0.77117  0.23206  0.15839  1.0000
  H   H17       1.0  0.92957  0.36953  0.04008  1.0000
  H   H18       1.0  0.06957  0.63931  0.08836  1.0000
  H   H19       1.0  0.06835  0.36402  0.39925  1.0000
  H   H20       1.0  0.92869  0.63394  0.42503  1.0000
  H   H21       1.0  0.99295  0.42149  0.08505  1.0000
  H   H22       1.0  0.00551  0.58722  0.11772  1.0000
  H   H23       1.0  0.00481  0.41632  0.36069  1.0000
  H   H24       1.0  0.99294  0.58318  0.37868  1.0000
  H   H25       1.0  0.82795  0.45627  0.23032  1.0000
  H   H26       1.0  0.17129  0.54371  0.21904  1.0000
  H   H27       1.0  0.17098  0.45766  0.25627  1.0000
  H   H28       1.0  0.82682  0.54174  0.27913  1.0000
  H   H29       1.0  0.54534  0.84291  0.73582  1.0000
  H   H30       1.0  0.45600  0.15666  0.72769  1.0000
  H   H31       1.0  0.45153  0.84341  0.78202  1.0000
  H   H32       1.0  0.54827  0.15545  0.77803  1.0000
  H   H33       1.0  0.64702  0.93603  0.57886  1.0000
  H   H34       1.0  0.35172  0.06614  0.58552  1.0000
  H   H35       1.0  0.34955  0.93595  0.92351  1.0000
  H   H36       1.0  0.64951  0.06131  0.92948  1.0000
  H   H37       1.0  0.59060  0.99418  0.62298  1.0000
  H   H38       1.0  0.40755  0.00705  0.62567  1.0000
  H   H39       1.0  0.40737  0.99380  0.88994  1.0000
  H   H40       1.0  0.59213  0.00384  0.88937  1.0000
  H   H41       1.0  0.77323  0.76789  0.82058  1.0000
  H   H42       1.0  0.23100  0.23441  0.82358  1.0000
  H   H43       1.0  0.22826  0.76842  0.65944  1.0000
  H   H44       1.0  0.77322  0.23111  0.68021  1.0000
  H   H45       1.0  0.92811  0.36624  0.54919  1.0000
  H   H46       1.0  0.06777  0.63680  0.58242  1.0000
  H   H47       1.0  0.07147  0.36161  0.89451  1.0000
  H   H48       1.0  0.93015  0.63120  0.93026  1.0000
  H   H49       1.0  0.99209  0.41771  0.59217  1.0000
  H   H50       1.0  0.00436  0.58417  0.61422  1.0000
  H   H51       1.0  0.00628  0.41209  0.85441  1.0000
  H   H52       1.0  0.99345  0.57919  0.88504  1.0000
  H   H53       1.0  0.82666  0.45628  0.71607  1.0000
  H   H54       1.0  0.16998  0.54344  0.73283  1.0000
  H   H55       1.0  0.17177  0.45927  0.77630  1.0000
  H   H56       1.0  0.82697  0.54155  0.77191  1.0000
  C   C1        1.0  0.46488  0.95220  0.31352  1.0000
  C   C2        1.0  0.53868  0.04848  0.31770  1.0000
  C   C3        1.0  0.53881  0.95286  0.20613  1.0000
  C   C4        1.0  0.46462  0.04850  0.21033  1.0000
  C   C5        1.0  0.86353  0.44909  0.19307  1.0000
  C   C6        1.0  0.13536  0.55293  0.19276  1.0000
  C   C7        1.0  0.13501  0.44885  0.28350  1.0000
  C   C8        1.0  0.86278  0.55024  0.30686  1.0000
  C   C9        1.0  0.47753  0.90943  0.28454  1.0000
  C   C10       1.0  0.52442  0.09156  0.29810  1.0000
  C   C11       1.0  0.52501  0.90970  0.22599  1.0000
  C   C12       1.0  0.47686  0.09142  0.23893  1.0000
  C   C13       1.0  0.55721  0.87719  0.20127  1.0000
  C   C14       1.0  0.44348  0.12343  0.21746  1.0000
  C   C15       1.0  0.44436  0.87715  0.30208  1.0000
  C   C16       1.0  0.55664  0.12426  0.32116  1.0000
  C   C17       1.0  0.60313  0.88723  0.15547  1.0000
  C   C18       1.0  0.39802  0.11319  0.16783  1.0000
  C   C19       1.0  0.39859  0.88694  0.34896  1.0000
  C   C20       1.0  0.60308  0.11443  0.36123  1.0000
  C   C21       1.0  0.61470  0.93025  0.12269  1.0000
  C   C22       1.0  0.38803  0.07068  0.12808  1.0000
  C   C23       1.0  0.38810  0.92924  0.39025  1.0000
  C   C24       1.0  0.61524  0.07150  0.39286  1.0000
  C   C25       1.0  0.58326  0.96320  0.14787  1.0000
  C   C26       1.0  0.42077  0.03820  0.14775  1.0000
  C   C27       1.0  0.42065  0.96196  0.37352  1.0000
  C   C28       1.0  0.58366  0.03841  0.37211  1.0000
  C   C29       1.0  0.74111  0.75699  0.25877  1.0000
  C   C30       1.0  0.25714  0.24018  0.26854  1.0000
  C   C31       1.0  0.25853  0.75981  0.23601  1.0000
  C   C32       1.0  0.73966  0.24377  0.22018  1.0000
  C   C33       1.0  0.87449  0.40870  0.13564  1.0000
  C   C34       1.0  0.12467  0.59552  0.15570  1.0000
  C   C35       1.0  0.12399  0.40664  0.32640  1.0000
  C   C36       1.0  0.87348  0.59176  0.35201  1.0000
  C   C37       1.0  0.92130  0.40015  0.09195  1.0000
  C   C38       1.0  0.07765  0.60656  0.12348  1.0000
  C   C39       1.0  0.07681  0.39631  0.35933  1.0000
  C   C40       1.0  0.92062  0.60216  0.38373  1.0000
  C   C41       1.0  0.95723  0.42932  0.11503  1.0000
  C   C42       1.0  0.04127  0.57733  0.13832  1.0000
  C   C43       1.0  0.04070  0.42566  0.33981  1.0000
  C   C44       1.0  0.95708  0.57371  0.35915  1.0000
  C   C45       1.0  0.94617  0.46811  0.18431  1.0000
  C   C46       1.0  0.05211  0.53576  0.18895  1.0000
  C   C47       1.0  0.05199  0.46679  0.28598  1.0000
  C   C48       1.0  0.94615  0.53368  0.30017  1.0000
  C   C49       1.0  0.89893  0.47890  0.21634  1.0000
  C   C50       1.0  0.09947  0.52304  0.21012  1.0000
  C   C51       1.0  0.09939  0.47895  0.26313  1.0000
  C   C52       1.0  0.89877  0.52121  0.28027  1.0000
  C   C53       1.0  0.46213  0.95143  0.81231  1.0000
  C   C54       1.0  0.53768  0.04711  0.80923  1.0000
  C   C55       1.0  0.53629  0.95140  0.70668  1.0000
  C   C56       1.0  0.46344  0.04834  0.70281  1.0000
  C   C57       1.0  0.86245  0.44830  0.68436  1.0000
  C   C58       1.0  0.13420  0.55203  0.70124  1.0000
  C   C59       1.0  0.13584  0.44919  0.79679  1.0000
  C   C60       1.0  0.86304  0.54941  0.80076  1.0000
  C   C61       1.0  0.47520  0.90840  0.78929  1.0000
  C   C62       1.0  0.52488  0.09035  0.78403  1.0000
  C   C63       1.0  0.52273  0.90832  0.73079  1.0000
  C   C64       1.0  0.47751  0.09110  0.72463  1.0000
  C   C65       1.0  0.55498  0.87568  0.70690  1.0000
  C   C66       1.0  0.44572  0.12428  0.70094  1.0000
  C   C67       1.0  0.44231  0.87598  0.81002  1.0000
  C   C68       1.0  0.55750  0.12260  0.80716  1.0000
  C   C69       1.0  0.60083  0.88556  0.65935  1.0000
  C   C70       1.0  0.39946  0.11533  0.65784  1.0000
  C   C71       1.0  0.39617  0.88590  0.85129  1.0000
  C   C72       1.0  0.60333  0.11232  0.85357  1.0000
  C   C73       1.0  0.61214  0.92851  0.62361  1.0000
  C   C74       1.0  0.38717  0.07287  0.62555  1.0000
  C   C75       1.0  0.38494  0.92849  0.88511  1.0000
  C   C76       1.0  0.61438  0.06926  0.88789  1.0000
  C   C77       1.0  0.58055  0.96151  0.64623  1.0000
  C   C78       1.0  0.41856  0.03933  0.64603  1.0000
  C   C79       1.0  0.41741  0.96132  0.86807  1.0000
  C   C80       1.0  0.58222  0.03659  0.86692  1.0000
  C   C81       1.0  0.74027  0.75629  0.76809  1.0000
  C   C82       1.0  0.26461  0.24611  0.77501  1.0000
  C   C83       1.0  0.26036  0.75665  0.71982  1.0000
  C   C84       1.0  0.73965  0.24273  0.72747  1.0000
  C   C85       1.0  0.87313  0.40729  0.63302  1.0000
  C   C86       1.0  0.12327  0.59411  0.65695  1.0000
  C   C87       1.0  0.12602  0.40652  0.83455  1.0000
  C   C88       1.0  0.87434  0.59050  0.85011  1.0000
  C   C89       1.0  0.92003  0.39755  0.59526  1.0000
  C   C90       1.0  0.07621  0.60441  0.62151  1.0000
  C   C91       1.0  0.07897  0.39446  0.85943  1.0000
  C   C92       1.0  0.92155  0.59987  0.88548  1.0000
  C   C93       1.0  0.95633  0.42635  0.61795  1.0000
  C   C94       1.0  0.04015  0.57481  0.63731  1.0000
  C   C95       1.0  0.04191  0.42281  0.83849  1.0000
  C   C96       1.0  0.95747  0.57079  0.86152  1.0000
  C   C97       1.0  0.94555  0.46583  0.68210  1.0000
  C   C98       1.0  0.05132  0.53361  0.69147  1.0000
  C   C99       1.0  0.05206  0.46458  0.78893  1.0000
  C   C100      1.0  0.94602  0.53138  0.79819  1.0000
  C   C101      1.0  0.89830  0.47759  0.70941  1.0000
  C   C102      1.0  0.09868  0.52191  0.71859  1.0000
  C   C103      1.0  0.09924  0.47803  0.77267  1.0000
  C   C104      1.0  0.89855  0.51986  0.77403  1.0000
  N   N1        1.0  0.26713  0.71955  0.24475  1.0000
  N   N2        1.0  0.73290  0.28387  0.24000  1.0000
  N   N3        1.0  0.73168  0.71690  0.25481  1.0000
  N   N4        1.0  0.26526  0.28043  0.25314  1.0000
  N   N5        1.0  0.50223  0.97850  0.26297  1.0000
  N   N6        1.0  0.50208  0.02253  0.26252  1.0000
  N   N7        1.0  0.97484  0.50127  0.23944  1.0000
  N   N8        1.0  0.02338  0.50132  0.23751  1.0000
  N   N9        1.0  0.26734  0.71648  0.74440  1.0000
  N   N10       1.0  0.73075  0.28289  0.73300  1.0000
  N   N11       1.0  0.73248  0.71613  0.75439  1.0000
  N   N12       1.0  0.27302  0.28632  0.76070  1.0000
  N   N13       1.0  0.49956  0.97749  0.75978  1.0000
  N   N14       1.0  0.50015  0.02163  0.75737  1.0000
  N   N15       1.0  0.97446  0.49854  0.73929  1.0000
  N   N16       1.0  0.02299  0.49860  0.73714  1.0000
  C   C105      1.0  0.71422  0.84385  0.25186  1.0000
  C   C106      1.0  0.71068  0.80018  0.22757  1.0000
  C  Sn1       1.0  0.67027  0.78321  0.15859  1.0000
  C  Sn2       1.0  0.63278  0.81055  0.11317  1.0000
  C   C107      1.0  0.63667  0.85419  0.13788  1.0000
  C   C108      1.0  0.67726  0.87083  0.20704  1.0000
  H   H57       1.0  0.74563  0.85673  0.30530  1.0000
  O  Te1       1.0  0.66731  0.73951  0.13523  1.0000
  O  Te2       1.0  0.59200  0.79443  0.04393  1.0000
  H   H58       1.0  0.68000  0.90465  0.22574  1.0000
  Mg  Mg1       1.0  0.60457  0.73267  0.03651  1.0000
  C   C109      1.0  0.28637  0.15363  0.26907  1.0000
  C   C110      1.0  0.28904  0.19764  0.24457  1.0000
  C  Sn3       1.0  0.32880  0.21604  0.17363  1.0000
  C  Sn4       1.0  0.36652  0.18981  0.12644  1.0000
  C   C111      1.0  0.36350  0.14581  0.15137  1.0000
  C   C112      1.0  0.32356  0.12773  0.22251  1.0000
  H   H59       1.0  0.25546  0.13964  0.32403  1.0000
  O  Te3       1.0  0.33090  0.26007  0.15008  1.0000
  O  Te4       1.0  0.40667  0.20736  0.05522  1.0000
  H   H60       1.0  0.32149  0.09365  0.24137  1.0000
  Mg  Mg2       1.0  0.39301  0.26903  0.04835  1.0000
  C   C113      1.0  0.30620  0.86291  0.25219  1.0000
  C   C114      1.0  0.34961  0.85854  0.32942  1.0000
  C  Sn5       1.0  0.36583  0.81839  0.37902  1.0000
  C  Sn6       1.0  0.33801  0.78200  0.35056  1.0000
  C   C115      1.0  0.29464  0.78672  0.27309  1.0000
  C   C116      1.0  0.27874  0.82704  0.22401  1.0000
  H   H61       1.0  0.29391  0.89411  0.21413  1.0000
  O  Te5       1.0  0.40928  0.81459  0.45607  1.0000
  O  Te6       1.0  0.35338  0.74150  0.39881  1.0000
  H   H62       1.0  0.24514  0.83042  0.16412  1.0000
  Mg  Mg3       1.0  0.41505  0.75264  0.49933  1.0000
  C   C117      1.0  0.65436  0.21779  0.38124  1.0000
  C   C118      1.0  0.69763  0.21413  0.30375  1.0000
  C  Sn7       1.0  0.71138  0.17542  0.23884  1.0000
  C  Sn8       1.0  0.68117  0.13978  0.25190  1.0000
  C   C119      1.0  0.63794  0.14378  0.32956  1.0000
  C   C120      1.0  0.62454  0.18265  0.39413  1.0000
  H   H63       1.0  0.64397  0.24787  0.43112  1.0000
  O  Te7       1.0  0.75473  0.17231  0.16186  1.0000
  O  Te8       1.0  0.69403  0.10072  0.18806  1.0000
  H   H64       1.0  0.59102  0.18549  0.45402  1.0000
  Mg  Mg4       1.0  0.75662  0.11234  0.09424  1.0000
  C   C121      1.0  0.76013  0.36359  0.11740  1.0000
  C   C122      1.0  0.76509  0.32172  0.17562  1.0000
  C  Sn9       1.0  0.80893  0.30632  0.22355  1.0000
  C  Sn10      1.0  0.84847  0.33341  0.21289  1.0000
  C   C123      1.0  0.84314  0.37525  0.15459  1.0000
  C   C124      1.0  0.79911  0.39033  0.10690  1.0000
  H   H65       1.0  0.72607  0.37527  0.08058  1.0000
  O  Te9       1.0  0.81327  0.26440  0.28138  1.0000
  O  Te10      1.0  0.89269  0.31884  0.26003  1.0000
  H   H66       1.0  0.79527  0.42276  0.06193  1.0000
  Mg  Mg5       1.0  0.88083  0.25923  0.33086  1.0000
  C   C125      1.0  0.17271  0.69357  0.28001  1.0000
  C   C126      1.0  0.21996  0.69271  0.23749  1.0000
  C  Sn11      1.0  0.23775  0.65923  0.14714  1.0000
  C  Sn12      1.0  0.20758  0.62604  0.09860  1.0000
  C   C127      1.0  0.16035  0.62721  0.14166  1.0000
  C   C128      1.0  0.14292  0.66086  0.23213  1.0000
  H   H67       1.0  0.15921  0.71961  0.34994  1.0000
  O  Te11      1.0  0.28505  0.65886  0.10574  1.0000
  O  Te12      1.0  0.22443  0.59221  0.00818  1.0000
  H   H68       1.0  0.10633  0.66153  0.26495  1.0000
  Mg  Mg6       1.0  0.29204  0.59969  0.98141  1.0000
  C   C129      1.0  0.21802  0.37496  0.38607  1.0000
  C   C130      1.0  0.17184  0.37603  0.33024  1.0000
  C  Sn13      1.0  0.15308  0.34134  0.24918  1.0000
  C  Sn14      1.0  0.18115  0.30495  0.22376  1.0000
  C   C131      1.0  0.22730  0.30419  0.28019  1.0000
  C   C132      1.0  0.24572  0.33908  0.36111  1.0000
  H   H69       1.0  0.23227  0.40195  0.44876  1.0000
  O  Te13      1.0  0.10688  0.34293  0.19414  1.0000
  O  Te14      1.0  0.16327  0.26983  0.14317  1.0000
  H   H70       1.0  0.28147  0.33824  0.40441  1.0000
  Mg  Mg7       1.0  0.09834  0.28716  0.09084  1.0000
  C   C133      1.0  0.77943  0.62292  0.41028  1.0000
  C   C134      1.0  0.82541  0.62179  0.35320  1.0000
  C  Sn15      1.0  0.84377  0.65627  0.26364  1.0000
  C  Sn16      1.0  0.81550  0.69251  0.23083  1.0000
  C   C135      1.0  0.76956  0.69334  0.28857  1.0000
  C   C136      1.0  0.75153  0.65866  0.37803  1.0000
  H   H71       1.0  0.76549  0.59609  0.47957  1.0000
  O  Te15      1.0  0.88977  0.65462  0.20748  1.0000
  O  Te16      1.0  0.83297  0.72742  0.14166  1.0000
  H   H72       1.0  0.71594  0.65955  0.42229  1.0000
  Mg  Mg8       1.0  0.89776  0.71009  0.09120  1.0000
  C   C137      1.0  0.71066  0.84235  0.77295  1.0000
  C   C138      1.0  0.70870  0.79906  0.73959  1.0000
  C  Sn17      1.0  0.67028  0.78242  0.65703  1.0000
  C  Sn18      1.0  0.63319  0.80971  0.60705  1.0000
  C   C139      1.0  0.63549  0.85298  0.64091  1.0000
  C   C140      1.0  0.67410  0.86929  0.72364  1.0000
  H   H73       1.0  0.74054  0.85498  0.83688  1.0000
  O  Te17      1.0  0.66888  0.73909  0.62474  1.0000
  O  Te18      1.0  0.59438  0.79392  0.52430  1.0000
  H   H74       1.0  0.67562  0.90282  0.74936  1.0000
  Mg  Mg9       1.0  0.60857  0.73261  0.50859  1.0000
  C   C141      1.0  0.36788  0.20220  0.60782  1.0000
  C   C142      1.0  0.36756  0.15958  0.65969  1.0000
  C  Sn19      1.0  0.32942  0.14298  0.74653  1.0000
  C  Sn20      1.0  0.29093  0.16962  0.78188  1.0000
  C   C143      1.0  0.29157  0.21221  0.72935  1.0000
  C   C144      1.0  0.32992  0.22850  0.64258  1.0000
  H   H75       1.0  0.39754  0.21480  0.54061  1.0000
  O  Te19      1.0  0.32967  0.10033  0.79750  1.0000
  O  Te20      1.0  0.25235  0.15385  0.86842  1.0000
  H   H76       1.0  0.33015  0.26149  0.60235  1.0000
  Mg  Mg10      1.0  0.26904  0.09359  0.91184  1.0000
  C   C145      1.0  0.34577  0.78224  0.87698  1.0000
  C   C146      1.0  0.30260  0.78606  0.79768  1.0000
  C  Sn21      1.0  0.28844  0.82515  0.72983  1.0000
  C  Sn22      1.0  0.31813  0.86103  0.74175  1.0000
  C   C147      1.0  0.36126  0.85688  0.82123  1.0000
  C   C148      1.0  0.37508  0.81761  0.88873  1.0000
  H   H77       1.0  0.35648  0.75186  0.92913  1.0000
  O  Te21      1.0  0.24520  0.82840  0.65108  1.0000
  O  Te22      1.0  0.30485  0.90047  0.67497  1.0000
  H   H78       1.0  0.40852  0.81466  0.95003  1.0000
  Mg  Mg11      1.0  0.24261  0.88893  0.57961  1.0000
  C   C149      1.0  0.71261  0.15605  0.73769  1.0000
  C   C150      1.0  0.70931  0.19968  0.76306  1.0000
  C  Sn23      1.0  0.67029  0.21637  0.84157  1.0000
  C  Sn24      1.0  0.63397  0.18878  0.89559  1.0000
  C   C151      1.0  0.63762  0.14517  0.86973  1.0000
  C   C152      1.0  0.67680  0.12881  0.79099  1.0000
  H   H79       1.0  0.74294  0.14338  0.67685  1.0000
  O  Te23      1.0  0.66755  0.26004  0.86587  1.0000
  O  Te24      1.0  0.59460  0.20462  0.97444  1.0000
  H   H80       1.0  0.67936  0.09503  0.77146  1.0000
  Mg  Mg12      1.0  0.60692  0.26645  0.97928  1.0000
  C   C153      1.0  0.77917  0.37616  0.57260  1.0000
  C   C154      1.0  0.82519  0.37700  0.62995  1.0000
  C  Sn25      1.0  0.84324  0.34254  0.72065  1.0000
  C  Sn26      1.0  0.81462  0.30660  0.75433  1.0000
  C   C155      1.0  0.76864  0.30605  0.69631  1.0000
  C   C156      1.0  0.75092  0.34072  0.60571  1.0000
  H   H81       1.0  0.76547  0.40297  0.50242  1.0000
  O  Te25      1.0  0.88928  0.34391  0.77708  1.0000
  O  Te26      1.0  0.83178  0.27171  0.84465  1.0000
  H   H82       1.0  0.71530  0.34005  0.56123  1.0000
  Mg  Mg13      1.0  0.89677  0.28860  0.89504  1.0000
  C   C157      1.0  0.21807  0.62330  0.60435  1.0000
  C   C158      1.0  0.17154  0.62377  0.65584  1.0000
  C  Sn27      1.0  0.15366  0.65902  0.73547  1.0000
  C  Sn28      1.0  0.18299  0.69443  0.76389  1.0000
  C   C159      1.0  0.22948  0.69367  0.71180  1.0000
  C   C160      1.0  0.24702  0.65822  0.63227  1.0000
  H   H83       1.0  0.23164  0.59588  0.54274  1.0000
  O  Te27      1.0  0.10709  0.65896  0.78616  1.0000
  O  Te28      1.0  0.16601  0.73009  0.84315  1.0000
  H   H84       1.0  0.28304  0.65788  0.59233  1.0000
  Mg  Mg14      1.0  0.10012  0.71493  0.88920  1.0000
  C   C161      1.0  0.22037  0.37764  0.90555  1.0000
  C   C162      1.0  0.17511  0.37787  0.84104  1.0000
  C  Sn29      1.0  0.15927  0.34379  0.74949  1.0000
  C  Sn30      1.0  0.18937  0.30887  0.72225  1.0000
  C   C163      1.0  0.23458  0.30893  0.78741  1.0000
  C   C164      1.0  0.25008  0.34320  0.87880  1.0000
  H   H85       1.0  0.23236  0.40414  0.97633  1.0000
  O  Te29      1.0  0.11395  0.34454  0.68587  1.0000
  O  Te30      1.0  0.17443  0.27439  0.63125  1.0000
  H   H86       1.0  0.28511  0.34300  0.92882  1.0000
  Mg  Mg15      1.0  0.10964  0.29013  0.56987  1.0000
  C   C165      1.0  0.82738  0.69103  0.73347  1.0000
  C   C166      1.0  0.77981  0.68949  0.77131  1.0000
  C  Sn31      1.0  0.76142  0.65469  0.85892  1.0000
  C  Sn32      1.0  0.79129  0.62086  0.90943  1.0000
  C   C167      1.0  0.83884  0.62272  0.87106  1.0000
  C   C168      1.0  0.85688  0.65769  0.78330  1.0000
  H   H87       1.0  0.84135  0.71810  0.66565  1.0000
  O  Te31      1.0  0.71380  0.65365  0.89565  1.0000
  O  Te32      1.0  0.77383  0.58571  0.99718  1.0000
  H   H88       1.0  0.89372  0.65889  0.75411  1.0000
  Mg  Mg16      1.0  0.70600  0.60514  0.01776  1.0000
