data_image0
_chemical_formula_structural       H64C112N24C2Sn2C2HTe2HMgC2Sn2C2HTe2HMgC2Sn2C2HTe2HMgC2Sn2C2HTe2HMgC2Sn2C2HTe2HMgC2Sn2C2HTe2HMgC2Sn2C2HTe2HMgC2Sn2C2HTe2HMgC2Sn2C2HTe2HMgC2Sn2C2HTe2HMgC2Sn2C2HTe2HMgC2Sn2C2HTe2HMgC2Sn2C2HTe2HMgC2Sn2C2HTe2HMgC2Sn2C2HTe2HMgC2Sn2C2HTe2HMgC2Sn2C2HTe2HMgC2Sn2C2HTe2HMgC2Sn2C2HTe2HMgC2Sn2C2HTe2HMgC2Sn2C2HTe2HMgC2Sn2C2HTe2HMgC2Sn2C2HTe2HMgC2Sn2C2HTe2HMg
_chemical_formula_sum              "H112 C208 N24 Sn48 Te48 Mg24"
_cell_length_a       38.7357
_cell_length_b       39.3566
_cell_length_c       8.33331
_cell_angle_alpha    94.1312
_cell_angle_beta     110.265
_cell_angle_gamma    89.8507

_symmetry_space_group_name_H-M    'P1'
_space_group_IT_number       1

loop_
  _space_group_symop_operation_xyz
  'x, y, z'

loop_
  _atom_site_type_symbol
  _atom_site_label
  _atom_site_symmetry_multiplicity
  _atom_site_fract_x
  _atom_site_fract_y
  _atom_site_fract_z
  _atom_site_occupancy
  H   H1        1.0  0.87132  0.47006  0.25003  1.0000
  H   H2        1.0  0.12402  0.53822  0.25287  1.0000
  H   H3        1.0  0.53701  0.87322  0.30333  1.0000
  H   H4        1.0  0.47020  0.12250  0.29901  1.0000
  H   H5        1.0  0.12439  0.47274  0.18478  1.0000
  H   H6        1.0  0.86957  0.53197  0.17082  1.0000
  H   H7        1.0  0.46444  0.87368  0.23987  1.0000
  H   H8        1.0  0.53172  0.12245  0.22840  1.0000
  H   H9        1.0  0.95404  0.39456  0.42579  1.0000
  H   H10       1.0  0.06442  0.60790  0.47990  1.0000
  H   H11       1.0  0.62380  0.94985  0.46525  1.0000
  H   H12       1.0  0.39929  0.04845  0.39554  1.0000
  H   H13       1.0  0.05077  0.38717  0.12280  1.0000
  H   H14       1.0  0.93974  0.60385  0.05380  1.0000
  H   H15       1.0  0.37759  0.94233  0.00136  1.0000
  H   H16       1.0  0.59822  0.04706  0.08017  1.0000
  H   H17       1.0  0.00085  0.43252  0.39476  1.0000
  H   H18       1.0  0.01636  0.56469  0.43550  1.0000
  H   H19       1.0  0.57897  0.99559  0.39832  1.0000
  H   H20       1.0  0.43857  0.00186  0.35427  1.0000
  H   H21       1.0  0.00447  0.42458  0.17416  1.0000
  H   H22       1.0  0.98883  0.56235  0.10520  1.0000
  H   H23       1.0  0.42204  0.98910  0.05382  1.0000
  H   H24       1.0  0.55846  0.00085  0.10765  1.0000
  H   H25       1.0  0.83490  0.71791  0.18276  1.0000
  H   H26       1.0  0.16654  0.29287  0.20944  1.0000
  H   H27       1.0  0.26815  0.83569  0.14085  1.0000
  H   H28       1.0  0.70888  0.16520  0.07633  1.0000
  H   H29       1.0  0.16190  0.72032  0.29482  1.0000
  H   H30       1.0  0.83790  0.29020  0.31079  1.0000
  H   H31       1.0  0.72818  0.83605  0.35499  1.0000
  H   H32       1.0  0.29174  0.17234  0.42920  1.0000
  H   H33       1.0  0.87222  0.47124  0.76884  1.0000
  H   H34       1.0  0.12730  0.53506  0.78002  1.0000
  H   H35       1.0  0.53653  0.87235  0.78668  1.0000
  H   H36       1.0  0.46724  0.12151  0.77617  1.0000
  H   H37       1.0  0.12563  0.47106  0.70045  1.0000
  H   H38       1.0  0.87253  0.53489  0.70580  1.0000
  H   H39       1.0  0.46403  0.87171  0.71094  1.0000
  H   H40       1.0  0.53138  0.12162  0.72415  1.0000
  H   H41       1.0  0.95317  0.39363  0.92272  1.0000
  H   H42       1.0  0.06257  0.60863  0.95383  1.0000
  H   H43       1.0  0.62330  0.94902  0.96602  1.0000
  H   H44       1.0  0.40530  0.04801  0.93495  1.0000
  H   H45       1.0  0.05030  0.38612  0.62175  1.0000
  H   H46       1.0  0.93854  0.60112  0.53051  1.0000
  H   H47       1.0  0.37654  0.94281  0.53368  1.0000
  H   H48       1.0  0.59696  0.04584  0.56968  1.0000
  H   H49       1.0  0.00030  0.43103  0.88975  1.0000
  H   H50       1.0  0.01465  0.56540  0.91596  1.0000
  H   H51       1.0  0.57840  0.99480  0.89845  1.0000
  H   H52       1.0  0.44283  0.00148  0.87436  1.0000
  H   H53       1.0  0.00390  0.42364  0.66937  1.0000
  H   H54       1.0  0.98701  0.55886  0.58237  1.0000
  H   H55       1.0  0.42112  0.98944  0.56981  1.0000
  H   H56       1.0  0.55874  0.00000  0.60994  1.0000
  H   H57       1.0  0.82774  0.71935  0.61902  1.0000
  H   H58       1.0  0.16224  0.28735  0.70742  1.0000
  H   H59       1.0  0.27296  0.83531  0.66501  1.0000
  H   H60       1.0  0.70181  0.17044  0.54396  1.0000
  H   H61       1.0  0.16308  0.71939  0.80288  1.0000
  H   H62       1.0  0.83307  0.29292  0.75956  1.0000
  H   H63       1.0  0.72822  0.83521  0.85893  1.0000
  H   H64       1.0  0.29293  0.16918  0.93396  1.0000
  C   C1        1.0  0.96245  0.47197  0.29209  1.0000
  C   C2        1.0  0.04291  0.52649  0.31936  1.0000
  C   C3        1.0  0.53188  0.96025  0.30740  1.0000
  C   C4        1.0  0.47483  0.03566  0.28753  1.0000
  C   C5        1.0  0.03860  0.47026  0.21824  1.0000
  C   C6        1.0  0.95832  0.52429  0.18241  1.0000
  C   C7        1.0  0.46901  0.95785  0.17451  1.0000
  C   C8        1.0  0.52412  0.03549  0.19513  1.0000
  C   C9        1.0  0.92351  0.51583  0.19233  1.0000
  C   C10       1.0  0.07284  0.48350  0.22078  1.0000
  C   C11       1.0  0.48058  0.92439  0.21680  1.0000
  C   C12       1.0  0.51603  0.07002  0.22471  1.0000
  C   C13       1.0  0.07487  0.51912  0.27822  1.0000
  C   C14       1.0  0.92561  0.48241  0.25379  1.0000
  C   C15       1.0  0.52029  0.92554  0.29063  1.0000
  C   C16       1.0  0.48395  0.07006  0.27530  1.0000
  C   C17       1.0  0.89931  0.46130  0.27860  1.0000
  C   C18       1.0  0.10129  0.54444  0.29687  1.0000
  C   C19       1.0  0.54621  0.89981  0.32838  1.0000
  C   C20       1.0  0.46240  0.09629  0.30605  1.0000
  C   C21       1.0  0.09846  0.46210  0.18427  1.0000
  C   C22       1.0  0.89546  0.53925  0.15786  1.0000
  C   C23       1.0  0.45467  0.89829  0.19370  1.0000
  C   C24       1.0  0.53824  0.09608  0.20540  1.0000
  C   C25       1.0  0.90886  0.42905  0.33961  1.0000
  C   C26       1.0  0.09761  0.57752  0.36357  1.0000
  C   C27       1.0  0.58388  0.90822  0.38371  1.0000
  C   C28       1.0  0.43067  0.08898  0.34354  1.0000
  C   C29       1.0  0.09101  0.42697  0.14993  1.0000
  C   C30       1.0  0.90124  0.57223  0.11720  1.0000
  C   C31       1.0  0.41681  0.90439  0.12279  1.0000
  C   C32       1.0  0.56892  0.08834  0.15745  1.0000
  C   C33       1.0  0.94596  0.41955  0.37934  1.0000
  C   C34       1.0  0.06697  0.58333  0.41720  1.0000
  C   C35       1.0  0.59459  0.94313  0.41412  1.0000
  C   C36       1.0  0.42323  0.05455  0.36235  1.0000
  C   C37       1.0  0.05667  0.41445  0.14727  1.0000
  C   C38       1.0  0.93497  0.57905  0.09299  1.0000
  C   C39       1.0  0.40649  0.93719  0.06535  1.0000
  C   C40       1.0  0.57511  0.05358  0.12126  1.0000
  C   C41       1.0  0.97270  0.44053  0.35798  1.0000
  C   C42       1.0  0.03960  0.55863  0.39533  1.0000
  C   C43       1.0  0.56936  0.96926  0.37737  1.0000
  C   C44       1.0  0.44512  0.02786  0.33801  1.0000
  C   C45       1.0  0.03051  0.43542  0.18014  1.0000
  C   C46       1.0  0.96329  0.55558  0.12233  1.0000
  C   C47       1.0  0.43170  0.96400  0.09134  1.0000
  C   C48       1.0  0.55300  0.02713  0.13741  1.0000
  C   C49       1.0  0.80922  0.70788  0.19218  1.0000
  C   C50       1.0  0.19268  0.29879  0.19133  1.0000
  C   C51       1.0  0.28122  0.81090  0.17024  1.0000
  C   C52       1.0  0.70232  0.18890  0.13700  1.0000
  C   C53       1.0  0.19030  0.71204  0.31829  1.0000
  C   C54       1.0  0.81044  0.29737  0.31128  1.0000
  C   C55       1.0  0.71638  0.81008  0.33829  1.0000
  C   C56       1.0  0.29852  0.19314  0.36291  1.0000
  C   C57       1.0  0.96255  0.47152  0.79647  1.0000
  C   C58       1.0  0.04270  0.52580  0.81642  1.0000
  C   C59       1.0  0.53147  0.95943  0.80138  1.0000
  C   C60       1.0  0.47574  0.03537  0.79043  1.0000
  C   C61       1.0  0.03874  0.46913  0.72170  1.0000
  C   C62       1.0  0.95823  0.52345  0.68330  1.0000
  C   C63       1.0  0.46839  0.95749  0.67450  1.0000
  C   C64       1.0  0.52395  0.03486  0.69211  1.0000
  C   C65       1.0  0.92419  0.51619  0.70429  1.0000
  C   C66       1.0  0.07359  0.48194  0.73031  1.0000
  C   C67       1.0  0.48012  0.92371  0.70811  1.0000
  C   C68       1.0  0.51552  0.06944  0.71795  1.0000
  C   C69       1.0  0.07561  0.51765  0.78506  1.0000
  C   C70       1.0  0.92620  0.48280  0.76600  1.0000
  C   C71       1.0  0.51983  0.92466  0.77859  1.0000
  C   C72       1.0  0.48390  0.06967  0.77205  1.0000
  C   C73       1.0  0.89984  0.46193  0.79178  1.0000
  C   C74       1.0  0.10286  0.54240  0.80835  1.0000
  C   C75       1.0  0.54570  0.89892  0.81539  1.0000
  C   C76       1.0  0.46178  0.09568  0.80063  1.0000
  C   C77       1.0  0.09938  0.46045  0.69598  1.0000
  C   C78       1.0  0.89699  0.54045  0.67588  1.0000
  C   C79       1.0  0.45440  0.89732  0.68260  1.0000
  C   C80       1.0  0.53763  0.09538  0.69688  1.0000
  C   C81       1.0  0.90893  0.42916  0.84613  1.0000
  C   C82       1.0  0.09829  0.57621  0.86248  1.0000
  C   C83       1.0  0.58340  0.90736  0.87678  1.0000
  C   C84       1.0  0.43196  0.08824  0.85267  1.0000
  C   C85       1.0  0.09147  0.42548  0.65736  1.0000
  C   C86       1.0  0.90244  0.57241  0.62284  1.0000
  C   C87       1.0  0.41661  0.90392  0.62669  1.0000
  C   C88       1.0  0.56806  0.08759  0.64692  1.0000
  C   C89       1.0  0.94563  0.41898  0.88028  1.0000
  C   C90       1.0  0.06627  0.58311  0.90393  1.0000
  C   C91       1.0  0.59412  0.94226  0.91117  1.0000
  C   C92       1.0  0.42646  0.05398  0.88252  1.0000
  C   C93       1.0  0.05661  0.41329  0.64962  1.0000
  C   C94       1.0  0.93489  0.57763  0.58465  1.0000
  C   C95       1.0  0.40572  0.93730  0.58090  1.0000
  C   C96       1.0  0.57440  0.05272  0.61394  1.0000
  C   C97       1.0  0.97245  0.43966  0.85787  1.0000
  C   C98       1.0  0.03871  0.55863  0.88337  1.0000
  C   C99       1.0  0.56889  0.96842  0.87454  1.0000
  C   C100      1.0  0.44776  0.02748  0.85171  1.0000
  C   C101      1.0  0.03034  0.43437  0.68064  1.0000
  C   C102      1.0  0.96261  0.55366  0.61271  1.0000
  C   C103      1.0  0.43084  0.96408  0.60164  1.0000
  C   C104      1.0  0.55288  0.02636  0.63533  1.0000
  C   C105      1.0  0.80639  0.70858  0.66108  1.0000
  C   C106      1.0  0.18922  0.29377  0.69934  1.0000
  C   C107      1.0  0.28413  0.80955  0.68322  1.0000
  C   C108      1.0  0.70035  0.19089  0.63846  1.0000
  C   C109      1.0  0.19081  0.71063  0.81446  1.0000
  C   C110      1.0  0.80805  0.29878  0.78944  1.0000
  C   C111      1.0  0.71689  0.80914  0.84646  1.0000
  C   C112      1.0  0.29786  0.19011  0.86330  1.0000
  N   N1        1.0  0.98229  0.49746  0.24762  1.0000
  N   N2        1.0  0.01985  0.49704  0.27405  1.0000
  N   N3        1.0  0.50029  0.97967  0.23447  1.0000
  N   N4        1.0  0.49933  0.01482  0.23629  1.0000
  N   N5        1.0  0.80165  0.67559  0.17990  1.0000
  N   N6        1.0  0.19974  0.32888  0.15666  1.0000
  N   N7        1.0  0.31432  0.80482  0.17375  1.0000
  N   N8        1.0  0.67325  0.19241  0.17909  1.0000
  N   N9        1.0  0.20042  0.68150  0.35830  1.0000
  N   N10       1.0  0.80208  0.32887  0.32948  1.0000
  N   N11       1.0  0.68473  0.80407  0.35222  1.0000
  N   N12       1.0  0.32770  0.19415  0.32112  1.0000
  N   N13       1.0  0.98206  0.49647  0.74602  1.0000
  N   N14       1.0  0.01960  0.49631  0.77154  1.0000
  N   N15       1.0  0.49995  0.97917  0.73472  1.0000
  N   N16       1.0  0.49967  0.01434  0.73725  1.0000
  N   N17       1.0  0.80212  0.67620  0.66886  1.0000
  N   N18       1.0  0.19738  0.32418  0.67323  1.0000
  N   N19       1.0  0.31678  0.80272  0.68373  1.0000
  N   N20       1.0  0.67481  0.19192  0.70566  1.0000
  N   N21       1.0  0.20037  0.67947  0.84143  1.0000
  N   N22       1.0  0.80153  0.32951  0.83410  1.0000
  N   N23       1.0  0.68535  0.80306  0.86140  1.0000
  N   N24       1.0  0.32674  0.19195  0.81959  1.0000
  C   C113      1.0  0.73070  0.73927  0.27682  1.0000
  C   C114      1.0  0.73648  0.77457  0.30360  1.0000
  C  Sn1       1.0  0.76712  0.78962  0.28260  1.0000
  C  Sn2       1.0  0.79238  0.76887  0.23382  1.0000
  C   C115      1.0  0.78634  0.73358  0.20722  1.0000
  C   C116      1.0  0.75560  0.71879  0.22865  1.0000
  H   H65       1.0  0.70691  0.72782  0.29331  1.0000
  O  Te1       1.0  0.77249  0.82493  0.30993  1.0000
  O  Te2       1.0  0.82322  0.78324  0.21187  1.0000
  H   H66       1.0  0.75112  0.69145  0.20780  1.0000
  Mg  Mg1       1.0  0.81862  0.83257  0.26403  1.0000
  C   C117      1.0  0.26321  0.27226  0.20751  1.0000
  C   C118      1.0  0.22718  0.27265  0.20813  1.0000
  C  Sn3       1.0  0.21362  0.24592  0.27268  1.0000
  C  Sn4       1.0  0.23663  0.21832  0.33777  1.0000
  C   C119      1.0  0.27264  0.21818  0.33668  1.0000
  C   C120      1.0  0.28592  0.24506  0.27174  1.0000
  H   H67       1.0  0.27349  0.29306  0.15735  1.0000
  O  Te3       1.0  0.17755  0.24671  0.27228  1.0000
  O  Te4       1.0  0.22379  0.19128  0.40310  1.0000
  H   H68       1.0  0.31383  0.24476  0.27137  1.0000
  Mg  Mg2       1.0  0.17262  0.20394  0.37489  1.0000
  C   C121      1.0  0.21367  0.79075  0.20269  1.0000
  C   C122      1.0  0.25064  0.78886  0.21691  1.0000
  C  Sn5       1.0  0.26987  0.75896  0.26361  1.0000
  C  Sn6       1.0  0.25167  0.73045  0.29657  1.0000
  C   C123      1.0  0.21468  0.73259  0.28188  1.0000
  C   C124      1.0  0.19571  0.76264  0.23511  1.0000
  H   H69       1.0  0.19898  0.81399  0.16642  1.0000
  O  Te5       1.0  0.30679  0.75751  0.27729  1.0000
  O  Te6       1.0  0.27023  0.70025  0.34340  1.0000
  H   H70       1.0  0.16708  0.76409  0.22401  1.0000
  Mg  Mg3       1.0  0.32033  0.71073  0.34508  1.0000
  C   C125      1.0  0.78895  0.22788  0.20535  1.0000
  C   C126      1.0  0.78580  0.26196  0.25722  1.0000
  C  Sn7       1.0  0.75317  0.27327  0.27691  1.0000
  C  Sn8       1.0  0.72320  0.24997  0.24400  1.0000
  C   C127      1.0  0.72663  0.21592  0.19229  1.0000
  C   C128      1.0  0.75940  0.20487  0.17294  1.0000
  H   H71       1.0  0.81430  0.21933  0.19047  1.0000
  O  Te7       1.0  0.75049  0.30741  0.32876  1.0000
  O  Te8       1.0  0.69029  0.26059  0.26273  1.0000
  H   H72       1.0  0.76184  0.17848  0.13289  1.0000
  Mg  Mg4       1.0  0.69997  0.30966  0.33618  1.0000
  C   C129      1.0  0.83423  0.40280  0.22790  1.0000
  C   C130      1.0  0.87120  0.40716  0.33218  1.0000
  C  Sn9       1.0  0.88782  0.38364  0.45195  1.0000
  C  Sn10      1.0  0.86697  0.35526  0.46728  1.0000
  C   C131      1.0  0.83001  0.35111  0.36228  1.0000
  C   C132      1.0  0.81365  0.37480  0.24289  1.0000
  H   H73       1.0  0.82157  0.42112  0.13547  1.0000
  O  Te9       1.0  0.92478  0.38839  0.55517  1.0000
  O  Te10      1.0  0.88290  0.33136  0.58587  1.0000
  H   H74       1.0  0.78504  0.37141  0.16210  1.0000
  Mg  Mg5       1.0  0.93416  0.34890  0.69774  1.0000
  C   C133      1.0  0.17943  0.61389  0.33481  1.0000
  C   C134      1.0  0.17661  0.64920  0.35649  1.0000
  C  Sn11      1.0  0.14721  0.66308  0.39757  1.0000
  C  Sn12      1.0  0.12019  0.64113  0.41728  1.0000
  C   C135      1.0  0.12328  0.60584  0.39544  1.0000
  C   C136      1.0  0.15280  0.59222  0.35429  1.0000
  H   H75       1.0  0.20228  0.60335  0.30306  1.0000
  O  Te11      1.0  0.14480  0.69842  0.41872  1.0000
  O  Te12      1.0  0.09053  0.65432  0.45837  1.0000
  H   H76       1.0  0.15499  0.56488  0.33762  1.0000
  Mg  Mg6       1.0  0.09927  0.70420  0.47419  1.0000
  C   C137      1.0  0.66298  0.87345  0.32133  1.0000
  C   C138      1.0  0.66618  0.84027  0.37349  1.0000
  C  Sn13      1.0  0.64017  0.82686  0.43477  1.0000
  C  Sn14      1.0  0.61044  0.84711  0.44380  1.0000
  C   C139      1.0  0.60747  0.88026  0.39119  1.0000
  C   C140      1.0  0.63366  0.89342  0.33013  1.0000
  H   H77       1.0  0.68323  0.88363  0.27400  1.0000
  O  Te13      1.0  0.64378  0.79367  0.48642  1.0000
  O  Te14      1.0  0.58405  0.83434  0.50446  1.0000
  H   H78       1.0  0.63117  0.91910  0.28965  1.0000
  Mg  Mg7       1.0  0.60086  0.78765  0.55989  1.0000
  C   C141      1.0  0.37101  0.11605  0.44715  1.0000
  C   C142      1.0  0.39779  0.11437  0.36977  1.0000
  C  Sn15      1.0  0.40349  0.14167  0.28284  1.0000
  C  Sn16      1.0  0.38195  0.17117  0.27345  1.0000
  C   C143      1.0  0.35525  0.17261  0.35139  1.0000
  C   C144      1.0  0.34976  0.14514  0.43801  1.0000
  H   H79       1.0  0.36678  0.09481  0.51425  1.0000
  O  Te15      1.0  0.43035  0.13956  0.20620  1.0000
  O  Te16      1.0  0.38709  0.19882  0.18744  1.0000
  H   H80       1.0  0.32904  0.14646  0.49799  1.0000
  Mg  Mg8       1.0  0.42706  0.18384  0.10352  1.0000
  C   C145      1.0  0.12595  0.35046  0.01370  1.0000
  C   C146      1.0  0.16385  0.35188  0.10379  1.0000
  C  Sn17      1.0  0.17984  0.37977  0.21915  1.0000
  C  Sn18      1.0  0.15741  0.40670  0.24454  1.0000
  C   C147      1.0  0.11951  0.40502  0.15388  1.0000
  C   C148      1.0  0.10380  0.37699  0.03872  1.0000
  H   H81       1.0  0.18826  0.34383  0.92466  1.0000
  O  Te17      1.0  0.21776  0.38080  0.30806  1.0000
  O  Te18      1.0  0.17267  0.43487  0.35911  1.0000
  H   H82       1.0  0.14892  0.39095  0.96907  1.0000
  Mg  Mg9       1.0  0.22571  0.42458  0.45023  1.0000
  C   C149      1.0  0.87076  0.63936  0.03871  1.0000
  C   C150      1.0  0.87561  0.60728  0.10407  1.0000
  C  Sn19      1.0  0.85322  0.59623  0.19120  1.0000
  C  Sn20      1.0  0.82549  0.61774  0.21305  1.0000
  C   C151      1.0  0.82084  0.64978  0.14707  1.0000
  C   C152      1.0  0.84340  0.66059  0.06015  1.0000
  H   H83       1.0  0.96268  0.66279  0.97137  1.0000
  O  Te19      1.0  0.85845  0.56411  0.25574  1.0000
  O  Te20      1.0  0.80272  0.60733  0.29955  1.0000
  H   H84       1.0  0.83962  0.68542  0.00946  1.0000
  Mg  Mg10      1.0  0.82053  0.56133  0.36430  1.0000
  C   C153      1.0  0.34151  0.88368  0.06882  1.0000
  C   C154      1.0  0.37969  0.88127  0.11592  1.0000
  C  Sn21      1.0  0.39687  0.85087  0.17173  1.0000
  C  Sn22      1.0  0.37535  0.82240  0.18036  1.0000
  C   C155      1.0  0.33717  0.82507  0.13283  1.0000
  C   C156      1.0  0.32026  0.85561  0.07722  1.0000
  H   H85       1.0  0.32842  0.90731  0.02570  1.0000
  O  Te21      1.0  0.43505  0.84890  0.21838  1.0000
  O  Te22      1.0  0.39181  0.79171  0.23562  1.0000
  H   H86       1.0  0.29070  0.85747  0.04065  1.0000
  Mg  Mg11      1.0  0.44476  0.80158  0.28548  1.0000
  C   C157      1.0  0.64208  0.12502  0.05387  1.0000
  C   C158      1.0  0.64709  0.15859  0.12624  1.0000
  C  Sn23      1.0  0.62576  0.17098  0.22183  1.0000
  C  Sn24      1.0  0.59897  0.14929  0.24522  1.0000
  C   C159      1.0  0.59419  0.11573  0.17239  1.0000
  C   C160      1.0  0.61567  0.10360  0.07692  1.0000
  H   H87       1.0  0.73319  0.13069  0.98009  1.0000
  O  Te23      1.0  0.63111  0.20459  0.29320  1.0000
  O  Te24      1.0  0.57729  0.16100  0.34022  1.0000
  H   H88       1.0  0.61181  0.07760  0.02100  1.0000
  Mg  Mg12      1.0  0.59483  0.20880  0.41207  1.0000
  C   C161      1.0  0.74600  0.72527  0.77720  1.0000
  C   C162      1.0  0.77506  0.72999  0.71742  1.0000
  C  Sn25      1.0  0.78758  0.76284  0.70899  1.0000
  C  Sn26      1.0  0.77065  0.79145  0.76152  1.0000
  C   C163      1.0  0.74161  0.78645  0.82125  1.0000
  C   C164      1.0  0.72929  0.75347  0.82910  1.0000
  H   H89       1.0  0.73647  0.69975  0.78337  1.0000
  O  Te25      1.0  0.81664  0.76711  0.64889  1.0000
  O  Te26      1.0  0.78263  0.82456  0.75449  1.0000
  H   H90       1.0  0.70680  0.74982  0.87549  1.0000
  Mg  Mg13      1.0  0.82316  0.81727  0.66315  1.0000
  C   C165      1.0  0.21123  0.22717  0.80465  1.0000
  C   C166      1.0  0.21389  0.25966  0.75181  1.0000
  C  Sn27      1.0  0.24578  0.27008  0.72494  1.0000
  C  Sn28      1.0  0.27552  0.24748  0.75152  1.0000
  C   C167      1.0  0.27259  0.21502  0.80427  1.0000
  C   C168      1.0  0.24055  0.20486  0.83083  1.0000
  H   H91       1.0  0.18644  0.21930  0.82512  1.0000
  O  Te27      1.0  0.24798  0.30263  0.67221  1.0000
  O  Te28      1.0  0.30771  0.25723  0.72555  1.0000
  H   H92       1.0  0.23849  0.17970  0.87164  1.0000
  Mg  Mg14      1.0  0.29757  0.30419  0.65380  1.0000
  C   C169      1.0  0.21625  0.79054  0.71681  1.0000
  C   C170      1.0  0.25266  0.78748  0.72340  1.0000
  C  Sn29      1.0  0.27037  0.75645  0.75670  1.0000
  C  Sn30      1.0  0.25121  0.72799  0.78380  1.0000
  C   C171      1.0  0.21478  0.73131  0.77682  1.0000
  C   C172      1.0  0.19732  0.76249  0.74346  1.0000
  H   H93       1.0  0.20274  0.81465  0.69091  1.0000
  O  Te29      1.0  0.30676  0.75383  0.76290  1.0000
  O  Te30      1.0  0.26824  0.69668  0.81725  1.0000
  H   H94       1.0  0.16912  0.76484  0.73825  1.0000
  Mg  Mg15      1.0  0.31814  0.70580  0.81286  1.0000
  C   C173      1.0  0.72926  0.25603  0.80699  1.0000
  C   C174      1.0  0.72632  0.22565  0.70494  1.0000
  C  Sn31      1.0  0.75351  0.21725  0.63510  1.0000
  C  Sn32      1.0  0.78418  0.23973  0.66829  1.0000
  C   C175      1.0  0.78688  0.27005  0.77064  1.0000
  C   C176      1.0  0.75951  0.27821  0.83985  1.0000
  H   H95       1.0  0.70810  0.26233  0.86061  1.0000
  O  Te31      1.0  0.75014  0.18680  0.53337  1.0000
  O  Te32      1.0  0.81175  0.23196  0.60015  1.0000
  H   H96       1.0  0.76180  0.30172  0.91894  1.0000
  Mg  Mg16      1.0  0.79482  0.18747  0.46932  1.0000
  C   C177      1.0  0.87481  0.35576  0.97481  1.0000
  C   C178      1.0  0.83701  0.35393  0.88265  1.0000
  C  Sn33      1.0  0.82069  0.37825  0.76707  1.0000
  C  Sn34      1.0  0.84270  0.40488  0.74356  1.0000
  C   C179      1.0  0.88050  0.40648  0.83629  1.0000
  C   C180      1.0  0.89654  0.38201  0.95165  1.0000
  H   H97       1.0  0.81276  0.32176  0.06400  1.0000
  O  Te33      1.0  0.78288  0.37605  0.67608  1.0000
  O  Te34      1.0  0.82710  0.42952  0.62882  1.0000
  H   H98       1.0  0.85134  0.36836  0.02290  1.0000
  Mg  Mg17      1.0  0.77436  0.41566  0.53451  1.0000
  C   C181      1.0  0.16160  0.59914  0.78850  1.0000
  C   C182      1.0  0.13352  0.60058  0.85797  1.0000
  C  Sn35      1.0  0.12536  0.63148  0.92888  1.0000
  C  Sn36      1.0  0.14574  0.66146  0.93003  1.0000
  C   C183      1.0  0.17377  0.65975  0.86009  1.0000
  C   C184      1.0  0.18170  0.62869  0.78951  1.0000
  H   H99       1.0  0.16773  0.57511  0.73380  1.0000
  O  Te35      1.0  0.09723  0.63247  0.99782  1.0000
  O  Te36      1.0  0.06369  0.67762  0.00003  1.0000
  H   H100      1.0  0.20343  0.62759  0.73563  1.0000
  Mg  Mg18      1.0  0.02275  0.66598  0.07863  1.0000
  C   C185      1.0  0.62467  0.82538  0.94045  1.0000
  C   C186      1.0  0.65405  0.82716  0.88024  1.0000
  C  Sn37      1.0  0.66327  0.85788  0.82915  1.0000
  C  Sn38      1.0  0.64264  0.88732  0.83871  1.0000
  C   C187      1.0  0.61331  0.88528  0.89925  1.0000
  C   C188      1.0  0.60432  0.85441  0.94998  1.0000
  H   H101      1.0  0.61772  0.80150  0.97979  1.0000
  O  Te37      1.0  0.69269  0.85921  0.76925  1.0000
  O  Te38      1.0  0.65127  0.91835  0.78855  1.0000
  H   H102      1.0  0.58159  0.85305  0.99670  1.0000
  Mg  Mg19      1.0  0.69379  0.90734  0.71574  1.0000
  C   C189      1.0  0.34647  0.12206  0.85338  1.0000
  C   C190      1.0  0.35019  0.15751  0.86134  1.0000
  C  Sn39      1.0  0.38314  0.17264  0.86576  1.0000
  C  Sn40      1.0  0.41285  0.15182  0.86208  1.0000
  C   C191      1.0  0.40884  0.11637  0.85398  1.0000
  C   C192      1.0  0.37576  0.10151  0.84967  1.0000
  H   H103      1.0  0.32087  0.11056  0.84994  1.0000
  O  Te39      1.0  0.38639  0.20810  0.87378  1.0000
  O  Te40      1.0  0.44607  0.16626  0.86629  1.0000
  H   H104      1.0  0.37288  0.07406  0.84338  1.0000
  Mg  Mg20      1.0  0.43716  0.21580  0.87709  1.0000
  C   C193      1.0  0.11158  0.36304  0.50997  1.0000
  C   C194      1.0  0.11579  0.39320  0.61490  1.0000
  C  Sn41      1.0  0.15005  0.40260  0.73769  1.0000
  C  Sn42      1.0  0.18061  0.38136  0.75543  1.0000
  C   C195      1.0  0.17612  0.35125  0.64976  1.0000
  C   C196      1.0  0.14171  0.34208  0.52734  1.0000
  H   H105      1.0  0.08497  0.35595  0.41519  1.0000
  O  Te41      1.0  0.15377  0.43281  0.84151  1.0000
  O  Te42      1.0  0.21516  0.39015  0.87707  1.0000
  H   H106      1.0  0.13847  0.31874  0.44605  1.0000
  Mg  Mg21      1.0  0.20641  0.43384  0.98860  1.0000
  C   C197      1.0  0.81801  0.60864  0.62423  1.0000
  C   C198      1.0  0.82440  0.64388  0.64828  1.0000
  C  Sn43      1.0  0.85744  0.65779  0.64695  1.0000
  C  Sn44      1.0  0.88453  0.63594  0.62097  1.0000
  C   C199      1.0  0.87786  0.60071  0.59691  1.0000
  C   C200      1.0  0.84471  0.58707  0.59854  1.0000
  H   H107      1.0  0.79235  0.59808  0.62540  1.0000
  O  Te43      1.0  0.86338  0.69306  0.67124  1.0000
  O  Te44      1.0  0.91779  0.64916  0.61898  1.0000
  H   H108      1.0  0.83976  0.55978  0.57981  1.0000
  Mg  Mg22      1.0  0.91307  0.69891  0.65794  1.0000
  C   C201      1.0  0.34231  0.87489  0.51821  1.0000
  C   C202      1.0  0.38017  0.87859  0.60691  1.0000
  C  Sn45      1.0  0.39848  0.85504  0.72321  1.0000
  C  Sn46      1.0  0.37845  0.82728  0.75093  1.0000
  C   C203      1.0  0.34059  0.82380  0.66147  1.0000
  C   C204      1.0  0.32253  0.84752  0.54542  1.0000
  H   H109      1.0  0.32834  0.89324  0.42835  1.0000
  O  Te45      1.0  0.43632  0.85912  0.81080  1.0000
  O  Te46      1.0  0.39608  0.80336  0.86640  1.0000
  H   H110      1.0  0.29322  0.84464  0.47668  1.0000
  Mg  Mg23      1.0  0.44799  0.81987  0.95507  1.0000
  C   C205      1.0  0.60595  0.17191  0.69707  1.0000
  C   C206      1.0  0.64112  0.16823  0.68788  1.0000
  C  Sn47      1.0  0.65241  0.13641  0.64179  1.0000
  C  Sn48      1.0  0.62797  0.10778  0.60424  1.0000
  C   C207      1.0  0.59283  0.11173  0.61369  1.0000
  C   C208      1.0  0.58182  0.14369  0.65999  1.0000
  H   H111      1.0  0.59742  0.19665  0.73280  1.0000
  O  Te47      1.0  0.68766  0.13318  0.63329  1.0000
  O  Te48      1.0  0.63854  0.07568  0.55779  1.0000
  H   H112      1.0  0.55457  0.14654  0.66698  1.0000
  Mg  Mg24      1.0  0.68937  0.08417  0.56407  1.0000
