data_image0
_chemical_formula_structural       H112C184N24C2Sn2C2HTe2HMgC2Sn2C2HTe2HMgC2Sn2C2HTe2HMgC2Sn2C2HTe2HMgC2Sn2C2HTe2HMgC2Sn2C2HTe2HMgC2Sn2C2HTe2HMgC2Sn2C2HTe2HMgC2Sn2C2HTe2HMgC2Sn2C2HTe2HMgC2Sn2C2HTe2HMgC2Sn2C2HTe2HMg
_chemical_formula_sum              "H136 C232 N24 Sn24 Te24 Mg12"
_cell_length_a       38.7357
_cell_length_b       39.3566
_cell_length_c       8.33331
_cell_angle_alpha    94.1312
_cell_angle_beta     110.265
_cell_angle_gamma    89.8507

_symmetry_space_group_name_H-M    'P1'
_space_group_IT_number       1

loop_
  _space_group_symop_operation_xyz
  'x, y, z'

loop_
  _atom_site_type_symbol
  _atom_site_label
  _atom_site_symmetry_multiplicity
  _atom_site_fract_x
  _atom_site_fract_y
  _atom_site_fract_z
  _atom_site_occupancy
  H   H1        1.0  0.87132  0.47006  0.25003  1.0000
  H   H2        1.0  0.12402  0.53822  0.25287  1.0000
  H   H3        1.0  0.53701  0.87322  0.30333  1.0000
  H   H4        1.0  0.47020  0.12250  0.29901  1.0000
  H   H5        1.0  0.12439  0.47274  0.18478  1.0000
  H   H6        1.0  0.86957  0.53197  0.17082  1.0000
  H   H7        1.0  0.46444  0.87368  0.23987  1.0000
  H   H8        1.0  0.53172  0.12245  0.22840  1.0000
  H   H9        1.0  0.95404  0.39456  0.42579  1.0000
  H   H10       1.0  0.06442  0.60790  0.47990  1.0000
  H   H11       1.0  0.62380  0.94985  0.46525  1.0000
  H   H12       1.0  0.39929  0.04845  0.39554  1.0000
  H   H13       1.0  0.05077  0.38717  0.12280  1.0000
  H   H14       1.0  0.93974  0.60385  0.05380  1.0000
  H   H15       1.0  0.37759  0.94233  0.00136  1.0000
  H   H16       1.0  0.59822  0.04706  0.08017  1.0000
  H   H17       1.0  0.00085  0.43252  0.39476  1.0000
  H   H18       1.0  0.01636  0.56469  0.43550  1.0000
  H   H19       1.0  0.57897  0.99559  0.39832  1.0000
  H   H20       1.0  0.43857  0.00186  0.35427  1.0000
  H   H21       1.0  0.00447  0.42458  0.17416  1.0000
  H   H22       1.0  0.98883  0.56235  0.10520  1.0000
  H   H23       1.0  0.42204  0.98910  0.05382  1.0000
  H   H24       1.0  0.55846  0.00085  0.10765  1.0000
  H   H25       1.0  0.83510  0.42638  0.15857  1.0000
  H   H26       1.0  0.58600  0.84235  0.48327  1.0000
  H   H27       1.0  0.16416  0.43151  0.32351  1.0000
  H   H28       1.0  0.84687  0.57009  0.25304  1.0000
  H   H29       1.0  0.78942  0.38312  0.16503  1.0000
  H   H30       1.0  0.63048  0.79805  0.46233  1.0000
  H   H31       1.0  0.21126  0.38866  0.32142  1.0000
  H   H32       1.0  0.80392  0.61484  0.27173  1.0000
  H   H33       1.0  0.87363  0.33327  0.55034  1.0000
  H   H34       1.0  0.68790  0.87108  0.28014  1.0000
  H   H35       1.0  0.12842  0.32496  0.94378  1.0000
  H   H36       1.0  0.85166  0.68052  0.01117  1.0000
  H   H37       1.0  0.91875  0.37806  0.55628  1.0000
  H   H38       1.0  0.64393  0.91444  0.29828  1.0000
  H   H39       1.0  0.08161  0.36869  0.93672  1.0000
  H   H40       1.0  0.89275  0.63519  0.97898  1.0000
  H   H41       1.0  0.83490  0.71791  0.18276  1.0000
  H   H42       1.0  0.16654  0.29287  0.20944  1.0000
  H   H43       1.0  0.26815  0.83569  0.14085  1.0000
  H   H44       1.0  0.70888  0.16520  0.07633  1.0000
  H   H45       1.0  0.16190  0.72032  0.29482  1.0000
  H   H46       1.0  0.83790  0.29020  0.31079  1.0000
  H   H47       1.0  0.72818  0.83605  0.35499  1.0000
  H   H48       1.0  0.29174  0.17234  0.42920  1.0000
  H   H49       1.0  0.18508  0.23950  0.30790  1.0000
  H   H50       1.0  0.23138  0.19417  0.39327  1.0000
  H   H51       1.0  0.25926  0.29795  0.14734  1.0000
  H   H52       1.0  0.30572  0.25169  0.22941  1.0000
  H   H53       1.0  0.87222  0.47124  0.76884  1.0000
  H   H54       1.0  0.12730  0.53506  0.78002  1.0000
  H   H55       1.0  0.53653  0.87235  0.78668  1.0000
  H   H56       1.0  0.46724  0.12151  0.77617  1.0000
  H   H57       1.0  0.12563  0.47106  0.70045  1.0000
  H   H58       1.0  0.87253  0.53489  0.70580  1.0000
  H   H59       1.0  0.46403  0.87171  0.71094  1.0000
  H   H60       1.0  0.53138  0.12162  0.72415  1.0000
  H   H61       1.0  0.95317  0.39363  0.92272  1.0000
  H   H62       1.0  0.06257  0.60863  0.95383  1.0000
  H   H63       1.0  0.62330  0.94902  0.96602  1.0000
  H   H64       1.0  0.40530  0.04801  0.93495  1.0000
  H   H65       1.0  0.05030  0.38612  0.62175  1.0000
  H   H66       1.0  0.93854  0.60112  0.53051  1.0000
  H   H67       1.0  0.37654  0.94281  0.53368  1.0000
  H   H68       1.0  0.59696  0.04584  0.56968  1.0000
  H   H69       1.0  0.00030  0.43103  0.88975  1.0000
  H   H70       1.0  0.01465  0.56540  0.91596  1.0000
  H   H71       1.0  0.57840  0.99480  0.89845  1.0000
  H   H72       1.0  0.44283  0.00148  0.87436  1.0000
  H   H73       1.0  0.00390  0.42364  0.66937  1.0000
  H   H74       1.0  0.98701  0.55886  0.58237  1.0000
  H   H75       1.0  0.42112  0.98944  0.56981  1.0000
  H   H76       1.0  0.55874  0.00000  0.60994  1.0000
  H   H77       1.0  0.83559  0.42730  0.66445  1.0000
  H   H78       1.0  0.15674  0.57100  0.74949  1.0000
  H   H79       1.0  0.58441  0.84111  0.97342  1.0000
  H   H80       1.0  0.44116  0.15765  0.86533  1.0000
  H   H81       1.0  0.83150  0.56596  0.61519  1.0000
  H   H82       1.0  0.78912  0.38431  0.66654  1.0000
  H   H83       1.0  0.20051  0.61585  0.74902  1.0000
  H   H84       1.0  0.62957  0.79698  0.95981  1.0000
  H   H85       1.0  0.39411  0.20107  0.84152  1.0000
  H   H86       1.0  0.78996  0.61190  0.64061  1.0000
  H   H87       1.0  0.87267  0.33215  0.04371  1.0000
  H   H88       1.0  0.14501  0.68849  0.97709  1.0000
  H   H89       1.0  0.68930  0.87036  0.79214  1.0000
  H   H90       1.0  0.31693  0.12369  0.85065  1.0000
  H   H91       1.0  0.87071  0.68655  0.64008  1.0000
  H   H92       1.0  0.91861  0.37677  0.05465  1.0000
  H   H93       1.0  0.10243  0.64368  0.98854  1.0000
  H   H94       1.0  0.64452  0.91351  0.80183  1.0000
  H   H95       1.0  0.36274  0.08011  0.86516  1.0000
  H   H96       1.0  0.91271  0.64124  0.62219  1.0000
  H   H97       1.0  0.82774  0.71935  0.61902  1.0000
  H   H98       1.0  0.16224  0.28735  0.70742  1.0000
  H   H99       1.0  0.27296  0.83531  0.66501  1.0000
  H   H100      1.0  0.70181  0.17044  0.54396  1.0000
  H   H101      1.0  0.16308  0.71939  0.80288  1.0000
  H   H102      1.0  0.83307  0.29292  0.75956  1.0000
  H   H103      1.0  0.72822  0.83521  0.85893  1.0000
  H   H104      1.0  0.29293  0.16918  0.93396  1.0000
  H   H105      1.0  0.81393  0.77619  0.67544  1.0000
  H   H106      1.0  0.21611  0.81850  0.68791  1.0000
  H   H107      1.0  0.17595  0.77594  0.75117  1.0000
  H   H108      1.0  0.77606  0.81962  0.76469  1.0000
  H   H109      1.0  0.25972  0.70112  0.81485  1.0000
  H   H110      1.0  0.30034  0.74424  0.75176  1.0000
  H   H111      1.0  0.70852  0.74009  0.84013  1.0000
  H   H112      1.0  0.74810  0.69625  0.75923  1.0000
  C   C1        1.0  0.96245  0.47197  0.29209  1.0000
  C   C2        1.0  0.04291  0.52649  0.31936  1.0000
  C   C3        1.0  0.53188  0.96025  0.30740  1.0000
  C   C4        1.0  0.47483  0.03566  0.28753  1.0000
  C   C5        1.0  0.03860  0.47026  0.21824  1.0000
  C   C6        1.0  0.95832  0.52429  0.18241  1.0000
  C   C7        1.0  0.46901  0.95785  0.17451  1.0000
  C   C8        1.0  0.52412  0.03549  0.19513  1.0000
  C   C9        1.0  0.21140  0.24192  0.28929  1.0000
  C   C10       1.0  0.23738  0.21659  0.33743  1.0000
  C   C11       1.0  0.92351  0.51583  0.19233  1.0000
  C   C12       1.0  0.07284  0.48350  0.22078  1.0000
  C   C13       1.0  0.48058  0.92439  0.21680  1.0000
  C   C14       1.0  0.51603  0.07002  0.22471  1.0000
  C   C15       1.0  0.07487  0.51912  0.27822  1.0000
  C   C16       1.0  0.92561  0.48241  0.25379  1.0000
  C   C17       1.0  0.52029  0.92554  0.29063  1.0000
  C   C18       1.0  0.48395  0.07006  0.27530  1.0000
  C   C19       1.0  0.89931  0.46130  0.27860  1.0000
  C   C20       1.0  0.10129  0.54444  0.29687  1.0000
  C   C21       1.0  0.54621  0.89981  0.32838  1.0000
  C   C22       1.0  0.46240  0.09629  0.30605  1.0000
  C   C23       1.0  0.09846  0.46210  0.18427  1.0000
  C   C24       1.0  0.89546  0.53925  0.15786  1.0000
  C   C25       1.0  0.45467  0.89829  0.19370  1.0000
  C   C26       1.0  0.53824  0.09608  0.20540  1.0000
  C   C27       1.0  0.90886  0.42905  0.33961  1.0000
  C   C28       1.0  0.09761  0.57752  0.36357  1.0000
  C   C29       1.0  0.58388  0.90822  0.38371  1.0000
  C   C30       1.0  0.43067  0.08898  0.34354  1.0000
  C   C31       1.0  0.09101  0.42697  0.14993  1.0000
  C   C32       1.0  0.90124  0.57223  0.11720  1.0000
  C   C33       1.0  0.41681  0.90439  0.12279  1.0000
  C   C34       1.0  0.56892  0.08834  0.15745  1.0000
  C   C35       1.0  0.94596  0.41955  0.37934  1.0000
  C   C36       1.0  0.06697  0.58333  0.41720  1.0000
  C   C37       1.0  0.59459  0.94313  0.41412  1.0000
  C   C38       1.0  0.42323  0.05455  0.36235  1.0000
  C   C39       1.0  0.05667  0.41445  0.14727  1.0000
  C   C40       1.0  0.93497  0.57905  0.09299  1.0000
  C   C41       1.0  0.40649  0.93719  0.06535  1.0000
  C   C42       1.0  0.57511  0.05358  0.12126  1.0000
  C   C43       1.0  0.97270  0.44053  0.35798  1.0000
  C   C44       1.0  0.03960  0.55863  0.39533  1.0000
  C   C45       1.0  0.56936  0.96926  0.37737  1.0000
  C   C46       1.0  0.44512  0.02786  0.33801  1.0000
  C   C47       1.0  0.03051  0.43542  0.18014  1.0000
  C   C48       1.0  0.96329  0.55558  0.12233  1.0000
  C   C49       1.0  0.43170  0.96400  0.09134  1.0000
  C   C50       1.0  0.55300  0.02713  0.13741  1.0000
  C   C51       1.0  0.87430  0.59891  0.11771  1.0000
  C   C52       1.0  0.11908  0.40291  0.13356  1.0000
  C   C53       1.0  0.88104  0.40495  0.35295  1.0000
  C   C54       1.0  0.61157  0.88193  0.39243  1.0000
  C   C55       1.0  0.84375  0.40659  0.24795  1.0000
  C   C56       1.0  0.60816  0.84863  0.43745  1.0000
  C   C57       1.0  0.15629  0.40856  0.23715  1.0000
  C   C58       1.0  0.84789  0.59382  0.19574  1.0000
  C   C59       1.0  0.81795  0.38225  0.24931  1.0000
  C   C60       1.0  0.63313  0.82377  0.42729  1.0000
  C   C61       1.0  0.18277  0.38462  0.23777  1.0000
  C   C62       1.0  0.82373  0.61905  0.20895  1.0000
  C   C63       1.0  0.82881  0.35425  0.34955  1.0000
  C   C64       1.0  0.66282  0.83120  0.37349  1.0000
  C   C65       1.0  0.17259  0.35340  0.13910  1.0000
  C   C66       1.0  0.82578  0.65143  0.15113  1.0000
  C   C67       1.0  0.86553  0.35323  0.46163  1.0000
  C   C68       1.0  0.66668  0.86476  0.33163  1.0000
  C   C69       1.0  0.13588  0.34812  0.02888  1.0000
  C   C70       1.0  0.85127  0.65660  0.06819  1.0000
  C   C71       1.0  0.89089  0.37846  0.46405  1.0000
  C   C72       1.0  0.64163  0.88939  0.34140  1.0000
  C   C73       1.0  0.10971  0.37269  0.02564  1.0000
  C   C74       1.0  0.87461  0.63078  0.05035  1.0000
  C   C75       1.0  0.80922  0.70788  0.19218  1.0000
  C   C76       1.0  0.19268  0.29879  0.19133  1.0000
  C   C77       1.0  0.28122  0.81090  0.17024  1.0000
  C   C78       1.0  0.70232  0.18890  0.13700  1.0000
  C   C79       1.0  0.19030  0.71204  0.31829  1.0000
  C   C80       1.0  0.81044  0.29737  0.31128  1.0000
  C   C81       1.0  0.71638  0.81008  0.33829  1.0000
  C   C82       1.0  0.29852  0.19314  0.36291  1.0000
  C   C83       1.0  0.27170  0.22012  0.31681  1.0000
  C   C84       1.0  0.21929  0.27162  0.22313  1.0000
  C   C85       1.0  0.27920  0.24966  0.24621  1.0000
  C   C86       1.0  0.25357  0.27503  0.20050  1.0000
  C   C87       1.0  0.96255  0.47152  0.79647  1.0000
  C   C88       1.0  0.04270  0.52580  0.81642  1.0000
  C   C89       1.0  0.53147  0.95943  0.80138  1.0000
  C   C90       1.0  0.47574  0.03537  0.79043  1.0000
  C   C91       1.0  0.03874  0.46913  0.72170  1.0000
  C   C92       1.0  0.95823  0.52345  0.68330  1.0000
  C   C93       1.0  0.46839  0.95749  0.67450  1.0000
  C   C94       1.0  0.52395  0.03486  0.69211  1.0000
  C   C95       1.0  0.79118  0.76834  0.71385  1.0000
  C   C96       1.0  0.22558  0.79280  0.71612  1.0000
  C   C97       1.0  0.20314  0.76898  0.75088  1.0000
  C   C98       1.0  0.76985  0.79259  0.76280  1.0000
  C   C99       1.0  0.92419  0.51619  0.70429  1.0000
  C   C100      1.0  0.07359  0.48194  0.73031  1.0000
  C   C101      1.0  0.48012  0.92371  0.70811  1.0000
  C   C102      1.0  0.51552  0.06944  0.71795  1.0000
  C   C103      1.0  0.07561  0.51765  0.78506  1.0000
  C   C104      1.0  0.92620  0.48280  0.76600  1.0000
  C   C105      1.0  0.51983  0.92466  0.77859  1.0000
  C   C106      1.0  0.48390  0.06967  0.77205  1.0000
  C   C107      1.0  0.89984  0.46193  0.79178  1.0000
  C   C108      1.0  0.10286  0.54240  0.80835  1.0000
  C   C109      1.0  0.54570  0.89892  0.81539  1.0000
  C   C110      1.0  0.46178  0.09568  0.80063  1.0000
  C   C111      1.0  0.09938  0.46045  0.69598  1.0000
  C   C112      1.0  0.89699  0.54045  0.67588  1.0000
  C   C113      1.0  0.45440  0.89732  0.68260  1.0000
  C   C114      1.0  0.53763  0.09538  0.69688  1.0000
  C   C115      1.0  0.90893  0.42916  0.84613  1.0000
  C   C116      1.0  0.09829  0.57621  0.86248  1.0000
  C   C117      1.0  0.58340  0.90736  0.87678  1.0000
  C   C118      1.0  0.43196  0.08824  0.85267  1.0000
  C   C119      1.0  0.09147  0.42548  0.65736  1.0000
  C   C120      1.0  0.90244  0.57241  0.62284  1.0000
  C   C121      1.0  0.41661  0.90392  0.62669  1.0000
  C   C122      1.0  0.56806  0.08759  0.64692  1.0000
  C   C123      1.0  0.94563  0.41898  0.88028  1.0000
  C   C124      1.0  0.06627  0.58311  0.90393  1.0000
  C   C125      1.0  0.59412  0.94226  0.91117  1.0000
  C   C126      1.0  0.42646  0.05398  0.88252  1.0000
  C   C127      1.0  0.05661  0.41329  0.64962  1.0000
  C   C128      1.0  0.93489  0.57763  0.58465  1.0000
  C   C129      1.0  0.40572  0.93730  0.58090  1.0000
  C   C130      1.0  0.57440  0.05272  0.61394  1.0000
  C   C131      1.0  0.97245  0.43966  0.85787  1.0000
  C   C132      1.0  0.03871  0.55863  0.88337  1.0000
  C   C133      1.0  0.56889  0.96842  0.87454  1.0000
  C   C134      1.0  0.44776  0.02748  0.85171  1.0000
  C   C135      1.0  0.03034  0.43437  0.68064  1.0000
  C   C136      1.0  0.96261  0.55366  0.61271  1.0000
  C   C137      1.0  0.43084  0.96408  0.60164  1.0000
  C   C138      1.0  0.55288  0.02636  0.63533  1.0000
  C   C139      1.0  0.87591  0.59964  0.61806  1.0000
  C   C140      1.0  0.12522  0.60327  0.86728  1.0000
  C   C141      1.0  0.88099  0.40498  0.85694  1.0000
  C   C142      1.0  0.61117  0.88097  0.88937  1.0000
  C   C143      1.0  0.40599  0.11495  0.86558  1.0000
  C   C144      1.0  0.84379  0.40714  0.75192  1.0000
  C   C145      1.0  0.15398  0.59641  0.80306  1.0000
  C   C146      1.0  0.60722  0.84759  0.93242  1.0000
  C   C147      1.0  0.41408  0.14978  0.86278  1.0000
  C   C148      1.0  0.84049  0.59228  0.62031  1.0000
  C   C149      1.0  0.81759  0.38301  0.75111  1.0000
  C   C150      1.0  0.17885  0.62159  0.80126  1.0000
  C   C151      1.0  0.63258  0.82277  0.92666  1.0000
  C   C152      1.0  0.38781  0.17451  0.85035  1.0000
  C   C153      1.0  0.81666  0.61794  0.63238  1.0000
  C   C154      1.0  0.82817  0.35475  0.84937  1.0000
  C   C155      1.0  0.17543  0.65556  0.85787  1.0000
  C   C156      1.0  0.66310  0.83024  0.87901  1.0000
  C   C157      1.0  0.35221  0.16587  0.84577  1.0000
  C   C158      1.0  0.82667  0.65254  0.63958  1.0000
  C   C159      1.0  0.86494  0.35281  0.95902  1.0000
  C   C160      1.0  0.14719  0.66278  0.92475  1.0000
  C   C161      1.0  0.66738  0.86384  0.83870  1.0000
  C   C162      1.0  0.34431  0.13132  0.85605  1.0000
  C   C163      1.0  0.86162  0.66016  0.63195  1.0000
  C   C164      1.0  0.89066  0.37788  0.96395  1.0000
  C   C165      1.0  0.12306  0.63716  0.93085  1.0000
  C   C166      1.0  0.64201  0.88844  0.84434  1.0000
  C   C167      1.0  0.37051  0.10663  0.86482  1.0000
  C   C168      1.0  0.88552  0.63434  0.62195  1.0000
  C   C169      1.0  0.80639  0.70858  0.66108  1.0000
  C   C170      1.0  0.18922  0.29377  0.69934  1.0000
  C   C171      1.0  0.28413  0.80955  0.68322  1.0000
  C   C172      1.0  0.70035  0.19089  0.63846  1.0000
  C   C173      1.0  0.19081  0.71063  0.81446  1.0000
  C   C174      1.0  0.80805  0.29878  0.78944  1.0000
  C   C175      1.0  0.71689  0.80914  0.84646  1.0000
  C   C176      1.0  0.29786  0.19011  0.86330  1.0000
  C   C177      1.0  0.73952  0.78267  0.80631  1.0000
  C   C178      1.0  0.21536  0.73573  0.78689  1.0000
  C   C179      1.0  0.26073  0.78395  0.71548  1.0000
  C   C180      1.0  0.78333  0.73336  0.71121  1.0000
  C   C181      1.0  0.73171  0.74754  0.80413  1.0000
  C   C182      1.0  0.25082  0.72698  0.78761  1.0000
  C   C183      1.0  0.27302  0.75060  0.75212  1.0000
  C   C184      1.0  0.75347  0.72337  0.75921  1.0000
  N   N1        1.0  0.98229  0.49746  0.24762  1.0000
  N   N2        1.0  0.01985  0.49704  0.27405  1.0000
  N   N3        1.0  0.50029  0.97967  0.23447  1.0000
  N   N4        1.0  0.49933  0.01482  0.23629  1.0000
  N   N5        1.0  0.80165  0.67559  0.17990  1.0000
  N   N6        1.0  0.19974  0.32888  0.15666  1.0000
  N   N7        1.0  0.31432  0.80482  0.17375  1.0000
  N   N8        1.0  0.67325  0.19241  0.17909  1.0000
  N   N9        1.0  0.20042  0.68150  0.35830  1.0000
  N   N10       1.0  0.80208  0.32887  0.32948  1.0000
  N   N11       1.0  0.68473  0.80407  0.35222  1.0000
  N   N12       1.0  0.32770  0.19415  0.32112  1.0000
  N   N13       1.0  0.98206  0.49647  0.74602  1.0000
  N   N14       1.0  0.01960  0.49631  0.77154  1.0000
  N   N15       1.0  0.49995  0.97917  0.73472  1.0000
  N   N16       1.0  0.49967  0.01434  0.73725  1.0000
  N   N17       1.0  0.80212  0.67620  0.66886  1.0000
  N   N18       1.0  0.19738  0.32418  0.67323  1.0000
  N   N19       1.0  0.31678  0.80272  0.68373  1.0000
  N   N20       1.0  0.67481  0.19192  0.70566  1.0000
  N   N21       1.0  0.20037  0.67947  0.84143  1.0000
  N   N22       1.0  0.80153  0.32951  0.83410  1.0000
  N   N23       1.0  0.68535  0.80306  0.86140  1.0000
  N   N24       1.0  0.32674  0.19195  0.81959  1.0000
  C   C185      1.0  0.78260  0.23156  0.65173  1.0000
  C   C186      1.0  0.78322  0.26363  0.73655  1.0000
  C  Sn1       1.0  0.75581  0.27219  0.80471  1.0000
  C  Sn2       1.0  0.72728  0.24815  0.78747  1.0000
  C   C187      1.0  0.72692  0.21612  0.70249  1.0000
  C   C188      1.0  0.75448  0.20783  0.63472  1.0000
  H   H113      1.0  0.80393  0.22513  0.59937  1.0000
  O  Te1       1.0  0.75685  0.30435  0.88902  1.0000
  O  Te2       1.0  0.69955  0.25604  0.85443  1.0000
  H   H114      1.0  0.75400  0.18299  0.56915  1.0000
  Mg  Mg1       1.0  0.71288  0.30316  0.95843  1.0000
  C   C189      1.0  0.61329  0.17023  0.24844  1.0000
  C   C190      1.0  0.64132  0.16820  0.17872  1.0000
  C  Sn3       1.0  0.64481  0.13878  0.08173  1.0000
  C  Sn4       1.0  0.61972  0.11093  0.05421  1.0000
  C   C191      1.0  0.59176  0.11323  0.12441  1.0000
  C   C192      1.0  0.58853  0.14278  0.22130  1.0000
  H   H115      1.0  0.61078  0.19311  0.32334  1.0000
  O  Te3       1.0  0.67299  0.13716  0.01305  1.0000
  O  Te4       1.0  0.69705  0.09629  0.95772  1.0000
  H   H116      1.0  0.56681  0.14436  0.27518  1.0000
  Mg  Mg2       1.0  0.74005  0.10630  0.89072  1.0000
  C   C193      1.0  0.38698  0.82886  0.75953  1.0000
  C   C194      1.0  0.34874  0.82658  0.68010  1.0000
  C  Sn5       1.0  0.33041  0.85020  0.56422  1.0000
  C  Sn6       1.0  0.35081  0.87657  0.52741  1.0000
  C   C195      1.0  0.38905  0.87862  0.60746  1.0000
  C   C196      1.0  0.40712  0.85485  0.72325  1.0000
  H   H117      1.0  0.40096  0.81047  0.84905  1.0000
  O  Te5       1.0  0.29219  0.84755  0.48605  1.0000
  O  Te6       1.0  0.33318  0.90050  0.41207  1.0000
  H   H118      1.0  0.43673  0.85661  0.78465  1.0000
  Mg  Mg3       1.0  0.28066  0.88625  0.33812  1.0000
  C   C197      1.0  0.25977  0.73126  0.29188  1.0000
  C   C198      1.0  0.22469  0.73496  0.30216  1.0000
  C  Sn7       1.0  0.20568  0.76507  0.25824  1.0000
  C  Sn8       1.0  0.22216  0.79193  0.20301  1.0000
  C   C199      1.0  0.25725  0.78796  0.19305  1.0000
  C   C200      1.0  0.27604  0.75772  0.23735  1.0000
  H   H119      1.0  0.27430  0.70786  0.32606  1.0000
  O  Te7       1.0  0.17066  0.76836  0.26931  1.0000
  O  Te8       1.0  0.20376  0.82229  0.15829  1.0000
  H   H120      1.0  0.30319  0.75486  0.22927  1.0000
  Mg  Mg4       1.0  0.15658  0.81462  0.19454  1.0000
  C   C201      1.0  0.74388  0.72588  0.26630  1.0000
  C   C202      1.0  0.77543  0.73007  0.22399  1.0000
  C  Sn9       1.0  0.78985  0.76267  0.22626  1.0000
  C  Sn10      1.0  0.77229  0.79158  0.27183  1.0000
  C   C203      1.0  0.74076  0.78712  0.31406  1.0000
  C   C204      1.0  0.72656  0.75438  0.31132  1.0000
  H   H121      1.0  0.73290  0.70055  0.26427  1.0000
  O  Te9       1.0  0.82138  0.76640  0.18359  1.0000
  O  Te10      1.0  0.78613  0.82446  0.27520  1.0000
  H   H122      1.0  0.70214  0.75115  0.34419  1.0000
  Mg  Mg5       1.0  0.82976  0.81642  0.20682  1.0000
  C   C205      1.0  0.39735  0.83703  0.18514  1.0000
  C   C206      1.0  0.39187  0.86932  0.12208  1.0000
  C  Sn11      1.0  0.35703  0.88358  0.07490  1.0000
  C  Sn12      1.0  0.32716  0.86513  0.09134  1.0000
  C   C207      1.0  0.33293  0.83286  0.15467  1.0000
  C   C208      1.0  0.36791  0.81882  0.20145  1.0000
  H   H123      1.0  0.42442  0.82618  0.22142  1.0000
  O  Te11      1.0  0.35204  0.91586  0.01208  1.0000
  O  Te12      1.0  0.29205  0.87879  0.04519  1.0000
  H   H124      1.0  0.37214  0.79383  0.25037  1.0000
  Mg  Mg6       1.0  0.37352  0.93872  0.96611  1.0000
  C   C209      1.0  0.11158  0.36304  0.50997  1.0000
  C   C210      1.0  0.11579  0.39320  0.61490  1.0000
  C  Sn13      1.0  0.15005  0.40260  0.73769  1.0000
  C  Sn14      1.0  0.18061  0.38136  0.75543  1.0000
  C   C211      1.0  0.17612  0.35125  0.64976  1.0000
  C   C212      1.0  0.14171  0.34208  0.52734  1.0000
  H   H125      1.0  0.08497  0.35595  0.41519  1.0000
  O  Te13      1.0  0.15377  0.43281  0.84151  1.0000
  O  Te14      1.0  0.21516  0.39015  0.87707  1.0000
  H   H126      1.0  0.13847  0.31874  0.44605  1.0000
  Mg  Mg7       1.0  0.20641  0.43384  0.98860  1.0000
  C   C213      1.0  0.26050  0.26935  0.72214  1.0000
  C   C214      1.0  0.22432  0.26834  0.72043  1.0000
  C  Sn15      1.0  0.21118  0.24031  0.77781  1.0000
  C  Sn16      1.0  0.23478  0.21282  0.83798  1.0000
  C   C215      1.0  0.27095  0.21408  0.83928  1.0000
  C   C216      1.0  0.28380  0.24225  0.78153  1.0000
  H   H127      1.0  0.27046  0.29115  0.67754  1.0000
  O  Te15      1.0  0.17495  0.23971  0.77517  1.0000
  O  Te16      1.0  0.22237  0.18450  0.89611  1.0000
  H   H128      1.0  0.31183  0.24303  0.78297  1.0000
  Mg  Mg8       1.0  0.17076  0.19552  0.86742  1.0000
  C   C217      1.0  0.38945  0.16972  0.26841  1.0000
  C   C218      1.0  0.35988  0.16966  0.32804  1.0000
  C  Sn17      1.0  0.35391  0.14219  0.41323  1.0000
  C  Sn18      1.0  0.37803  0.11431  0.43904  1.0000
  C   C219      1.0  0.40754  0.11462  0.37900  1.0000
  C   C220      1.0  0.41326  0.14223  0.29387  1.0000
  H   H129      1.0  0.39389  0.19109  0.20263  1.0000
  O  Te17      1.0  0.32423  0.14253  0.47193  1.0000
  O  Te18      1.0  0.37270  0.08653  0.52383  1.0000
  H   H130      1.0  0.43617  0.14228  0.24782  1.0000
  Mg  Mg9       1.0  0.32839  0.09880  0.58012  1.0000
  C   C221      1.0  0.17943  0.61389  0.33481  1.0000
  C   C222      1.0  0.17661  0.64920  0.35649  1.0000
  C  Sn19      1.0  0.14721  0.66308  0.39757  1.0000
  C  Sn20      1.0  0.12019  0.64113  0.41728  1.0000
  C   C223      1.0  0.12328  0.60584  0.39544  1.0000
  C   C224      1.0  0.15280  0.59222  0.35429  1.0000
  H   H131      1.0  0.20228  0.60335  0.30306  1.0000
  O  Te19      1.0  0.14480  0.69842  0.41872  1.0000
  O  Te20      1.0  0.09053  0.65432  0.45837  1.0000
  H   H132      1.0  0.15499  0.56488  0.33762  1.0000
  Mg  Mg10      1.0  0.09927  0.70420  0.47419  1.0000
  C   C225      1.0  0.78895  0.22788  0.20535  1.0000
  C   C226      1.0  0.78580  0.26196  0.25722  1.0000
  C  Sn21      1.0  0.75317  0.27327  0.27691  1.0000
  C  Sn22      1.0  0.72320  0.24997  0.24400  1.0000
  C   C227      1.0  0.72663  0.21592  0.19229  1.0000
  C   C228      1.0  0.75940  0.20487  0.17294  1.0000
  H   H133      1.0  0.81430  0.21933  0.19047  1.0000
  O  Te21      1.0  0.75049  0.30741  0.32876  1.0000
  O  Te22      1.0  0.69029  0.26059  0.26273  1.0000
  H   H134      1.0  0.76184  0.17848  0.13289  1.0000
  Mg  Mg11      1.0  0.69997  0.30966  0.33618  1.0000
  C   C229      1.0  0.63530  0.10916  0.60136  1.0000
  C   C230      1.0  0.60276  0.11187  0.63791  1.0000
  C  Sn23      1.0  0.59179  0.14358  0.68728  1.0000
  C  Sn24      1.0  0.61385  0.17308  0.70015  1.0000
  C   C231      1.0  0.64634  0.17010  0.66320  1.0000
  C   C232      1.0  0.65707  0.13824  0.61396  1.0000
  H   H135      1.0  0.64359  0.08451  0.56318  1.0000
  O  Te23      1.0  0.55921  0.14584  0.72339  1.0000
  O  Te24      1.0  0.60353  0.20509  0.74914  1.0000
  H   H136      1.0  0.68225  0.13615  0.58557  1.0000
  Mg  Mg12      1.0  0.55677  0.19511  0.78511  1.0000
