data_image0
_chemical_formula_structural       H64C112N24SnCSn2CSnTe4Mg2SnCSn2CSnTe4Mg2SnCSn2CSnTe4Mg2SnCSn2CSnTe4Mg2SnCSn2CSnTe4Mg2SnCSn2CSnTe4Mg2SnCSn2CSnTe4Mg2SnCSn2CSnTe4Mg2SnCSn2CSnTe4Mg2SnCSn2CSnTe4Mg2SnCSn2CSnTe4Mg2SnCSn2CSnTe4Mg2SnCSn2CSnTe4Mg2SnCSn2CSnTe4Mg2SnCSn2CSnTe4Mg2SnCSn2CSnTe4Mg2SnCSn2CSnTe4Mg2SnCSn2CSnTe4Mg2SnCSn2CSnTe4Mg2SnCSn2CSnTe4Mg2SnCSn2CSnTe4Mg2SnCSn2CSnTe4Mg2SnCSn2CSnTe4Mg2SnCSn2CSnTe4Mg2
_chemical_formula_sum              "H64 C160 N24 Sn96 Te96 Mg48"
_cell_length_a       38.7357
_cell_length_b       39.3566
_cell_length_c       8.33331
_cell_angle_alpha    94.1312
_cell_angle_beta     110.265
_cell_angle_gamma    89.8507

_symmetry_space_group_name_H-M    'P1'
_space_group_IT_number       1

loop_
  _space_group_symop_operation_xyz
  'x, y, z'

loop_
  _atom_site_type_symbol
  _atom_site_label
  _atom_site_symmetry_multiplicity
  _atom_site_fract_x
  _atom_site_fract_y
  _atom_site_fract_z
  _atom_site_occupancy
  H   H1        1.0  0.87132  0.47006  0.25003  1.0000
  H   H2        1.0  0.12402  0.53822  0.25287  1.0000
  H   H3        1.0  0.53701  0.87322  0.30333  1.0000
  H   H4        1.0  0.47020  0.12250  0.29901  1.0000
  H   H5        1.0  0.12439  0.47274  0.18478  1.0000
  H   H6        1.0  0.86957  0.53197  0.17082  1.0000
  H   H7        1.0  0.46444  0.87368  0.23987  1.0000
  H   H8        1.0  0.53172  0.12245  0.22840  1.0000
  H   H9        1.0  0.95404  0.39456  0.42579  1.0000
  H   H10       1.0  0.06442  0.60790  0.47990  1.0000
  H   H11       1.0  0.62380  0.94985  0.46525  1.0000
  H   H12       1.0  0.39929  0.04845  0.39554  1.0000
  H   H13       1.0  0.05077  0.38717  0.12280  1.0000
  H   H14       1.0  0.93974  0.60385  0.05380  1.0000
  H   H15       1.0  0.37759  0.94233  0.00136  1.0000
  H   H16       1.0  0.59822  0.04706  0.08017  1.0000
  H   H17       1.0  0.00085  0.43252  0.39476  1.0000
  H   H18       1.0  0.01636  0.56469  0.43550  1.0000
  H   H19       1.0  0.57897  0.99559  0.39832  1.0000
  H   H20       1.0  0.43857  0.00186  0.35427  1.0000
  H   H21       1.0  0.00447  0.42458  0.17416  1.0000
  H   H22       1.0  0.98883  0.56235  0.10520  1.0000
  H   H23       1.0  0.42204  0.98910  0.05382  1.0000
  H   H24       1.0  0.55846  0.00085  0.10765  1.0000
  H   H25       1.0  0.83490  0.71791  0.18276  1.0000
  H   H26       1.0  0.16654  0.29287  0.20944  1.0000
  H   H27       1.0  0.26815  0.83569  0.14085  1.0000
  H   H28       1.0  0.70888  0.16520  0.07633  1.0000
  H   H29       1.0  0.16190  0.72032  0.29482  1.0000
  H   H30       1.0  0.83790  0.29020  0.31079  1.0000
  H   H31       1.0  0.72818  0.83605  0.35499  1.0000
  H   H32       1.0  0.29174  0.17234  0.42920  1.0000
  H   H33       1.0  0.87222  0.47124  0.76884  1.0000
  H   H34       1.0  0.12730  0.53506  0.78002  1.0000
  H   H35       1.0  0.53653  0.87235  0.78668  1.0000
  H   H36       1.0  0.46724  0.12151  0.77617  1.0000
  H   H37       1.0  0.12563  0.47106  0.70045  1.0000
  H   H38       1.0  0.87253  0.53489  0.70580  1.0000
  H   H39       1.0  0.46403  0.87171  0.71094  1.0000
  H   H40       1.0  0.53138  0.12162  0.72415  1.0000
  H   H41       1.0  0.95317  0.39363  0.92272  1.0000
  H   H42       1.0  0.06257  0.60863  0.95383  1.0000
  H   H43       1.0  0.62330  0.94902  0.96602  1.0000
  H   H44       1.0  0.40530  0.04801  0.93495  1.0000
  H   H45       1.0  0.05030  0.38612  0.62175  1.0000
  H   H46       1.0  0.93854  0.60112  0.53051  1.0000
  H   H47       1.0  0.37654  0.94281  0.53368  1.0000
  H   H48       1.0  0.59696  0.04584  0.56968  1.0000
  H   H49       1.0  0.00030  0.43103  0.88975  1.0000
  H   H50       1.0  0.01465  0.56540  0.91596  1.0000
  H   H51       1.0  0.57840  0.99480  0.89845  1.0000
  H   H52       1.0  0.44283  0.00148  0.87436  1.0000
  H   H53       1.0  0.00390  0.42364  0.66937  1.0000
  H   H54       1.0  0.98701  0.55886  0.58237  1.0000
  H   H55       1.0  0.42112  0.98944  0.56981  1.0000
  H   H56       1.0  0.55874  0.00000  0.60994  1.0000
  H   H57       1.0  0.82774  0.71935  0.61902  1.0000
  H   H58       1.0  0.16224  0.28735  0.70742  1.0000
  H   H59       1.0  0.27296  0.83531  0.66501  1.0000
  H   H60       1.0  0.70181  0.17044  0.54396  1.0000
  H   H61       1.0  0.16308  0.71939  0.80288  1.0000
  H   H62       1.0  0.83307  0.29292  0.75956  1.0000
  H   H63       1.0  0.72822  0.83521  0.85893  1.0000
  H   H64       1.0  0.29293  0.16918  0.93396  1.0000
  C   C1        1.0  0.96245  0.47197  0.29209  1.0000
  C   C2        1.0  0.04291  0.52649  0.31936  1.0000
  C   C3        1.0  0.53188  0.96025  0.30740  1.0000
  C   C4        1.0  0.47483  0.03566  0.28753  1.0000
  C   C5        1.0  0.03860  0.47026  0.21824  1.0000
  C   C6        1.0  0.95832  0.52429  0.18241  1.0000
  C   C7        1.0  0.46901  0.95785  0.17451  1.0000
  C   C8        1.0  0.52412  0.03549  0.19513  1.0000
  C   C9        1.0  0.92351  0.51583  0.19233  1.0000
  C   C10       1.0  0.07284  0.48350  0.22078  1.0000
  C   C11       1.0  0.48058  0.92439  0.21680  1.0000
  C   C12       1.0  0.51603  0.07002  0.22471  1.0000
  C   C13       1.0  0.07487  0.51912  0.27822  1.0000
  C   C14       1.0  0.92561  0.48241  0.25379  1.0000
  C   C15       1.0  0.52029  0.92554  0.29063  1.0000
  C   C16       1.0  0.48395  0.07006  0.27530  1.0000
  C   C17       1.0  0.89931  0.46130  0.27860  1.0000
  C   C18       1.0  0.10129  0.54444  0.29687  1.0000
  C   C19       1.0  0.54621  0.89981  0.32838  1.0000
  C   C20       1.0  0.46240  0.09629  0.30605  1.0000
  C   C21       1.0  0.09846  0.46210  0.18427  1.0000
  C   C22       1.0  0.89546  0.53925  0.15786  1.0000
  C   C23       1.0  0.45467  0.89829  0.19370  1.0000
  C   C24       1.0  0.53824  0.09608  0.20540  1.0000
  C   C25       1.0  0.90886  0.42905  0.33961  1.0000
  C   C26       1.0  0.09761  0.57752  0.36357  1.0000
  C   C27       1.0  0.58388  0.90822  0.38371  1.0000
  C   C28       1.0  0.43067  0.08898  0.34354  1.0000
  C   C29       1.0  0.09101  0.42697  0.14993  1.0000
  C   C30       1.0  0.90124  0.57223  0.11720  1.0000
  C   C31       1.0  0.41681  0.90439  0.12279  1.0000
  C   C32       1.0  0.56892  0.08834  0.15745  1.0000
  C   C33       1.0  0.94596  0.41955  0.37934  1.0000
  C   C34       1.0  0.06697  0.58333  0.41720  1.0000
  C   C35       1.0  0.59459  0.94313  0.41412  1.0000
  C   C36       1.0  0.42323  0.05455  0.36235  1.0000
  C   C37       1.0  0.05667  0.41445  0.14727  1.0000
  C   C38       1.0  0.93497  0.57905  0.09299  1.0000
  C   C39       1.0  0.40649  0.93719  0.06535  1.0000
  C   C40       1.0  0.57511  0.05358  0.12126  1.0000
  C   C41       1.0  0.97270  0.44053  0.35798  1.0000
  C   C42       1.0  0.03960  0.55863  0.39533  1.0000
  C   C43       1.0  0.56936  0.96926  0.37737  1.0000
  C   C44       1.0  0.44512  0.02786  0.33801  1.0000
  C   C45       1.0  0.03051  0.43542  0.18014  1.0000
  C   C46       1.0  0.96329  0.55558  0.12233  1.0000
  C   C47       1.0  0.43170  0.96400  0.09134  1.0000
  C   C48       1.0  0.55300  0.02713  0.13741  1.0000
  C   C49       1.0  0.80922  0.70788  0.19218  1.0000
  C   C50       1.0  0.19268  0.29879  0.19133  1.0000
  C   C51       1.0  0.28122  0.81090  0.17024  1.0000
  C   C52       1.0  0.70232  0.18890  0.13700  1.0000
  C   C53       1.0  0.19030  0.71204  0.31829  1.0000
  C   C54       1.0  0.81044  0.29737  0.31128  1.0000
  C   C55       1.0  0.71638  0.81008  0.33829  1.0000
  C   C56       1.0  0.29852  0.19314  0.36291  1.0000
  C   C57       1.0  0.96255  0.47152  0.79647  1.0000
  C   C58       1.0  0.04270  0.52580  0.81642  1.0000
  C   C59       1.0  0.53147  0.95943  0.80138  1.0000
  C   C60       1.0  0.47574  0.03537  0.79043  1.0000
  C   C61       1.0  0.03874  0.46913  0.72170  1.0000
  C   C62       1.0  0.95823  0.52345  0.68330  1.0000
  C   C63       1.0  0.46839  0.95749  0.67450  1.0000
  C   C64       1.0  0.52395  0.03486  0.69211  1.0000
  C   C65       1.0  0.92419  0.51619  0.70429  1.0000
  C   C66       1.0  0.07359  0.48194  0.73031  1.0000
  C   C67       1.0  0.48012  0.92371  0.70811  1.0000
  C   C68       1.0  0.51552  0.06944  0.71795  1.0000
  C   C69       1.0  0.07561  0.51765  0.78506  1.0000
  C   C70       1.0  0.92620  0.48280  0.76600  1.0000
  C   C71       1.0  0.51983  0.92466  0.77859  1.0000
  C   C72       1.0  0.48390  0.06967  0.77205  1.0000
  C   C73       1.0  0.89984  0.46193  0.79178  1.0000
  C   C74       1.0  0.10286  0.54240  0.80835  1.0000
  C   C75       1.0  0.54570  0.89892  0.81539  1.0000
  C   C76       1.0  0.46178  0.09568  0.80063  1.0000
  C   C77       1.0  0.09938  0.46045  0.69598  1.0000
  C   C78       1.0  0.89699  0.54045  0.67588  1.0000
  C   C79       1.0  0.45440  0.89732  0.68260  1.0000
  C   C80       1.0  0.53763  0.09538  0.69688  1.0000
  C   C81       1.0  0.90893  0.42916  0.84613  1.0000
  C   C82       1.0  0.09829  0.57621  0.86248  1.0000
  C   C83       1.0  0.58340  0.90736  0.87678  1.0000
  C   C84       1.0  0.43196  0.08824  0.85267  1.0000
  C   C85       1.0  0.09147  0.42548  0.65736  1.0000
  C   C86       1.0  0.90244  0.57241  0.62284  1.0000
  C   C87       1.0  0.41661  0.90392  0.62669  1.0000
  C   C88       1.0  0.56806  0.08759  0.64692  1.0000
  C   C89       1.0  0.94563  0.41898  0.88028  1.0000
  C   C90       1.0  0.06627  0.58311  0.90393  1.0000
  C   C91       1.0  0.59412  0.94226  0.91117  1.0000
  C   C92       1.0  0.42646  0.05398  0.88252  1.0000
  C   C93       1.0  0.05661  0.41329  0.64962  1.0000
  C   C94       1.0  0.93489  0.57763  0.58465  1.0000
  C   C95       1.0  0.40572  0.93730  0.58090  1.0000
  C   C96       1.0  0.57440  0.05272  0.61394  1.0000
  C   C97       1.0  0.97245  0.43966  0.85787  1.0000
  C   C98       1.0  0.03871  0.55863  0.88337  1.0000
  C   C99       1.0  0.56889  0.96842  0.87454  1.0000
  C   C100      1.0  0.44776  0.02748  0.85171  1.0000
  C   C101      1.0  0.03034  0.43437  0.68064  1.0000
  C   C102      1.0  0.96261  0.55366  0.61271  1.0000
  C   C103      1.0  0.43084  0.96408  0.60164  1.0000
  C   C104      1.0  0.55288  0.02636  0.63533  1.0000
  C   C105      1.0  0.80639  0.70858  0.66108  1.0000
  C   C106      1.0  0.18922  0.29377  0.69934  1.0000
  C   C107      1.0  0.28413  0.80955  0.68322  1.0000
  C   C108      1.0  0.70035  0.19089  0.63846  1.0000
  C   C109      1.0  0.19081  0.71063  0.81446  1.0000
  C   C110      1.0  0.80805  0.29878  0.78944  1.0000
  C   C111      1.0  0.71689  0.80914  0.84646  1.0000
  C   C112      1.0  0.29786  0.19011  0.86330  1.0000
  N   N1        1.0  0.98229  0.49746  0.24762  1.0000
  N   N2        1.0  0.01985  0.49704  0.27405  1.0000
  N   N3        1.0  0.50029  0.97967  0.23447  1.0000
  N   N4        1.0  0.49933  0.01482  0.23629  1.0000
  N   N5        1.0  0.80165  0.67559  0.17990  1.0000
  N   N6        1.0  0.19974  0.32888  0.15666  1.0000
  N   N7        1.0  0.31432  0.80482  0.17375  1.0000
  N   N8        1.0  0.67325  0.19241  0.17909  1.0000
  N   N9        1.0  0.20042  0.68150  0.35830  1.0000
  N   N10       1.0  0.80208  0.32887  0.32948  1.0000
  N   N11       1.0  0.68473  0.80407  0.35222  1.0000
  N   N12       1.0  0.32770  0.19415  0.32112  1.0000
  N   N13       1.0  0.98206  0.49647  0.74602  1.0000
  N   N14       1.0  0.01960  0.49631  0.77154  1.0000
  N   N15       1.0  0.49995  0.97917  0.73472  1.0000
  N   N16       1.0  0.49967  0.01434  0.73725  1.0000
  N   N17       1.0  0.80212  0.67620  0.66886  1.0000
  N   N18       1.0  0.19738  0.32418  0.67323  1.0000
  N   N19       1.0  0.31678  0.80272  0.68373  1.0000
  N   N20       1.0  0.67481  0.19192  0.70566  1.0000
  N   N21       1.0  0.20037  0.67947  0.84143  1.0000
  N   N22       1.0  0.80153  0.32951  0.83410  1.0000
  N   N23       1.0  0.68535  0.80306  0.86140  1.0000
  N   N24       1.0  0.32674  0.19195  0.81959  1.0000
  C  Sn1       1.0  0.79669  0.77470  0.29430  1.0000
  C   C113      1.0  0.79090  0.73938  0.27388  1.0000
  C  Sn2       1.0  0.75632  0.72532  0.25152  1.0000
  C  Sn3       1.0  0.72690  0.74702  0.24942  1.0000
  C   C114      1.0  0.73269  0.78232  0.26980  1.0000
  C  Sn4       1.0  0.76727  0.79640  0.29220  1.0000
  O  Te1       1.0  0.83149  0.78820  0.31647  1.0000
  O  Te2       1.0  0.75121  0.68993  0.23141  1.0000
  O  Te3       1.0  0.69208  0.73349  0.22723  1.0000
  O  Te4       1.0  0.77239  0.83177  0.31227  1.0000
  Mg  Mg1       1.0  0.69877  0.68371  0.20503  1.0000
  Mg  Mg2       1.0  0.82481  0.83801  0.33857  1.0000
  C  Sn5       1.0  0.27979  0.26101  0.28097  1.0000
  C   C115      1.0  0.27619  0.22994  0.34564  1.0000
  C  Sn6       1.0  0.24159  0.21777  0.33538  1.0000
  C  Sn7       1.0  0.20991  0.23706  0.25878  1.0000
  C   C116      1.0  0.21351  0.26811  0.19413  1.0000
  C  Sn8       1.0  0.24811  0.28029  0.20436  1.0000
  O  Te5       1.0  0.31466  0.27267  0.29259  1.0000
  O  Te6       1.0  0.23869  0.18665  0.40100  1.0000
  O  Te7       1.0  0.17503  0.22537  0.24720  1.0000
  O  Te8       1.0  0.25102  0.31139  0.13878  1.0000
  Mg  Mg3       1.0  0.18521  0.18149  0.35493  1.0000
  Mg  Mg4       1.0  0.30448  0.31656  0.18469  1.0000
  C  Sn9       1.0  0.22024  0.79354  0.25862  1.0000
  C   C117      1.0  0.25598  0.78973  0.25674  1.0000
  C  Sn10      1.0  0.27097  0.75739  0.25763  1.0000
  C  Sn11      1.0  0.24978  0.72825  0.26034  1.0000
  C   C118      1.0  0.21406  0.73206  0.26219  1.0000
  C  Sn12      1.0  0.19905  0.76439  0.26133  1.0000
  O  Te9       1.0  0.20581  0.82611  0.25768  1.0000
  O  Te10      1.0  0.30676  0.75423  0.25577  1.0000
  O  Te11      1.0  0.26424  0.69566  0.26128  1.0000
  O  Te12      1.0  0.16328  0.76755  0.26316  1.0000
  Mg  Mg5       1.0  0.31426  0.70446  0.25792  1.0000
  Mg  Mg6       1.0  0.15575  0.81731  0.26092  1.0000
  C  Sn13      1.0  0.72182  0.25919  0.20114  1.0000
  C   C119      1.0  0.72556  0.22533  0.14772  1.0000
  C  Sn14      1.0  0.76041  0.21231  0.17114  1.0000
  C  Sn15      1.0  0.79219  0.23356  0.24969  1.0000
  C   C120      1.0  0.78843  0.26740  0.30309  1.0000
  C  Sn16      1.0  0.75359  0.28044  0.27969  1.0000
  O  Te13      1.0  0.68671  0.27166  0.17645  1.0000
  O  Te14      1.0  0.76346  0.17838  0.11662  1.0000
  O  Te15      1.0  0.82731  0.22106  0.27435  1.0000
  O  Te16      1.0  0.75054  0.31435  0.33419  1.0000
  Mg  Mg7       1.0  0.81725  0.17314  0.17849  1.0000
  Mg  Mg8       1.0  0.69676  0.31961  0.27246  1.0000
  C  Sn17      1.0  0.87000  0.36316  0.50728  1.0000
  C   C121      1.0  0.83315  0.35928  0.40070  1.0000
  C  Sn18      1.0  0.81968  0.37725  0.25378  1.0000
  C  Sn19      1.0  0.84356  0.39954  0.21245  1.0000
  C   C122      1.0  0.88039  0.40340  0.31898  1.0000
  C  Sn20      1.0  0.89387  0.38544  0.46595  1.0000
  O  Te17      1.0  0.88286  0.34494  0.65350  1.0000
  O  Te18      1.0  0.78274  0.37296  0.14924  1.0000
  O  Te19      1.0  0.83066  0.41776  0.06610  1.0000
  O  Te20      1.0  0.93080  0.38972  0.57044  1.0000
  Mg  Mg9       1.0  0.85265  0.41840  0.96396  1.0000
  Mg  Mg10      1.0  0.93539  0.35934  0.75569  1.0000
  C  Sn21      1.0  0.16914  0.60048  0.38241  1.0000
  C   C123      1.0  0.13612  0.60343  0.41449  1.0000
  C  Sn22      1.0  0.11954  0.63503  0.41296  1.0000
  C  Sn23      1.0  0.13632  0.66429  0.37854  1.0000
  C   C124      1.0  0.16932  0.66134  0.34647  1.0000
  C  Sn24      1.0  0.18592  0.62975  0.34800  1.0000
  O  Te21      1.0  0.18522  0.56864  0.38458  1.0000
  O  Te22      1.0  0.08653  0.63734  0.44545  1.0000
  O  Te23      1.0  0.12021  0.69615  0.37640  1.0000
  O  Te24      1.0  0.21890  0.62743  0.31550  1.0000
  Mg  Mg11      1.0  0.07525  0.68632  0.42821  1.0000
  Mg  Mg12      1.0  0.23020  0.57846  0.33262  1.0000
  C  Sn25      1.0  0.61866  0.84448  0.48801  1.0000
  C   C125      1.0  0.61734  0.87821  0.44442  1.0000
  C  Sn26      1.0  0.63719  0.88873  0.34450  1.0000
  C  Sn27      1.0  0.65881  0.86503  0.28685  1.0000
  C   C126      1.0  0.66013  0.83132  0.33042  1.0000
  C  Sn28      1.0  0.64028  0.82078  0.43036  1.0000
  O  Te25      1.0  0.59859  0.83452  0.58803  1.0000
  O  Te26      1.0  0.63544  0.92258  0.30262  1.0000
  O  Te27      1.0  0.67889  0.87502  0.18677  1.0000
  O  Te28      1.0  0.64202  0.78695  0.47222  1.0000
  Mg  Mg13      1.0  0.66766  0.92389  0.16332  1.0000
  Mg  Mg14      1.0  0.60980  0.78561  0.61142  1.0000
  C  Sn29      1.0  0.40899  0.15818  0.31840  1.0000
  C   C127      1.0  0.41167  0.12623  0.38430  1.0000
  C  Sn30      1.0  0.38276  0.11302  0.42663  1.0000
  C  Sn31      1.0  0.35049  0.13214  0.40248  1.0000
  C   C128      1.0  0.34782  0.16406  0.33659  1.0000
  C  Sn32      1.0  0.37672  0.17729  0.29425  1.0000
  O  Te29      1.0  0.43823  0.17088  0.27697  1.0000
  O  Te30      1.0  0.38608  0.08102  0.49237  1.0000
  O  Te31      1.0  0.32125  0.11940  0.44398  1.0000
  O  Te32      1.0  0.37341  0.20927  0.22852  1.0000
  Mg  Mg15      1.0  0.33880  0.07461  0.52950  1.0000
  Mg  Mg16      1.0  0.42066  0.21570  0.19127  1.0000
  C  Sn33      1.0  0.11109  0.36165  0.05566  1.0000
  C   C129      1.0  0.11636  0.39356  0.14687  1.0000
  C  Sn34      1.0  0.15178  0.40764  0.22673  1.0000
  C  Sn35      1.0  0.18259  0.38946  0.21509  1.0000
  C   C130      1.0  0.17732  0.35757  0.12390  1.0000
  C  Sn36      1.0  0.14190  0.34346  0.04403  1.0000
  O  Te33      1.0  0.14990  0.36312  0.97683  1.0000
  O  Te34      1.0  0.15635  0.43958  0.31724  1.0000
  O  Te35      1.0  0.21827  0.40307  0.29402  1.0000
  O  Te36      1.0  0.21180  0.32661  0.95353  1.0000
  Mg  Mg17      1.0  0.21037  0.44740  0.40257  1.0000
  Mg  Mg18      1.0  0.15779  0.31877  0.86808  1.0000
  C  Sn37      1.0  0.87836  0.64111  0.09389  1.0000
  C   C131      1.0  0.88006  0.60792  0.14506  1.0000
  C  Sn38      1.0  0.85147  0.59439  0.18868  1.0000
  C  Sn39      1.0  0.82054  0.61444  0.18089  1.0000
  C   C132      1.0  0.81885  0.64761  0.12971  1.0000
  C  Sn40      1.0  0.84742  0.66116  0.08610  1.0000
  O  Te37      1.0  0.90725  0.65412  0.05085  1.0000
  O  Te38      1.0  0.85380  0.56114  0.23951  1.0000
  O  Te39      1.0  0.79164  0.60140  0.22398  1.0000
  O  Te40      1.0  0.84511  0.69438  0.03526  1.0000
  Mg  Mg19      1.0  0.80748  0.55478  0.28545  1.0000
  Mg  Mg20      1.0  0.96587  0.71583  0.98921  1.0000
  C  Sn41      1.0  0.34607  0.88615  0.12626  1.0000
  C   C133      1.0  0.38360  0.88190  0.15729  1.0000
  C  Sn42      1.0  0.39824  0.84932  0.16707  1.0000
  C  Sn43      1.0  0.37486  0.82037  0.14528  1.0000
  C   C134      1.0  0.33736  0.82463  0.11425  1.0000
  C  Sn44      1.0  0.32270  0.85720  0.10447  1.0000
  O  Te41      1.0  0.33204  0.91895  0.11699  1.0000
  O  Te42      1.0  0.43585  0.84571  0.19827  1.0000
  O  Te43      1.0  0.38893  0.78755  0.15459  1.0000
  O  Te44      1.0  0.28511  0.86082  0.07327  1.0000
  Mg  Mg21      1.0  0.44196  0.79576  0.19953  1.0000
  Mg  Mg22      1.0  0.27896  0.91075  0.07189  1.0000
  C  Sn45      1.0  0.63324  0.10951  0.09909  1.0000
  C   C135      1.0  0.60586  0.11200  0.17274  1.0000
  C  Sn46      1.0  0.59653  0.14376  0.22996  1.0000
  C  Sn47      1.0  0.61495  0.17367  0.21313  1.0000
  C   C136      1.0  0.64231  0.17118  0.13950  1.0000
  C  Sn48      1.0  0.65165  0.13942  0.08226  1.0000
  O  Te45      1.0  0.64211  0.07750  0.04277  1.0000
  O  Te46      1.0  0.56907  0.14559  0.30322  1.0000
  O  Te47      1.0  0.60605  0.20570  0.26954  1.0000
  O  Te48      1.0  0.67909  0.13758  0.00903  1.0000
  Mg  Mg23      1.0  0.56675  0.19505  0.36053  1.0000
  Mg  Mg24      1.0  0.75590  0.10321  0.95159  1.0000
  C  Sn49      1.0  0.74070  0.72667  0.72055  1.0000
  C   C137      1.0  0.77204  0.73210  0.67815  1.0000
  C  Sn50      1.0  0.78989  0.76401  0.71479  1.0000
  C  Sn51      1.0  0.77615  0.79105  0.79561  1.0000
  C   C138      1.0  0.74484  0.78562  0.83799  1.0000
  C  Sn52      1.0  0.72696  0.75372  0.80136  1.0000
  O  Te49      1.0  0.72330  0.69457  0.68273  1.0000
  O  Te50      1.0  0.82116  0.76882  0.67113  1.0000
  O  Te51      1.0  0.79359  0.82317  0.83341  1.0000
  O  Te52      1.0  0.69571  0.74890  0.84501  1.0000
  Mg  Mg25      1.0  0.83526  0.81715  0.74902  1.0000
  Mg  Mg26      1.0  0.68160  0.70058  0.76726  1.0000
  C  Sn53      1.0  0.22435  0.21066  0.78245  1.0000
  C   C139      1.0  0.26016  0.21198  0.77923  1.0000
  C  Sn54      1.0  0.27599  0.24294  0.76490  1.0000
  C  Sn55      1.0  0.25563  0.27323  0.75365  1.0000
  C   C140      1.0  0.21985  0.27190  0.75689  1.0000
  C  Sn56      1.0  0.20399  0.24095  0.77120  1.0000
  O  Te53      1.0  0.20907  0.17943  0.79686  1.0000
  O  Te54      1.0  0.31182  0.24362  0.76189  1.0000
  O  Te55      1.0  0.27094  0.30448  0.73922  1.0000
  O  Te56      1.0  0.16818  0.24026  0.77423  1.0000
  Mg  Mg27      1.0  0.32066  0.29234  0.74064  1.0000
  Mg  Mg28      1.0  0.15933  0.19156  0.79556  1.0000
  C  Sn57      1.0  0.26584  0.74084  0.71029  1.0000
  C   C141      1.0  0.25850  0.77491  0.67708  1.0000
  C  Sn58      1.0  0.22975  0.79112  0.71442  1.0000
  C  Sn59      1.0  0.20789  0.77289  0.78657  1.0000
  C   C142      1.0  0.21523  0.73883  0.81977  1.0000
  C  Sn60      1.0  0.24397  0.72261  0.78244  1.0000
  O  Te57      1.0  0.29472  0.72515  0.67195  1.0000
  O  Te58      1.0  0.22294  0.82520  0.68002  1.0000
  O  Te59      1.0  0.17899  0.78860  0.82490  1.0000
  O  Te60      1.0  0.25079  0.68855  0.81684  1.0000
  Mg  Mg29      1.0  0.18053  0.83541  0.75481  1.0000
  Mg  Mg30      1.0  0.29321  0.67832  0.74218  1.0000
  C  Sn61      1.0  0.77537  0.23815  0.61160  1.0000
  C   C143      1.0  0.77736  0.26860  0.71198  1.0000
  C  Sn62      1.0  0.75590  0.27272  0.81621  1.0000
  C  Sn63      1.0  0.73196  0.24585  0.82030  1.0000
  C   C144      1.0  0.72999  0.21542  0.71999  1.0000
  C  Sn64      1.0  0.75144  0.21127  0.61568  1.0000
  O  Te61      1.0  0.79708  0.23458  0.50836  1.0000
  O  Te62      1.0  0.75835  0.30340  0.91538  1.0000
  O  Te63      1.0  0.71025  0.24944  0.92365  1.0000
  O  Te64      1.0  0.74900  0.18062  0.51658  1.0000
  Mg  Mg31      1.0  0.64880  0.28096  0.03553  1.0000
  Mg  Mg32      1.0  0.78408  0.18796  0.39646  1.0000
  C  Sn65      1.0  0.83431  0.40897  0.78148  1.0000
  C   C145      1.0  0.87210  0.41004  0.87412  1.0000
  C  Sn66      1.0  0.88947  0.38139  0.95281  1.0000
  C  Sn67      1.0  0.86864  0.35102  0.93852  1.0000
  C   C146      1.0  0.83088  0.34995  0.84590  1.0000
  C  Sn68      1.0  0.81348  0.37860  0.76719  1.0000
  O  Te65      1.0  0.81752  0.43792  0.70386  1.0000
  O  Te66      1.0  0.85280  0.36802  0.04480  1.0000
  O  Te67      1.0  0.81099  0.30700  0.01624  1.0000
  O  Te68      1.0  0.77570  0.37691  0.67523  1.0000
  Mg  Mg33      1.0  0.86317  0.32188  0.12761  1.0000
  Mg  Mg34      1.0  0.76531  0.42303  0.59229  1.0000
  C  Sn69      1.0  0.14788  0.65682  0.97817  1.0000
  C   C147      1.0  0.17609  0.65460  0.90962  1.0000
  C  Sn70      1.0  0.17780  0.62641  0.80101  1.0000
  C  Sn71      1.0  0.15073  0.59989  0.75995  1.0000
  C   C148      1.0  0.12253  0.60212  0.82846  1.0000
  C  Sn72      1.0  0.12081  0.63031  0.93712  1.0000
  O  Te69      1.0  0.07224  0.67018  0.08647  1.0000
  O  Te70      1.0  0.20627  0.62475  0.73409  1.0000
  O  Te71      1.0  0.15191  0.57145  0.65156  1.0000
  O  Te72      1.0  0.01788  0.61691  0.00399  1.0000
  Mg  Mg35      1.0  0.19605  0.58087  0.59238  1.0000
  Mg  Mg36      1.0  0.02806  0.66079  0.14564  1.0000
  C  Sn73      1.0  0.64265  0.88205  0.78994  1.0000
  C   C149      1.0  0.61201  0.87902  0.84046  1.0000
  C  Sn74      1.0  0.60833  0.85152  0.93076  1.0000
  C  Sn75      1.0  0.63585  0.82652  0.97152  1.0000
  C   C150      1.0  0.66646  0.82955  0.92105  1.0000
  C  Sn76      1.0  0.67016  0.85705  0.83071  1.0000
  O  Te73      1.0  0.64576  0.90976  0.69978  1.0000
  O  Te74      1.0  0.57746  0.84903  0.97984  1.0000
  O  Te75      1.0  0.55824  0.78372  0.06176  1.0000
  O  Te76      1.0  0.70102  0.85954  0.78167  1.0000
  Mg  Mg37      1.0  0.51116  0.79155  0.10064  1.0000
  Mg  Mg38      1.0  0.69288  0.90196  0.66094  1.0000
  C  Sn77      1.0  0.39186  0.16967  0.80136  1.0000
  C   C151      1.0  0.35577  0.16544  0.79755  1.0000
  C  Sn78      1.0  0.34465  0.13536  0.84693  1.0000
  C  Sn79      1.0  0.37014  0.10897  0.90134  1.0000
  C   C152      1.0  0.40621  0.11322  0.90516  1.0000
  C  Sn80      1.0  0.41735  0.14328  0.85578  1.0000
  O  Te77      1.0  0.40238  0.19995  0.75145  1.0000
  O  Te78      1.0  0.30842  0.13172  0.84198  1.0000
  O  Te79      1.0  0.35960  0.07868  0.95127  1.0000
  O  Te80      1.0  0.45356  0.14694  0.86073  1.0000
  Mg  Mg39      1.0  0.30724  0.08576  0.92248  1.0000
  Mg  Mg40      1.0  0.45478  0.19289  0.78036  1.0000
  C  Sn81      1.0  0.11003  0.36004  0.55847  1.0000
  C   C153      1.0  0.11593  0.39164  0.65277  1.0000
  C  Sn82      1.0  0.15168  0.40449  0.73891  1.0000
  C  Sn83      1.0  0.18217  0.38536  0.73054  1.0000
  C   C154      1.0  0.17627  0.35379  0.63627  1.0000
  C  Sn84      1.0  0.14053  0.34091  0.55011  1.0000
  O  Te81      1.0  0.07406  0.34769  0.47336  1.0000
  O  Te82      1.0  0.15688  0.43614  0.83241  1.0000
  O  Te83      1.0  0.21816  0.39774  0.81576  1.0000
  O  Te84      1.0  0.13532  0.30928  0.45663  1.0000
  Mg  Mg41      1.0  0.21112  0.44215  0.92634  1.0000
  Mg  Mg42      1.0  0.08109  0.30326  0.36258  1.0000
  C  Sn85      1.0  0.82420  0.61088  0.68100  1.0000
  C   C155      1.0  0.82979  0.64608  0.68710  1.0000
  C  Sn86      1.0  0.85797  0.65927  0.63945  1.0000
  C  Sn87      1.0  0.88103  0.63679  0.58445  1.0000
  C   C156      1.0  0.87544  0.60161  0.57834  1.0000
  C  Sn88      1.0  0.84727  0.58840  0.62600  1.0000
  O  Te85      1.0  0.79586  0.59826  0.72922  1.0000
  O  Te86      1.0  0.86303  0.69456  0.64668  1.0000
  O  Te87      1.0  0.90939  0.64944  0.53622  1.0000
  O  Te88      1.0  0.84220  0.55314  0.61877  1.0000
  Mg  Mg43      1.0  0.90534  0.69943  0.56787  1.0000
  Mg  Mg44      1.0  0.79989  0.54823  0.69745  1.0000
  C  Sn89      1.0  0.34351  0.88070  0.56879  1.0000
  C   C157      1.0  0.38183  0.88177  0.64589  1.0000
  C  Sn90      1.0  0.40037  0.85346  0.72329  1.0000
  C  Sn91      1.0  0.38020  0.82346  0.72356  1.0000
  C   C158      1.0  0.34191  0.82239  0.64648  1.0000
  C  Sn92      1.0  0.32334  0.85069  0.56906  1.0000
  O  Te89      1.0  0.32555  0.90929  0.49216  1.0000
  O  Te90      1.0  0.43869  0.85515  0.79960  1.0000
  O  Te91      1.0  0.39820  0.79485  0.80029  1.0000
  O  Te92      1.0  0.28505  0.84902  0.49276  1.0000
  Mg  Mg45      1.0  0.45068  0.80956  0.88749  1.0000
  Mg  Mg46      1.0  0.27303  0.89457  0.40476  1.0000
  C  Sn93      1.0  0.63865  0.10858  0.65875  1.0000
  C   C159      1.0  0.60449  0.11257  0.67895  1.0000
  C  Sn94      1.0  0.58970  0.14492  0.68200  1.0000
  C  Sn95      1.0  0.60944  0.17388  0.66439  1.0000
  C   C160      1.0  0.64358  0.16987  0.64417  1.0000
  C  Sn96      1.0  0.65840  0.13753  0.64113  1.0000
  O  Te93      1.0  0.65291  0.07600  0.65605  1.0000
  O  Te94      1.0  0.55551  0.14828  0.70240  1.0000
  O  Te95      1.0  0.59515  0.20647  0.66710  1.0000
  O  Te96      1.0  0.69256  0.13417  0.62071  1.0000
  Mg  Mg47      1.0  0.54757  0.19797  0.69790  1.0000
  Mg  Mg48      1.0  0.70051  0.08449  0.62511  1.0000
