data_image0
_chemical_formula_structural       H56C104N16SnCSn2CSnTe4Mg2SnCSn2CSnTe4Mg2SnCSn2CSnTe4Mg2SnCSn2CSnTe4Mg2SnCSn2CSnTe4Mg2SnCSn2CSnTe4Mg2SnCSn2CSnTe4Mg2SnCSn2CSnTe4Mg2SnCSn2CSnTe4Mg2SnCSn2CSnTe4Mg2SnCSn2CSnTe4Mg2SnCSn2CSnTe4Mg2SnCSn2CSnTe4Mg2SnCSn2CSnTe4Mg2SnCSn2CSnTe4Mg2SnCSn2CSnTe4Mg2
_chemical_formula_sum              "H56 C136 N16 Sn64 Te64 Mg32"
_cell_length_a       28.6259
_cell_length_b       31.4867
_cell_length_c       8.15553
_cell_angle_alpha    88.6239
_cell_angle_beta     90.1013
_cell_angle_gamma    89.9945

_symmetry_space_group_name_H-M    'P1'
_space_group_IT_number       1

loop_
  _space_group_symop_operation_xyz
  'x, y, z'

loop_
  _atom_site_type_symbol
  _atom_site_label
  _atom_site_symmetry_multiplicity
  _atom_site_fract_x
  _atom_site_fract_y
  _atom_site_fract_z
  _atom_site_occupancy
  H   H1        1.0  0.54755  0.84436  0.22892  1.0000
  H   H2        1.0  0.45178  0.15588  0.25006  1.0000
  H   H3        1.0  0.45315  0.84494  0.26779  1.0000
  H   H4        1.0  0.54676  0.15714  0.29556  1.0000
  H   H5        1.0  0.64968  0.93783  0.07887  1.0000
  H   H6        1.0  0.35336  0.06295  0.08271  1.0000
  H   H7        1.0  0.35324  0.93664  0.43431  1.0000
  H   H8        1.0  0.65079  0.06403  0.43118  1.0000
  H   H9        1.0  0.59366  0.99590  0.12741  1.0000
  H   H10       1.0  0.41180  0.00569  0.12140  1.0000
  H   H11       1.0  0.41120  0.99434  0.39938  1.0000
  H   H12       1.0  0.59446  0.00575  0.39063  1.0000
  H   H13       1.0  0.77533  0.76833  0.30145  1.0000
  H   H14       1.0  0.22347  0.22805  0.31509  1.0000
  H   H15       1.0  0.22441  0.77206  0.19384  1.0000
  H   H16       1.0  0.77117  0.23206  0.15839  1.0000
  H   H17       1.0  0.92957  0.36953  0.04008  1.0000
  H   H18       1.0  0.06957  0.63931  0.08836  1.0000
  H   H19       1.0  0.06835  0.36402  0.39925  1.0000
  H   H20       1.0  0.92869  0.63394  0.42503  1.0000
  H   H21       1.0  0.99295  0.42149  0.08505  1.0000
  H   H22       1.0  0.00551  0.58722  0.11772  1.0000
  H   H23       1.0  0.00481  0.41632  0.36069  1.0000
  H   H24       1.0  0.99294  0.58318  0.37868  1.0000
  H   H25       1.0  0.82795  0.45627  0.23032  1.0000
  H   H26       1.0  0.17129  0.54371  0.21904  1.0000
  H   H27       1.0  0.17098  0.45766  0.25627  1.0000
  H   H28       1.0  0.82682  0.54174  0.27913  1.0000
  H   H29       1.0  0.54534  0.84291  0.73582  1.0000
  H   H30       1.0  0.45600  0.15666  0.72769  1.0000
  H   H31       1.0  0.45153  0.84341  0.78202  1.0000
  H   H32       1.0  0.54827  0.15545  0.77803  1.0000
  H   H33       1.0  0.64702  0.93603  0.57886  1.0000
  H   H34       1.0  0.35172  0.06614  0.58552  1.0000
  H   H35       1.0  0.34955  0.93595  0.92351  1.0000
  H   H36       1.0  0.64951  0.06131  0.92948  1.0000
  H   H37       1.0  0.59060  0.99418  0.62298  1.0000
  H   H38       1.0  0.40755  0.00705  0.62567  1.0000
  H   H39       1.0  0.40737  0.99380  0.88994  1.0000
  H   H40       1.0  0.59213  0.00384  0.88937  1.0000
  H   H41       1.0  0.77323  0.76789  0.82058  1.0000
  H   H42       1.0  0.23100  0.23441  0.82358  1.0000
  H   H43       1.0  0.22826  0.76842  0.65944  1.0000
  H   H44       1.0  0.77322  0.23111  0.68021  1.0000
  H   H45       1.0  0.92811  0.36624  0.54919  1.0000
  H   H46       1.0  0.06777  0.63680  0.58242  1.0000
  H   H47       1.0  0.07147  0.36161  0.89451  1.0000
  H   H48       1.0  0.93015  0.63120  0.93026  1.0000
  H   H49       1.0  0.99209  0.41771  0.59217  1.0000
  H   H50       1.0  0.00436  0.58417  0.61422  1.0000
  H   H51       1.0  0.00628  0.41209  0.85441  1.0000
  H   H52       1.0  0.99345  0.57919  0.88504  1.0000
  H   H53       1.0  0.82666  0.45628  0.71607  1.0000
  H   H54       1.0  0.16998  0.54344  0.73283  1.0000
  H   H55       1.0  0.17177  0.45927  0.77630  1.0000
  H   H56       1.0  0.82697  0.54155  0.77191  1.0000
  C   C1        1.0  0.46488  0.95220  0.31352  1.0000
  C   C2        1.0  0.53868  0.04848  0.31770  1.0000
  C   C3        1.0  0.53881  0.95286  0.20613  1.0000
  C   C4        1.0  0.46462  0.04850  0.21033  1.0000
  C   C5        1.0  0.86353  0.44909  0.19307  1.0000
  C   C6        1.0  0.13536  0.55293  0.19276  1.0000
  C   C7        1.0  0.13501  0.44885  0.28350  1.0000
  C   C8        1.0  0.86278  0.55024  0.30686  1.0000
  C   C9        1.0  0.47753  0.90943  0.28454  1.0000
  C   C10       1.0  0.52442  0.09156  0.29810  1.0000
  C   C11       1.0  0.52501  0.90970  0.22599  1.0000
  C   C12       1.0  0.47686  0.09142  0.23893  1.0000
  C   C13       1.0  0.55721  0.87719  0.20127  1.0000
  C   C14       1.0  0.44348  0.12343  0.21746  1.0000
  C   C15       1.0  0.44436  0.87715  0.30208  1.0000
  C   C16       1.0  0.55664  0.12426  0.32116  1.0000
  C   C17       1.0  0.60313  0.88723  0.15547  1.0000
  C   C18       1.0  0.39802  0.11319  0.16783  1.0000
  C   C19       1.0  0.39859  0.88694  0.34896  1.0000
  C   C20       1.0  0.60308  0.11443  0.36123  1.0000
  C   C21       1.0  0.61470  0.93025  0.12269  1.0000
  C   C22       1.0  0.38803  0.07068  0.12808  1.0000
  C   C23       1.0  0.38810  0.92924  0.39025  1.0000
  C   C24       1.0  0.61524  0.07150  0.39286  1.0000
  C   C25       1.0  0.58326  0.96320  0.14787  1.0000
  C   C26       1.0  0.42077  0.03820  0.14775  1.0000
  C   C27       1.0  0.42065  0.96196  0.37352  1.0000
  C   C28       1.0  0.58366  0.03841  0.37211  1.0000
  C   C29       1.0  0.74111  0.75699  0.25877  1.0000
  C   C30       1.0  0.25714  0.24018  0.26854  1.0000
  C   C31       1.0  0.25853  0.75981  0.23601  1.0000
  C   C32       1.0  0.73966  0.24377  0.22018  1.0000
  C   C33       1.0  0.87449  0.40870  0.13564  1.0000
  C   C34       1.0  0.12467  0.59552  0.15570  1.0000
  C   C35       1.0  0.12399  0.40664  0.32640  1.0000
  C   C36       1.0  0.87348  0.59176  0.35201  1.0000
  C   C37       1.0  0.92130  0.40015  0.09195  1.0000
  C   C38       1.0  0.07765  0.60656  0.12348  1.0000
  C   C39       1.0  0.07681  0.39631  0.35933  1.0000
  C   C40       1.0  0.92062  0.60216  0.38373  1.0000
  C   C41       1.0  0.95723  0.42932  0.11503  1.0000
  C   C42       1.0  0.04127  0.57733  0.13832  1.0000
  C   C43       1.0  0.04070  0.42566  0.33981  1.0000
  C   C44       1.0  0.95708  0.57371  0.35915  1.0000
  C   C45       1.0  0.94617  0.46811  0.18431  1.0000
  C   C46       1.0  0.05211  0.53576  0.18895  1.0000
  C   C47       1.0  0.05199  0.46679  0.28598  1.0000
  C   C48       1.0  0.94615  0.53368  0.30017  1.0000
  C   C49       1.0  0.89893  0.47890  0.21634  1.0000
  C   C50       1.0  0.09947  0.52304  0.21012  1.0000
  C   C51       1.0  0.09939  0.47895  0.26313  1.0000
  C   C52       1.0  0.89877  0.52121  0.28027  1.0000
  C   C53       1.0  0.46213  0.95143  0.81231  1.0000
  C   C54       1.0  0.53768  0.04711  0.80923  1.0000
  C   C55       1.0  0.53629  0.95140  0.70668  1.0000
  C   C56       1.0  0.46344  0.04834  0.70281  1.0000
  C   C57       1.0  0.86245  0.44830  0.68436  1.0000
  C   C58       1.0  0.13420  0.55203  0.70124  1.0000
  C   C59       1.0  0.13584  0.44919  0.79679  1.0000
  C   C60       1.0  0.86304  0.54941  0.80076  1.0000
  C   C61       1.0  0.47520  0.90840  0.78929  1.0000
  C   C62       1.0  0.52488  0.09035  0.78403  1.0000
  C   C63       1.0  0.52273  0.90832  0.73079  1.0000
  C   C64       1.0  0.47751  0.09110  0.72463  1.0000
  C   C65       1.0  0.55498  0.87568  0.70690  1.0000
  C   C66       1.0  0.44572  0.12428  0.70094  1.0000
  C   C67       1.0  0.44231  0.87598  0.81002  1.0000
  C   C68       1.0  0.55750  0.12260  0.80716  1.0000
  C   C69       1.0  0.60083  0.88556  0.65935  1.0000
  C   C70       1.0  0.39946  0.11533  0.65784  1.0000
  C   C71       1.0  0.39617  0.88590  0.85129  1.0000
  C   C72       1.0  0.60333  0.11232  0.85357  1.0000
  C   C73       1.0  0.61214  0.92851  0.62361  1.0000
  C   C74       1.0  0.38717  0.07287  0.62555  1.0000
  C   C75       1.0  0.38494  0.92849  0.88511  1.0000
  C   C76       1.0  0.61438  0.06926  0.88789  1.0000
  C   C77       1.0  0.58055  0.96151  0.64623  1.0000
  C   C78       1.0  0.41856  0.03933  0.64603  1.0000
  C   C79       1.0  0.41741  0.96132  0.86807  1.0000
  C   C80       1.0  0.58222  0.03659  0.86692  1.0000
  C   C81       1.0  0.74027  0.75629  0.76809  1.0000
  C   C82       1.0  0.26461  0.24611  0.77501  1.0000
  C   C83       1.0  0.26036  0.75665  0.71982  1.0000
  C   C84       1.0  0.73965  0.24273  0.72747  1.0000
  C   C85       1.0  0.87313  0.40729  0.63302  1.0000
  C   C86       1.0  0.12327  0.59411  0.65695  1.0000
  C   C87       1.0  0.12602  0.40652  0.83455  1.0000
  C   C88       1.0  0.87434  0.59050  0.85011  1.0000
  C   C89       1.0  0.92003  0.39755  0.59526  1.0000
  C   C90       1.0  0.07621  0.60441  0.62151  1.0000
  C   C91       1.0  0.07897  0.39446  0.85943  1.0000
  C   C92       1.0  0.92155  0.59987  0.88548  1.0000
  C   C93       1.0  0.95633  0.42635  0.61795  1.0000
  C   C94       1.0  0.04015  0.57481  0.63731  1.0000
  C   C95       1.0  0.04191  0.42281  0.83849  1.0000
  C   C96       1.0  0.95747  0.57079  0.86152  1.0000
  C   C97       1.0  0.94555  0.46583  0.68210  1.0000
  C   C98       1.0  0.05132  0.53361  0.69147  1.0000
  C   C99       1.0  0.05206  0.46458  0.78893  1.0000
  C   C100      1.0  0.94602  0.53138  0.79819  1.0000
  C   C101      1.0  0.89830  0.47759  0.70941  1.0000
  C   C102      1.0  0.09868  0.52191  0.71859  1.0000
  C   C103      1.0  0.09924  0.47803  0.77267  1.0000
  C   C104      1.0  0.89855  0.51986  0.77403  1.0000
  N   N1        1.0  0.26713  0.71955  0.24475  1.0000
  N   N2        1.0  0.73290  0.28387  0.24000  1.0000
  N   N3        1.0  0.73168  0.71690  0.25481  1.0000
  N   N4        1.0  0.26526  0.28043  0.25314  1.0000
  N   N5        1.0  0.50223  0.97850  0.26297  1.0000
  N   N6        1.0  0.50208  0.02253  0.26252  1.0000
  N   N7        1.0  0.97484  0.50127  0.23944  1.0000
  N   N8        1.0  0.02338  0.50132  0.23751  1.0000
  N   N9        1.0  0.26734  0.71648  0.74440  1.0000
  N   N10       1.0  0.73075  0.28289  0.73300  1.0000
  N   N11       1.0  0.73248  0.71613  0.75439  1.0000
  N   N12       1.0  0.27302  0.28632  0.76070  1.0000
  N   N13       1.0  0.49956  0.97749  0.75978  1.0000
  N   N14       1.0  0.50015  0.02163  0.75737  1.0000
  N   N15       1.0  0.97446  0.49854  0.73929  1.0000
  N   N16       1.0  0.02299  0.49860  0.73714  1.0000
  C  Sn1       1.0  0.69821  0.86180  0.19038  1.0000
  C   C105      1.0  0.65289  0.85747  0.12907  1.0000
  C  Sn2       1.0  0.63246  0.81733  0.11882  1.0000
  C  Sn3       1.0  0.65785  0.78075  0.17104  1.0000
  C   C106      1.0  0.70315  0.78509  0.23233  1.0000
  C  Sn4       1.0  0.72361  0.82522  0.24260  1.0000
  O  Te1       1.0  0.71794  0.90224  0.19953  1.0000
  O  Te2       1.0  0.58711  0.81381  0.05704  1.0000
  O  Te3       1.0  0.63808  0.74029  0.16184  1.0000
  O  Te4       1.0  0.76893  0.82875  0.30436  1.0000
  Mg  Mg1       1.0  0.57531  0.75186  0.06890  1.0000
  Mg  Mg2       1.0  0.78075  0.89069  0.29264  1.0000
  C  Sn5       1.0  0.30240  0.13661  0.20733  1.0000
  C   C107      1.0  0.34727  0.14232  0.14320  1.0000
  C  Sn6       1.0  0.36691  0.18288  0.13112  1.0000
  C  Sn7       1.0  0.34118  0.21849  0.18435  1.0000
  C   C108      1.0  0.29635  0.21277  0.24846  1.0000
  C  Sn8       1.0  0.27668  0.17222  0.26055  1.0000
  O  Te5       1.0  0.28346  0.09578  0.21826  1.0000
  O  Te6       1.0  0.41181  0.18780  0.06654  1.0000
  O  Te7       1.0  0.36017  0.25935  0.17336  1.0000
  O  Te8       1.0  0.23181  0.16729  0.32512  1.0000
  Mg  Mg3       1.0  0.42256  0.24979  0.07677  1.0000
  Mg  Mg4       1.0  0.22103  0.10532  0.31502  1.0000
  C  Sn9       1.0  0.34048  0.78641  0.40326  1.0000
  C   C109      1.0  0.29660  0.79182  0.33033  1.0000
  C  Sn10      1.0  0.28575  0.82944  0.24429  1.0000
  C  Sn11      1.0  0.31947  0.86234  0.23077  1.0000
  C   C110      1.0  0.36332  0.85691  0.30365  1.0000
  C  Sn12      1.0  0.37420  0.81930  0.38974  1.0000
  O  Te9       1.0  0.35057  0.74853  0.48868  1.0000
  O  Te10      1.0  0.24164  0.83412  0.17248  1.0000
  O  Te11      1.0  0.30934  0.90023  0.14527  1.0000
  O  Te12      1.0  0.41828  0.81461  0.46150  1.0000
  Mg  Mg5       1.0  0.24446  0.89156  0.06873  1.0000
  Mg  Mg6       1.0  0.41550  0.75718  0.56519  1.0000
  C  Sn13      1.0  0.69645  0.13939  0.28817  1.0000
  C   C111      1.0  0.65432  0.14343  0.37270  1.0000
  C  Sn14      1.0  0.63545  0.18356  0.39990  1.0000
  C  Sn15      1.0  0.65918  0.22043  0.34129  1.0000
  C   C112      1.0  0.70128  0.21638  0.25680  1.0000
  C  Sn16      1.0  0.72017  0.17625  0.22957  1.0000
  O  Te13      1.0  0.71466  0.09895  0.26238  1.0000
  O  Te14      1.0  0.59330  0.18680  0.48477  1.0000
  O  Te15      1.0  0.64092  0.26088  0.36716  1.0000
  O  Te16      1.0  0.76230  0.17301  0.14473  1.0000
  Mg  Mg7       1.0  0.58252  0.24887  0.48928  1.0000
  Mg  Mg8       1.0  0.77309  0.11095  0.14008  1.0000
  C  Sn17      1.0  0.82354  0.31294  0.27770  1.0000
  C   C113      1.0  0.77587  0.31531  0.24138  1.0000
  C  Sn18      1.0  0.75886  0.34687  0.13381  1.0000
  C  Sn19      1.0  0.79014  0.37669  0.06094  1.0000
  C   C114      1.0  0.83778  0.37431  0.09725  1.0000
  C  Sn20      1.0  0.85483  0.34275  0.20484  1.0000
  O  Te17      1.0  0.83978  0.28112  0.38558  1.0000
  O  Te18      1.0  0.71105  0.34860  0.09942  1.0000
  O  Te19      1.0  0.77436  0.40230  0.95300  1.0000
  O  Te20      1.0  0.90260  0.34101  0.23921  1.0000
  Mg  Mg9       1.0  0.70628  0.39157  0.94464  1.0000
  Mg  Mg10      1.0  0.90792  0.29183  0.39390  1.0000
  C  Sn21      1.0  0.23188  0.65179  0.07736  1.0000
  C   C115      1.0  0.22867  0.68894  0.16706  1.0000
  C  Sn22      1.0  0.19140  0.69490  0.27443  1.0000
  C  Sn23      1.0  0.15663  0.66305  0.29261  1.0000
  C   C116      1.0  0.15986  0.62593  0.20296  1.0000
  C  Sn24      1.0  0.19711  0.61994  0.09553  1.0000
  O  Te21      1.0  0.26995  0.64029  0.97073  1.0000
  O  Te22      1.0  0.18892  0.73231  0.36275  1.0000
  O  Te23      1.0  0.11905  0.66836  0.39934  1.0000
  O  Te24      1.0  0.19960  0.58256  0.00727  1.0000
  Mg  Mg11      1.0  0.13105  0.72477  0.49278  1.0000
  Mg  Mg12      1.0  0.25797  0.58383  0.87728  1.0000
  C  Sn25      1.0  0.23177  0.35084  0.40885  1.0000
  C   C117      1.0  0.22745  0.31222  0.32926  1.0000
  C  Sn26      1.0  0.18898  0.30459  0.22858  1.0000
  C  Sn27      1.0  0.15410  0.33624  0.20691  1.0000
  C   C118      1.0  0.15843  0.37483  0.28644  1.0000
  C  Sn28      1.0  0.19689  0.38248  0.38718  1.0000
  O  Te25      1.0  0.27053  0.35777  0.50892  1.0000
  O  Te26      1.0  0.18542  0.26573  0.15033  1.0000
  O  Te27      1.0  0.11532  0.32927  0.10674  1.0000
  O  Te28      1.0  0.20047  0.42132  0.46537  1.0000
  Mg  Mg13      1.0  0.12612  0.27128  0.02632  1.0000
  Mg  Mg14      1.0  0.25976  0.41581  0.58933  1.0000
  C  Sn29      1.0  0.81973  0.68428  0.19153  1.0000
  C   C119      1.0  0.77330  0.68385  0.24424  1.0000
  C  Sn30      1.0  0.75877  0.65504  0.36667  1.0000
  C  Sn31      1.0  0.79132  0.62606  0.43799  1.0000
  C   C120      1.0  0.83772  0.62650  0.38531  1.0000
  C  Sn32      1.0  0.85228  0.65530  0.26286  1.0000
  O  Te29      1.0  0.83349  0.71336  0.06897  1.0000
  O  Te30      1.0  0.71216  0.65520  0.41729  1.0000
  O  Te31      1.0  0.77752  0.59696  0.56064  1.0000
  O  Te32      1.0  0.89886  0.65515  0.21225  1.0000
  Mg  Mg15      1.0  0.71028  0.60952  0.58825  1.0000
  Mg  Mg16      1.0  0.90078  0.70083  0.04137  1.0000
  C  Sn33      1.0  0.70260  0.83625  0.81494  1.0000
  C   C121      1.0  0.70188  0.79409  0.76523  1.0000
  C  Sn34      1.0  0.67000  0.78112  0.64663  1.0000
  C  Sn35      1.0  0.63818  0.81091  0.57616  1.0000
  C   C122      1.0  0.63892  0.85304  0.62585  1.0000
  C  Sn36      1.0  0.67078  0.86605  0.74447  1.0000
  O  Te33      1.0  0.73477  0.84852  0.93369  1.0000
  O  Te34      1.0  0.66993  0.73879  0.59895  1.0000
  O  Te35      1.0  0.60599  0.79860  0.45733  1.0000
  O  Te36      1.0  0.67086  0.90834  0.79213  1.0000
  Mg  Mg17      1.0  0.61950  0.73744  0.43273  1.0000
  Mg  Mg18      1.0  0.72130  0.90974  0.95827  1.0000
  C  Sn37      1.0  0.30055  0.16479  0.82344  1.0000
  C   C123      1.0  0.30243  0.20762  0.77474  1.0000
  C  Sn38      1.0  0.33400  0.22137  0.65434  1.0000
  C  Sn39      1.0  0.36430  0.19170  0.58099  1.0000
  C   C124      1.0  0.36241  0.14890  0.62967  1.0000
  C  Sn40      1.0  0.33085  0.13512  0.75009  1.0000
  O  Te37      1.0  0.26871  0.15175  0.94403  1.0000
  O  Te38      1.0  0.33525  0.26434  0.60772  1.0000
  O  Te39      1.0  0.39616  0.20477  0.46032  1.0000
  O  Te40      1.0  0.32959  0.09218  0.79669  1.0000
  Mg  Mg19      1.0  0.38465  0.26664  0.43815  1.0000
  Mg  Mg20      1.0  0.28018  0.08985  0.96618  1.0000
  C  Sn41      1.0  0.29846  0.83740  0.67284  1.0000
  C   C125      1.0  0.29906  0.79469  0.72349  1.0000
  C  Sn42      1.0  0.32865  0.78089  0.85032  1.0000
  C  Sn43      1.0  0.35824  0.81041  0.92823  1.0000
  C   C126      1.0  0.35762  0.85310  0.87760  1.0000
  C  Sn44      1.0  0.32805  0.86692  0.75075  1.0000
  O  Te41      1.0  0.26859  0.85049  0.54580  1.0000
  O  Te42      1.0  0.32864  0.73803  0.89878  1.0000
  O  Te43      1.0  0.38761  0.80351  0.05535  1.0000
  O  Te44      1.0  0.32804  0.90976  0.70231  1.0000
  Mg  Mg21      1.0  0.37497  0.74184  0.07768  1.0000
  Mg  Mg22      1.0  0.28120  0.91220  0.52349  1.0000
  C  Sn45      1.0  0.70442  0.16143  0.69451  1.0000
  C   C127      1.0  0.70237  0.20417  0.73642  1.0000
  C  Sn46      1.0  0.66996  0.21780  0.85170  1.0000
  C  Sn47      1.0  0.63896  0.18808  0.92673  1.0000
  C   C128      1.0  0.64102  0.14538  0.88484  1.0000
  C  Sn48      1.0  0.67342  0.13172  0.76954  1.0000
  O  Te45      1.0  0.73711  0.14852  0.57896  1.0000
  O  Te46      1.0  0.66856  0.26069  0.89157  1.0000
  O  Te47      1.0  0.60575  0.20726  0.04236  1.0000
  O  Te48      1.0  0.67483  0.08886  0.72969  1.0000
  Mg  Mg23      1.0  0.61738  0.26904  0.05608  1.0000
  Mg  Mg24      1.0  0.72550  0.08669  0.56527  1.0000
  C  Sn49      1.0  0.76503  0.35220  0.55603  1.0000
  C   C129      1.0  0.76878  0.31386  0.64501  1.0000
  C  Sn50      1.0  0.80702  0.30624  0.74823  1.0000
  C  Sn51      1.0  0.84223  0.33761  0.76290  1.0000
  C   C130      1.0  0.83847  0.37593  0.67398  1.0000
  C  Sn52      1.0  0.80024  0.38357  0.57071  1.0000
  O  Te49      1.0  0.72649  0.35913  0.45359  1.0000
  O  Te50      1.0  0.81000  0.26766  0.83591  1.0000
  O  Te51      1.0  0.88078  0.33065  0.86545  1.0000
  O  Te52      1.0  0.79724  0.42212  0.48309  1.0000
  Mg  Mg25      1.0  0.86918  0.27310  0.95965  1.0000
  Mg  Mg26      1.0  0.73807  0.41673  0.35938  1.0000
  C  Sn53      1.0  0.15190  0.67990  0.70238  1.0000
  C   C131      1.0  0.15599  0.63984  0.63364  1.0000
  C  Sn54      1.0  0.19990  0.62135  0.61350  1.0000
  C  Sn55      1.0  0.24058  0.64335  0.66321  1.0000
  C   C132      1.0  0.23647  0.68337  0.73193  1.0000
  C  Sn56      1.0  0.19257  0.70189  0.75209  1.0000
  O  Te53      1.0  0.10764  0.69777  0.72136  1.0000
  O  Te54      1.0  0.20311  0.58128  0.54442  1.0000
  O  Te55      1.0  0.28485  0.62544  0.64417  1.0000
  O  Te56      1.0  0.18935  0.74194  0.82115  1.0000
  Mg  Mg27      1.0  0.27119  0.57016  0.54393  1.0000
  Mg  Mg28      1.0  0.12129  0.75307  0.82177  1.0000
  C  Sn57      1.0  0.15702  0.32228  0.77857  1.0000
  C   C133      1.0  0.15921  0.36123  0.85681  1.0000
  C  Sn58      1.0  0.20237  0.37953  0.89280  1.0000
  C  Sn59      1.0  0.24422  0.35847  0.84960  1.0000
  C   C134      1.0  0.24202  0.31954  0.77139  1.0000
  C  Sn60      1.0  0.19887  0.30121  0.73537  1.0000
  O  Te57      1.0  0.11350  0.30457  0.74377  1.0000
  O  Te58      1.0  0.20366  0.41849  0.97114  1.0000
  O  Te59      1.0  0.28776  0.37621  0.88447  1.0000
  O  Te60      1.0  0.19757  0.26228  0.65706  1.0000
  Mg  Mg29      1.0  0.27140  0.42982  0.99254  1.0000
  Mg  Mg30      1.0  0.12985  0.25094  0.63553  1.0000
  C  Sn61      1.0  0.84746  0.67690  0.79330  1.0000
  C   C135      1.0  0.84287  0.63720  0.87195  1.0000
  C  Sn62      1.0  0.79865  0.61993  0.90171  1.0000
  C  Sn63      1.0  0.75818  0.64281  0.85173  1.0000
  C   C136      1.0  0.76277  0.68248  0.77311  1.0000
  C  Sn64      1.0  0.80698  0.69978  0.74333  1.0000
  O  Te61      1.0  0.89200  0.69355  0.76480  1.0000
  O  Te62      1.0  0.79495  0.58019  0.98058  1.0000
  O  Te63      1.0  0.71361  0.62613  0.88030  1.0000
  O  Te64      1.0  0.81069  0.73949  0.66448  1.0000
  Mg  Mg31      1.0  0.72662  0.57086  0.99187  1.0000
  Mg  Mg32      1.0  0.87900  0.74884  0.65305  1.0000
