data_image0
_chemical_formula_structural       H88C152N16SnCSn2CSnTe4Mg2SnCSn2CSnTe4Mg2SnCSn2CSnTe4Mg2SnCSn2CSnTe4Mg2SnCSn2CSnTe4Mg2SnCSn2CSnTe4Mg2SnCSn2CSnTe4Mg2SnCSn2CSnTe4Mg2
_chemical_formula_sum              "H88 C168 N16 Sn32 Te32 Mg16"
_cell_length_a       28.6259
_cell_length_b       31.4867
_cell_length_c       8.15553
_cell_angle_alpha    88.6239
_cell_angle_beta     90.1013
_cell_angle_gamma    89.9945

_symmetry_space_group_name_H-M    'P1'
_space_group_IT_number       1

loop_
  _space_group_symop_operation_xyz
  'x, y, z'

loop_
  _atom_site_type_symbol
  _atom_site_label
  _atom_site_symmetry_multiplicity
  _atom_site_fract_x
  _atom_site_fract_y
  _atom_site_fract_z
  _atom_site_occupancy
  H   H1        1.0  0.54755  0.84436  0.22892  1.0000
  H   H2        1.0  0.45178  0.15588  0.25006  1.0000
  H   H3        1.0  0.45315  0.84494  0.26779  1.0000
  H   H4        1.0  0.54676  0.15714  0.29556  1.0000
  H   H5        1.0  0.64968  0.93783  0.07887  1.0000
  H   H6        1.0  0.35336  0.06295  0.08271  1.0000
  H   H7        1.0  0.35324  0.93664  0.43431  1.0000
  H   H8        1.0  0.65079  0.06403  0.43118  1.0000
  H   H9        1.0  0.59366  0.99590  0.12741  1.0000
  H   H10       1.0  0.41180  0.00569  0.12140  1.0000
  H   H11       1.0  0.41120  0.99434  0.39938  1.0000
  H   H12       1.0  0.59446  0.00575  0.39063  1.0000
  H   H13       1.0  0.40328  0.80237  0.43238  1.0000
  H   H14       1.0  0.60269  0.19649  0.47272  1.0000
  H   H15       1.0  0.34326  0.74715  0.37766  1.0000
  H   H16       1.0  0.66164  0.25279  0.40737  1.0000
  H   H17       1.0  0.25070  0.84383  0.18718  1.0000
  H   H18       1.0  0.74394  0.16194  0.14942  1.0000
  H   H19       1.0  0.31082  0.89868  0.23677  1.0000
  H   H20       1.0  0.68540  0.10604  0.21297  1.0000
  H   H21       1.0  0.77533  0.76833  0.30145  1.0000
  H   H22       1.0  0.22347  0.22805  0.31509  1.0000
  H   H23       1.0  0.22441  0.77206  0.19384  1.0000
  H   H24       1.0  0.77117  0.23206  0.15839  1.0000
  H   H25       1.0  0.82533  0.27357  0.29383  1.0000
  H   H26       1.0  0.17785  0.72401  0.35127  1.0000
  H   H27       1.0  0.88616  0.32790  0.24146  1.0000
  H   H28       1.0  0.11683  0.66973  0.30822  1.0000
  H   H29       1.0  0.78206  0.41322  0.04320  1.0000
  H   H30       1.0  0.21422  0.59536  0.03515  1.0000
  H   H31       1.0  0.72083  0.35881  0.09967  1.0000
  H   H32       1.0  0.27584  0.64948  0.08217  1.0000
  H   H33       1.0  0.92957  0.36953  0.04008  1.0000
  H   H34       1.0  0.06957  0.63931  0.08836  1.0000
  H   H35       1.0  0.06835  0.36402  0.39925  1.0000
  H   H36       1.0  0.92869  0.63394  0.42503  1.0000
  H   H37       1.0  0.99295  0.42149  0.08505  1.0000
  H   H38       1.0  0.00551  0.58722  0.11772  1.0000
  H   H39       1.0  0.00481  0.41632  0.36069  1.0000
  H   H40       1.0  0.99294  0.58318  0.37868  1.0000
  H   H41       1.0  0.82795  0.45627  0.23032  1.0000
  H   H42       1.0  0.17129  0.54371  0.21904  1.0000
  H   H43       1.0  0.17098  0.45766  0.25627  1.0000
  H   H44       1.0  0.82682  0.54174  0.27913  1.0000
  H   H45       1.0  0.54534  0.84291  0.73582  1.0000
  H   H46       1.0  0.45600  0.15666  0.72769  1.0000
  H   H47       1.0  0.45153  0.84341  0.78202  1.0000
  H   H48       1.0  0.54827  0.15545  0.77803  1.0000
  H   H49       1.0  0.64702  0.93603  0.57886  1.0000
  H   H50       1.0  0.35172  0.06614  0.58552  1.0000
  H   H51       1.0  0.34955  0.93595  0.92351  1.0000
  H   H52       1.0  0.64951  0.06131  0.92948  1.0000
  H   H53       1.0  0.59060  0.99418  0.62298  1.0000
  H   H54       1.0  0.40755  0.00705  0.62567  1.0000
  H   H55       1.0  0.40737  0.99380  0.88994  1.0000
  H   H56       1.0  0.59213  0.00384  0.88937  1.0000
  H   H57       1.0  0.40357  0.19833  0.54765  1.0000
  H   H58       1.0  0.39692  0.80344  0.96872  1.0000
  H   H59       1.0  0.34581  0.25556  0.60561  1.0000
  H   H60       1.0  0.33894  0.74693  0.90498  1.0000
  H   H61       1.0  0.25736  0.16373  0.84906  1.0000
  H   H62       1.0  0.25585  0.83893  0.63844  1.0000
  H   H63       1.0  0.31521  0.10706  0.79577  1.0000
  H   H64       1.0  0.31352  0.89509  0.70040  1.0000
  H   H65       1.0  0.77323  0.76789  0.82058  1.0000
  H   H66       1.0  0.23100  0.23441  0.82358  1.0000
  H   H67       1.0  0.22826  0.76842  0.65944  1.0000
  H   H68       1.0  0.77322  0.23111  0.68021  1.0000
  H   H69       1.0  0.17706  0.72517  0.82578  1.0000
  H   H70       1.0  0.18500  0.27897  0.65307  1.0000
  H   H71       1.0  0.11477  0.67188  0.78376  1.0000
  H   H72       1.0  0.12160  0.33122  0.68956  1.0000
  H   H73       1.0  0.21385  0.59024  0.55204  1.0000
  H   H74       1.0  0.21476  0.40982  0.96362  1.0000
  H   H75       1.0  0.27666  0.64328  0.59944  1.0000
  H   H76       1.0  0.27880  0.35764  0.92347  1.0000
  H   H77       1.0  0.92811  0.36624  0.54919  1.0000
  H   H78       1.0  0.06777  0.63680  0.58242  1.0000
  H   H79       1.0  0.07147  0.36161  0.89451  1.0000
  H   H80       1.0  0.93015  0.63120  0.93026  1.0000
  H   H81       1.0  0.99209  0.41771  0.59217  1.0000
  H   H82       1.0  0.00436  0.58417  0.61422  1.0000
  H   H83       1.0  0.00628  0.41209  0.85441  1.0000
  H   H84       1.0  0.99345  0.57919  0.88504  1.0000
  H   H85       1.0  0.82666  0.45628  0.71607  1.0000
  H   H86       1.0  0.16998  0.54344  0.73283  1.0000
  H   H87       1.0  0.17177  0.45927  0.77630  1.0000
  H   H88       1.0  0.82697  0.54155  0.77191  1.0000
  C   C1        1.0  0.46488  0.95220  0.31352  1.0000
  C   C2        1.0  0.53868  0.04848  0.31770  1.0000
  C   C3        1.0  0.53881  0.95286  0.20613  1.0000
  C   C4        1.0  0.46462  0.04850  0.21033  1.0000
  C   C5        1.0  0.86353  0.44909  0.19307  1.0000
  C   C6        1.0  0.13536  0.55293  0.19276  1.0000
  C   C7        1.0  0.13501  0.44885  0.28350  1.0000
  C   C8        1.0  0.86278  0.55024  0.30686  1.0000
  C   C9        1.0  0.47753  0.90943  0.28454  1.0000
  C   C10       1.0  0.52442  0.09156  0.29810  1.0000
  C   C11       1.0  0.52501  0.90970  0.22599  1.0000
  C   C12       1.0  0.47686  0.09142  0.23893  1.0000
  C   C13       1.0  0.55721  0.87719  0.20127  1.0000
  C   C14       1.0  0.44348  0.12343  0.21746  1.0000
  C   C15       1.0  0.44436  0.87715  0.30208  1.0000
  C   C16       1.0  0.55664  0.12426  0.32116  1.0000
  C   C17       1.0  0.60313  0.88723  0.15547  1.0000
  C   C18       1.0  0.39802  0.11319  0.16783  1.0000
  C   C19       1.0  0.39859  0.88694  0.34896  1.0000
  C   C20       1.0  0.60308  0.11443  0.36123  1.0000
  C   C21       1.0  0.61470  0.93025  0.12269  1.0000
  C   C22       1.0  0.38803  0.07068  0.12808  1.0000
  C   C23       1.0  0.38810  0.92924  0.39025  1.0000
  C   C24       1.0  0.61524  0.07150  0.39286  1.0000
  C   C25       1.0  0.58326  0.96320  0.14787  1.0000
  C   C26       1.0  0.42077  0.03820  0.14775  1.0000
  C   C27       1.0  0.42065  0.96196  0.37352  1.0000
  C   C28       1.0  0.58366  0.03841  0.37211  1.0000
  C   C29       1.0  0.36162  0.85453  0.33656  1.0000
  C   C30       1.0  0.63963  0.14734  0.34570  1.0000
  C   C31       1.0  0.37008  0.81137  0.37645  1.0000
  C   C32       1.0  0.63348  0.18907  0.40068  1.0000
  C   C33       1.0  0.33672  0.78046  0.34707  1.0000
  C   C34       1.0  0.66621  0.22056  0.36484  1.0000
  C   C35       1.0  0.29337  0.79165  0.27659  1.0000
  C   C36       1.0  0.70616  0.21129  0.27177  1.0000
  C   C37       1.0  0.28409  0.83479  0.24202  1.0000
  C   C38       1.0  0.71338  0.16929  0.22287  1.0000
  C   C39       1.0  0.31768  0.86568  0.27125  1.0000
  C   C40       1.0  0.68069  0.13784  0.25954  1.0000
  C   C41       1.0  0.74111  0.75699  0.25877  1.0000
  C   C42       1.0  0.25714  0.24018  0.26854  1.0000
  C   C43       1.0  0.25853  0.75981  0.23601  1.0000
  C   C44       1.0  0.73966  0.24377  0.22018  1.0000
  C   C45       1.0  0.76880  0.31240  0.19912  1.0000
  C   C46       1.0  0.23084  0.69085  0.21590  1.0000
  C   C47       1.0  0.81608  0.30370  0.23425  1.0000
  C   C48       1.0  0.18532  0.69662  0.27682  1.0000
  C   C49       1.0  0.85022  0.33442  0.20533  1.0000
  C   C50       1.0  0.15107  0.66601  0.25258  1.0000
  C   C51       1.0  0.83873  0.37486  0.14042  1.0000
  C   C52       1.0  0.16081  0.62881  0.16684  1.0000
  C   C53       1.0  0.79166  0.38271  0.09911  1.0000
  C   C54       1.0  0.20625  0.62344  0.10512  1.0000
  C   C55       1.0  0.75722  0.35236  0.12962  1.0000
  C   C56       1.0  0.24085  0.65360  0.13090  1.0000
  C   C57       1.0  0.87449  0.40870  0.13564  1.0000
  C   C58       1.0  0.12467  0.59552  0.15570  1.0000
  C   C59       1.0  0.12399  0.40664  0.32640  1.0000
  C   C60       1.0  0.87348  0.59176  0.35201  1.0000
  C   C61       1.0  0.92130  0.40015  0.09195  1.0000
  C   C62       1.0  0.07765  0.60656  0.12348  1.0000
  C   C63       1.0  0.07681  0.39631  0.35933  1.0000
  C   C64       1.0  0.92062  0.60216  0.38373  1.0000
  C   C65       1.0  0.95723  0.42932  0.11503  1.0000
  C   C66       1.0  0.04127  0.57733  0.13832  1.0000
  C   C67       1.0  0.04070  0.42566  0.33981  1.0000
  C   C68       1.0  0.95708  0.57371  0.35915  1.0000
  C   C69       1.0  0.94617  0.46811  0.18431  1.0000
  C   C70       1.0  0.05211  0.53576  0.18895  1.0000
  C   C71       1.0  0.05199  0.46679  0.28598  1.0000
  C   C72       1.0  0.94615  0.53368  0.30017  1.0000
  C   C73       1.0  0.89893  0.47890  0.21634  1.0000
  C   C74       1.0  0.09947  0.52304  0.21012  1.0000
  C   C75       1.0  0.09939  0.47895  0.26313  1.0000
  C   C76       1.0  0.89877  0.52121  0.28027  1.0000
  C   C77       1.0  0.46213  0.95143  0.81231  1.0000
  C   C78       1.0  0.53768  0.04711  0.80923  1.0000
  C   C79       1.0  0.53629  0.95140  0.70668  1.0000
  C   C80       1.0  0.46344  0.04834  0.70281  1.0000
  C   C81       1.0  0.86245  0.44830  0.68436  1.0000
  C   C82       1.0  0.13420  0.55203  0.70124  1.0000
  C   C83       1.0  0.13584  0.44919  0.79679  1.0000
  C   C84       1.0  0.86304  0.54941  0.80076  1.0000
  C   C85       1.0  0.47520  0.90840  0.78929  1.0000
  C   C86       1.0  0.52488  0.09035  0.78403  1.0000
  C   C87       1.0  0.52273  0.90832  0.73079  1.0000
  C   C88       1.0  0.47751  0.09110  0.72463  1.0000
  C   C89       1.0  0.55498  0.87568  0.70690  1.0000
  C   C90       1.0  0.44572  0.12428  0.70094  1.0000
  C   C91       1.0  0.44231  0.87598  0.81002  1.0000
  C   C92       1.0  0.55750  0.12260  0.80716  1.0000
  C   C93       1.0  0.60083  0.88556  0.65935  1.0000
  C   C94       1.0  0.39946  0.11533  0.65784  1.0000
  C   C95       1.0  0.39617  0.88590  0.85129  1.0000
  C   C96       1.0  0.60333  0.11232  0.85357  1.0000
  C   C97       1.0  0.61214  0.92851  0.62361  1.0000
  C   C98       1.0  0.38717  0.07287  0.62555  1.0000
  C   C99       1.0  0.38494  0.92849  0.88511  1.0000
  C   C100      1.0  0.61438  0.06926  0.88789  1.0000
  C   C101      1.0  0.58055  0.96151  0.64623  1.0000
  C   C102      1.0  0.41856  0.03933  0.64603  1.0000
  C   C103      1.0  0.41741  0.96132  0.86807  1.0000
  C   C104      1.0  0.58222  0.03659  0.86692  1.0000
  C   C105      1.0  0.36358  0.14873  0.66909  1.0000
  C   C106      1.0  0.35961  0.85315  0.83665  1.0000
  C   C107      1.0  0.37174  0.19096  0.61536  1.0000
  C   C108      1.0  0.36622  0.81105  0.89480  1.0000
  C   C109      1.0  0.33970  0.22290  0.64673  1.0000
  C   C110      1.0  0.33399  0.77947  0.86032  1.0000
  C   C111      1.0  0.29826  0.21348  0.73275  1.0000
  C   C112      1.0  0.29403  0.78902  0.76561  1.0000
  C   C113      1.0  0.28919  0.17114  0.78119  1.0000
  C   C114      1.0  0.28642  0.83131  0.71307  1.0000
  C   C115      1.0  0.32140  0.13930  0.75009  1.0000
  C   C116      1.0  0.31863  0.86289  0.74841  1.0000
  C   C117      1.0  0.74027  0.75629  0.76809  1.0000
  C   C118      1.0  0.26461  0.24611  0.77501  1.0000
  C   C119      1.0  0.26036  0.75665  0.71982  1.0000
  C   C120      1.0  0.73965  0.24273  0.72747  1.0000
  C   C121      1.0  0.23086  0.68830  0.71129  1.0000
  C   C122      1.0  0.23603  0.31439  0.78867  1.0000
  C   C123      1.0  0.18457  0.69633  0.75986  1.0000
  C   C124      1.0  0.19095  0.30688  0.72636  1.0000
  C   C125      1.0  0.14971  0.66625  0.73658  1.0000
  C   C126      1.0  0.15541  0.33637  0.74681  1.0000
  C   C127      1.0  0.15959  0.62728  0.66363  1.0000
  C   C128      1.0  0.16335  0.37423  0.83027  1.0000
  C   C129      1.0  0.20578  0.61979  0.61252  1.0000
  C   C130      1.0  0.20827  0.38125  0.89466  1.0000
  C   C131      1.0  0.24099  0.64939  0.63790  1.0000
  C   C132      1.0  0.24423  0.35215  0.87278  1.0000
  C   C133      1.0  0.87313  0.40729  0.63302  1.0000
  C   C134      1.0  0.12327  0.59411  0.65695  1.0000
  C   C135      1.0  0.12602  0.40652  0.83455  1.0000
  C   C136      1.0  0.87434  0.59050  0.85011  1.0000
  C   C137      1.0  0.92003  0.39755  0.59526  1.0000
  C   C138      1.0  0.07621  0.60441  0.62151  1.0000
  C   C139      1.0  0.07897  0.39446  0.85943  1.0000
  C   C140      1.0  0.92155  0.59987  0.88548  1.0000
  C   C141      1.0  0.95633  0.42635  0.61795  1.0000
  C   C142      1.0  0.04015  0.57481  0.63731  1.0000
  C   C143      1.0  0.04191  0.42281  0.83849  1.0000
  C   C144      1.0  0.95747  0.57079  0.86152  1.0000
  C   C145      1.0  0.94555  0.46583  0.68210  1.0000
  C   C146      1.0  0.05132  0.53361  0.69147  1.0000
  C   C147      1.0  0.05206  0.46458  0.78893  1.0000
  C   C148      1.0  0.94602  0.53138  0.79819  1.0000
  C   C149      1.0  0.89830  0.47759  0.70941  1.0000
  C   C150      1.0  0.09868  0.52191  0.71859  1.0000
  C   C151      1.0  0.09924  0.47803  0.77267  1.0000
  C   C152      1.0  0.89855  0.51986  0.77403  1.0000
  N   N1        1.0  0.26713  0.71955  0.24475  1.0000
  N   N2        1.0  0.73290  0.28387  0.24000  1.0000
  N   N3        1.0  0.73168  0.71690  0.25481  1.0000
  N   N4        1.0  0.26526  0.28043  0.25314  1.0000
  N   N5        1.0  0.50223  0.97850  0.26297  1.0000
  N   N6        1.0  0.50208  0.02253  0.26252  1.0000
  N   N7        1.0  0.97484  0.50127  0.23944  1.0000
  N   N8        1.0  0.02338  0.50132  0.23751  1.0000
  N   N9        1.0  0.26734  0.71648  0.74440  1.0000
  N   N10       1.0  0.73075  0.28289  0.73300  1.0000
  N   N11       1.0  0.73248  0.71613  0.75439  1.0000
  N   N12       1.0  0.27302  0.28632  0.76070  1.0000
  N   N13       1.0  0.49956  0.97749  0.75978  1.0000
  N   N14       1.0  0.50015  0.02163  0.75737  1.0000
  N   N15       1.0  0.97446  0.49854  0.73929  1.0000
  N   N16       1.0  0.02299  0.49860  0.73714  1.0000
  C  Sn1       1.0  0.29376  0.15860  0.31376  1.0000
  C   C153      1.0  0.29546  0.20191  0.27249  1.0000
  C  Sn2       1.0  0.32926  0.21760  0.16359  1.0000
  C  Sn3       1.0  0.36203  0.18943  0.09440  1.0000
  C   C154      1.0  0.36032  0.14615  0.13564  1.0000
  C  Sn4       1.0  0.32654  0.13042  0.24457  1.0000
  O  Te1       1.0  0.25967  0.14361  0.42289  1.0000
  O  Te2       1.0  0.33026  0.26103  0.12423  1.0000
  O  Te3       1.0  0.39664  0.19824  0.98519  1.0000
  O  Te4       1.0  0.32552  0.08703  0.28390  1.0000
  Mg  Mg1       1.0  0.38381  0.25998  0.96957  1.0000
  Mg  Mg2       1.0  0.27248  0.08182  0.43847  1.0000
  C  Sn5       1.0  0.81973  0.68428  0.19153  1.0000
  C   C155      1.0  0.77330  0.68385  0.24424  1.0000
  C  Sn6       1.0  0.75877  0.65504  0.36667  1.0000
  C  Sn7       1.0  0.79132  0.62606  0.43799  1.0000
  C   C156      1.0  0.83772  0.62650  0.38531  1.0000
  C  Sn8       1.0  0.85228  0.65530  0.26286  1.0000
  O  Te5       1.0  0.83349  0.71336  0.06897  1.0000
  O  Te6       1.0  0.71216  0.65520  0.41729  1.0000
  O  Te7       1.0  0.77752  0.59696  0.56064  1.0000
  O  Te8       1.0  0.89886  0.65515  0.21225  1.0000
  Mg  Mg3       1.0  0.71028  0.60952  0.58825  1.0000
  Mg  Mg4       1.0  0.90078  0.70083  0.04137  1.0000
  C  Sn9       1.0  0.23177  0.35084  0.40885  1.0000
  C   C157      1.0  0.22745  0.31222  0.32926  1.0000
  C  Sn10      1.0  0.18898  0.30459  0.22858  1.0000
  C  Sn11      1.0  0.15410  0.33624  0.20691  1.0000
  C   C158      1.0  0.15843  0.37483  0.28644  1.0000
  C  Sn12      1.0  0.19689  0.38248  0.38718  1.0000
  O  Te9       1.0  0.27053  0.35777  0.50892  1.0000
  O  Te10      1.0  0.18542  0.26573  0.15033  1.0000
  O  Te11      1.0  0.11532  0.32927  0.10674  1.0000
  O  Te12      1.0  0.20047  0.42132  0.46537  1.0000
  Mg  Mg5       1.0  0.12612  0.27128  0.02632  1.0000
  Mg  Mg6       1.0  0.25976  0.41581  0.58933  1.0000
  C  Sn13      1.0  0.66154  0.78756  0.58360  1.0000
  C   C159      1.0  0.70399  0.79104  0.66712  1.0000
  C  Sn14      1.0  0.71251  0.82567  0.76679  1.0000
  C  Sn15      1.0  0.67787  0.85749  0.78342  1.0000
  C   C160      1.0  0.63545  0.85400  0.69996  1.0000
  C  Sn16      1.0  0.62690  0.81938  0.60024  1.0000
  O  Te13      1.0  0.65377  0.75267  0.48463  1.0000
  O  Te14      1.0  0.75522  0.82846  0.84902  1.0000
  O  Te15      1.0  0.68567  0.89240  0.88249  1.0000
  O  Te16      1.0  0.58422  0.81657  0.51807  1.0000
  Mg  Mg7       1.0  0.74934  0.88202  0.96962  1.0000
  Mg  Mg8       1.0  0.59005  0.76302  0.39751  1.0000
  C  Sn17      1.0  0.76686  0.64642  0.92928  1.0000
  C   C161      1.0  0.77066  0.68488  0.84113  1.0000
  C  Sn18      1.0  0.80872  0.69245  0.73755  1.0000
  C  Sn19      1.0  0.84370  0.66093  0.72163  1.0000
  C   C162      1.0  0.83989  0.62250  0.80972  1.0000
  C  Sn20      1.0  0.80185  0.61490  0.91336  1.0000
  O  Te17      1.0  0.72800  0.64575  0.03211  1.0000
  O  Te18      1.0  0.81176  0.73115  0.65072  1.0000
  O  Te19      1.0  0.88207  0.66785  0.61869  1.0000
  O  Te20      1.0  0.79829  0.58245  0.00013  1.0000
  Mg  Mg9       1.0  0.87063  0.72559  0.52600  1.0000
  Mg  Mg10      1.0  0.73942  0.58796  0.12482  1.0000
  C  Sn21      1.0  0.66007  0.78732  0.08786  1.0000
  C   C163      1.0  0.70404  0.79103  0.16081  1.0000
  C  Sn22      1.0  0.71531  0.82693  0.25008  1.0000
  C  Sn23      1.0  0.68193  0.85982  0.26689  1.0000
  C   C164      1.0  0.63798  0.85611  0.19399  1.0000
  C  Sn24      1.0  0.62668  0.82021  0.10466  1.0000
  O  Te21      1.0  0.65006  0.74492  0.99918  1.0000
  O  Te22      1.0  0.75951  0.82992  0.32185  1.0000
  O  Te23      1.0  0.69248  0.89602  0.35565  1.0000
  O  Te24      1.0  0.58251  0.81721  0.03295  1.0000
  Mg  Mg11      1.0  0.75732  0.88541  0.43074  1.0000
  Mg  Mg12      1.0  0.58516  0.75551  0.92411  1.0000
  C  Sn25      1.0  0.66155  0.21216  0.91430  1.0000
  C   C165      1.0  0.70406  0.20877  0.83163  1.0000
  C  Sn26      1.0  0.71375  0.17305  0.73924  1.0000
  C  Sn27      1.0  0.68024  0.14003  0.72918  1.0000
  C   C166      1.0  0.63776  0.14343  0.81178  1.0000
  C  Sn28      1.0  0.62804  0.17914  0.90423  1.0000
  O  Te25      1.0  0.65210  0.25438  0.00593  1.0000
  O  Te26      1.0  0.75650  0.17037  0.65772  1.0000
  O  Te27      1.0  0.68922  0.10401  0.63744  1.0000
  O  Te28      1.0  0.58532  0.18183  0.98569  1.0000
  Mg  Mg13      1.0  0.75246  0.11503  0.54833  1.0000
  Mg  Mg14      1.0  0.58881  0.24338  0.09505  1.0000
  C  Sn29      1.0  0.76503  0.35220  0.55603  1.0000
  C   C167      1.0  0.76878  0.31386  0.64501  1.0000
  C  Sn30      1.0  0.80702  0.30624  0.74823  1.0000
  C  Sn31      1.0  0.84223  0.33761  0.76290  1.0000
  C   C168      1.0  0.83847  0.37593  0.67398  1.0000
  C  Sn32      1.0  0.80024  0.38357  0.57071  1.0000
  O  Te29      1.0  0.72649  0.35913  0.45359  1.0000
  O  Te30      1.0  0.81000  0.26766  0.83591  1.0000
  O  Te31      1.0  0.88078  0.33065  0.86545  1.0000
  O  Te32      1.0  0.79724  0.42212  0.48309  1.0000
  Mg  Mg15      1.0  0.86918  0.27310  0.95965  1.0000
  Mg  Mg16      1.0  0.73807  0.41673  0.35938  1.0000
