data_image0
_chemical_formula_structural       H48C84N12C2Sn2C2HTe2HMgC2Sn2C2HTe2HMgC2Sn2C2HTe2HMgC2Sn2C2HTe2HMg
_chemical_formula_sum              "H56 C100 N12 Sn8 Te8 Mg4"
_cell_length_a       18.0511
_cell_length_b       18.2905
_cell_length_c       9.30196
_cell_angle_alpha    95.6491
_cell_angle_beta     89.3011
_cell_angle_gamma    89.8138

_symmetry_space_group_name_H-M    'P1'
_space_group_IT_number       1

loop_
  _space_group_symop_operation_xyz
  'x, y, z'

loop_
  _atom_site_type_symbol
  _atom_site_label
  _atom_site_symmetry_multiplicity
  _atom_site_fract_x
  _atom_site_fract_y
  _atom_site_fract_z
  _atom_site_occupancy
  H   H1        1.0  0.74206  0.90769  0.07224  1.0000
  H   H2        1.0  0.65447  0.01001  0.14868  1.0000
  H   H3        1.0  0.59230  0.74967  0.22946  1.0000
  H   H4        1.0  0.38445  0.01803  0.45601  1.0000
  H   H5        1.0  0.29460  0.92022  0.50670  1.0000
  H   H6        1.0  0.43566  0.75328  0.28682  1.0000
  H   H7        1.0  0.77708  0.78021  0.05328  1.0000
  H   H8        1.0  0.25905  0.78877  0.49514  1.0000
  H   H9        1.0  0.99401  0.67857  0.11929  1.0000
  H   H10       1.0  0.88162  0.75182  0.10193  1.0000
  H   H11       1.0  0.76841  0.61696  0.38757  1.0000
  H   H12       1.0  0.88327  0.54521  0.40932  1.0000
  H   H13       1.0  0.46678  0.29213  0.27140  1.0000
  H   H14       1.0  0.61602  0.28239  0.32286  1.0000
  H   H15       1.0  0.66222  0.02150  0.42319  1.0000
  H   H16       1.0  0.34424  0.33822  0.22798  1.0000
  H   H17       1.0  0.76099  0.11590  0.45906  1.0000
  H   H18       1.0  0.80980  0.22018  0.92404  1.0000
  H   H19       1.0  0.37379  0.03281  0.19889  1.0000
  H   H20       1.0  0.29105  0.13911  0.16026  1.0000
  H   H21       1.0  0.14880  0.75341  0.95190  1.0000
  H   H22       1.0  0.03752  0.67875  0.92182  1.0000
  H   H23       1.0  0.02500  0.35571  0.58341  1.0000
  H   H24       1.0  0.12977  0.26831  0.55188  1.0000
  H   H25       1.0  0.24943  0.40218  0.87572  1.0000
  H   H26       1.0  0.14852  0.49380  0.89239  1.0000
  H   H27       1.0  0.73619  0.90631  0.56417  1.0000
  H   H28       1.0  0.64713  0.00826  0.63898  1.0000
  H   H29       1.0  0.59151  0.74887  0.73757  1.0000
  H   H30       1.0  0.38179  0.01781  0.95534  1.0000
  H   H31       1.0  0.28987  0.92107  0.00172  1.0000
  H   H32       1.0  0.42991  0.75235  0.78401  1.0000
  H   H33       1.0  0.77501  0.78285  0.55619  1.0000
  H   H34       1.0  0.24564  0.80055  0.96981  1.0000
  H   H35       1.0  0.86827  0.49192  0.62628  1.0000
  H   H36       1.0  0.76053  0.41402  0.67289  1.0000
  H   H37       1.0  0.89522  0.28913  0.94012  1.0000
  H   H38       1.0  0.00120  0.36577  0.89181  1.0000
  H   H39       1.0  0.14339  0.53782  0.58403  1.0000
  H   H40       1.0  0.25638  0.61545  0.60933  1.0000
  H   H41       1.0  0.46513  0.29167  0.78316  1.0000
  H   H42       1.0  0.61660  0.27873  0.83542  1.0000
  H   H43       1.0  0.65501  0.01441  0.92048  1.0000
  H   H44       1.0  0.34387  0.33983  0.73874  1.0000
  H   H45       1.0  0.75661  0.10618  0.96307  1.0000
  H   H46       1.0  0.81122  0.23050  0.41682  1.0000
  H   H47       1.0  0.36967  0.03373  0.69612  1.0000
  H   H48       1.0  0.28800  0.14169  0.66261  1.0000
  C   C1        1.0  0.67390  0.82319  0.15171  1.0000
  C   C2        1.0  0.68872  0.89596  0.12075  1.0000
  C   C3        1.0  0.63994  0.95363  0.16199  1.0000
  C   C4        1.0  0.57342  0.93618  0.22827  1.0000
  C   C5        1.0  0.55280  0.86216  0.24267  1.0000
  C   C6        1.0  0.01576  0.48328  0.24281  1.0000
  C   C7        1.0  0.60438  0.80591  0.20855  1.0000
  C   C8        1.0  0.01674  0.55908  0.25271  1.0000
  C   C9        1.0  0.46133  0.93944  0.34719  1.0000
  C   C10       1.0  0.39634  0.96062  0.42274  1.0000
  C   C11       1.0  0.34632  0.90538  0.44949  1.0000
  C   C12       1.0  0.35838  0.83117  0.39507  1.0000
  C   C13       1.0  0.42607  0.81051  0.32642  1.0000
  C   C14       1.0  0.47908  0.86423  0.30704  1.0000
  C   C15       1.0  0.73679  0.77207  0.13986  1.0000
  C   C16       1.0  0.29609  0.77999  0.40005  1.0000
  C   C17       1.0  0.94710  0.60337  0.25879  1.0000
  C   C18       1.0  0.94431  0.66437  0.17721  1.0000
  C   C19       1.0  0.88031  0.70554  0.16675  1.0000
  C   C20       1.0  0.81439  0.68698  0.23724  1.0000
  C   C21       1.0  0.81781  0.62896  0.32611  1.0000
  C   C22       1.0  0.88267  0.58869  0.33787  1.0000
  C   C23       1.0  0.37291  0.22163  0.21568  1.0000
  C   C24       1.0  0.34826  0.14793  0.19249  1.0000
  C   C25       1.0  0.39386  0.08884  0.21469  1.0000
  C   C26       1.0  0.46570  0.10449  0.26306  1.0000
  C   C27       1.0  0.49303  0.17745  0.28021  1.0000
  C   C28       1.0  0.44657  0.23592  0.25545  1.0000
  C   C29       1.0  0.58315  0.09963  0.35328  1.0000
  C   C30       1.0  0.65134  0.07814  0.40501  1.0000
  C   C31       1.0  0.70647  0.13132  0.42293  1.0000
  C   C32       1.0  0.69498  0.20419  0.38875  1.0000
  C   C33       1.0  0.62435  0.22605  0.34739  1.0000
  C   C34       1.0  0.56836  0.17405  0.33015  1.0000
  C   C35       1.0  0.32096  0.28255  0.20945  1.0000
  C   C36       1.0  0.75870  0.25221  0.37959  1.0000
  C   C37       1.0  0.14433  0.44516  0.81605  1.0000
  C   C38       1.0  0.67044  0.82239  0.65176  1.0000
  C   C39       1.0  0.68355  0.89462  0.61536  1.0000
  C   C40       1.0  0.63403  0.95181  0.65492  1.0000
  C   C41       1.0  0.56852  0.93408  0.72393  1.0000
  C   C42       1.0  0.54881  0.86023  0.74228  1.0000
  C   C43       1.0  0.01192  0.48106  0.74787  1.0000
  C   C44       1.0  0.60159  0.80468  0.71137  1.0000
  C   C45       1.0  0.01297  0.55671  0.75344  1.0000
  C   C46       1.0  0.45718  0.93811  0.84493  1.0000
  C   C47       1.0  0.08228  0.60063  0.75463  1.0000
  C   C48       1.0  0.39258  0.96033  0.92056  1.0000
  C   C49       1.0  0.07951  0.43360  0.73457  1.0000
  C   C50       1.0  0.34158  0.90578  0.94498  1.0000
  C   C51       1.0  0.14487  0.58460  0.66540  1.0000
  C   C52       1.0  0.35261  0.83161  0.88886  1.0000
  C   C53       1.0  0.20857  0.62749  0.68023  1.0000
  C   C54       1.0  0.42094  0.80966  0.82375  1.0000
  C   C55       1.0  0.21299  0.68824  0.78548  1.0000
  C   C56       1.0  0.47483  0.86266  0.80629  1.0000
  C   C57       1.0  0.14925  0.70625  0.87110  1.0000
  C   C58       1.0  0.73446  0.77272  0.64118  1.0000
  C   C59       1.0  0.08590  0.66378  0.85462  1.0000
  C   C60       1.0  0.28845  0.78317  0.88845  1.0000
  C   C61       1.0  0.07599  0.36827  0.64084  1.0000
  C   C62       1.0  0.13372  0.31812  0.62542  1.0000
  C   C63       1.0  0.94330  0.43678  0.76006  1.0000
  C   C64       1.0  0.19845  0.33008  0.70682  1.0000
  C   C65       1.0  0.20238  0.39432  0.80394  1.0000
  C   C66       1.0  0.87438  0.44840  0.69670  1.0000
  C   C67       1.0  0.81352  0.40468  0.72271  1.0000
  C   C68       1.0  0.81889  0.34615  0.81028  1.0000
  C   C69       1.0  0.88835  0.33280  0.87002  1.0000
  C   C70       1.0  0.94824  0.37684  0.84448  1.0000
  C   C71       1.0  0.37108  0.22266  0.72191  1.0000
  C   C72       1.0  0.34536  0.14947  0.69497  1.0000
  C   C73       1.0  0.39028  0.08949  0.71414  1.0000
  C   C74       1.0  0.46231  0.10376  0.76296  1.0000
  C   C75       1.0  0.49048  0.17633  0.78530  1.0000
  C   C76       1.0  0.44469  0.23568  0.76333  1.0000
  C   C77       1.0  0.57925  0.09597  0.85382  1.0000
  C   C78       1.0  0.64641  0.07181  0.90523  1.0000
  C   C79       1.0  0.70269  0.12349  0.92714  1.0000
  C   C80       1.0  0.69299  0.19720  0.89639  1.0000
  C   C81       1.0  0.62295  0.22162  0.85645  1.0000
  C   C82       1.0  0.56569  0.17117  0.83572  1.0000
  C   C83       1.0  0.32017  0.28447  0.71742  1.0000
  C   C84       1.0  0.75788  0.24371  0.88782  1.0000
  N   N1        1.0  0.28353  0.73095  0.29330  1.0000
  N   N2        1.0  0.25116  0.27085  0.18882  1.0000
  N   N3        1.0  0.51814  0.98230  0.29496  1.0000
  N   N4        1.0  0.74693  0.72572  0.23440  1.0000
  N   N5        1.0  0.75487  0.31294  0.31921  1.0000
  N   N6        1.0  0.52060  0.05794  0.31006  1.0000
  N   N7        1.0  0.28003  0.72781  0.79208  1.0000
  N   N8        1.0  0.25065  0.27343  0.69378  1.0000
  N   N9        1.0  0.51335  0.98040  0.79016  1.0000
  N   N10       1.0  0.74500  0.72573  0.73429  1.0000
  N   N11       1.0  0.75470  0.30508  0.82954  1.0000
  N   N12       1.0  0.51666  0.05579  0.80662  1.0000
  C   C85       1.0  0.16898  0.58901  0.15948  1.0000
  C   C86       1.0  0.10259  0.59593  0.23859  1.0000
  C  Sn1       1.0  0.09111  0.65569  0.34214  1.0000
  C  Sn2       1.0  0.14723  0.70945  0.36669  1.0000
  C   C87       1.0  0.21343  0.70206  0.28690  1.0000
  C   C88       1.0  0.22435  0.64203  0.18357  1.0000
  H   H49       1.0  0.17742  0.54259  0.07947  1.0000
  O  Te1       1.0  0.02446  0.66174  0.42026  1.0000
  O  Te2       1.0  0.13720  0.76974  0.46949  1.0000
  H   H50       1.0  0.27574  0.63672  0.12227  1.0000
  Mg  Mg1       1.0  0.03687  0.75377  0.54865  1.0000
  C   C89       1.0  0.89631  0.69642  0.64345  1.0000
  C   C90       1.0  0.82725  0.69014  0.71057  1.0000
  C  Sn3       1.0  0.81736  0.64072  0.81446  1.0000
  C  Sn4       1.0  0.87783  0.59685  0.85166  1.0000
  C   C91       1.0  0.94671  0.60358  0.78397  1.0000
  C   C92       1.0  0.95599  0.65320  0.68012  1.0000
  H   H51       1.0  0.90351  0.73484  0.56316  1.0000
  O  Te3       1.0  0.74798  0.63511  0.88043  1.0000
  O  Te4       1.0  0.86949  0.54703  0.95517  1.0000
  H   H52       1.0  0.00948  0.65808  0.62824  1.0000
  Mg  Mg2       1.0  0.77062  0.50919  0.01496  1.0000
  C   C93       1.0  0.19875  0.41210  0.30906  1.0000
  C   C94       1.0  0.19969  0.34156  0.23610  1.0000
  C  Sn5       1.0  0.13999  0.31701  0.15041  1.0000
  C  Sn6       1.0  0.07828  0.36409  0.13772  1.0000
  C   C95       1.0  0.07789  0.43458  0.21107  1.0000
  C   C96       1.0  0.13792  0.45858  0.29656  1.0000
  H   H53       1.0  0.24521  0.43069  0.37515  1.0000
  O  Te5       1.0  0.14182  0.24635  0.07829  1.0000
  O  Te6       1.0  0.01789  0.34095  0.05276  1.0000
  H   H54       1.0  0.13719  0.51322  0.35296  1.0000
  Mg  Mg3       1.0  0.03981  0.28995  0.97549  1.0000
  C   C97       1.0  0.90446  0.35107  0.38896  1.0000
  C   C98       1.0  0.83335  0.35468  0.33225  1.0000
  C  Sn7       1.0  0.81911  0.39990  0.22306  1.0000
  C  Sn8       1.0  0.87725  0.44221  0.16986  1.0000
  C   C99       1.0  0.94821  0.43817  0.22724  1.0000
  C   C100      1.0  0.96184  0.39276  0.33650  1.0000
  H   H55       1.0  0.91503  0.31591  0.47344  1.0000
  O  Te7       1.0  0.74774  0.40287  0.16765  1.0000
  O  Te8       1.0  0.86455  0.48783  0.06075  1.0000
  H   H56       1.0  0.01691  0.38994  0.38033  1.0000
  Mg  Mg4       1.0  0.75794  0.47324  0.01988  1.0000
