data_image0
_chemical_formula_structural       H32C60N12C2Sn2C2HTe2HMgC2Sn2C2HTe2HMgC2Sn2C2HTe2HMgC2Sn2C2HTe2HMgC2Sn2C2HTe2HMgC2Sn2C2HTe2HMgC2Sn2C2HTe2HMgC2Sn2C2HTe2HMg
_chemical_formula_sum              "H48 C92 N12 Sn16 Te16 Mg8"
_cell_length_a       18.0511
_cell_length_b       18.2905
_cell_length_c       9.30196
_cell_angle_alpha    95.6491
_cell_angle_beta     89.3011
_cell_angle_gamma    89.8138

_symmetry_space_group_name_H-M    'P1'
_space_group_IT_number       1

loop_
  _space_group_symop_operation_xyz
  'x, y, z'

loop_
  _atom_site_type_symbol
  _atom_site_label
  _atom_site_symmetry_multiplicity
  _atom_site_fract_x
  _atom_site_fract_y
  _atom_site_fract_z
  _atom_site_occupancy
  H   H1        1.0  0.74206  0.90769  0.07224  1.0000
  H   H2        1.0  0.65447  0.01001  0.14868  1.0000
  H   H3        1.0  0.59230  0.74967  0.22946  1.0000
  H   H4        1.0  0.38445  0.01803  0.45601  1.0000
  H   H5        1.0  0.29460  0.92022  0.50670  1.0000
  H   H6        1.0  0.43566  0.75328  0.28682  1.0000
  H   H7        1.0  0.77708  0.78021  0.05328  1.0000
  H   H8        1.0  0.25905  0.78877  0.49514  1.0000
  H   H9        1.0  0.46678  0.29213  0.27140  1.0000
  H   H10       1.0  0.61602  0.28239  0.32286  1.0000
  H   H11       1.0  0.66222  0.02150  0.42319  1.0000
  H   H12       1.0  0.34424  0.33822  0.22798  1.0000
  H   H13       1.0  0.76099  0.11590  0.45906  1.0000
  H   H14       1.0  0.80980  0.22018  0.92404  1.0000
  H   H15       1.0  0.37379  0.03281  0.19889  1.0000
  H   H16       1.0  0.29105  0.13911  0.16026  1.0000
  H   H17       1.0  0.73619  0.90631  0.56417  1.0000
  H   H18       1.0  0.64713  0.00826  0.63898  1.0000
  H   H19       1.0  0.59151  0.74887  0.73757  1.0000
  H   H20       1.0  0.38179  0.01781  0.95534  1.0000
  H   H21       1.0  0.28987  0.92107  0.00172  1.0000
  H   H22       1.0  0.42991  0.75235  0.78401  1.0000
  H   H23       1.0  0.77501  0.78285  0.55619  1.0000
  H   H24       1.0  0.24564  0.80055  0.96981  1.0000
  H   H25       1.0  0.46513  0.29167  0.78316  1.0000
  H   H26       1.0  0.61660  0.27873  0.83542  1.0000
  H   H27       1.0  0.65501  0.01441  0.92048  1.0000
  H   H28       1.0  0.34387  0.33983  0.73874  1.0000
  H   H29       1.0  0.75661  0.10618  0.96307  1.0000
  H   H30       1.0  0.81122  0.23050  0.41682  1.0000
  H   H31       1.0  0.36967  0.03373  0.69612  1.0000
  H   H32       1.0  0.28800  0.14169  0.66261  1.0000
  C   C1        1.0  0.67390  0.82319  0.15171  1.0000
  C   C2        1.0  0.68872  0.89596  0.12075  1.0000
  C   C3        1.0  0.63994  0.95363  0.16199  1.0000
  C   C4        1.0  0.57342  0.93618  0.22827  1.0000
  C   C5        1.0  0.55280  0.86216  0.24267  1.0000
  C   C6        1.0  0.01576  0.48328  0.24281  1.0000
  C   C7        1.0  0.60438  0.80591  0.20855  1.0000
  C   C8        1.0  0.01674  0.55908  0.25271  1.0000
  C   C9        1.0  0.46133  0.93944  0.34719  1.0000
  C   C10       1.0  0.39634  0.96062  0.42274  1.0000
  C   C11       1.0  0.34632  0.90538  0.44949  1.0000
  C   C12       1.0  0.35838  0.83117  0.39507  1.0000
  C   C13       1.0  0.42607  0.81051  0.32642  1.0000
  C   C14       1.0  0.47908  0.86423  0.30704  1.0000
  C   C15       1.0  0.73679  0.77207  0.13986  1.0000
  C   C16       1.0  0.29609  0.77999  0.40005  1.0000
  C   C17       1.0  0.37291  0.22163  0.21568  1.0000
  C   C18       1.0  0.34826  0.14793  0.19249  1.0000
  C   C19       1.0  0.39386  0.08884  0.21469  1.0000
  C   C20       1.0  0.46570  0.10449  0.26306  1.0000
  C   C21       1.0  0.49303  0.17745  0.28021  1.0000
  C   C22       1.0  0.44657  0.23592  0.25545  1.0000
  C   C23       1.0  0.58315  0.09963  0.35328  1.0000
  C   C24       1.0  0.65134  0.07814  0.40501  1.0000
  C   C25       1.0  0.70647  0.13132  0.42293  1.0000
  C   C26       1.0  0.69498  0.20419  0.38875  1.0000
  C   C27       1.0  0.62435  0.22605  0.34739  1.0000
  C   C28       1.0  0.56836  0.17405  0.33015  1.0000
  C   C29       1.0  0.32096  0.28255  0.20945  1.0000
  C   C30       1.0  0.75870  0.25221  0.37959  1.0000
  C   C31       1.0  0.67044  0.82239  0.65176  1.0000
  C   C32       1.0  0.68355  0.89462  0.61536  1.0000
  C   C33       1.0  0.63403  0.95181  0.65492  1.0000
  C   C34       1.0  0.56852  0.93408  0.72393  1.0000
  C   C35       1.0  0.54881  0.86023  0.74228  1.0000
  C   C36       1.0  0.01192  0.48106  0.74787  1.0000
  C   C37       1.0  0.60159  0.80468  0.71137  1.0000
  C   C38       1.0  0.01297  0.55671  0.75344  1.0000
  C   C39       1.0  0.45718  0.93811  0.84493  1.0000
  C   C40       1.0  0.39258  0.96033  0.92056  1.0000
  C   C41       1.0  0.34158  0.90578  0.94498  1.0000
  C   C42       1.0  0.35261  0.83161  0.88886  1.0000
  C   C43       1.0  0.42094  0.80966  0.82375  1.0000
  C   C44       1.0  0.47483  0.86266  0.80629  1.0000
  C   C45       1.0  0.73446  0.77272  0.64118  1.0000
  C   C46       1.0  0.28845  0.78317  0.88845  1.0000
  C   C47       1.0  0.37108  0.22266  0.72191  1.0000
  C   C48       1.0  0.34536  0.14947  0.69497  1.0000
  C   C49       1.0  0.39028  0.08949  0.71414  1.0000
  C   C50       1.0  0.46231  0.10376  0.76296  1.0000
  C   C51       1.0  0.49048  0.17633  0.78530  1.0000
  C   C52       1.0  0.44469  0.23568  0.76333  1.0000
  C   C53       1.0  0.57925  0.09597  0.85382  1.0000
  C   C54       1.0  0.64641  0.07181  0.90523  1.0000
  C   C55       1.0  0.70269  0.12349  0.92714  1.0000
  C   C56       1.0  0.69299  0.19720  0.89639  1.0000
  C   C57       1.0  0.62295  0.22162  0.85645  1.0000
  C   C58       1.0  0.56569  0.17117  0.83572  1.0000
  C   C59       1.0  0.32017  0.28447  0.71742  1.0000
  C   C60       1.0  0.75788  0.24371  0.88782  1.0000
  N   N1        1.0  0.28353  0.73095  0.29330  1.0000
  N   N2        1.0  0.25116  0.27085  0.18882  1.0000
  N   N3        1.0  0.51814  0.98230  0.29496  1.0000
  N   N4        1.0  0.74693  0.72572  0.23440  1.0000
  N   N5        1.0  0.75487  0.31294  0.31921  1.0000
  N   N6        1.0  0.52060  0.05794  0.31006  1.0000
  N   N7        1.0  0.28003  0.72781  0.79208  1.0000
  N   N8        1.0  0.25065  0.27343  0.69378  1.0000
  N   N9        1.0  0.51335  0.98040  0.79016  1.0000
  N   N10       1.0  0.74500  0.72573  0.73429  1.0000
  N   N11       1.0  0.75470  0.30508  0.82954  1.0000
  N   N12       1.0  0.51666  0.05579  0.80662  1.0000
  C   C61       1.0  0.11240  0.31966  0.12015  1.0000
  C   C62       1.0  0.18396  0.32509  0.17574  1.0000
  C  Sn1       1.0  0.20368  0.38555  0.27101  1.0000
  C  Sn2       1.0  0.15065  0.44151  0.31119  1.0000
  C   C63       1.0  0.07919  0.43554  0.25505  1.0000
  C   C64       1.0  0.06005  0.37482  0.15977  1.0000
  H   H33       1.0  0.09757  0.27267  0.04648  1.0000
  O  Te1       1.0  0.27543  0.39012  0.32551  1.0000
  O  Te2       1.0  0.16888  0.50251  0.40626  1.0000
  H   H34       1.0  0.00463  0.37061  0.11681  1.0000
  Mg  Mg1       1.0  0.27375  0.48392  0.45162  1.0000
  C   C65       1.0  0.13208  0.70917  0.37538  1.0000
  C   C66       1.0  0.20243  0.69543  0.31411  1.0000
  C  Sn3       1.0  0.21440  0.63484  0.21273  1.0000
  C  Sn4       1.0  0.15471  0.58722  0.17213  1.0000
  C   C67       1.0  0.08452  0.60148  0.23398  1.0000
  C   C68       1.0  0.07317  0.66226  0.33536  1.0000
  H   H35       1.0  0.12328  0.75622  0.45376  1.0000
  O  Te3       1.0  0.28504  0.62190  0.15261  1.0000
  O  Te4       1.0  0.16512  0.52628  0.07102  1.0000
  H   H36       1.0  0.01868  0.67291  0.38271  1.0000
  Mg  Mg2       1.0  0.27156  0.53171  0.01939  1.0000
  C   C69       1.0  0.86332  0.59306  0.35099  1.0000
  C   C70       1.0  0.93117  0.59760  0.27855  1.0000
  C  Sn5       1.0  0.94290  0.65237  0.18625  1.0000
  C  Sn6       1.0  0.88553  0.70348  0.16635  1.0000
  C   C71       1.0  0.81786  0.69851  0.23939  1.0000
  C   C72       1.0  0.80671  0.64346  0.33146  1.0000
  H   H37       1.0  0.85469  0.55050  0.42229  1.0000
  O  Te5       1.0  0.01103  0.65610  0.11467  1.0000
  O  Te6       1.0  0.89578  0.75879  0.07477  1.0000
  H   H38       1.0  0.75418  0.63999  0.38760  1.0000
  Mg  Mg3       1.0  0.99833  0.74129  0.00114  1.0000
  C   C73       1.0  0.93600  0.37725  0.38019  1.0000
  C   C74       1.0  0.94849  0.42291  0.27050  1.0000
  C  Sn7       1.0  0.89143  0.43762  0.17723  1.0000
  C  Sn8       1.0  0.82060  0.40596  0.19438  1.0000
  C   C75       1.0  0.80866  0.36039  0.30451  1.0000
  C   C76       1.0  0.86615  0.34602  0.39721  1.0000
  H   H39       1.0  0.98047  0.36615  0.45197  1.0000
  O  Te7       1.0  0.90486  0.48335  0.06818  1.0000
  O  Te8       1.0  0.76259  0.41977  0.10270  1.0000
  H   H40       1.0  0.85645  0.31070  0.48219  1.0000
  Mg  Mg4       1.0  0.80171  0.53576  0.97032  1.0000
  C   C77       1.0  0.16191  0.43848  0.83135  1.0000
  C   C78       1.0  0.09815  0.44048  0.74809  1.0000
  C  Sn9       1.0  0.08179  0.38205  0.64526  1.0000
  C  Sn10      1.0  0.13025  0.32055  0.62570  1.0000
  C   C79       1.0  0.19387  0.31906  0.70961  1.0000
  C   C80       1.0  0.20973  0.37783  0.81216  1.0000
  H   H41       1.0  0.17417  0.48394  0.91076  1.0000
  O  Te9       1.0  0.01786  0.38495  0.56295  1.0000
  O  Te10      1.0  0.11521  0.26139  0.52373  1.0000
  H   H42       1.0  0.25907  0.37625  0.87668  1.0000
  Mg  Mg5       1.0  0.02127  0.29091  0.43764  1.0000
  C   C81       1.0  0.16342  0.58939  0.65057  1.0000
  C   C82       1.0  0.09863  0.59321  0.73481  1.0000
  C  Sn11      1.0  0.08839  0.65013  0.84495  1.0000
  C  Sn12      1.0  0.14414  0.70417  0.87096  1.0000
  C   C83       1.0  0.20873  0.69988  0.78602  1.0000
  C   C84       1.0  0.21842  0.64267  0.67612  1.0000
  H   H43       1.0  0.17090  0.54515  0.56549  1.0000
  O  Te11      1.0  0.02334  0.65311  0.92813  1.0000
  O  Te12      1.0  0.13532  0.76166  0.98031  1.0000
  H   H44       1.0  0.26856  0.63975  0.61085  1.0000
  Mg  Mg6       1.0  0.04344  0.69198  0.06464  1.0000
  C   C85       1.0  0.82731  0.61853  0.85210  1.0000
  C   C86       1.0  0.81485  0.67742  0.77033  1.0000
  C  Sn13      1.0  0.86930  0.69808  0.67444  1.0000
  C  Sn14      1.0  0.93742  0.65895  0.66036  1.0000
  C   C87       1.0  0.94932  0.60009  0.74258  1.0000
  C   C88       1.0  0.89447  0.57989  0.83824  1.0000
  H   H45       1.0  0.78485  0.60287  0.92606  1.0000
  O  Te13      1.0  0.85596  0.75706  0.59360  1.0000
  O  Te14      1.0  0.99278  0.67843  0.56530  1.0000
  H   H46       1.0  0.90411  0.53427  0.90147  1.0000
  Mg  Mg7       1.0  0.94848  0.76274  0.47861  1.0000
  C   C89       1.0  0.90881  0.33583  0.87279  1.0000
  C   C90       1.0  0.83506  0.34319  0.83234  1.0000
  C  Sn15      1.0  0.81504  0.39694  0.74310  1.0000
  C  Sn16      1.0  0.86999  0.44410  0.69357  1.0000
  C   C91       1.0  0.94363  0.43626  0.73456  1.0000
  C   C92       1.0  0.96305  0.38230  0.82394  1.0000
  H   H47       1.0  0.92385  0.29406  0.94187  1.0000
  O  Te15      1.0  0.74110  0.40356  0.70376  1.0000
  O  Te16      1.0  0.85151  0.49827  0.60423  1.0000
  H   H48       1.0  0.02017  0.37659  0.85516  1.0000
  Mg  Mg8       1.0  0.74331  0.48579  0.58024  1.0000
