data_image0
_chemical_formula_structural       H32C60N12SnCSn2CSnTe4Mg2SnCSn2CSnTe4Mg2SnCSn2CSnTe4Mg2SnCSn2CSnTe4Mg2SnCSn2CSnTe4Mg2SnCSn2CSnTe4Mg2SnCSn2CSnTe4Mg2SnCSn2CSnTe4Mg2
_chemical_formula_sum              "H32 C76 N12 Sn32 Te32 Mg16"
_cell_length_a       18.0511
_cell_length_b       18.2905
_cell_length_c       9.30196
_cell_angle_alpha    95.6491
_cell_angle_beta     89.3011
_cell_angle_gamma    89.8138

_symmetry_space_group_name_H-M    'P1'
_space_group_IT_number       1

loop_
  _space_group_symop_operation_xyz
  'x, y, z'

loop_
  _atom_site_type_symbol
  _atom_site_label
  _atom_site_symmetry_multiplicity
  _atom_site_fract_x
  _atom_site_fract_y
  _atom_site_fract_z
  _atom_site_occupancy
  H   H1        1.0  0.74206  0.90769  0.07224  1.0000
  H   H2        1.0  0.65447  0.01001  0.14868  1.0000
  H   H3        1.0  0.59230  0.74967  0.22946  1.0000
  H   H4        1.0  0.38445  0.01803  0.45601  1.0000
  H   H5        1.0  0.29460  0.92022  0.50670  1.0000
  H   H6        1.0  0.43566  0.75328  0.28682  1.0000
  H   H7        1.0  0.77708  0.78021  0.05328  1.0000
  H   H8        1.0  0.25905  0.78877  0.49514  1.0000
  H   H9        1.0  0.46678  0.29213  0.27140  1.0000
  H   H10       1.0  0.61602  0.28239  0.32286  1.0000
  H   H11       1.0  0.66222  0.02150  0.42319  1.0000
  H   H12       1.0  0.34424  0.33822  0.22798  1.0000
  H   H13       1.0  0.76099  0.11590  0.45906  1.0000
  H   H14       1.0  0.80980  0.22018  0.92404  1.0000
  H   H15       1.0  0.37379  0.03281  0.19889  1.0000
  H   H16       1.0  0.29105  0.13911  0.16026  1.0000
  H   H17       1.0  0.73619  0.90631  0.56417  1.0000
  H   H18       1.0  0.64713  0.00826  0.63898  1.0000
  H   H19       1.0  0.59151  0.74887  0.73757  1.0000
  H   H20       1.0  0.38179  0.01781  0.95534  1.0000
  H   H21       1.0  0.28987  0.92107  0.00172  1.0000
  H   H22       1.0  0.42991  0.75235  0.78401  1.0000
  H   H23       1.0  0.77501  0.78285  0.55619  1.0000
  H   H24       1.0  0.24564  0.80055  0.96981  1.0000
  H   H25       1.0  0.46513  0.29167  0.78316  1.0000
  H   H26       1.0  0.61660  0.27873  0.83542  1.0000
  H   H27       1.0  0.65501  0.01441  0.92048  1.0000
  H   H28       1.0  0.34387  0.33983  0.73874  1.0000
  H   H29       1.0  0.75661  0.10618  0.96307  1.0000
  H   H30       1.0  0.81122  0.23050  0.41682  1.0000
  H   H31       1.0  0.36967  0.03373  0.69612  1.0000
  H   H32       1.0  0.28800  0.14169  0.66261  1.0000
  C   C1        1.0  0.67390  0.82319  0.15171  1.0000
  C   C2        1.0  0.68872  0.89596  0.12075  1.0000
  C   C3        1.0  0.63994  0.95363  0.16199  1.0000
  C   C4        1.0  0.57342  0.93618  0.22827  1.0000
  C   C5        1.0  0.55280  0.86216  0.24267  1.0000
  C   C6        1.0  0.01576  0.48328  0.24281  1.0000
  C   C7        1.0  0.60438  0.80591  0.20855  1.0000
  C   C8        1.0  0.01674  0.55908  0.25271  1.0000
  C   C9        1.0  0.46133  0.93944  0.34719  1.0000
  C   C10       1.0  0.39634  0.96062  0.42274  1.0000
  C   C11       1.0  0.34632  0.90538  0.44949  1.0000
  C   C12       1.0  0.35838  0.83117  0.39507  1.0000
  C   C13       1.0  0.42607  0.81051  0.32642  1.0000
  C   C14       1.0  0.47908  0.86423  0.30704  1.0000
  C   C15       1.0  0.73679  0.77207  0.13986  1.0000
  C   C16       1.0  0.29609  0.77999  0.40005  1.0000
  C   C17       1.0  0.37291  0.22163  0.21568  1.0000
  C   C18       1.0  0.34826  0.14793  0.19249  1.0000
  C   C19       1.0  0.39386  0.08884  0.21469  1.0000
  C   C20       1.0  0.46570  0.10449  0.26306  1.0000
  C   C21       1.0  0.49303  0.17745  0.28021  1.0000
  C   C22       1.0  0.44657  0.23592  0.25545  1.0000
  C   C23       1.0  0.58315  0.09963  0.35328  1.0000
  C   C24       1.0  0.65134  0.07814  0.40501  1.0000
  C   C25       1.0  0.70647  0.13132  0.42293  1.0000
  C   C26       1.0  0.69498  0.20419  0.38875  1.0000
  C   C27       1.0  0.62435  0.22605  0.34739  1.0000
  C   C28       1.0  0.56836  0.17405  0.33015  1.0000
  C   C29       1.0  0.32096  0.28255  0.20945  1.0000
  C   C30       1.0  0.75870  0.25221  0.37959  1.0000
  C   C31       1.0  0.67044  0.82239  0.65176  1.0000
  C   C32       1.0  0.68355  0.89462  0.61536  1.0000
  C   C33       1.0  0.63403  0.95181  0.65492  1.0000
  C   C34       1.0  0.56852  0.93408  0.72393  1.0000
  C   C35       1.0  0.54881  0.86023  0.74228  1.0000
  C   C36       1.0  0.01192  0.48106  0.74787  1.0000
  C   C37       1.0  0.60159  0.80468  0.71137  1.0000
  C   C38       1.0  0.01297  0.55671  0.75344  1.0000
  C   C39       1.0  0.45718  0.93811  0.84493  1.0000
  C   C40       1.0  0.39258  0.96033  0.92056  1.0000
  C   C41       1.0  0.34158  0.90578  0.94498  1.0000
  C   C42       1.0  0.35261  0.83161  0.88886  1.0000
  C   C43       1.0  0.42094  0.80966  0.82375  1.0000
  C   C44       1.0  0.47483  0.86266  0.80629  1.0000
  C   C45       1.0  0.73446  0.77272  0.64118  1.0000
  C   C46       1.0  0.28845  0.78317  0.88845  1.0000
  C   C47       1.0  0.37108  0.22266  0.72191  1.0000
  C   C48       1.0  0.34536  0.14947  0.69497  1.0000
  C   C49       1.0  0.39028  0.08949  0.71414  1.0000
  C   C50       1.0  0.46231  0.10376  0.76296  1.0000
  C   C51       1.0  0.49048  0.17633  0.78530  1.0000
  C   C52       1.0  0.44469  0.23568  0.76333  1.0000
  C   C53       1.0  0.57925  0.09597  0.85382  1.0000
  C   C54       1.0  0.64641  0.07181  0.90523  1.0000
  C   C55       1.0  0.70269  0.12349  0.92714  1.0000
  C   C56       1.0  0.69299  0.19720  0.89639  1.0000
  C   C57       1.0  0.62295  0.22162  0.85645  1.0000
  C   C58       1.0  0.56569  0.17117  0.83572  1.0000
  C   C59       1.0  0.32017  0.28447  0.71742  1.0000
  C   C60       1.0  0.75788  0.24371  0.88782  1.0000
  N   N1        1.0  0.28353  0.73095  0.29330  1.0000
  N   N2        1.0  0.25116  0.27085  0.18882  1.0000
  N   N3        1.0  0.51814  0.98230  0.29496  1.0000
  N   N4        1.0  0.74693  0.72572  0.23440  1.0000
  N   N5        1.0  0.75487  0.31294  0.31921  1.0000
  N   N6        1.0  0.52060  0.05794  0.31006  1.0000
  N   N7        1.0  0.28003  0.72781  0.79208  1.0000
  N   N8        1.0  0.25065  0.27343  0.69378  1.0000
  N   N9        1.0  0.51335  0.98040  0.79016  1.0000
  N   N10       1.0  0.74500  0.72573  0.73429  1.0000
  N   N11       1.0  0.75470  0.30508  0.82954  1.0000
  N   N12       1.0  0.51666  0.05579  0.80662  1.0000
  C  Sn1       1.0  0.07632  0.34238  0.16454  1.0000
  C   C61       1.0  0.07369  0.40962  0.24999  1.0000
  C  Sn2       1.0  0.13863  0.44162  0.30642  1.0000
  C  Sn3       1.0  0.20766  0.40568  0.27675  1.0000
  C   C62       1.0  0.21028  0.33849  0.19132  1.0000
  C  Sn4       1.0  0.14536  0.30644  0.13487  1.0000
  O  Te1       1.0  0.01071  0.31140  0.10925  1.0000
  O  Te2       1.0  0.13459  0.50887  0.39161  1.0000
  O  Te3       1.0  0.27330  0.43672  0.33213  1.0000
  O  Te4       1.0  0.14938  0.23924  0.04971  1.0000
  Mg  Mg1       1.0  0.23925  0.52906  0.44227  1.0000
  Mg  Mg2       1.0  0.03831  0.26909  0.99893  1.0000
  C  Sn5       1.0  0.17322  0.57861  0.20076  1.0000
  C   C63       1.0  0.10472  0.59091  0.27074  1.0000
  C  Sn6       1.0  0.08761  0.65964  0.34277  1.0000
  C  Sn7       1.0  0.14005  0.71730  0.34484  1.0000
  C   C64       1.0  0.20850  0.70500  0.27488  1.0000
  C  Sn8       1.0  0.22566  0.63627  0.20283  1.0000
  O  Te5       1.0  0.18914  0.50946  0.12941  1.0000
  O  Te6       1.0  0.01878  0.67061  0.41199  1.0000
  O  Te7       1.0  0.12408  0.78649  0.41627  1.0000
  O  Te8       1.0  0.29444  0.62530  0.13363  1.0000
  Mg  Mg3       1.0  0.02288  0.77447  0.49460  1.0000
  Mg  Mg4       1.0  0.29038  0.52147  0.05092  1.0000
  C  Sn9       1.0  0.83521  0.63159  0.36914  1.0000
  C   C65       1.0  0.82283  0.68938  0.28456  1.0000
  C  Sn10      1.0  0.87252  0.70255  0.17382  1.0000
  C  Sn11      1.0  0.93589  0.65697  0.14700  1.0000
  C   C66       1.0  0.94825  0.59921  0.23154  1.0000
  C  Sn12      1.0  0.89859  0.58601  0.34232  1.0000
  O  Te9       1.0  0.78480  0.61943  0.47927  1.0000
  O  Te10      1.0  0.85897  0.76068  0.09073  1.0000
  O  Te11      1.0  0.98632  0.66918  0.03677  1.0000
  O  Te12      1.0  0.91210  0.52792  0.42536  1.0000
  Mg  Mg5       1.0  0.93732  0.80524  0.95302  1.0000
  Mg  Mg6       1.0  0.82733  0.53336  0.56305  1.0000
  C  Sn13      1.0  0.94214  0.36210  0.34040  1.0000
  C   C67       1.0  0.95080  0.41334  0.23956  1.0000
  C  Sn14      1.0  0.88891  0.44207  0.17563  1.0000
  C  Sn15      1.0  0.81687  0.41914  0.21334  1.0000
  C   C68       1.0  0.80823  0.36795  0.31415  1.0000
  C  Sn16      1.0  0.87009  0.33918  0.37811  1.0000
  O  Te13      1.0  0.00478  0.33412  0.40296  1.0000
  O  Te14      1.0  0.89897  0.49321  0.07506  1.0000
  O  Te15      1.0  0.75420  0.44718  0.15068  1.0000
  O  Te16      1.0  0.86006  0.28808  0.47864  1.0000
  Mg  Mg7       1.0  0.79643  0.51554  0.01948  1.0000
  Mg  Mg8       1.0  0.96255  0.26574  0.53434  1.0000
  C  Sn17      1.0  0.07710  0.34332  0.66099  1.0000
  C   C69       1.0  0.07164  0.40886  0.75143  1.0000
  C  Sn18      1.0  0.13495  0.44136  0.81407  1.0000
  C  Sn19      1.0  0.20519  0.40769  0.78567  1.0000
  C   C70       1.0  0.21063  0.34220  0.69526  1.0000
  C  Sn20      1.0  0.14735  0.30965  0.63259  1.0000
  O  Te17      1.0  0.01309  0.31180  0.59952  1.0000
  O  Te18      1.0  0.12809  0.50688  0.90416  1.0000
  O  Te19      1.0  0.26923  0.43927  0.84723  1.0000
  O  Te20      1.0  0.15418  0.24418  0.54253  1.0000
  Mg  Mg9       1.0  0.23143  0.52867  0.96246  1.0000
  Mg  Mg10      1.0  0.05089  0.22236  0.48412  1.0000
  C  Sn21      1.0  0.16870  0.57784  0.69005  1.0000
  C   C71       1.0  0.10152  0.58730  0.76598  1.0000
  C  Sn22      1.0  0.08485  0.65404  0.84627  1.0000
  C  Sn23      1.0  0.13637  0.71257  0.85070  1.0000
  C   C72       1.0  0.20350  0.70310  0.77479  1.0000
  C  Sn24      1.0  0.22023  0.63637  0.69448  1.0000
  O  Te21      1.0  0.18421  0.51064  0.61048  1.0000
  O  Te22      1.0  0.01734  0.66218  0.92133  1.0000
  O  Te23      1.0  0.12081  0.77980  0.93036  1.0000
  O  Te24      1.0  0.28769  0.62822  0.61944  1.0000
  Mg  Mg11      1.0  0.02797  0.71410  0.01437  1.0000
  Mg  Mg12      1.0  0.28354  0.52626  0.52631  1.0000
  C  Sn25      1.0  0.88470  0.67773  0.61750  1.0000
  C   C73       1.0  0.81861  0.67566  0.69679  1.0000
  C  Sn26      1.0  0.81615  0.64143  0.82453  1.0000
  C  Sn27      1.0  0.88112  0.60861  0.87412  1.0000
  C   C74       1.0  0.94717  0.61070  0.79486  1.0000
  C  Sn28      1.0  0.94967  0.64491  0.66708  1.0000
  O  Te25      1.0  0.88587  0.71225  0.49010  1.0000
  O  Te26      1.0  0.74942  0.64005  0.90192  1.0000
  O  Te27      1.0  0.88635  0.52399  0.00162  1.0000
  O  Te28      1.0  0.01635  0.64632  0.58973  1.0000
  Mg  Mg13      1.0  0.78224  0.53643  0.06913  1.0000
  Mg  Mg14      1.0  0.99005  0.69987  0.42255  1.0000
  C  Sn29      1.0  0.89881  0.35322  0.90530  1.0000
  C   C75       1.0  0.82714  0.35693  0.85125  1.0000
  C  Sn30      1.0  0.81305  0.39661  0.73359  1.0000
  C  Sn31      1.0  0.87183  0.43331  0.66853  1.0000
  C   C76       1.0  0.94345  0.42958  0.72256  1.0000
  C  Sn32      1.0  0.95759  0.38992  0.84024  1.0000
  O  Te29      1.0  0.91807  0.26314  0.02302  1.0000
  O  Te30      1.0  0.74094  0.39955  0.68149  1.0000
  O  Te31      1.0  0.85896  0.47333  0.55072  1.0000
  O  Te32      1.0  0.02965  0.38696  0.89232  1.0000
  Mg  Mg15      1.0  0.75133  0.46101  0.51876  1.0000
  Mg  Mg16      1.0  0.02578  0.27540  0.05498  1.0000
