data_image0
_chemical_formula_structural       H6C18N18O6SnCSn2CSnTe4Mg2SnCSn2CSnTe4Mg2SnCSn2CSnTe4Mg2SnCSn2CSnTe4Mg2SnCSn2CSnTe4Mg2SnCSn2CSnTe4Mg2SnCSn2CSnTe4Mg2SnCSn2CSnTe4Mg2SnCSn2CSnTe4Mg2SnCSn2CSnTe4Mg2SnCSn2CSnTe4Mg2SnCSn2CSnTe4Mg2
_chemical_formula_sum              "H6 C42 N18 O6 Sn48 Te48 Mg24"
_cell_length_a       26.7895
_cell_length_b       26.8158
_cell_length_c       7.95546
_cell_angle_alpha    92.5588
_cell_angle_beta     88.2358
_cell_angle_gamma    120.687

_symmetry_space_group_name_H-M    'P1'
_space_group_IT_number       1

loop_
  _space_group_symop_operation_xyz
  'x, y, z'

loop_
  _atom_site_type_symbol
  _atom_site_label
  _atom_site_symmetry_multiplicity
  _atom_site_fract_x
  _atom_site_fract_y
  _atom_site_fract_z
  _atom_site_occupancy
  H   H1        1.0  0.49193  0.48023  0.08300  1.0000
  H   H2        1.0  0.52818  0.00765  0.15991  1.0000
  H   H3        1.0  0.98988  0.50208  0.07331  1.0000
  H   H4        1.0  0.50460  0.49246  0.57437  1.0000
  H   H5        1.0  0.50746  0.00619  0.59719  1.0000
  H   H6        1.0  0.99328  0.49860  0.58427  1.0000
  C   C1        1.0  0.28496  0.61492  0.26370  1.0000
  C   C2        1.0  0.48724  0.99710  0.22449  1.0000
  C   C3        1.0  0.62953  0.27974  0.25219  1.0000
  C   C4        1.0  0.38166  0.66783  0.25271  1.0000
  C   C5        1.0  0.00193  0.48567  0.17952  1.0000
  C   C6        1.0  0.72122  0.35789  0.24047  1.0000
  C   C7        1.0  0.32956  0.71167  0.26371  1.0000
  C   C8        1.0  0.51260  0.51578  0.17802  1.0000
  C   C9        1.0  0.64345  0.37078  0.25019  1.0000
  C   C10       1.0  0.28874  0.61438  0.77331  1.0000
  C   C11       1.0  0.47822  0.99498  0.70730  1.0000
  C   C12       1.0  0.62984  0.27727  0.74619  1.0000
  C   C13       1.0  0.38550  0.67025  0.77551  1.0000
  C   C14       1.0  0.00436  0.48055  0.68866  1.0000
  C   C15       1.0  0.72246  0.35448  0.74149  1.0000
  C   C16       1.0  0.33051  0.71103  0.78483  1.0000
  C   C17       1.0  0.52224  0.52346  0.68224  1.0000
  C   C18       1.0  0.64587  0.36926  0.74053  1.0000
  N   N1        1.0  0.27867  0.66111  0.26923  1.0000
  N   N2        1.0  0.47621  0.03601  0.28521  1.0000
  N   N3        1.0  0.60553  0.31334  0.26031  1.0000
  N   N4        1.0  0.33521  0.61484  0.25767  1.0000
  N   N5        1.0  0.96388  0.44802  0.27991  1.0000
  N   N6        1.0  0.68692  0.29961  0.24179  1.0000
  N   N7        1.0  0.38227  0.71833  0.25643  1.0000
  N   N8        1.0  0.55455  0.52301  0.27124  1.0000
  N   N9        1.0  0.70161  0.39522  0.23996  1.0000
  N   N10       1.0  0.28064  0.65943  0.78208  1.0000
  N   N11       1.0  0.47655  0.03409  0.80417  1.0000
  N   N12       1.0  0.60692  0.31183  0.74386  1.0000
  N   N13       1.0  0.34002  0.61635  0.77168  1.0000
  N   N14       1.0  0.96541  0.44158  0.78438  1.0000
  N   N15       1.0  0.68721  0.29640  0.74491  1.0000
  N   N16       1.0  0.38412  0.71983  0.78226  1.0000
  N   N17       1.0  0.56086  0.52566  0.78051  1.0000
  N   N18       1.0  0.70404  0.39276  0.73800  1.0000
  O   O1        1.0  0.43569  0.67607  0.24240  1.0000
  O   O2        1.0  0.32245  0.75805  0.26660  1.0000
  O   O3        1.0  0.23832  0.56069  0.26553  1.0000
  O   O4        1.0  0.44038  0.68030  0.77472  1.0000
  O   O5        1.0  0.32106  0.75601  0.79237  1.0000
  O   O6        1.0  0.24292  0.55950  0.76644  1.0000
  C  Sn1       1.0  0.35030  0.86878  0.27744  1.0000
  C   C19       1.0  0.35896  0.82322  0.22586  1.0000
  C  Sn2       1.0  0.41487  0.83371  0.19092  1.0000
  C  Sn3       1.0  0.46315  0.89092  0.20801  1.0000
  C   C20       1.0  0.45448  0.93643  0.25959  1.0000
  C  Sn4       1.0  0.39858  0.92599  0.29453  1.0000
  O  Te1       1.0  0.29402  0.85729  0.31170  1.0000
  O  Te2       1.0  0.42244  0.78747  0.13949  1.0000
  O  Te3       1.0  0.51945  0.90238  0.17369  1.0000
  O  Te4       1.0  0.39100  0.97219  0.34596  1.0000
  Mg  Mg1       1.0  0.50754  0.82503  0.10758  1.0000
  Mg  Mg2       1.0  0.30593  0.93467  0.37799  1.0000
  C  Sn5       1.0  0.49751  0.14644  0.31348  1.0000
  C   C21       1.0  0.50764  0.10332  0.24632  1.0000
  C  Sn6       1.0  0.56332  0.11725  0.19287  1.0000
  C  Sn7       1.0  0.60984  0.17550  0.20693  1.0000
  C   C22       1.0  0.59970  0.21858  0.27407  1.0000
  C  Sn8       1.0  0.54403  0.20469  0.32753  1.0000
  O  Te5       1.0  0.44150  0.13153  0.36612  1.0000
  O  Te6       1.0  0.57238  0.07339  0.12610  1.0000
  O  Te7       1.0  0.66588  0.19039  0.15420  1.0000
  O  Te8       1.0  0.53496  0.24851  0.39429  1.0000
  Mg  Mg3       1.0  0.65643  0.11532  0.07182  1.0000
  Mg  Mg4       1.0  0.45094  0.20662  0.44869  1.0000
  C  Sn9       1.0  0.11927  0.55563  0.07980  1.0000
  C   C23       1.0  0.07183  0.50710  0.14992  1.0000
  C  Sn10      1.0  0.07953  0.48008  0.28464  1.0000
  C  Sn11      1.0  0.13581  0.50205  0.35072  1.0000
  C   C24       1.0  0.18321  0.55056  0.28063  1.0000
  C  Sn12      1.0  0.17556  0.57760  0.14589  1.0000
  O  Te9       1.0  0.10735  0.59356  0.94519  1.0000
  O  Te10      1.0  0.03144  0.43161  0.35260  1.0000
  O  Te11      1.0  0.14449  0.47569  0.48544  1.0000
  O  Te12      1.0  0.22360  0.62605  0.07795  1.0000
  Mg  Mg5       1.0  0.06542  0.41083  0.53514  1.0000
  Mg  Mg6       1.0  0.18645  0.65849  0.89548  1.0000
  C  Sn13      1.0  0.87086  0.46662  0.24527  1.0000
  C   C25       1.0  0.90003  0.43877  0.29316  1.0000
  C  Sn14      1.0  0.87048  0.37845  0.30371  1.0000
  C  Sn15      1.0  0.81052  0.34526  0.26548  1.0000
  C   C26       1.0  0.78137  0.37310  0.21760  1.0000
  C  Sn16      1.0  0.81090  0.43342  0.20705  1.0000
  O  Te13      1.0  0.90127  0.52697  0.23556  1.0000
  O  Te14      1.0  0.90057  0.35159  0.35192  1.0000
  O  Te15      1.0  0.78011  0.28486  0.27523  1.0000
  O  Te16      1.0  0.78084  0.46028  0.15883  1.0000
  Mg  Mg7       1.0  0.84014  0.26825  0.34668  1.0000
  Mg  Mg8       1.0  0.84123  0.54361  0.16395  1.0000
  C  Sn17      1.0  0.51278  0.61193  0.33755  1.0000
  C   C27       1.0  0.48802  0.55848  0.24953  1.0000
  C  Sn18      1.0  0.44424  0.54333  0.13271  1.0000
  C  Sn19      1.0  0.42483  0.58243  0.10315  1.0000
  C   C28       1.0  0.44958  0.63585  0.19112  1.0000
  C  Sn20      1.0  0.49336  0.65103  0.30800  1.0000
  O  Te17      1.0  0.55649  0.62617  0.45375  1.0000
  O  Te18      1.0  0.42014  0.48965  0.04629  1.0000
  O  Te19      1.0  0.37787  0.57976  0.98684  1.0000
  O  Te20      1.0  0.51746  0.70468  0.39436  1.0000
  Mg  Mg9       1.0  0.35856  0.50162  0.90043  1.0000
  Mg  Mg10      1.0  0.57585  0.70437  0.54017  1.0000
  C  Sn21      1.0  0.64512  0.50409  0.25135  1.0000
  C   C29       1.0  0.58747  0.48889  0.22826  1.0000
  C  Sn22      1.0  0.54304  0.43083  0.23121  1.0000
  C  Sn23      1.0  0.55649  0.38706  0.25791  1.0000
  C   C30       1.0  0.61411  0.40227  0.28101  1.0000
  C  Sn24      1.0  0.65858  0.46032  0.27805  1.0000
  O  Te21      1.0  0.68885  0.56241  0.24793  1.0000
  O  Te22      1.0  0.48574  0.41669  0.20776  1.0000
  O  Te23      1.0  0.51271  0.32871  0.26131  1.0000
  O  Te24      1.0  0.71585  0.47447  0.30151  1.0000
  Mg  Mg11      1.0  0.44135  0.33118  0.22315  1.0000
  Mg  Mg12      1.0  0.76026  0.55997  0.28623  1.0000
  C  Sn25      1.0  0.43259  0.84481  0.69008  1.0000
  C   C31       1.0  0.38274  0.81757  0.79105  1.0000
  C  Sn26      1.0  0.35697  0.84844  0.85591  1.0000
  C  Sn27      1.0  0.38152  0.90776  0.81900  1.0000
  C   C32       1.0  0.43133  0.93497  0.71807  1.0000
  C  Sn28      1.0  0.45714  0.90414  0.65317  1.0000
  O  Te25      1.0  0.45763  0.81310  0.62658  1.0000
  O  Te26      1.0  0.30716  0.82027  0.95660  1.0000
  O  Te27      1.0  0.35644  0.93946  0.88260  1.0000
  O  Te28      1.0  0.50691  0.93227  0.55252  1.0000
  Mg  Mg13      1.0  0.29213  0.87030  0.01358  1.0000
  Mg  Mg14      1.0  0.52517  0.87067  0.49540  1.0000
  C  Sn29      1.0  0.49513  0.14403  0.78893  1.0000
  C   C33       1.0  0.50770  0.10029  0.74910  1.0000
  C  Sn30      1.0  0.56502  0.11401  0.72154  1.0000
  C  Sn31      1.0  0.61074  0.17268  0.73416  1.0000
  C   C34       1.0  0.59816  0.21638  0.77400  1.0000
  C  Sn32      1.0  0.54085  0.20269  0.80155  1.0000
  O  Te29      1.0  0.43750  0.12931  0.81598  1.0000
  O  Te30      1.0  0.57651  0.06954  0.68183  1.0000
  O  Te31      1.0  0.66840  0.18737  0.70707  1.0000
  O  Te32      1.0  0.52935  0.24713  0.84127  1.0000
  Mg  Mg15      1.0  0.66207  0.11142  0.65628  1.0000
  Mg  Mg16      1.0  0.44382  0.20529  0.86693  1.0000
  C  Sn33      1.0  0.09720  0.47964  0.85050  1.0000
  C   C35       1.0  0.07050  0.50458  0.76736  1.0000
  C  Sn34      1.0  0.10230  0.54922  0.65595  1.0000
  C  Sn35      1.0  0.16202  0.56933  0.62695  1.0000
  C   C36       1.0  0.18869  0.54439  0.71004  1.0000
  C  Sn36      1.0  0.15692  0.49975  0.82149  1.0000
  O  Te33      1.0  0.06457  0.43507  0.96132  1.0000
  O  Te34      1.0  0.07466  0.57349  0.57435  1.0000
  O  Te35      1.0  0.19465  0.61394  0.51602  1.0000
  O  Te36      1.0  0.18453  0.47548  0.90304  1.0000
  Mg  Mg17      1.0  0.13753  0.63314  0.43489  1.0000
  Mg  Mg18      1.0  0.12491  0.40421  0.04246  1.0000
  C  Sn37      1.0  0.87308  0.46111  0.73605  1.0000
  C   C37       1.0  0.90174  0.43402  0.79424  1.0000
  C  Sn38      1.0  0.87152  0.37423  0.81712  1.0000
  C  Sn39      1.0  0.81140  0.34081  0.78099  1.0000
  C   C38       1.0  0.78278  0.36790  0.72281  1.0000
  C  Sn40      1.0  0.81297  0.42770  0.69992  1.0000
  O  Te37      1.0  0.90416  0.52094  0.71409  1.0000
  O  Te38      1.0  0.90111  0.34811  0.87548  1.0000
  O  Te39      1.0  0.78034  0.28094  0.80300  1.0000
  O  Te40      1.0  0.78342  0.45381  0.64157  1.0000
  Mg  Mg19      1.0  0.83985  0.26528  0.88517  1.0000
  Mg  Mg20      1.0  0.84463  0.53663  0.63176  1.0000
  C  Sn41      1.0  0.45014  0.56548  0.58330  1.0000
  C   C39       1.0  0.50011  0.57126  0.65336  1.0000
  C  Sn42      1.0  0.52670  0.60951  0.79047  1.0000
  C  Sn43      1.0  0.50282  0.64264  0.85907  1.0000
  C   C40       1.0  0.45287  0.63684  0.78903  1.0000
  C  Sn44      1.0  0.42626  0.59861  0.65189  1.0000
  O  Te41      1.0  0.42429  0.52697  0.44626  1.0000
  O  Te42      1.0  0.57663  0.61457  0.85833  1.0000
  O  Te43      1.0  0.52872  0.68117  0.99621  1.0000
  O  Te44      1.0  0.37635  0.59354  0.58407  1.0000
  Mg  Mg21      1.0  0.59928  0.66120  0.04471  1.0000
  Mg  Mg22      1.0  0.35686  0.53529  0.39775  1.0000
  C  Sn45      1.0  0.56362  0.39950  0.64619  1.0000
  C   C41       1.0  0.61803  0.41077  0.69671  1.0000
  C  Sn46      1.0  0.65339  0.45990  0.79725  1.0000
  C  Sn47      1.0  0.63395  0.49855  0.84846  1.0000
  C   C42       1.0  0.57957  0.48727  0.79797  1.0000
  C  Sn48      1.0  0.54418  0.43816  0.69740  1.0000
  O  Te45      1.0  0.52899  0.35013  0.54568  1.0000
  O  Te46      1.0  0.70762  0.47026  0.84612  1.0000
  O  Te47      1.0  0.66863  0.54795  0.94903  1.0000
  O  Te48      1.0  0.48998  0.42779  0.64856  1.0000
  Mg  Mg23      1.0  0.73901  0.54332  0.98323  1.0000
  Mg  Mg24      1.0  0.45854  0.35472  0.51153  1.0000
