data_image0
_chemical_formula_structural       H30C54N18O6C2Sn2C2HTe2HMgC2Sn2C2HTe2HMgC2Sn2C2HTe2HMgC2Sn2C2HTe2HMgC2Sn2C2HTe2HMgC2Sn2C2HTe2HMg
_chemical_formula_sum              "H42 C78 N18 O6 Sn12 Te12 Mg6"
_cell_length_a       26.7895
_cell_length_b       26.8158
_cell_length_c       7.95546
_cell_angle_alpha    92.5588
_cell_angle_beta     88.2358
_cell_angle_gamma    120.687

_symmetry_space_group_name_H-M    'P1'
_space_group_IT_number       1

loop_
  _space_group_symop_operation_xyz
  'x, y, z'

loop_
  _atom_site_type_symbol
  _atom_site_label
  _atom_site_symmetry_multiplicity
  _atom_site_fract_x
  _atom_site_fract_y
  _atom_site_fract_z
  _atom_site_occupancy
  H   H1        1.0  0.30852  0.83875  0.37649  1.0000
  H   H2        1.0  0.37857  0.94611  0.35908  1.0000
  H   H3        1.0  0.50315  0.91014  0.11816  1.0000
  H   H4        1.0  0.43422  0.80461  0.13364  1.0000
  H   H5        1.0  0.15453  0.47325  0.39340  1.0000
  H   H6        1.0  0.04813  0.43704  0.35760  1.0000
  H   H7        1.0  0.09284  0.58065  0.04331  1.0000
  H   H8        1.0  0.19738  0.61696  0.08124  1.0000
  H   H9        1.0  0.65948  0.55110  0.33406  1.0000
  H   H10       1.0  0.70093  0.48528  0.31944  1.0000
  H   H11       1.0  0.53327  0.34092  0.19367  1.0000
  H   H12       1.0  0.49216  0.40622  0.19939  1.0000
  H   H13       1.0  0.45396  0.11425  0.89171  1.0000
  H   H14       1.0  0.51909  0.22162  0.86177  1.0000
  H   H15       1.0  0.65220  0.19329  0.65090  1.0000
  H   H16       1.0  0.58676  0.08665  0.67073  1.0000
  H   H17       1.0  0.53018  0.69150  0.90411  1.0000
  H   H18       1.0  0.56960  0.62442  0.86745  1.0000
  H   H19       1.0  0.42705  0.51297  0.54302  1.0000
  H   H20       1.0  0.38638  0.57730  0.58511  1.0000
  H   H21       1.0  0.66325  0.54878  0.86147  1.0000
  H   H22       1.0  0.70274  0.48160  0.83868  1.0000
  H   H23       1.0  0.53870  0.34473  0.65560  1.0000
  H   H24       1.0  0.50024  0.41212  0.66614  1.0000
  H   H25       1.0  0.49193  0.48023  0.08300  1.0000
  H   H26       1.0  0.52818  0.00765  0.15991  1.0000
  H   H27       1.0  0.98988  0.50208  0.07331  1.0000
  H   H28       1.0  0.50460  0.49246  0.57437  1.0000
  H   H29       1.0  0.50746  0.00619  0.59719  1.0000
  H   H30       1.0  0.99328  0.49860  0.58427  1.0000
  C   C1        1.0  0.28496  0.61492  0.26370  1.0000
  C   C2        1.0  0.36756  0.81614  0.25647  1.0000
  C   C3        1.0  0.35135  0.85555  0.31963  1.0000
  C   C4        1.0  0.39006  0.91470  0.31018  1.0000
  C   C5        1.0  0.44558  0.93535  0.23805  1.0000
  C   C6        1.0  0.46061  0.89485  0.17593  1.0000
  C   C7        1.0  0.42212  0.83522  0.18347  1.0000
  C   C8        1.0  0.48724  0.99710  0.22449  1.0000
  C   C9        1.0  0.62953  0.27974  0.25219  1.0000
  C   C10       1.0  0.38166  0.66783  0.25271  1.0000
  C   C11       1.0  0.18100  0.54750  0.24343  1.0000
  C   C12       1.0  0.13978  0.49621  0.31895  1.0000
  C   C13       1.0  0.08128  0.47631  0.29854  1.0000
  C   C14       1.0  0.06358  0.50702  0.20147  1.0000
  C   C15       1.0  0.10595  0.55758  0.12349  1.0000
  C   C16       1.0  0.16497  0.57846  0.14416  1.0000
  C   C17       1.0  0.00193  0.48567  0.17952  1.0000
  C   C18       1.0  0.72122  0.35789  0.24047  1.0000
  C   C19       1.0  0.32956  0.71167  0.26371  1.0000
  C   C20       1.0  0.51260  0.51578  0.17802  1.0000
  C   C21       1.0  0.57409  0.48357  0.26110  1.0000
  C   C22       1.0  0.63274  0.50527  0.29969  1.0000
  C   C23       1.0  0.65555  0.46898  0.29206  1.0000
  C   C24       1.0  0.61967  0.40955  0.25250  1.0000
  C   C25       1.0  0.56060  0.38727  0.21995  1.0000
  C   C26       1.0  0.53806  0.42381  0.22278  1.0000
  C   C27       1.0  0.64345  0.37078  0.25019  1.0000
  C   C28       1.0  0.28874  0.61438  0.77331  1.0000
  C   C29       1.0  0.47822  0.99498  0.70730  1.0000
  C   C30       1.0  0.51499  0.09320  0.77864  1.0000
  C   C31       1.0  0.49683  0.13212  0.83432  1.0000
  C   C32       1.0  0.53312  0.19161  0.81862  1.0000
  C   C33       1.0  0.58967  0.21410  0.75341  1.0000
  C   C34       1.0  0.60830  0.17546  0.70035  1.0000
  C   C35       1.0  0.57144  0.11590  0.71088  1.0000
  C   C36       1.0  0.62984  0.27727  0.74619  1.0000
  C   C37       1.0  0.38550  0.67025  0.77551  1.0000
  C   C38       1.0  0.00436  0.48055  0.68866  1.0000
  C   C39       1.0  0.72246  0.35448  0.74149  1.0000
  C   C40       1.0  0.33051  0.71103  0.78483  1.0000
  C   C41       1.0  0.45562  0.63741  0.75070  1.0000
  C   C42       1.0  0.50780  0.65165  0.82772  1.0000
  C   C43       1.0  0.52963  0.61459  0.80672  1.0000
  C   C44       1.0  0.50028  0.56337  0.70616  1.0000
  C   C45       1.0  0.44910  0.55130  0.62597  1.0000
  C   C46       1.0  0.42592  0.58749  0.64835  1.0000
  C   C47       1.0  0.52224  0.52346  0.68224  1.0000
  C   C48       1.0  0.57992  0.48571  0.76100  1.0000
  C   C49       1.0  0.63691  0.50448  0.81222  1.0000
  C   C50       1.0  0.65869  0.46724  0.80033  1.0000
  C   C51       1.0  0.62337  0.40929  0.74377  1.0000
  C   C52       1.0  0.56594  0.38986  0.69687  1.0000
  C   C53       1.0  0.54472  0.42764  0.70301  1.0000
  C   C54       1.0  0.64587  0.36926  0.74053  1.0000
  N   N1        1.0  0.27867  0.66111  0.26923  1.0000
  N   N2        1.0  0.47621  0.03601  0.28521  1.0000
  N   N3        1.0  0.60553  0.31334  0.26031  1.0000
  N   N4        1.0  0.33521  0.61484  0.25767  1.0000
  N   N5        1.0  0.96388  0.44802  0.27991  1.0000
  N   N6        1.0  0.68692  0.29961  0.24179  1.0000
  N   N7        1.0  0.38227  0.71833  0.25643  1.0000
  N   N8        1.0  0.55455  0.52301  0.27124  1.0000
  N   N9        1.0  0.70161  0.39522  0.23996  1.0000
  N   N10       1.0  0.28064  0.65943  0.78208  1.0000
  N   N11       1.0  0.47655  0.03409  0.80417  1.0000
  N   N12       1.0  0.60692  0.31183  0.74386  1.0000
  N   N13       1.0  0.34002  0.61635  0.77168  1.0000
  N   N14       1.0  0.96541  0.44158  0.78438  1.0000
  N   N15       1.0  0.68721  0.29640  0.74491  1.0000
  N   N16       1.0  0.38412  0.71983  0.78226  1.0000
  N   N17       1.0  0.56086  0.52566  0.78051  1.0000
  N   N18       1.0  0.70404  0.39276  0.73800  1.0000
  O   O1        1.0  0.43569  0.67607  0.24240  1.0000
  O   O2        1.0  0.32245  0.75805  0.26660  1.0000
  O   O3        1.0  0.23832  0.56069  0.26553  1.0000
  O   O4        1.0  0.44038  0.68030  0.77472  1.0000
  O   O5        1.0  0.32106  0.75601  0.79237  1.0000
  O   O6        1.0  0.24292  0.55950  0.76644  1.0000
  C   C55       1.0  0.50403  0.14819  0.36643  1.0000
  C   C56       1.0  0.51035  0.10428  0.28613  1.0000
  C  Sn1       1.0  0.56031  0.11811  0.19150  1.0000
  C  Sn2       1.0  0.60470  0.17703  0.17727  1.0000
  C   C57       1.0  0.59798  0.22064  0.25818  1.0000
  C   C58       1.0  0.54780  0.20632  0.35251  1.0000
  H   H31       1.0  0.46522  0.13712  0.43950  1.0000
  O  Te1       1.0  0.56592  0.07370  0.11204  1.0000
  O  Te2       1.0  0.65509  0.19207  0.08353  1.0000
  H   H32       1.0  0.54293  0.24032  0.41475  1.0000
  Mg  Mg1       1.0  0.63939  0.12765  0.99844  1.0000
  C   C59       1.0  0.09725  0.46754  0.80912  1.0000
  C   C60       1.0  0.06958  0.49434  0.74206  1.0000
  C  Sn3       1.0  0.10213  0.54805  0.66723  1.0000
  C  Sn4       1.0  0.16352  0.57533  0.65953  1.0000
  C   C61       1.0  0.19079  0.54814  0.72687  1.0000
  C   C62       1.0  0.15780  0.49440  0.80152  1.0000
  H   H33       1.0  0.07173  0.42595  0.86679  1.0000
  O  Te3       1.0  0.07379  0.57423  0.60090  1.0000
  O  Te4       1.0  0.19710  0.62900  0.58539  1.0000
  H   H34       1.0  0.17923  0.47365  0.85333  1.0000
  Mg  Mg2       1.0  0.13846  0.64742  0.51264  1.0000
  C   C63       1.0  0.35916  0.86928  0.87905  1.0000
  C   C64       1.0  0.35832  0.82255  0.79125  1.0000
  C  Sn5       1.0  0.40230  0.83215  0.67515  1.0000
  C  Sn6       1.0  0.44791  0.88966  0.64671  1.0000
  C   C65       1.0  0.44838  0.93612  0.73527  1.0000
  C   C66       1.0  0.40414  0.92601  0.85113  1.0000
  H   H35       1.0  0.32495  0.86147  0.96876  1.0000
  O  Te5       1.0  0.40078  0.78497  0.58847  1.0000
  O  Te6       1.0  0.49242  0.90050  0.53143  1.0000
  H   H36       1.0  0.40483  0.96220  0.91916  1.0000
  Mg  Mg3       1.0  0.47125  0.82189  0.44411  1.0000
  C   C67       1.0  0.83811  0.45220  0.19305  1.0000
  C   C68       1.0  0.79309  0.39605  0.22606  1.0000
  C  Sn7       1.0  0.80534  0.35544  0.28719  1.0000
  C  Sn8       1.0  0.86378  0.37147  0.31573  1.0000
  C   C69       1.0  0.90849  0.42777  0.28243  1.0000
  C   C70       1.0  0.89575  0.46806  0.22123  1.0000
  H   H37       1.0  0.82825  0.48339  0.14578  1.0000
  O  Te7       1.0  0.75985  0.29951  0.31944  1.0000
  O  Te8       1.0  0.87724  0.33175  0.37684  1.0000
  H   H38       1.0  0.93061  0.51155  0.19579  1.0000
  Mg  Mg4       1.0  0.80019  0.26078  0.40163  1.0000
  C   C71       1.0  0.42562  0.54424  0.11519  1.0000
  C   C72       1.0  0.47891  0.55253  0.16579  1.0000
  C  Sn9       1.0  0.51716  0.60238  0.25946  1.0000
  C  Sn10      1.0  0.50164  0.64462  0.30313  1.0000
  C   C73       1.0  0.44821  0.63590  0.25201  1.0000
  C   C74       1.0  0.41027  0.58587  0.15827  1.0000
  H   H39       1.0  0.39625  0.50552  0.04274  1.0000
  O  Te9       1.0  0.57024  0.60999  0.30893  1.0000
  O  Te10      1.0  0.53904  0.69483  0.39671  1.0000
  H   H40       1.0  0.36900  0.57944  0.11921  1.0000
  Mg  Mg5       1.0  0.60653  0.68557  0.43482  1.0000
  C   C75       1.0  0.87253  0.45668  0.68035  1.0000
  C   C76       1.0  0.90224  0.43301  0.75355  1.0000
  C  Sn11      1.0  0.87162  0.37776  0.82017  1.0000
  C  Sn12      1.0  0.81010  0.34570  0.81315  1.0000
  C   C77       1.0  0.78078  0.36975  0.73955  1.0000
  C   C78       1.0  0.81186  0.42509  0.67332  1.0000
  H   H41       1.0  0.89657  0.49948  0.62902  1.0000
  O  Te11      1.0  0.90199  0.35477  0.89291  1.0000
  O  Te12      1.0  0.77842  0.29037  0.87872  1.0000
  H   H42       1.0  0.78884  0.44338  0.61655  1.0000
  Mg  Mg6       1.0  0.83944  0.27767  0.96516  1.0000
