data_image0
_chemical_formula_structural       H30C54N18O6SnCSn2CSnTe4Mg2SnCSn2CSnTe4Mg2SnCSn2CSnTe4Mg2SnCSn2CSnTe4Mg2SnCSn2CSnTe4Mg2SnCSn2CSnTe4Mg2
_chemical_formula_sum              "H30 C66 N18 O6 Sn24 Te24 Mg12"
_cell_length_a       26.7895
_cell_length_b       26.8158
_cell_length_c       7.95546
_cell_angle_alpha    92.5588
_cell_angle_beta     88.2358
_cell_angle_gamma    120.687

_symmetry_space_group_name_H-M    'P1'
_space_group_IT_number       1

loop_
  _space_group_symop_operation_xyz
  'x, y, z'

loop_
  _atom_site_type_symbol
  _atom_site_label
  _atom_site_symmetry_multiplicity
  _atom_site_fract_x
  _atom_site_fract_y
  _atom_site_fract_z
  _atom_site_occupancy
  H   H1        1.0  0.30852  0.83875  0.37649  1.0000
  H   H2        1.0  0.37857  0.94611  0.35908  1.0000
  H   H3        1.0  0.50315  0.91014  0.11816  1.0000
  H   H4        1.0  0.43422  0.80461  0.13364  1.0000
  H   H5        1.0  0.45989  0.11452  0.42039  1.0000
  H   H6        1.0  0.52507  0.22284  0.40466  1.0000
  H   H7        1.0  0.64737  0.19777  0.10854  1.0000
  H   H8        1.0  0.58129  0.09124  0.11016  1.0000
  H   H9        1.0  0.88352  0.34674  0.36344  1.0000
  H   H10       1.0  0.77561  0.30417  0.33855  1.0000
  H   H11       1.0  0.80559  0.46501  0.15358  1.0000
  H   H12       1.0  0.91255  0.50615  0.16631  1.0000
  H   H13       1.0  0.65948  0.55110  0.33406  1.0000
  H   H14       1.0  0.70093  0.48528  0.31944  1.0000
  H   H15       1.0  0.53327  0.34092  0.19367  1.0000
  H   H16       1.0  0.49216  0.40622  0.19939  1.0000
  H   H17       1.0  0.53018  0.69150  0.90411  1.0000
  H   H18       1.0  0.56960  0.62442  0.86745  1.0000
  H   H19       1.0  0.42705  0.51297  0.54302  1.0000
  H   H20       1.0  0.38638  0.57730  0.58511  1.0000
  H   H21       1.0  0.66325  0.54878  0.86147  1.0000
  H   H22       1.0  0.70274  0.48160  0.83868  1.0000
  H   H23       1.0  0.53870  0.34473  0.65560  1.0000
  H   H24       1.0  0.50024  0.41212  0.66614  1.0000
  H   H25       1.0  0.49193  0.48023  0.08300  1.0000
  H   H26       1.0  0.52818  0.00765  0.15991  1.0000
  H   H27       1.0  0.98988  0.50208  0.07331  1.0000
  H   H28       1.0  0.50460  0.49246  0.57437  1.0000
  H   H29       1.0  0.50746  0.00619  0.59719  1.0000
  H   H30       1.0  0.99328  0.49860  0.58427  1.0000
  C   C1        1.0  0.28496  0.61492  0.26370  1.0000
  C   C2        1.0  0.36756  0.81614  0.25647  1.0000
  C   C3        1.0  0.35135  0.85555  0.31963  1.0000
  C   C4        1.0  0.39006  0.91470  0.31018  1.0000
  C   C5        1.0  0.44558  0.93535  0.23805  1.0000
  C   C6        1.0  0.46061  0.89485  0.17593  1.0000
  C   C7        1.0  0.42212  0.83522  0.18347  1.0000
  C   C8        1.0  0.48724  0.99710  0.22449  1.0000
  C   C9        1.0  0.51625  0.09547  0.26982  1.0000
  C   C10       1.0  0.50077  0.13344  0.35105  1.0000
  C   C11       1.0  0.53681  0.19325  0.34270  1.0000
  C   C12       1.0  0.59022  0.21652  0.25725  1.0000
  C   C13       1.0  0.60623  0.17898  0.17658  1.0000
  C   C14       1.0  0.56930  0.11935  0.18008  1.0000
  C   C15       1.0  0.62953  0.27974  0.25219  1.0000
  C   C16       1.0  0.38166  0.66783  0.25271  1.0000
  C   C17       1.0  0.00193  0.48567  0.17952  1.0000
  C   C18       1.0  0.90477  0.42807  0.26171  1.0000
  C   C19       1.0  0.86568  0.37140  0.31352  1.0000
  C   C20       1.0  0.80626  0.34812  0.30084  1.0000
  C   C21       1.0  0.78434  0.38199  0.24370  1.0000
  C   C22       1.0  0.82318  0.43917  0.19624  1.0000
  C   C23       1.0  0.88274  0.46186  0.20321  1.0000
  C   C24       1.0  0.72122  0.35789  0.24047  1.0000
  C   C25       1.0  0.32956  0.71167  0.26371  1.0000
  C   C26       1.0  0.51260  0.51578  0.17802  1.0000
  C   C27       1.0  0.57409  0.48357  0.26110  1.0000
  C   C28       1.0  0.63274  0.50527  0.29969  1.0000
  C   C29       1.0  0.65555  0.46898  0.29206  1.0000
  C   C30       1.0  0.61967  0.40955  0.25250  1.0000
  C   C31       1.0  0.56060  0.38727  0.21995  1.0000
  C   C32       1.0  0.53806  0.42381  0.22278  1.0000
  C   C33       1.0  0.64345  0.37078  0.25019  1.0000
  C   C34       1.0  0.28874  0.61438  0.77331  1.0000
  C   C35       1.0  0.47822  0.99498  0.70730  1.0000
  C   C36       1.0  0.62984  0.27727  0.74619  1.0000
  C   C37       1.0  0.38550  0.67025  0.77551  1.0000
  C   C38       1.0  0.00436  0.48055  0.68866  1.0000
  C   C39       1.0  0.72246  0.35448  0.74149  1.0000
  C   C40       1.0  0.33051  0.71103  0.78483  1.0000
  C   C41       1.0  0.45562  0.63741  0.75070  1.0000
  C   C42       1.0  0.50780  0.65165  0.82772  1.0000
  C   C43       1.0  0.52963  0.61459  0.80672  1.0000
  C   C44       1.0  0.50028  0.56337  0.70616  1.0000
  C   C45       1.0  0.44910  0.55130  0.62597  1.0000
  C   C46       1.0  0.42592  0.58749  0.64835  1.0000
  C   C47       1.0  0.52224  0.52346  0.68224  1.0000
  C   C48       1.0  0.57992  0.48571  0.76100  1.0000
  C   C49       1.0  0.63691  0.50448  0.81222  1.0000
  C   C50       1.0  0.65869  0.46724  0.80033  1.0000
  C   C51       1.0  0.62337  0.40929  0.74377  1.0000
  C   C52       1.0  0.56594  0.38986  0.69687  1.0000
  C   C53       1.0  0.54472  0.42764  0.70301  1.0000
  C   C54       1.0  0.64587  0.36926  0.74053  1.0000
  N   N1        1.0  0.27867  0.66111  0.26923  1.0000
  N   N2        1.0  0.47621  0.03601  0.28521  1.0000
  N   N3        1.0  0.60553  0.31334  0.26031  1.0000
  N   N4        1.0  0.33521  0.61484  0.25767  1.0000
  N   N5        1.0  0.96388  0.44802  0.27991  1.0000
  N   N6        1.0  0.68692  0.29961  0.24179  1.0000
  N   N7        1.0  0.38227  0.71833  0.25643  1.0000
  N   N8        1.0  0.55455  0.52301  0.27124  1.0000
  N   N9        1.0  0.70161  0.39522  0.23996  1.0000
  N   N10       1.0  0.28064  0.65943  0.78208  1.0000
  N   N11       1.0  0.47655  0.03409  0.80417  1.0000
  N   N12       1.0  0.60692  0.31183  0.74386  1.0000
  N   N13       1.0  0.34002  0.61635  0.77168  1.0000
  N   N14       1.0  0.96541  0.44158  0.78438  1.0000
  N   N15       1.0  0.68721  0.29640  0.74491  1.0000
  N   N16       1.0  0.38412  0.71983  0.78226  1.0000
  N   N17       1.0  0.56086  0.52566  0.78051  1.0000
  N   N18       1.0  0.70404  0.39276  0.73800  1.0000
  O   O1        1.0  0.43569  0.67607  0.24240  1.0000
  O   O2        1.0  0.32245  0.75805  0.26660  1.0000
  O   O3        1.0  0.23832  0.56069  0.26553  1.0000
  O   O4        1.0  0.44038  0.68030  0.77472  1.0000
  O   O5        1.0  0.32106  0.75601  0.79237  1.0000
  O   O6        1.0  0.24292  0.55950  0.76644  1.0000
  C  Sn1       1.0  0.43861  0.55497  0.07513  1.0000
  C   C55       1.0  0.48937  0.56160  0.14194  1.0000
  C  Sn2       1.0  0.51861  0.60292  0.27061  1.0000
  C  Sn3       1.0  0.49663  0.63833  0.33391  1.0000
  C   C56       1.0  0.44588  0.63168  0.26713  1.0000
  C  Sn4       1.0  0.41662  0.59037  0.13843  1.0000
  O  Te1       1.0  0.40688  0.52499  0.94655  1.0000
  O  Te2       1.0  0.56930  0.60877  0.33536  1.0000
  O  Te3       1.0  0.52519  0.67994  0.46259  1.0000
  O  Te4       1.0  0.36596  0.58451  0.07372  1.0000
  Mg  Mg1       1.0  0.59260  0.67152  0.50980  1.0000
  Mg  Mg2       1.0  0.33940  0.53336  0.89934  1.0000
  C  Sn5       1.0  0.15502  0.58467  0.69498  1.0000
  C   C57       1.0  0.18174  0.55919  0.77527  1.0000
  C  Sn6       1.0  0.15031  0.50040  0.81204  1.0000
  C  Sn7       1.0  0.09095  0.46634  0.76754  1.0000
  C   C58       1.0  0.06427  0.49182  0.68727  1.0000
  C  Sn8       1.0  0.09566  0.55062  0.65048  1.0000
  O  Te5       1.0  0.18728  0.64352  0.65943  1.0000
  O  Te6       1.0  0.17795  0.47590  0.89243  1.0000
  O  Te7       1.0  0.05869  0.40744  0.80316  1.0000
  O  Te8       1.0  0.06805  0.57511  0.57011  1.0000
  Mg  Mg3       1.0  0.11566  0.39390  0.91413  1.0000
  Mg  Mg4       1.0  0.13030  0.65709  0.54827  1.0000
  C  Sn9       1.0  0.81875  0.35313  0.86810  1.0000
  C   C59       1.0  0.79006  0.37823  0.79687  1.0000
  C  Sn10      1.0  0.82015  0.42566  0.69341  1.0000
  C  Sn11      1.0  0.88015  0.44847  0.66036  1.0000
  C   C60       1.0  0.90879  0.42337  0.73154  1.0000
  C  Sn12      1.0  0.87874  0.37594  0.83505  1.0000
  O  Te9       1.0  0.78780  0.30573  0.97114  1.0000
  O  Te10      1.0  0.79055  0.45003  0.62367  1.0000
  O  Te11      1.0  0.91108  0.49591  0.55722  1.0000
  O  Te12      1.0  0.90831  0.35157  0.90474  1.0000
  Mg  Mg5       1.0  0.85159  0.51407  0.49140  1.0000
  Mg  Mg6       1.0  0.85052  0.27591  0.03695  1.0000
  C  Sn13      1.0  0.58823  0.12865  0.75048  1.0000
  C   C61       1.0  0.53069  0.09889  0.80755  1.0000
  C  Sn14      1.0  0.49906  0.12716  0.82523  1.0000
  C  Sn15      1.0  0.52548  0.18641  0.78493  1.0000
  C   C62       1.0  0.58299  0.21614  0.72787  1.0000
  C  Sn16      1.0  0.61465  0.18790  0.71017  1.0000
  O  Te13      1.0  0.61903  0.09952  0.73375  1.0000
  O  Te14      1.0  0.44159  0.09651  0.88258  1.0000
  O  Te15      1.0  0.49463  0.21553  0.80171  1.0000
  O  Te16      1.0  0.67208  0.21852  0.65284  1.0000
  Mg  Mg7       1.0  0.41755  0.15516  0.88449  1.0000
  Mg  Mg8       1.0  0.69615  0.15991  0.65079  1.0000
  C  Sn17      1.0  0.35020  0.86735  0.82987  1.0000
  C   C63       1.0  0.35371  0.82129  0.75324  1.0000
  C  Sn18      1.0  0.40518  0.83106  0.67491  1.0000
  C  Sn19      1.0  0.45419  0.88804  0.67321  1.0000
  C   C64       1.0  0.45067  0.93405  0.74982  1.0000
  C  Sn20      1.0  0.39921  0.92433  0.82817  1.0000
  O  Te17      1.0  0.29831  0.85658  0.90745  1.0000
  O  Te18      1.0  0.40763  0.78433  0.59909  1.0000
  O  Te19      1.0  0.50610  0.89878  0.59553  1.0000
  O  Te20      1.0  0.39675  0.97101  0.90397  1.0000
  Mg  Mg9       1.0  0.48802  0.82097  0.50950  1.0000
  Mg  Mg10      1.0  0.31639  0.93442  0.99367  1.0000
  C  Sn21      1.0  0.12602  0.47908  0.28078  1.0000
  C   C65       1.0  0.17349  0.52891  0.21621  1.0000
  C  Sn22      1.0  0.16617  0.57243  0.15231  1.0000
  C  Sn23      1.0  0.11025  0.56603  0.15306  1.0000
  C   C66       1.0  0.06282  0.51624  0.21763  1.0000
  C  Sn24      1.0  0.07009  0.47269  0.28153  1.0000
  O  Te21      1.0  0.13435  0.43613  0.34403  1.0000
  O  Te22      1.0  0.21428  0.62184  0.08837  1.0000
  O  Te23      1.0  0.10195  0.60903  0.08974  1.0000
  O  Te24      1.0  0.02203  0.42331  0.34547  1.0000
  Mg  Mg11      1.0  0.18089  0.66835  0.01627  1.0000
  Mg  Mg12      1.0  0.05537  0.37678  0.41768  1.0000
