data_image0
_chemical_formula_structural       H6C18N18O6C2Sn2C2HTe2HMgC2Sn2C2HTe2HMgC2Sn2C2HTe2HMgC2Sn2C2HTe2HMgC2Sn2C2HTe2HMgC2Sn2C2HTe2HMgC2Sn2C2HTe2HMgC2Sn2C2HTe2HMgC2Sn2C2HTe2HMgC2Sn2C2HTe2HMgC2Sn2C2HTe2HMgC2Sn2C2HTe2HMg
_chemical_formula_sum              "H30 C66 N18 O6 Sn24 Te24 Mg12"
_cell_length_a       26.7895
_cell_length_b       26.8158
_cell_length_c       7.95546
_cell_angle_alpha    92.5588
_cell_angle_beta     88.2358
_cell_angle_gamma    120.687

_symmetry_space_group_name_H-M    'P1'
_space_group_IT_number       1

loop_
  _space_group_symop_operation_xyz
  'x, y, z'

loop_
  _atom_site_type_symbol
  _atom_site_label
  _atom_site_symmetry_multiplicity
  _atom_site_fract_x
  _atom_site_fract_y
  _atom_site_fract_z
  _atom_site_occupancy
  H   H1        1.0  0.49193  0.48023  0.08300  1.0000
  H   H2        1.0  0.52818  0.00765  0.15991  1.0000
  H   H3        1.0  0.98988  0.50208  0.07331  1.0000
  H   H4        1.0  0.50460  0.49246  0.57437  1.0000
  H   H5        1.0  0.50746  0.00619  0.59719  1.0000
  H   H6        1.0  0.99328  0.49860  0.58427  1.0000
  C   C1        1.0  0.28496  0.61492  0.26370  1.0000
  C   C2        1.0  0.48724  0.99710  0.22449  1.0000
  C   C3        1.0  0.62953  0.27974  0.25219  1.0000
  C   C4        1.0  0.38166  0.66783  0.25271  1.0000
  C   C5        1.0  0.00193  0.48567  0.17952  1.0000
  C   C6        1.0  0.72122  0.35789  0.24047  1.0000
  C   C7        1.0  0.32956  0.71167  0.26371  1.0000
  C   C8        1.0  0.51260  0.51578  0.17802  1.0000
  C   C9        1.0  0.64345  0.37078  0.25019  1.0000
  C   C10       1.0  0.28874  0.61438  0.77331  1.0000
  C   C11       1.0  0.47822  0.99498  0.70730  1.0000
  C   C12       1.0  0.62984  0.27727  0.74619  1.0000
  C   C13       1.0  0.38550  0.67025  0.77551  1.0000
  C   C14       1.0  0.00436  0.48055  0.68866  1.0000
  C   C15       1.0  0.72246  0.35448  0.74149  1.0000
  C   C16       1.0  0.33051  0.71103  0.78483  1.0000
  C   C17       1.0  0.52224  0.52346  0.68224  1.0000
  C   C18       1.0  0.64587  0.36926  0.74053  1.0000
  N   N1        1.0  0.27867  0.66111  0.26923  1.0000
  N   N2        1.0  0.47621  0.03601  0.28521  1.0000
  N   N3        1.0  0.60553  0.31334  0.26031  1.0000
  N   N4        1.0  0.33521  0.61484  0.25767  1.0000
  N   N5        1.0  0.96388  0.44802  0.27991  1.0000
  N   N6        1.0  0.68692  0.29961  0.24179  1.0000
  N   N7        1.0  0.38227  0.71833  0.25643  1.0000
  N   N8        1.0  0.55455  0.52301  0.27124  1.0000
  N   N9        1.0  0.70161  0.39522  0.23996  1.0000
  N   N10       1.0  0.28064  0.65943  0.78208  1.0000
  N   N11       1.0  0.47655  0.03409  0.80417  1.0000
  N   N12       1.0  0.60692  0.31183  0.74386  1.0000
  N   N13       1.0  0.34002  0.61635  0.77168  1.0000
  N   N14       1.0  0.96541  0.44158  0.78438  1.0000
  N   N15       1.0  0.68721  0.29640  0.74491  1.0000
  N   N16       1.0  0.38412  0.71983  0.78226  1.0000
  N   N17       1.0  0.56086  0.52566  0.78051  1.0000
  N   N18       1.0  0.70404  0.39276  0.73800  1.0000
  O   O1        1.0  0.43569  0.67607  0.24240  1.0000
  O   O2        1.0  0.32245  0.75805  0.26660  1.0000
  O   O3        1.0  0.23832  0.56069  0.26553  1.0000
  O   O4        1.0  0.44038  0.68030  0.77472  1.0000
  O   O5        1.0  0.32106  0.75601  0.79237  1.0000
  O   O6        1.0  0.24292  0.55950  0.76644  1.0000
  C   C19       1.0  0.35505  0.87066  0.33237  1.0000
  C   C20       1.0  0.36041  0.82441  0.26637  1.0000
  C  Sn1       1.0  0.41210  0.83477  0.18814  1.0000
  C  Sn2       1.0  0.45924  0.89254  0.17599  1.0000
  C   C21       1.0  0.45346  0.93851  0.24252  1.0000
  C   C22       1.0  0.40154  0.92765  0.32050  1.0000
  H   H7        1.0  0.31489  0.86227  0.39278  1.0000
  O  Te1       1.0  0.41670  0.78806  0.12282  1.0000
  O  Te2       1.0  0.51140  0.90412  0.09851  1.0000
  H   H8        1.0  0.39742  0.96347  0.37168  1.0000
  Mg  Mg1       1.0  0.49660  0.82595  0.02874  1.0000
  C   C23       1.0  0.50403  0.14819  0.36643  1.0000
  C   C24       1.0  0.51035  0.10428  0.28613  1.0000
  C  Sn3       1.0  0.56031  0.11811  0.19150  1.0000
  C  Sn4       1.0  0.60470  0.17703  0.17727  1.0000
  C   C25       1.0  0.59798  0.22064  0.25818  1.0000
  C   C26       1.0  0.54780  0.20632  0.35251  1.0000
  H   H9        1.0  0.46522  0.13712  0.43950  1.0000
  O  Te3       1.0  0.56592  0.07370  0.11204  1.0000
  O  Te4       1.0  0.65509  0.19207  0.08353  1.0000
  H   H10       1.0  0.54293  0.24032  0.41475  1.0000
  Mg  Mg2       1.0  0.63939  0.12765  0.99844  1.0000
  C   C27       1.0  0.12445  0.48600  0.33235  1.0000
  C   C28       1.0  0.17241  0.53213  0.25538  1.0000
  C  Sn5       1.0  0.16491  0.56839  0.15137  1.0000
  C  Sn6       1.0  0.10829  0.55818  0.12419  1.0000
  C   C29       1.0  0.06059  0.51194  0.20187  1.0000
  C   C30       1.0  0.06859  0.47591  0.30566  1.0000
  H   H11       1.0  0.13063  0.45814  0.41273  1.0000
  O  Te5       1.0  0.21329  0.61427  0.07539  1.0000
  O  Te6       1.0  0.09956  0.59376  0.02088  1.0000
  H   H12       1.0  0.03145  0.44022  0.36533  1.0000
  Mg  Mg3       1.0  0.17595  0.66232  0.94530  1.0000
  C   C31       1.0  0.85072  0.35916  0.32310  1.0000
  C   C32       1.0  0.89582  0.41316  0.27278  1.0000
  C  Sn7       1.0  0.88358  0.45357  0.21006  1.0000
  C  Sn8       1.0  0.82506  0.43955  0.19768  1.0000
  C   C33       1.0  0.78026  0.38543  0.24846  1.0000
  C   C34       1.0  0.79299  0.34531  0.31099  1.0000
  H   H13       1.0  0.86057  0.32813  0.37156  1.0000
  O  Te7       1.0  0.92916  0.50731  0.16029  1.0000
  O  Te8       1.0  0.81161  0.47914  0.13551  1.0000
  H   H14       1.0  0.75807  0.30352  0.35004  1.0000
  Mg  Mg4       1.0  0.88880  0.54674  0.08367  1.0000
  C   C35       1.0  0.41493  0.56588  0.11572  1.0000
  C   C36       1.0  0.43670  0.61741  0.21254  1.0000
  C  Sn9       1.0  0.48922  0.63991  0.29711  1.0000
  C  Sn10      1.0  0.52043  0.61017  0.28424  1.0000
  C   C37       1.0  0.49830  0.55867  0.18697  1.0000
  C   C38       1.0  0.44569  0.53653  0.10291  1.0000
  H   H15       1.0  0.37424  0.54876  0.05060  1.0000
  O  Te9       1.0  0.51035  0.69143  0.39335  1.0000
  O  Te10      1.0  0.57304  0.63170  0.36740  1.0000
  H   H16       1.0  0.42886  0.49666  0.02787  1.0000
  Mg  Mg5       1.0  0.58397  0.70345  0.48329  1.0000
  C   C39       1.0  0.64536  0.50339  0.30801  1.0000
  C   C40       1.0  0.58941  0.49042  0.26859  1.0000
  C  Sn11      1.0  0.54662  0.43348  0.22590  1.0000
  C  Sn12      1.0  0.56023  0.38878  0.22277  1.0000
  C   C41       1.0  0.61632  0.40219  0.26252  1.0000
  C   C42       1.0  0.65881  0.45932  0.30501  1.0000
  H   H17       1.0  0.67822  0.54759  0.34098  1.0000
  O  Te11      1.0  0.49095  0.42128  0.18681  1.0000
  O  Te12      1.0  0.51829  0.33149  0.18059  1.0000
  H   H18       1.0  0.70211  0.46934  0.33563  1.0000
  Mg  Mg6       1.0  0.44866  0.33654  0.13706  1.0000
  C   C43       1.0  0.37772  0.90131  0.86197  1.0000
  C   C44       1.0  0.43000  0.92954  0.77186  1.0000
  C  Sn13      1.0  0.44836  0.89753  0.67238  1.0000
  C  Sn14      1.0  0.41364  0.83610  0.66314  1.0000
  C   C45       1.0  0.36139  0.80826  0.75367  1.0000
  C   C46       1.0  0.34344  0.84073  0.85287  1.0000
  H   H19       1.0  0.36381  0.92642  0.93865  1.0000
  O  Te13      1.0  0.50072  0.92643  0.58322  1.0000
  O  Te14      1.0  0.43095  0.80304  0.56463  1.0000
  H   H20       1.0  0.30294  0.81885  0.92254  1.0000
  Mg  Mg7       1.0  0.50579  0.86235  0.46634  1.0000
  C   C47       1.0  0.58541  0.12814  0.69452  1.0000
  C   C48       1.0  0.53001  0.09770  0.76686  1.0000
  C  Sn15      1.0  0.50252  0.12729  0.82853  1.0000
  C  Sn16      1.0  0.53112  0.18848  0.81736  1.0000
  C   C49       1.0  0.58652  0.21853  0.74465  1.0000
  C   C50       1.0  0.61364  0.18850  0.68338  1.0000
  H   H21       1.0  0.60638  0.10491  0.64702  1.0000
  O  Te15      1.0  0.44717  0.09621  0.90049  1.0000
  O  Te16      1.0  0.50463  0.21913  0.87795  1.0000
  H   H22       1.0  0.65652  0.21207  0.62728  1.0000
  Mg  Mg8       1.0  0.42899  0.15743  0.96526  1.0000
  C   C51       1.0  0.12286  0.56773  0.63987  1.0000
  C   C52       1.0  0.07592  0.51378  0.68302  1.0000
  C  Sn17      1.0  0.08498  0.47521  0.77117  1.0000
  C  Sn18      1.0  0.14214  0.49107  0.81683  1.0000
  C   C53       1.0  0.18880  0.54517  0.77318  1.0000
  C   C54       1.0  0.17925  0.58342  0.68492  1.0000
  H   H23       1.0  0.11547  0.59735  0.57166  1.0000
  O  Te17      1.0  0.03760  0.42147  0.81322  1.0000
  O  Te18      1.0  0.15242  0.45336  0.90501  1.0000
  H   H24       1.0  0.21559  0.62521  0.65162  1.0000
  Mg  Mg9       1.0  0.07375  0.38497  0.93376  1.0000
  C   C55       1.0  0.87253  0.45668  0.68035  1.0000
  C   C56       1.0  0.90224  0.43301  0.75355  1.0000
  C  Sn19      1.0  0.87162  0.37776  0.82017  1.0000
  C  Sn20      1.0  0.81010  0.34570  0.81315  1.0000
  C   C57       1.0  0.78078  0.36975  0.73955  1.0000
  C   C58       1.0  0.81186  0.42509  0.67332  1.0000
  H   H25       1.0  0.89657  0.49948  0.62902  1.0000
  O  Te19      1.0  0.90199  0.35477  0.89291  1.0000
  O  Te20      1.0  0.77842  0.29037  0.87872  1.0000
  H   H26       1.0  0.78884  0.44338  0.61655  1.0000
  Mg  Mg10      1.0  0.83944  0.27767  0.96516  1.0000
  C   C59       1.0  0.53205  0.62903  0.82234  1.0000
  C   C60       1.0  0.50725  0.57466  0.73962  1.0000
  C  Sn21      1.0  0.45556  0.55293  0.65119  1.0000
  C  Sn22      1.0  0.42830  0.58637  0.64565  1.0000
  C   C61       1.0  0.45347  0.64073  0.72872  1.0000
  C   C62       1.0  0.50520  0.66205  0.81689  1.0000
  H   H27       1.0  0.57209  0.64554  0.89048  1.0000
  O  Te21      1.0  0.43136  0.49851  0.56930  1.0000
  O  Te22      1.0  0.37662  0.56571  0.55814  1.0000
  H   H28       1.0  0.52441  0.70417  0.88082  1.0000
  Mg  Mg11      1.0  0.36047  0.48905  0.46662  1.0000
  C   C63       1.0  0.55313  0.39180  0.69351  1.0000
  C   C64       1.0  0.60911  0.40357  0.72675  1.0000
  C  Sn23      1.0  0.65133  0.45859  0.78689  1.0000
  C  Sn24      1.0  0.63709  0.50256  0.81417  1.0000
  C   C65       1.0  0.58094  0.49033  0.78064  1.0000
  C   C66       1.0  0.53904  0.43513  0.72044  1.0000
  H   H29       1.0  0.52069  0.34908  0.64702  1.0000
  O  Te23      1.0  0.70706  0.46962  0.81939  1.0000
  O  Te24      1.0  0.67844  0.55792  0.87425  1.0000
  H   H30       1.0  0.49569  0.42602  0.69482  1.0000
  Mg  Mg12      1.0  0.74842  0.55185  0.89987  1.0000
