data_image0
_chemical_formula_structural       P4H60C84N12SnCSn2CSnTe4Mg2SnCSn2CSnTe4Mg2SnCSn2CSnTe4Mg2SnCSn2CSnTe4Mg2SnCSn2CSnTe4Mg2SnCSn2CSnTe4Mg2SnCSn2CSnTe4Mg2SnCSn2CSnTe4Mg2SnCSn2CSnTe4Mg2SnCSn2CSnTe4Mg2SnCSn2CSnTe4Mg2SnCSn2CSnTe4Mg2
_chemical_formula_sum              "P4 H60 C108 N12 Sn48 Te48 Mg24"
_cell_length_a       39.8522
_cell_length_b       39.8939
_cell_length_c       9.84607
_cell_angle_alpha    90.0413
_cell_angle_beta     90.3483
_cell_angle_gamma    120.661

_symmetry_space_group_name_H-M    'P1'
_space_group_IT_number       1

loop_
  _space_group_symop_operation_xyz
  'x, y, z'

loop_
  _atom_site_type_symbol
  _atom_site_label
  _atom_site_symmetry_multiplicity
  _atom_site_fract_x
  _atom_site_fract_y
  _atom_site_fract_z
  _atom_site_occupancy
  P   P1        1.0  0.66507  0.33660  0.45121  1.0000
  P   P2        1.0  0.33491  0.66420  0.45676  1.0000
  P   P3        1.0  0.66519  0.33224  0.96332  1.0000
  P   P4        1.0  0.33327  0.66478  0.95036  1.0000
  H   H1        1.0  0.60947  0.32345  0.22553  1.0000
  H   H2        1.0  0.57986  0.36319  0.15663  1.0000
  H   H3        1.0  0.66779  0.45930  0.38783  1.0000
  H   H4        1.0  0.69871  0.42210  0.44817  1.0000
  H   H5        1.0  0.60510  0.45341  0.35102  1.0000
  H   H6        1.0  0.54047  0.15080  0.35261  1.0000
  H   H7        1.0  0.84660  0.38490  0.34544  1.0000
  H   H8        1.0  0.39053  0.53649  0.35425  1.0000
  H   H9        1.0  0.46155  0.84744  0.36000  1.0000
  H   H10       1.0  0.15218  0.61585  0.35249  1.0000
  H   H11       1.0  0.60398  0.50327  0.24221  1.0000
  H   H12       1.0  0.50155  0.10078  0.27575  1.0000
  H   H13       1.0  0.89721  0.39688  0.26495  1.0000
  H   H14       1.0  0.50624  0.90297  0.25908  1.0000
  H   H15       1.0  0.56982  0.53976  0.25101  1.0000
  H   H16       1.0  0.46542  0.02900  0.28098  1.0000
  H   H17       1.0  0.96748  0.42765  0.25618  1.0000
  H   H18       1.0  0.54196  0.97461  0.25628  1.0000
  H   H19       1.0  0.46260  0.43590  0.13817  1.0000
  H   H20       1.0  0.56869  0.02887  0.15818  1.0000
  H   H21       1.0  0.97719  0.53687  0.15775  1.0000
  H   H22       1.0  0.43523  0.97334  0.17330  1.0000
  H   H23       1.0  0.49671  0.39881  0.13602  1.0000
  H   H24       1.0  0.60580  0.10094  0.16349  1.0000
  H   H25       1.0  0.90577  0.50587  0.17312  1.0000
  H   H26       1.0  0.39839  0.90045  0.17995  1.0000
  H   H27       1.0  0.60561  0.32031  0.75815  1.0000
  H   H28       1.0  0.67937  0.28124  0.76657  1.0000
  H   H29       1.0  0.70841  0.38208  0.72789  1.0000
  H   H30       1.0  0.31879  0.71669  0.75824  1.0000
  H   H31       1.0  0.28430  0.60842  0.73402  1.0000
  H   H32       1.0  0.57617  0.36058  0.69596  1.0000
  H   H33       1.0  0.63513  0.21128  0.69987  1.0000
  H   H34       1.0  0.77917  0.41453  0.66663  1.0000
  H   H35       1.0  0.36019  0.78789  0.71291  1.0000
  H   H36       1.0  0.21417  0.57934  0.67313  1.0000
  H   H37       1.0  0.66562  0.45611  0.92613  1.0000
  H   H38       1.0  0.54369  0.20646  0.93612  1.0000
  H   H39       1.0  0.79881  0.35693  0.00031  1.0000
  H   H40       1.0  0.45393  0.79282  0.94545  1.0000
  H   H41       1.0  0.20772  0.65951  0.94947  1.0000
  H   H42       1.0  0.69384  0.41608  0.99321  1.0000
  H   H43       1.0  0.58608  0.27637  0.00314  1.0000
  H   H44       1.0  0.72844  0.32439  0.05918  1.0000
  H   H45       1.0  0.41401  0.72250  0.99046  1.0000
  H   H46       1.0  0.27825  0.68865  0.00624  1.0000
  H   H47       1.0  0.61596  0.46294  0.83580  1.0000
  H   H48       1.0  0.53326  0.15020  0.83343  1.0000
  H   H49       1.0  0.85148  0.40169  0.88555  1.0000
  H   H50       1.0  0.38500  0.53516  0.81671  1.0000
  H   H51       1.0  0.46211  0.85145  0.85120  1.0000
  H   H52       1.0  0.14907  0.60462  0.88038  1.0000
  H   H53       1.0  0.59792  0.49828  0.77453  1.0000
  H   H54       1.0  0.89691  0.39879  0.74548  1.0000
  H   H55       1.0  0.56539  0.53530  0.75142  1.0000
  H   H56       1.0  0.96782  0.43414  0.74318  1.0000
  H   H57       1.0  0.45610  0.42872  0.66966  1.0000
  H   H58       1.0  0.97236  0.54198  0.66141  1.0000
  H   H59       1.0  0.48930  0.39170  0.70514  1.0000
  H   H60       1.0  0.89833  0.50528  0.66581  1.0000
  C   C1        1.0  0.65358  0.36818  0.35200  1.0000
  C   C2        1.0  0.62184  0.35321  0.26170  1.0000
  C   C3        1.0  0.60581  0.37546  0.22052  1.0000
  C   C4        1.0  0.62070  0.41314  0.27236  1.0000
  C   C5        1.0  0.65510  0.42963  0.35073  1.0000
  C   C6        1.0  0.67197  0.40793  0.38738  1.0000
  C   C7        1.0  0.59898  0.43359  0.26558  1.0000
  C   C8        1.0  0.56747  0.16604  0.29324  1.0000
  C   C9        1.0  0.83352  0.40015  0.29374  1.0000
  C   C10       1.0  0.40201  0.56367  0.29680  1.0000
  C   C11       1.0  0.43487  0.83429  0.29770  1.0000
  C   C12       1.0  0.16596  0.60112  0.30346  1.0000
  C   C13       1.0  0.55264  0.44796  0.19029  1.0000
  C   C14       1.0  0.55617  0.10606  0.21774  1.0000
  C   C15       1.0  0.89539  0.44887  0.22425  1.0000
  C   C16       1.0  0.44906  0.89601  0.22237  1.0000
  C   C17       1.0  0.57263  0.48796  0.22346  1.0000
  C   C18       1.0  0.51621  0.08496  0.24979  1.0000
  C   C19       1.0  0.91445  0.42774  0.24298  1.0000
  C   C20       1.0  0.49004  0.91784  0.24267  1.0000
  C   C21       1.0  0.55319  0.50871  0.22887  1.0000
  C   C22       1.0  0.49573  0.04446  0.25009  1.0000
  C   C23       1.0  0.95474  0.44548  0.23574  1.0000
  C   C24       1.0  0.51051  0.95859  0.23776  1.0000
  C   C25       1.0  0.51277  0.49055  0.20240  1.0000
  C   C26       1.0  0.51359  0.02287  0.21551  1.0000
  C   C27       1.0  0.97881  0.48552  0.20936  1.0000
  C   C28       1.0  0.49126  0.97960  0.21533  1.0000
  C   C29       1.0  0.49306  0.45053  0.16856  1.0000
  C   C30       1.0  0.55386  0.04439  0.18591  1.0000
  C   C31       1.0  0.95959  0.50628  0.18476  1.0000
  C   C32       1.0  0.45053  0.95764  0.19185  1.0000
  C   C33       1.0  0.51235  0.42969  0.16225  1.0000
  C   C34       1.0  0.57471  0.08501  0.18595  1.0000
  C   C35       1.0  0.91921  0.48857  0.19158  1.0000
  C   C36       1.0  0.42991  0.91688  0.19491  1.0000
  C   C37       1.0  0.65041  0.36430  0.88438  1.0000
  C   C38       1.0  0.63493  0.28443  0.88366  1.0000
  C   C39       1.0  0.71394  0.35075  0.89636  1.0000
  C   C40       1.0  0.36310  0.71408  0.88002  1.0000
  C   C41       1.0  0.28527  0.64900  0.87824  1.0000
  C   C42       1.0  0.61810  0.34984  0.79704  1.0000
  C   C43       1.0  0.64896  0.26600  0.79808  1.0000
  C   C44       1.0  0.72825  0.37600  0.78427  1.0000
  C   C45       1.0  0.34844  0.73299  0.79817  1.0000
  C   C46       1.0  0.26722  0.61926  0.78122  1.0000
  C   C47       1.0  0.60151  0.37201  0.76211  1.0000
  C   C48       1.0  0.62492  0.22711  0.76049  1.0000
  C   C49       1.0  0.76756  0.39417  0.75075  1.0000
  C   C50       1.0  0.37136  0.77273  0.77256  1.0000
  C   C51       1.0  0.22774  0.60241  0.74871  1.0000
  C   C52       1.0  0.61744  0.41008  0.81402  1.0000
  C   C53       1.0  0.58653  0.20565  0.80812  1.0000
  C   C54       1.0  0.79310  0.38732  0.82926  1.0000
  C   C55       1.0  0.40961  0.79472  0.82469  1.0000
  C   C56       1.0  0.20527  0.61532  0.81519  1.0000
  C   C57       1.0  0.65194  0.42594  0.89150  1.0000
  C   C58       1.0  0.57255  0.22398  0.89257  1.0000
  C   C59       1.0  0.77852  0.36079  0.93681  1.0000
  C   C60       1.0  0.42469  0.77581  0.90211  1.0000
  C   C61       1.0  0.22424  0.64760  0.90414  1.0000
  C   C62       1.0  0.66810  0.40352  0.92810  1.0000
  C   C63       1.0  0.59637  0.26270  0.93215  1.0000
  C   C64       1.0  0.73925  0.34287  0.97075  1.0000
  C   C65       1.0  0.40177  0.73618  0.92820  1.0000
  C   C66       1.0  0.26380  0.66451  0.93467  1.0000
  C   C67       1.0  0.59861  0.43285  0.79641  1.0000
  C   C68       1.0  0.56237  0.16372  0.78672  1.0000
  C   C69       1.0  0.83508  0.40753  0.80889  1.0000
  C   C70       1.0  0.40123  0.56511  0.77861  1.0000
  C   C71       1.0  0.43288  0.83651  0.80503  1.0000
  C   C72       1.0  0.16279  0.59542  0.80489  1.0000
  C   C73       1.0  0.54630  0.44185  0.74150  1.0000
  C   C74       1.0  0.89304  0.45040  0.70752  1.0000
  C   C75       1.0  0.56674  0.48282  0.75399  1.0000
  C   C76       1.0  0.91295  0.43014  0.72685  1.0000
  C   C77       1.0  0.54800  0.50381  0.73771  1.0000
  C   C78       1.0  0.95334  0.45043  0.72504  1.0000
  C   C79       1.0  0.50755  0.48538  0.70945  1.0000
  C   C80       1.0  0.97560  0.49088  0.70327  1.0000
  C   C81       1.0  0.48725  0.44441  0.69421  1.0000
  C   C82       1.0  0.95536  0.51077  0.68053  1.0000
  C   C83       1.0  0.50599  0.42331  0.71266  1.0000
  C   C84       1.0  0.91477  0.49064  0.68119  1.0000
  N   N1        1.0  0.57129  0.42614  0.17990  1.0000
  N   N2        1.0  0.57916  0.14692  0.22070  1.0000
  N   N3        1.0  0.85475  0.43294  0.23122  1.0000
  N   N4        1.0  0.43435  0.57762  0.22859  1.0000
  N   N5        1.0  0.42513  0.85517  0.22560  1.0000
  N   N6        1.0  0.14606  0.56734  0.24389  1.0000
  N   N7        1.0  0.56323  0.41831  0.75038  1.0000
  N   N8        1.0  0.57589  0.14410  0.72729  1.0000
  N   N9        1.0  0.85249  0.43269  0.71469  1.0000
  N   N10       1.0  0.43543  0.57866  0.72586  1.0000
  N   N11       1.0  0.42039  0.85574  0.73789  1.0000
  N   N12       1.0  0.14199  0.56655  0.72444  1.0000
  C  Sn1       1.0  0.44297  0.49423  0.17950  1.0000
  C   C85       1.0  0.48298  0.50876  0.16728  1.0000
  C  Sn2       1.0  0.50969  0.54831  0.18877  1.0000
  C  Sn3       1.0  0.49613  0.57387  0.22328  1.0000
  C   C86       1.0  0.45614  0.55935  0.23551  1.0000
  C  Sn4       1.0  0.42940  0.51980  0.21401  1.0000
  O  Te1       1.0  0.41679  0.45459  0.15757  1.0000
  O  Te2       1.0  0.54955  0.56215  0.17593  1.0000
  O  Te3       1.0  0.52235  0.61355  0.24521  1.0000
  O  Te4       1.0  0.38957  0.50595  0.22686  1.0000
  Mg  Mg1       1.0  0.57378  0.61850  0.21585  1.0000
  Mg  Mg2       1.0  0.36532  0.44961  0.18704  1.0000
  C  Sn5       1.0  0.63699  0.26653  0.23423  1.0000
  C   C87       1.0  0.62833  0.28662  0.33094  1.0000
  C  Sn6       1.0  0.60098  0.26633  0.43217  1.0000
  C  Sn7       1.0  0.58191  0.22509  0.43691  1.0000
  C   C88       1.0  0.59057  0.20502  0.34027  1.0000
  C  Sn8       1.0  0.61791  0.22529  0.23897  1.0000
  O  Te5       1.0  0.66443  0.28742  0.13394  1.0000
  O  Te6       1.0  0.59280  0.28705  0.52771  1.0000
  O  Te7       1.0  0.55445  0.20421  0.53732  1.0000
  O  Te8       1.0  0.62610  0.20459  0.14349  1.0000
  Mg  Mg3       1.0  0.55323  0.24553  0.64474  1.0000
  Mg  Mg4       1.0  0.66568  0.24609  0.02647  1.0000
  C  Sn9       1.0  0.07676  0.50611  0.14690  1.0000
  C   C89       1.0  0.10140  0.54428  0.19246  1.0000
  C  Sn10      1.0  0.08614  0.56432  0.25999  1.0000
  C  Sn11      1.0  0.04541  0.54582  0.28255  1.0000
  C   C90       1.0  0.02080  0.50767  0.23703  1.0000
  C  Sn12      1.0  0.03603  0.48761  0.16945  1.0000
  O  Te9       1.0  0.09266  0.48663  0.07962  1.0000
  O  Te10      1.0  0.11136  0.60247  0.30456  1.0000
  O  Te11      1.0  0.02953  0.56534  0.34989  1.0000
  O  Te12      1.0  0.01085  0.44948  0.12492  1.0000
  Mg  Mg5       1.0  0.07577  0.61691  0.39135  1.0000
  Mg  Mg6       1.0  0.04640  0.43501  0.03818  1.0000
  C  Sn13      1.0  0.74919  0.35019  0.48069  1.0000
  C   C91       1.0  0.72081  0.35625  0.42110  1.0000
  C  Sn14      1.0  0.72594  0.37140  0.29001  1.0000
  C  Sn15      1.0  0.76015  0.38066  0.21690  1.0000
  C   C92       1.0  0.78851  0.37460  0.27647  1.0000
  C  Sn16      1.0  0.78340  0.35946  0.40758  1.0000
  O  Te13      1.0  0.74345  0.33502  0.61186  1.0000
  O  Te14      1.0  0.69717  0.37721  0.23259  1.0000
  O  Te15      1.0  0.76588  0.39585  0.08563  1.0000
  O  Te16      1.0  0.81215  0.35364  0.46498  1.0000
  Mg  Mg7       1.0  0.71833  0.39854  0.05103  1.0000
  Mg  Mg8       1.0  0.79101  0.33229  0.64650  1.0000
  C  Sn17      1.0  0.23820  0.66466  0.40095  1.0000
  C   C93       1.0  0.21577  0.63566  0.30555  1.0000
  C  Sn18      1.0  0.22805  0.61068  0.25809  1.0000
  C  Sn19      1.0  0.26349  0.61474  0.30706  1.0000
  C   C94       1.0  0.28590  0.64371  0.40241  1.0000
  C  Sn20      1.0  0.27364  0.66872  0.44992  1.0000
  O  Te17      1.0  0.22536  0.68931  0.44698  1.0000
  O  Te18      1.0  0.20513  0.58192  0.16268  1.0000
  O  Te19      1.0  0.27632  0.59006  0.26093  1.0000
  O  Te20      1.0  0.29654  0.69745  0.54528  1.0000
  Mg  Mg9       1.0  0.23496  0.55538  0.13084  1.0000
  Mg  Mg10      1.0  0.26673  0.72399  0.57725  1.0000
  C  Sn21      1.0  0.44117  0.95053  0.73845  1.0000
  C   C95       1.0  0.48161  0.97501  0.74841  1.0000
  C  Sn22      1.0  0.50623  0.95984  0.73633  1.0000
  C  Sn23      1.0  0.49011  0.91934  0.71374  1.0000
  C   C96       1.0  0.44970  0.89487  0.70377  1.0000
  C  Sn24      1.0  0.42505  0.91003  0.71586  1.0000
  O  Te21      1.0  0.41711  0.96633  0.75084  1.0000
  O  Te22      1.0  0.54656  0.98489  0.74670  1.0000
  O  Te23      1.0  0.51421  0.90354  0.70136  1.0000
  O  Te24      1.0  0.38474  0.88499  0.70549  1.0000
  Mg  Mg11      1.0  0.56727  0.94951  0.72280  1.0000
  Mg  Mg12      1.0  0.36401  0.92035  0.72929  1.0000
  C  Sn25      1.0  0.36187  0.76246  0.29099  1.0000
  C   C97       1.0  0.40035  0.78927  0.32865  1.0000
  C  Sn26      1.0  0.42468  0.77641  0.37915  1.0000
  C  Sn27      1.0  0.41024  0.73591  0.39220  1.0000
  C   C98       1.0  0.37179  0.70912  0.35453  1.0000
  C  Sn28      1.0  0.34744  0.72195  0.30404  1.0000
  O  Te25      1.0  0.33808  0.77597  0.24074  1.0000
  O  Te26      1.0  0.46304  0.80378  0.41619  1.0000
  O  Te27      1.0  0.43408  0.72242  0.44250  1.0000
  O  Te28      1.0  0.30911  0.69462  0.26699  1.0000
  Mg  Mg13      1.0  0.48416  0.77102  0.47930  1.0000
  Mg  Mg14      1.0  0.28796  0.72734  0.20381  1.0000
  C  Sn29      1.0  0.07261  0.56533  0.79525  1.0000
  C   C99       1.0  0.09675  0.55033  0.76659  1.0000
  C  Sn30      1.0  0.08208  0.51509  0.69637  1.0000
  C  Sn31      1.0  0.04246  0.49442  0.65384  1.0000
  C   C100      1.0  0.01835  0.50942  0.68249  1.0000
  C  Sn32      1.0  0.03299  0.54466  0.75272  1.0000
  O  Te29      1.0  0.08789  0.60061  0.86557  1.0000
  O  Te30      1.0  0.10677  0.50068  0.66893  1.0000
  O  Te31      1.0  0.02719  0.45912  0.58348  1.0000
  O  Te32      1.0  0.00832  0.55907  0.78014  1.0000
  Mg  Mg15      1.0  0.07236  0.45143  0.57014  1.0000
  Mg  Mg16      1.0  0.04271  0.60832  0.87886  1.0000
  C  Sn33      1.0  0.40327  0.63441  0.30648  1.0000
  C   C101      1.0  0.38903  0.59514  0.33529  1.0000
  C  Sn34      1.0  0.35014  0.57085  0.37259  1.0000
  C  Sn35      1.0  0.32495  0.58613  0.38121  1.0000
  C   C102      1.0  0.33919  0.62538  0.35240  1.0000
  C  Sn36      1.0  0.37808  0.64969  0.31510  1.0000
  O  Te33      1.0  0.44224  0.65815  0.26938  1.0000
  O  Te34      1.0  0.33658  0.53169  0.40095  1.0000
  O  Te35      1.0  0.28595  0.56235  0.41836  1.0000
  O  Te36      1.0  0.39164  0.68883  0.28673  1.0000
  Mg  Mg17      1.0  0.28115  0.51099  0.44710  1.0000
  Mg  Mg18      1.0  0.44705  0.70955  0.24051  1.0000
  C  Sn37      1.0  0.38068  0.64197  0.74236  1.0000
  C   C103      1.0  0.34796  0.63105  0.82290  1.0000
  C  Sn38      1.0  0.33372  0.59857  0.90745  1.0000
  C  Sn39      1.0  0.35259  0.57656  0.91167  1.0000
  C   C104      1.0  0.38530  0.58749  0.83119  1.0000
  C  Sn40      1.0  0.39956  0.61997  0.74658  1.0000
  O  Te37      1.0  0.39442  0.67455  0.65859  1.0000
  O  Te38      1.0  0.30095  0.58821  0.98700  1.0000
  O  Te39      1.0  0.33883  0.54397  0.99554  1.0000
  O  Te40      1.0  0.43231  0.63033  0.66709  1.0000
  Mg  Mg19      1.0  0.29111  0.54022  0.08488  1.0000
  Mg  Mg20      1.0  0.44003  0.67705  0.56924  1.0000
  C  Sn41      1.0  0.49255  0.05076  0.70410  1.0000
  C   C105      1.0  0.50701  0.02554  0.69076  1.0000
  C  Sn42      1.0  0.54702  0.03973  0.70169  1.0000
  C  Sn43      1.0  0.57312  0.07996  0.72656  1.0000
  C   C106      1.0  0.55866  0.10515  0.73991  1.0000
  C  Sn44      1.0  0.51866  0.09099  0.72897  1.0000
  O  Te41      1.0  0.45245  0.03593  0.69281  1.0000
  O  Te42      1.0  0.56078  0.01396  0.68793  1.0000
  O  Te43      1.0  0.61325  0.09477  0.73784  1.0000
  O  Te44      1.0  0.50489  0.11674  0.74274  1.0000
  Mg  Mg21      1.0  0.61788  0.04810  0.71154  1.0000
  Mg  Mg22      1.0  0.44780  0.08262  0.71921  1.0000
  C  Sn45      1.0  0.50927  0.55687  0.73181  1.0000
  C   C107      1.0  0.49208  0.51635  0.73153  1.0000
  C  Sn46      1.0  0.45190  0.49239  0.71150  1.0000
  C  Sn47      1.0  0.42842  0.50929  0.69124  1.0000
  C   C108      1.0  0.44561  0.54979  0.69150  1.0000
  C  Sn48      1.0  0.48579  0.57377  0.71155  1.0000
  O  Te45      1.0  0.54950  0.58025  0.75202  1.0000
  O  Te46      1.0  0.43537  0.45196  0.71169  1.0000
  O  Te47      1.0  0.38816  0.48587  0.67103  1.0000
  O  Te48      1.0  0.50232  0.61418  0.71135  1.0000
  Mg  Mg23      1.0  0.37925  0.43236  0.67982  1.0000
  Mg  Mg24      1.0  0.55844  0.63380  0.74313  1.0000
