data_image0
_chemical_formula_structural       P4H48C66N12SnCSn2CSnTe4Mg2SnCSn2CSnTe4Mg2SnCSn2CSnTe4Mg2SnCSn2CSnTe4Mg2SnCSn2CSnTe4Mg2SnCSn2CSnTe4Mg2SnCSn2CSnTe4Mg2SnCSn2CSnTe4Mg2SnCSn2CSnTe4Mg2
_chemical_formula_sum              "P4 H48 C84 N12 Sn36 Te36 Mg18"
_cell_length_a       31.8555
_cell_length_b       31.9737
_cell_length_c       10.8682
_cell_angle_alpha    89.8887
_cell_angle_beta     93.2077
_cell_angle_gamma    120.169

_symmetry_space_group_name_H-M    'P1'
_space_group_IT_number       1

loop_
  _space_group_symop_operation_xyz
  'x, y, z'

loop_
  _atom_site_type_symbol
  _atom_site_label
  _atom_site_symmetry_multiplicity
  _atom_site_fract_x
  _atom_site_fract_y
  _atom_site_fract_z
  _atom_site_occupancy
  P   P1        1.0  0.67212  0.33272  0.41959  1.0000
  P   P2        1.0  0.33527  0.66828  0.43861  1.0000
  P   P3        1.0  0.66793  0.33736  0.92111  1.0000
  P   P4        1.0  0.33701  0.66859  0.93517  1.0000
  H   H1        1.0  0.67962  0.27215  0.21624  1.0000
  H   H2        1.0  0.39011  0.67171  0.21322  1.0000
  H   H3        1.0  0.62324  0.18513  0.15214  1.0000
  H   H4        1.0  0.42387  0.62008  0.15030  1.0000
  H   H5        1.0  0.51998  0.17780  0.40088  1.0000
  H   H6        1.0  0.35058  0.52283  0.43683  1.0000
  H   H7        1.0  0.57611  0.26348  0.46772  1.0000
  H   H8        1.0  0.31910  0.57508  0.50329  1.0000
  H   H9        1.0  0.50911  0.10480  0.31462  1.0000
  H   H10       1.0  0.90469  0.42596  0.33526  1.0000
  H   H11       1.0  0.59417  0.48450  0.33402  1.0000
  H   H12       1.0  0.48935  0.89575  0.32007  1.0000
  H   H13       1.0  0.10677  0.60480  0.29106  1.0000
  H   H14       1.0  0.40006  0.50650  0.32270  1.0000
  H   H15       1.0  0.67187  0.28246  0.69961  1.0000
  H   H16       1.0  0.72207  0.40107  0.70397  1.0000
  H   H17       1.0  0.59861  0.32660  0.70503  1.0000
  H   H18       1.0  0.32461  0.71860  0.70941  1.0000
  H   H19       1.0  0.27362  0.59308  0.73011  1.0000
  H   H20       1.0  0.40635  0.68226  0.73337  1.0000
  H   H21       1.0  0.62305  0.19425  0.64149  1.0000
  H   H22       1.0  0.80675  0.42901  0.64344  1.0000
  H   H23       1.0  0.56423  0.38002  0.64482  1.0000
  H   H24       1.0  0.37528  0.80315  0.64110  1.0000
  H   H25       1.0  0.18575  0.56005  0.66333  1.0000
  H   H26       1.0  0.43843  0.62939  0.66888  1.0000
  H   H27       1.0  0.52811  0.17240  0.92975  1.0000
  H   H28       1.0  0.82438  0.34555  0.92914  1.0000
  H   H29       1.0  0.65393  0.48266  0.93243  1.0000
  H   H30       1.0  0.47917  0.83145  0.94622  1.0000
  H   H31       1.0  0.17993  0.66108  0.91202  1.0000
  H   H32       1.0  0.35141  0.52383  0.92722  1.0000
  H   H33       1.0  0.57671  0.25946  0.99120  1.0000
  H   H34       1.0  0.74003  0.31697  0.98981  1.0000
  H   H35       1.0  0.68899  0.43050  0.99290  1.0000
  H   H36       1.0  0.42670  0.74789  0.01651  1.0000
  H   H37       1.0  0.26616  0.69223  0.98207  1.0000
  H   H38       1.0  0.32041  0.57690  0.99579  1.0000
  H   H39       1.0  0.51929  0.10552  0.83212  1.0000
  H   H40       1.0  0.89360  0.40624  0.84418  1.0000
  H   H41       1.0  0.58820  0.48749  0.83878  1.0000
  H   H42       1.0  0.49576  0.89210  0.82271  1.0000
  H   H43       1.0  0.10820  0.60569  0.80547  1.0000
  H   H44       1.0  0.39873  0.50728  0.81810  1.0000
  H   H45       1.0  0.03804  0.55081  0.85853  1.0000
  H   H46       1.0  0.94904  0.49897  0.84933  1.0000
  H   H47       1.0  0.95238  0.43608  0.50339  1.0000
  H   H48       1.0  0.04264  0.48891  0.51141  1.0000
  C   C1        1.0  0.63181  0.27324  0.34716  1.0000
  C   C2        1.0  0.35372  0.62846  0.36598  1.0000
  C   C3        1.0  0.64468  0.25128  0.25637  1.0000
  C   C4        1.0  0.38227  0.63958  0.26368  1.0000
  C   C5        1.0  0.61340  0.20303  0.22015  1.0000
  C   C6        1.0  0.40103  0.61063  0.22782  1.0000
  C   C7        1.0  0.56841  0.17603  0.27290  1.0000
  C   C8        1.0  0.39120  0.56876  0.29199  1.0000
  C   C9        1.0  0.55483  0.19862  0.36032  1.0000
  C   C10       1.0  0.35952  0.55566  0.38815  1.0000
  C   C11       1.0  0.58617  0.24659  0.39732  1.0000
  C   C12       1.0  0.34172  0.58515  0.42532  1.0000
  C   C13       1.0  0.53743  0.12401  0.24945  1.0000
  C   C14       1.0  0.87891  0.42236  0.25873  1.0000
  C   C15       1.0  0.58643  0.45860  0.25785  1.0000
  C   C16       1.0  0.45428  0.87557  0.26651  1.0000
  C   C17       1.0  0.12378  0.58625  0.24859  1.0000
  C   C18       1.0  0.41446  0.54000  0.27074  1.0000
  C   C19       1.0  0.62844  0.27687  0.85133  1.0000
  C   C20       1.0  0.72564  0.35726  0.85151  1.0000
  C   C21       1.0  0.64604  0.37535  0.85288  1.0000
  C   C22       1.0  0.37243  0.72771  0.86735  1.0000
  C   C23       1.0  0.27579  0.64481  0.86143  1.0000
  C   C24       1.0  0.36006  0.63257  0.86688  1.0000
  C   C25       1.0  0.64061  0.25833  0.75052  1.0000
  C   C26       1.0  0.74425  0.38844  0.75241  1.0000
  C   C27       1.0  0.61146  0.36122  0.75265  1.0000
  C   C28       1.0  0.35844  0.74364  0.76070  1.0000
  C   C29       1.0  0.25291  0.60781  0.76972  1.0000
  C   C30       1.0  0.39345  0.64716  0.77416  1.0000
  C   C31       1.0  0.61326  0.20934  0.71679  1.0000
  C   C32       1.0  0.79136  0.40409  0.71805  1.0000
  C   C33       1.0  0.59247  0.39057  0.71850  1.0000
  C   C34       1.0  0.38682  0.79091  0.72259  1.0000
  C   C35       1.0  0.20413  0.58965  0.73134  1.0000
  C   C36       1.0  0.41181  0.61794  0.73838  1.0000
  C   C37       1.0  0.57310  0.17803  0.78328  1.0000
  C   C38       1.0  0.82082  0.38928  0.78348  1.0000
  C   C39       1.0  0.60739  0.43400  0.78486  1.0000
  C   C40       1.0  0.43068  0.82328  0.78954  1.0000
  C   C41       1.0  0.17685  0.60823  0.78296  1.0000
  C   C42       1.0  0.39656  0.57322  0.79423  1.0000
  C   C43       1.0  0.55891  0.19711  0.87808  1.0000
  C   C44       1.0  0.80134  0.35672  0.87917  1.0000
  C   C45       1.0  0.64346  0.44924  0.88115  1.0000
  C   C46       1.0  0.44545  0.80661  0.89373  1.0000
  C   C47       1.0  0.20055  0.64657  0.87090  1.0000
  C   C48       1.0  0.36200  0.55803  0.88344  1.0000
  C   C49       1.0  0.58639  0.24596  0.91231  1.0000
  C   C50       1.0  0.75442  0.34084  0.91274  1.0000
  C   C51       1.0  0.66259  0.42003  0.91478  1.0000
  C   C52       1.0  0.41638  0.75984  0.93276  1.0000
  C   C53       1.0  0.24885  0.66405  0.91024  1.0000
  C   C54       1.0  0.34444  0.58752  0.92055  1.0000
  C   C55       1.0  0.54692  0.12542  0.76571  1.0000
  C   C56       1.0  0.87281  0.41068  0.76606  1.0000
  C   C57       1.0  0.58166  0.46051  0.76635  1.0000
  C   C58       1.0  0.46153  0.87441  0.76520  1.0000
  C   C59       1.0  0.12443  0.58749  0.75723  1.0000
  C   C60       1.0  0.41550  0.54144  0.76942  1.0000
  C   C61       1.0  0.01982  0.52755  0.77743  1.0000
  C   C62       1.0  0.96961  0.49757  0.77425  1.0000
  C   C63       1.0  0.04726  0.52518  0.68279  1.0000
  C   C64       1.0  0.94447  0.46377  0.67583  1.0000
  C   C65       1.0  0.02177  0.49167  0.58370  1.0000
  C   C66       1.0  0.97144  0.46218  0.57934  1.0000
  N   N1        1.0  0.54317  0.10049  0.16195  1.0000
  N   N2        1.0  0.89509  0.43998  0.15373  1.0000
  N   N3        1.0  0.55856  0.45673  0.16471  1.0000
  N   N4        1.0  0.44022  0.89718  0.18874  1.0000
  N   N5        1.0  0.09945  0.54853  0.17618  1.0000
  N   N6        1.0  0.45111  0.55406  0.20264  1.0000
  N   N7        1.0  0.55525  0.10285  0.68124  1.0000
  N   N8        1.0  0.89364  0.43441  0.67099  1.0000
  N   N9        1.0  0.55096  0.45119  0.67414  1.0000
  N   N10       1.0  0.45026  0.89900  0.68976  1.0000
  N   N11       1.0  0.09830  0.54946  0.68741  1.0000
  N   N12       1.0  0.44971  0.55140  0.69664  1.0000
  C  Sn1       1.0  0.22991  0.65111  0.44315  1.0000
  C   C67       1.0  0.26338  0.63845  0.40524  1.0000
  C  Sn2       1.0  0.25384  0.61117  0.29635  1.0000
  C  Sn3       1.0  0.20996  0.59625  0.22378  1.0000
  C   C68       1.0  0.17653  0.60890  0.26168  1.0000
  C  Sn4       1.0  0.18603  0.63618  0.37058  1.0000
  O  Te1       1.0  0.24020  0.67840  0.55234  1.0000
  O  Te2       1.0  0.28785  0.59895  0.26037  1.0000
  O  Te3       1.0  0.19969  0.56893  0.11452  1.0000
  O  Te4       1.0  0.15206  0.64841  0.40655  1.0000
  Mg  Mg1       1.0  0.25735  0.56132  0.10423  1.0000
  Mg  Mg2       1.0  0.18253  0.68606  0.56263  1.0000
  C  Sn5       1.0  0.77988  0.36282  0.44442  1.0000
  C   C69       1.0  0.74083  0.36404  0.38276  1.0000
  C  Sn6       1.0  0.74416  0.37940  0.26146  1.0000
  C  Sn7       1.0  0.78739  0.39382  0.20048  1.0000
  C   C70       1.0  0.82640  0.39258  0.26212  1.0000
  C  Sn8       1.0  0.82311  0.37723  0.38344  1.0000
  O  Te5       1.0  0.77575  0.34733  0.56567  1.0000
  O  Te6       1.0  0.70465  0.38033  0.20173  1.0000
  O  Te7       1.0  0.79149  0.40931  0.07914  1.0000
  O  Te8       1.0  0.86259  0.37629  0.44315  1.0000
  Mg  Mg3       1.0  0.72781  0.40421  0.03673  1.0000
  Mg  Mg4       1.0  0.83946  0.35239  0.60812  1.0000
  C  Sn9       1.0  0.49050  0.51029  0.56192  1.0000
  C   C71       1.0  0.46362  0.51053  0.65894  1.0000
  C  Sn10      1.0  0.46860  0.49328  0.77381  1.0000
  C  Sn11      1.0  0.50115  0.47543  0.79212  1.0000
  C   C72       1.0  0.52801  0.47520  0.69514  1.0000
  C  Sn12      1.0  0.52305  0.49244  0.58023  1.0000
  O  Te9       1.0  0.48495  0.52772  0.44786  1.0000
  O  Te10      1.0  0.44133  0.49387  0.86939  1.0000
  O  Te11      1.0  0.50669  0.45799  0.90629  1.0000
  O  Te12      1.0  0.55031  0.49186  0.48469  1.0000
  Mg  Mg5       1.0  0.43650  0.45440  0.00796  1.0000
  Mg  Mg6       1.0  0.53009  0.51944  0.34611  1.0000
  C  Sn13      1.0  0.49214  0.50090  0.31188  1.0000
  C   C73       1.0  0.48815  0.53320  0.23197  1.0000
  C  Sn14      1.0  0.50365  0.53794  0.11240  1.0000
  C  Sn15      1.0  0.52353  0.50978  0.07182  1.0000
  C   C74       1.0  0.52750  0.47750  0.15169  1.0000
  C  Sn16      1.0  0.51202  0.47274  0.27129  1.0000
  O  Te13      1.0  0.47641  0.49675  0.43101  1.0000
  O  Te14      1.0  0.49931  0.57048  0.03421  1.0000
  O  Te15      1.0  0.56436  0.52586  0.95257  1.0000
  O  Te16      1.0  0.51635  0.44022  0.34945  1.0000
  Mg  Mg7       1.0  0.55089  0.57512  0.88031  1.0000
  Mg  Mg8       1.0  0.48985  0.44744  0.50333  1.0000
  C  Sn17      1.0  0.50807  0.98931  0.81311  1.0000
  C   C75       1.0  0.47681  0.95597  0.72113  1.0000
  C  Sn18      1.0  0.47671  0.97039  0.59975  1.0000
  C  Sn19      1.0  0.00413  0.01915  0.56966  1.0000
  C   C76       1.0  0.03538  0.05245  0.66160  1.0000
  C  Sn20      1.0  0.03549  0.03806  0.78301  1.0000
  O  Te17      1.0  0.50755  0.97409  0.93383  1.0000
  O  Te18      1.0  0.44512  0.93641  0.50940  1.0000
  O  Te19      1.0  0.00462  0.03435  0.44882  1.0000
  O  Te20      1.0  0.06707  0.07201  0.87333  1.0000
  Mg  Mg9       1.0  0.45930  0.97464  0.35817  1.0000
  Mg  Mg10      1.0  0.02784  0.02191  0.02457  1.0000
  C  Sn21      1.0  0.46970  0.00972  0.07433  1.0000
  C   C77       1.0  0.50229  0.04464  0.16162  1.0000
  C  Sn22      1.0  0.52221  0.03145  0.26161  1.0000
  C  Sn23      1.0  0.01371  0.98233  0.27460  1.0000
  C   C78       1.0  0.98115  0.94745  0.18735  1.0000
  C  Sn24      1.0  0.96121  0.96061  0.08733  1.0000
  O  Te21      1.0  0.47534  0.03564  0.97510  1.0000
  O  Te22      1.0  0.55470  0.06700  0.34771  1.0000
  O  Te23      1.0  0.03320  0.96835  0.37395  1.0000
  O  Te24      1.0  0.92874  0.92509  0.00126  1.0000
  Mg  Mg11      1.0  0.57152  0.03000  0.46697  1.0000
  Mg  Mg12      1.0  0.93702  0.97396  0.88193  1.0000
  C  Sn25      1.0  0.41735  0.77500  0.45277  1.0000
  C   C79       1.0  0.37323  0.73790  0.39957  1.0000
  C  Sn26      1.0  0.35663  0.74235  0.28129  1.0000
  C  Sn27      1.0  0.38474  0.78476  0.21475  1.0000
  C   C80       1.0  0.42884  0.82183  0.26794  1.0000
  C  Sn28      1.0  0.44546  0.81741  0.38623  1.0000
  O  Te25      1.0  0.43324  0.76977  0.57113  1.0000
  O  Te26      1.0  0.31239  0.70479  0.23005  1.0000
  O  Te27      1.0  0.36881  0.78997  0.09630  1.0000
  O  Te28      1.0  0.48967  0.85494  0.43746  1.0000
  Mg  Mg13      1.0  0.30618  0.72886  0.06597  1.0000
  Mg  Mg14      1.0  0.49593  0.83090  0.60149  1.0000
  C  Sn29      1.0  0.98371  0.45817  0.07573  1.0000
  C   C81       1.0  0.95178  0.46030  0.15519  1.0000
  C  Sn30      1.0  0.96791  0.49979  0.23707  1.0000
  C  Sn31      1.0  0.01698  0.53797  0.23952  1.0000
  C   C82       1.0  0.04887  0.53584  0.16007  1.0000
  C  Sn32      1.0  0.03277  0.49636  0.07817  1.0000
  O  Te29      1.0  0.99189  0.43025  0.99463  1.0000
  O  Te30      1.0  0.93532  0.50109  0.31566  1.0000
  O  Te31      1.0  0.03388  0.57782  0.32070  1.0000
  O  Te32      1.0  0.09043  0.50695  0.99961  1.0000
  Mg  Mg15      1.0  0.97563  0.56304  0.40962  1.0000
  Mg  Mg16      1.0  0.05016  0.44503  0.90557  1.0000
  C  Sn33      1.0  0.62175  0.36858  0.20906  1.0000
  C   C83       1.0  0.65352  0.37528  0.31092  1.0000
  C  Sn34      1.0  0.66109  0.40799  0.40637  1.0000
  C  Sn35      1.0  0.63637  0.43456  0.39993  1.0000
  C   C84       1.0  0.60462  0.42785  0.29814  1.0000
  C  Sn36      1.0  0.59704  0.39514  0.20262  1.0000
  O  Te33      1.0  0.61473  0.33568  0.11471  1.0000
  O  Te34      1.0  0.69303  0.41408  0.50724  1.0000
  O  Te35      1.0  0.64342  0.46748  0.49440  1.0000
  O  Te36      1.0  0.56511  0.38905  0.10181  1.0000
  Mg  Mg17      1.0  0.69052  0.46311  0.61268  1.0000
  Mg  Mg18      1.0  0.59267  0.35192  0.99635  1.0000
