data_image0
_chemical_formula_structural       P4H12C12N12SnCSn2CSnTe4Mg2SnCSn2CSnTe4Mg2SnCSn2CSnTe4Mg2SnCSn2CSnTe4Mg2SnCSn2CSnTe4Mg2SnCSn2CSnTe4Mg2SnCSn2CSnTe4Mg2SnCSn2CSnTe4Mg2SnCSn2CSnTe4Mg2SnCSn2CSnTe4Mg2SnCSn2CSnTe4Mg2SnCSn2CSnTe4Mg2SnCSn2CSnTe4Mg2SnCSn2CSnTe4Mg2SnCSn2CSnTe4Mg2SnCSn2CSnTe4Mg2SnCSn2CSnTe4Mg2SnCSn2CSnTe4Mg2SnCSn2CSnTe4Mg2SnCSn2CSnTe4Mg2SnCSn2CSnTe4Mg2SnCSn2CSnTe4Mg2SnCSn2CSnTe4Mg2SnCSn2CSnTe4Mg2
_chemical_formula_sum              "P4 H12 C60 N12 Sn96 Te96 Mg48"
_cell_length_a       39.8522
_cell_length_b       39.8939
_cell_length_c       9.84607
_cell_angle_alpha    90.0413
_cell_angle_beta     90.3483
_cell_angle_gamma    120.661

_symmetry_space_group_name_H-M    'P1'
_space_group_IT_number       1

loop_
  _space_group_symop_operation_xyz
  'x, y, z'

loop_
  _atom_site_type_symbol
  _atom_site_label
  _atom_site_symmetry_multiplicity
  _atom_site_fract_x
  _atom_site_fract_y
  _atom_site_fract_z
  _atom_site_occupancy
  P   P1        1.0  0.66507  0.33660  0.45121  1.0000
  P   P2        1.0  0.33491  0.66420  0.45676  1.0000
  P   P3        1.0  0.66519  0.33224  0.96332  1.0000
  P   P4        1.0  0.33327  0.66478  0.95036  1.0000
  H   H1        1.0  0.60510  0.45341  0.35102  1.0000
  H   H2        1.0  0.54047  0.15080  0.35261  1.0000
  H   H3        1.0  0.84660  0.38490  0.34544  1.0000
  H   H4        1.0  0.39053  0.53649  0.35425  1.0000
  H   H5        1.0  0.46155  0.84744  0.36000  1.0000
  H   H6        1.0  0.15218  0.61585  0.35249  1.0000
  H   H7        1.0  0.61596  0.46294  0.83580  1.0000
  H   H8        1.0  0.53326  0.15020  0.83343  1.0000
  H   H9        1.0  0.85148  0.40169  0.88555  1.0000
  H   H10       1.0  0.38500  0.53516  0.81671  1.0000
  H   H11       1.0  0.46211  0.85145  0.85120  1.0000
  H   H12       1.0  0.14907  0.60462  0.88038  1.0000
  C   C1        1.0  0.59898  0.43359  0.26558  1.0000
  C   C2        1.0  0.56747  0.16604  0.29324  1.0000
  C   C3        1.0  0.83352  0.40015  0.29374  1.0000
  C   C4        1.0  0.40201  0.56367  0.29680  1.0000
  C   C5        1.0  0.43487  0.83429  0.29770  1.0000
  C   C6        1.0  0.16596  0.60112  0.30346  1.0000
  C   C7        1.0  0.59861  0.43285  0.79641  1.0000
  C   C8        1.0  0.56237  0.16372  0.78672  1.0000
  C   C9        1.0  0.83508  0.40753  0.80889  1.0000
  C   C10       1.0  0.40123  0.56511  0.77861  1.0000
  C   C11       1.0  0.43288  0.83651  0.80503  1.0000
  C   C12       1.0  0.16279  0.59542  0.80489  1.0000
  N   N1        1.0  0.57129  0.42614  0.17990  1.0000
  N   N2        1.0  0.57916  0.14692  0.22070  1.0000
  N   N3        1.0  0.85475  0.43294  0.23122  1.0000
  N   N4        1.0  0.43435  0.57762  0.22859  1.0000
  N   N5        1.0  0.42513  0.85517  0.22560  1.0000
  N   N6        1.0  0.14606  0.56734  0.24389  1.0000
  N   N7        1.0  0.56323  0.41831  0.75038  1.0000
  N   N8        1.0  0.57589  0.14410  0.72729  1.0000
  N   N9        1.0  0.85249  0.43269  0.71469  1.0000
  N   N10       1.0  0.43543  0.57866  0.72586  1.0000
  N   N11       1.0  0.42039  0.85574  0.73789  1.0000
  N   N12       1.0  0.14199  0.56655  0.72444  1.0000
  C  Sn1       1.0  0.62333  0.35950  0.21529  1.0000
  C   C13       1.0  0.65535  0.37024  0.30100  1.0000
  C  Sn2       1.0  0.66951  0.40312  0.38439  1.0000
  C  Sn3       1.0  0.65127  0.42573  0.38215  1.0000
  C   C14       1.0  0.61927  0.41500  0.29650  1.0000
  C  Sn4       1.0  0.60509  0.38212  0.21305  1.0000
  O  Te1       1.0  0.60966  0.32652  0.13280  1.0000
  O  Te2       1.0  0.70157  0.41327  0.46919  1.0000
  O  Te3       1.0  0.66497  0.45874  0.46474  1.0000
  O  Te4       1.0  0.57305  0.37196  0.12831  1.0000
  Mg  Mg1       1.0  0.70945  0.46072  0.56284  1.0000
  Mg  Mg2       1.0  0.56513  0.32451  0.03467  1.0000
  C  Sn5       1.0  0.63699  0.26653  0.23423  1.0000
  C   C15       1.0  0.62833  0.28662  0.33094  1.0000
  C  Sn6       1.0  0.60098  0.26633  0.43217  1.0000
  C  Sn7       1.0  0.58191  0.22509  0.43691  1.0000
  C   C16       1.0  0.59057  0.20502  0.34027  1.0000
  C  Sn8       1.0  0.61791  0.22529  0.23897  1.0000
  O  Te5       1.0  0.66443  0.28742  0.13394  1.0000
  O  Te6       1.0  0.59280  0.28705  0.52771  1.0000
  O  Te7       1.0  0.55445  0.20421  0.53732  1.0000
  O  Te8       1.0  0.62610  0.20459  0.14349  1.0000
  Mg  Mg3       1.0  0.55323  0.24553  0.64474  1.0000
  Mg  Mg4       1.0  0.66568  0.24609  0.02647  1.0000
  C  Sn9       1.0  0.76068  0.39646  0.25958  1.0000
  C   C17       1.0  0.78951  0.39176  0.32274  1.0000
  C  Sn10      1.0  0.77927  0.36105  0.41287  1.0000
  C  Sn11      1.0  0.73938  0.33446  0.44039  1.0000
  C   C18       1.0  0.71058  0.33916  0.37723  1.0000
  C  Sn12      1.0  0.72079  0.36987  0.28709  1.0000
  O  Te9       1.0  0.77159  0.42737  0.16983  1.0000
  O  Te10      1.0  0.80861  0.35696  0.47482  1.0000
  O  Te11      1.0  0.72849  0.30353  0.53022  1.0000
  O  Te12      1.0  0.69148  0.37396  0.22515  1.0000
  Mg  Mg5       1.0  0.77910  0.31017  0.58939  1.0000
  Mg  Mg6       1.0  0.72096  0.42072  0.11052  1.0000
  C  Sn13      1.0  0.33569  0.58695  0.44323  1.0000
  C   C19       1.0  0.34952  0.62601  0.41199  1.0000
  C  Sn14      1.0  0.37824  0.64487  0.31357  1.0000
  C  Sn15      1.0  0.39344  0.62427  0.24488  1.0000
  C   C20       1.0  0.37960  0.58524  0.27612  1.0000
  C  Sn16      1.0  0.35089  0.56635  0.37455  1.0000
  O  Te13      1.0  0.30697  0.56867  0.54197  1.0000
  O  Te14      1.0  0.39162  0.68394  0.28411  1.0000
  O  Te15      1.0  0.42218  0.64259  0.14609  1.0000
  O  Te16      1.0  0.33750  0.52730  0.40400  1.0000
  Mg  Mg7       1.0  0.43101  0.69610  0.14159  1.0000
  Mg  Mg8       1.0  0.29810  0.51511  0.54644  1.0000
  C  Sn17      1.0  0.36187  0.76246  0.29099  1.0000
  C   C21       1.0  0.40035  0.78927  0.32865  1.0000
  C  Sn18      1.0  0.42468  0.77641  0.37915  1.0000
  C  Sn19      1.0  0.41024  0.73591  0.39220  1.0000
  C   C22       1.0  0.37179  0.70912  0.35453  1.0000
  C  Sn20      1.0  0.34744  0.72195  0.30404  1.0000
  O  Te17      1.0  0.33808  0.77597  0.24074  1.0000
  O  Te18      1.0  0.46304  0.80378  0.41619  1.0000
  O  Te19      1.0  0.43408  0.72242  0.44250  1.0000
  O  Te20      1.0  0.30911  0.69462  0.26699  1.0000
  Mg  Mg9       1.0  0.48416  0.77102  0.47930  1.0000
  Mg  Mg10      1.0  0.28796  0.72734  0.20381  1.0000
  C  Sn21      1.0  0.23534  0.60043  0.28445  1.0000
  C   C23       1.0  0.20979  0.61158  0.33535  1.0000
  C  Sn22      1.0  0.22414  0.64647  0.40750  1.0000
  C  Sn23      1.0  0.26489  0.67075  0.42915  1.0000
  C   C24       1.0  0.29041  0.65961  0.37824  1.0000
  C  Sn24      1.0  0.27608  0.62471  0.30610  1.0000
  O  Te21      1.0  0.22034  0.56542  0.21261  1.0000
  O  Te22      1.0  0.19803  0.65699  0.45744  1.0000
  O  Te23      1.0  0.27987  0.70578  0.50106  1.0000
  O  Te24      1.0  0.30217  0.61420  0.25615  1.0000
  Mg  Mg11      1.0  0.23260  0.70748  0.54897  1.0000
  Mg  Mg12      1.0  0.26764  0.56372  0.16455  1.0000
  C  Sn25      1.0  0.56196  0.50927  0.19028  1.0000
  C   C25       1.0  0.52225  0.49535  0.16986  1.0000
  C  Sn26      1.0  0.49534  0.45535  0.17144  1.0000
  C  Sn27      1.0  0.50839  0.42871  0.19398  1.0000
  C   C26       1.0  0.54808  0.44264  0.21442  1.0000
  C  Sn28      1.0  0.57501  0.48264  0.21283  1.0000
  O  Te25      1.0  0.58834  0.54938  0.18829  1.0000
  O  Te26      1.0  0.45579  0.44212  0.15072  1.0000
  O  Te27      1.0  0.48197  0.38858  0.19596  1.0000
  O  Te28      1.0  0.61454  0.49586  0.23355  1.0000
  Mg  Mg13      1.0  0.43111  0.38479  0.16268  1.0000
  Mg  Mg14      1.0  0.63924  0.55319  0.22169  1.0000
  C  Sn29      1.0  0.56978  0.07662  0.14307  1.0000
  C   C27       1.0  0.55664  0.10180  0.17978  1.0000
  C  Sn30      1.0  0.52150  0.08771  0.24902  1.0000
  C  Sn31      1.0  0.49903  0.04762  0.28236  1.0000
  C   C28       1.0  0.51218  0.02246  0.24568  1.0000
  C  Sn32      1.0  0.54732  0.03652  0.17641  1.0000
  O  Te29      1.0  0.60500  0.09134  0.07390  1.0000
  O  Te30      1.0  0.50895  0.11345  0.28460  1.0000
  O  Te31      1.0  0.46379  0.03291  0.35159  1.0000
  O  Te32      1.0  0.55987  0.01081  0.14086  1.0000
  Mg  Mg15      1.0  0.45901  0.07948  0.37817  1.0000
  Mg  Mg16      1.0  0.60981  0.04475  0.04735  1.0000
  C  Sn33      1.0  0.92695  0.49193  0.14755  1.0000
  C   C29       1.0  0.89957  0.45349  0.18157  1.0000
  C  Sn34      1.0  0.91151  0.42961  0.24228  1.0000
  C  Sn35      1.0  0.95166  0.44447  0.26965  1.0000
  C   C30       1.0  0.97902  0.48288  0.23566  1.0000
  C  Sn36      1.0  0.96710  0.50678  0.17491  1.0000
  O  Te33      1.0  0.91435  0.51527  0.08693  1.0000
  O  Te34      1.0  0.88359  0.39127  0.27533  1.0000
  O  Te35      1.0  0.96425  0.42108  0.33032  1.0000
  O  Te36      1.0  0.99499  0.54510  0.14189  1.0000
  Mg  Mg17      1.0  0.91516  0.37085  0.35655  1.0000
  Mg  Mg18      1.0  0.96346  0.56555  0.06074  1.0000
  C  Sn37      1.0  0.51168  0.56107  0.23199  1.0000
  C   C31       1.0  0.49610  0.52083  0.24010  1.0000
  C  Sn38      1.0  0.45615  0.49521  0.22083  1.0000
  C  Sn39      1.0  0.43127  0.51011  0.19279  1.0000
  C   C32       1.0  0.44685  0.55032  0.18467  1.0000
  C  Sn40      1.0  0.48679  0.57597  0.20395  1.0000
  O  Te37      1.0  0.55170  0.58615  0.25160  1.0000
  O  Te38      1.0  0.44125  0.45510  0.22948  1.0000
  O  Te39      1.0  0.39122  0.48499  0.17318  1.0000
  O  Te40      1.0  0.50169  0.61606  0.19529  1.0000
  Mg  Mg19      1.0  0.38477  0.43270  0.19499  1.0000
  Mg  Mg20      1.0  0.55817  0.63848  0.22969  1.0000
  C  Sn41      1.0  0.43352  0.92509  0.15184  1.0000
  C   C33       1.0  0.44806  0.90044  0.17896  1.0000
  C  Sn42      1.0  0.48507  0.91524  0.23695  1.0000
  C  Sn43      1.0  0.50802  0.95551  0.26859  1.0000
  C   C34       1.0  0.49349  0.98013  0.24150  1.0000
  C  Sn44      1.0  0.45648  0.96536  0.18348  1.0000
  O  Te41      1.0  0.39644  0.90966  0.09383  1.0000
  O  Te42      1.0  0.49898  0.89003  0.26308  1.0000
  O  Te43      1.0  0.54513  0.97092  0.32664  1.0000
  O  Te44      1.0  0.44257  0.99054  0.15738  1.0000
  Mg  Mg21      1.0  0.55126  0.92488  0.34313  1.0000
  Mg  Mg22      1.0  0.39028  0.95572  0.07740  1.0000
  C  Sn45      1.0  0.07371  0.56046  0.30207  1.0000
  C   C35       1.0  0.09962  0.54769  0.27200  1.0000
  C  Sn46      1.0  0.08717  0.51373  0.19594  1.0000
  C  Sn47      1.0  0.04802  0.49209  0.14886  1.0000
  C   C36       1.0  0.02213  0.50486  0.17891  1.0000
  C  Sn48      1.0  0.03455  0.53882  0.25500  1.0000
  O  Te45      1.0  0.08678  0.59450  0.37826  1.0000
  O  Te46      1.0  0.11361  0.50154  0.16720  1.0000
  O  Te47      1.0  0.03495  0.45803  0.07262  1.0000
  O  Te48      1.0  0.00814  0.55101  0.28371  1.0000
  Mg  Mg23      1.0  0.08192  0.45330  0.05973  1.0000
  Mg  Mg24      1.0  0.03980  0.59925  0.39111  1.0000
  C  Sn49      1.0  0.66430  0.42707  0.87183  1.0000
  C   C37       1.0  0.63131  0.41642  0.79138  1.0000
  C  Sn50      1.0  0.60473  0.37719  0.76361  1.0000
  C  Sn51      1.0  0.61123  0.34800  0.81743  1.0000
  C   C38       1.0  0.64420  0.35865  0.89784  1.0000
  C  Sn52      1.0  0.67080  0.39788  0.92565  1.0000
  O  Te49      1.0  0.69049  0.46647  0.89829  1.0000
  O  Te50      1.0  0.57197  0.36725  0.68289  1.0000
  O  Te51      1.0  0.58501  0.30858  0.79090  1.0000
  O  Te52      1.0  0.70139  0.40654  0.00634  1.0000
  Mg  Mg25      1.0  0.54472  0.30964  0.67556  1.0000
  Mg  Mg26      1.0  0.72865  0.46414  0.01379  1.0000
  C  Sn53      1.0  0.59300  0.25110  0.96279  1.0000
  C   C39       1.0  0.63121  0.27668  0.92097  1.0000
  C  Sn54      1.0  0.64663  0.26736  0.80997  1.0000
  C  Sn55      1.0  0.62337  0.23173  0.73922  1.0000
  C   C40       1.0  0.58519  0.20617  0.78103  1.0000
  C  Sn56      1.0  0.56974  0.21547  0.89204  1.0000
  O  Te53      1.0  0.57603  0.25974  0.07402  1.0000
  O  Te54      1.0  0.68491  0.29341  0.77009  1.0000
  O  Te55      1.0  0.63823  0.22183  0.62791  1.0000
  O  Te56      1.0  0.53149  0.18945  0.93191  1.0000
  Mg  Mg27      1.0  0.69197  0.26685  0.61237  1.0000
  Mg  Mg28      1.0  0.52223  0.21471  0.08956  1.0000
  C  Sn57      1.0  0.76838  0.34659  0.92650  1.0000
  C   C41       1.0  0.78780  0.37351  0.82307  1.0000
  C  Sn58      1.0  0.77029  0.39196  0.75866  1.0000
  C  Sn59      1.0  0.73257  0.38336  0.79850  1.0000
  C   C42       1.0  0.71317  0.35646  0.90189  1.0000
  C  Sn60      1.0  0.73066  0.33798  0.96635  1.0000
  O  Te57      1.0  0.78644  0.32848  0.98950  1.0000
  O  Te58      1.0  0.79028  0.41876  0.65549  1.0000
  O  Te59      1.0  0.71451  0.40149  0.73540  1.0000
  O  Te60      1.0  0.70854  0.30992  0.06947  1.0000
  Mg  Mg29      1.0  0.75349  0.43586  0.60031  1.0000
  Mg  Mg30      1.0  0.74531  0.29283  0.12476  1.0000
  C  Sn61      1.0  0.38068  0.64197  0.74236  1.0000
  C   C43       1.0  0.34796  0.63105  0.82290  1.0000
  C  Sn62      1.0  0.33372  0.59857  0.90745  1.0000
  C  Sn63      1.0  0.35259  0.57656  0.91167  1.0000
  C   C44       1.0  0.38530  0.58749  0.83119  1.0000
  C  Sn64      1.0  0.39956  0.61997  0.74658  1.0000
  O  Te61      1.0  0.39442  0.67455  0.65859  1.0000
  O  Te62      1.0  0.30095  0.58821  0.98700  1.0000
  O  Te63      1.0  0.33883  0.54397  0.99554  1.0000
  O  Te64      1.0  0.43231  0.63033  0.66709  1.0000
  Mg  Mg31      1.0  0.29111  0.54022  0.08488  1.0000
  Mg  Mg32      1.0  0.44003  0.67705  0.56924  1.0000
  C  Sn65      1.0  0.42617  0.76523  0.87855  1.0000
  C   C45       1.0  0.41576  0.78882  0.80676  1.0000
  C  Sn66      1.0  0.37663  0.77560  0.77688  1.0000
  C  Sn67      1.0  0.34729  0.73802  0.81972  1.0000
  C   C46       1.0  0.35771  0.71445  0.89148  1.0000
  C  Sn68      1.0  0.39683  0.72765  0.92139  1.0000
  O  Te65      1.0  0.46546  0.77905  0.90731  1.0000
  O  Te66      1.0  0.36694  0.79970  0.70494  1.0000
  O  Te67      1.0  0.30797  0.72421  0.79089  1.0000
  O  Te68      1.0  0.40652  0.70357  0.99330  1.0000
  Mg  Mg33      1.0  0.30938  0.76785  0.69029  1.0000
  Mg  Mg34      1.0  0.46191  0.73413  0.00806  1.0000
  C  Sn69      1.0  0.23326  0.59618  0.78009  1.0000
  C   C47       1.0  0.20760  0.60767  0.82711  1.0000
  C  Sn70      1.0  0.22188  0.64357  0.89238  1.0000
  C  Sn71      1.0  0.26266  0.66853  0.91099  1.0000
  C   C48       1.0  0.28829  0.65704  0.86397  1.0000
  C  Sn72      1.0  0.27404  0.62114  0.79869  1.0000
  O  Te69      1.0  0.21834  0.56016  0.71511  1.0000
  O  Te70      1.0  0.19566  0.65441  0.93855  1.0000
  O  Te71      1.0  0.27757  0.70457  0.97603  1.0000
  O  Te72      1.0  0.30024  0.61030  0.75252  1.0000
  Mg  Mg35      1.0  0.22800  0.70508  0.02092  1.0000
  Mg  Mg36      1.0  0.26578  0.55838  0.67009  1.0000
  C  Sn73      1.0  0.56273  0.48839  0.79318  1.0000
  C   C49       1.0  0.54730  0.44832  0.77745  1.0000
  C  Sn74      1.0  0.51108  0.42521  0.71426  1.0000
  C  Sn75      1.0  0.48986  0.44252  0.66569  1.0000
  C   C50       1.0  0.50529  0.48256  0.68140  1.0000
  C  Sn76      1.0  0.54151  0.50569  0.74461  1.0000
  O  Te73      1.0  0.59899  0.51093  0.85666  1.0000
  O  Te74      1.0  0.49625  0.38522  0.69974  1.0000
  O  Te75      1.0  0.45357  0.41994  0.60217  1.0000
  O  Te76      1.0  0.55634  0.54566  0.75911  1.0000
  Mg  Mg37      1.0  0.44564  0.36676  0.60620  1.0000
  Mg  Mg38      1.0  0.60695  0.56415  0.85257  1.0000
  C  Sn77      1.0  0.56862  0.07466  0.65261  1.0000
  C   C51       1.0  0.55492  0.09991  0.68090  1.0000
  C  Sn78      1.0  0.51853  0.08591  0.74108  1.0000
  C  Sn79      1.0  0.49535  0.04583  0.77376  1.0000
  C   C52       1.0  0.50905  0.02060  0.74550  1.0000
  C  Sn80      1.0  0.54544  0.03458  0.68529  1.0000
  O  Te77      1.0  0.60509  0.08930  0.59241  1.0000
  O  Te78      1.0  0.50545  0.11172  0.76834  1.0000
  O  Te79      1.0  0.45885  0.03120  0.83400  1.0000
  O  Te80      1.0  0.55852  0.00879  0.65805  1.0000
  Mg  Mg39      1.0  0.45377  0.07785  0.85134  1.0000
  Mg  Mg40      1.0  0.61021  0.04263  0.57513  1.0000
  C  Sn81      1.0  0.94714  0.51103  0.71965  1.0000
  C   C53       1.0  0.97156  0.49566  0.73514  1.0000
  C  Sn82      1.0  0.95648  0.45554  0.72439  1.0000
  C  Sn83      1.0  0.91615  0.43026  0.69750  1.0000
  C   C54       1.0  0.89175  0.44563  0.68200  1.0000
  C  Sn84      1.0  0.90681  0.48575  0.69276  1.0000
  O  Te81      1.0  0.96286  0.55122  0.73081  1.0000
  O  Te82      1.0  0.98146  0.44086  0.74031  1.0000
  O  Te83      1.0  0.90045  0.39004  0.68635  1.0000
  O  Te84      1.0  0.88185  0.50043  0.67682  1.0000
  Mg  Mg41      1.0  0.94626  0.38401  0.71600  1.0000
  Mg  Mg42      1.0  0.91703  0.55728  0.70105  1.0000
  C  Sn85      1.0  0.44000  0.49263  0.67767  1.0000
  C   C55       1.0  0.47982  0.50576  0.66980  1.0000
  C  Sn86      1.0  0.50746  0.54489  0.69436  1.0000
  C  Sn87      1.0  0.49504  0.57145  0.72757  1.0000
  C   C56       1.0  0.45524  0.55832  0.73545  1.0000
  C  Sn88      1.0  0.42757  0.51919  0.71088  1.0000
  O  Te85      1.0  0.41288  0.45338  0.65272  1.0000
  O  Te86      1.0  0.54711  0.55733  0.68584  1.0000
  O  Te87      1.0  0.52220  0.61073  0.75251  1.0000
  O  Te88      1.0  0.38795  0.50675  0.71941  1.0000
  Mg  Mg43      1.0  0.57290  0.61364  0.72866  1.0000
  Mg  Mg44      1.0  0.36213  0.45044  0.67668  1.0000
  C  Sn89      1.0  0.43097  0.92596  0.65797  1.0000
  C   C57       1.0  0.44390  0.90012  0.68734  1.0000
  C  Sn90      1.0  0.48080  0.91373  0.74471  1.0000
  C  Sn91      1.0  0.50527  0.95402  0.77341  1.0000
  C   C58       1.0  0.49234  0.97984  0.74407  1.0000
  C  Sn92      1.0  0.45544  0.96625  0.68667  1.0000
  O  Te89      1.0  0.39397  0.91170  0.60063  1.0000
  O  Te90      1.0  0.49309  0.88734  0.77313  1.0000
  O  Te91      1.0  0.54230  0.96827  0.83079  1.0000
  O  Te92      1.0  0.44314  0.99262  0.65828  1.0000
  Mg  Mg45      1.0  0.54593  0.92086  0.85115  1.0000
  Mg  Mg46      1.0  0.39030  0.95913  0.58032  1.0000
  C  Sn93      1.0  0.05042  0.56024  0.71096  1.0000
  C   C59       1.0  0.02399  0.52112  0.68067  1.0000
  C  Sn94      1.0  0.03601  0.49378  0.68271  1.0000
  C  Sn95      1.0  0.07526  0.50580  0.71580  1.0000
  C   C60       1.0  0.10166  0.54489  0.74609  1.0000
  C  Sn96      1.0  0.08967  0.57225  0.74405  1.0000
  O  Te93      1.0  0.03777  0.58706  0.70830  1.0000
  O  Te94      1.0  0.00905  0.45484  0.65202  1.0000
  O  Te95      1.0  0.08790  0.47893  0.71843  1.0000
  O  Te96      1.0  0.11660  0.61117  0.77474  1.0000
  Mg  Mg47      1.0  0.04029  0.42921  0.66923  1.0000
  Mg  Mg48      1.0  0.08539  0.63682  0.75763  1.0000
