data_image0
_chemical_formula_structural       P4H12C12N12C2Sn2C2HTe2HMgC2Sn2C2HTe2HMgC2Sn2C2HTe2HMgC2Sn2C2HTe2HMgC2Sn2C2HTe2HMgC2Sn2C2HTe2HMgC2Sn2C2HTe2HMgC2Sn2C2HTe2HMgC2Sn2C2HTe2HMgC2Sn2C2HTe2HMgC2Sn2C2HTe2HMgC2Sn2C2HTe2HMgC2Sn2C2HTe2HMgC2Sn2C2HTe2HMgC2Sn2C2HTe2HMgC2Sn2C2HTe2HMgC2Sn2C2HTe2HMgC2Sn2C2HTe2HMg
_chemical_formula_sum              "P4 H48 C84 N12 Sn36 Te36 Mg18"
_cell_length_a       31.8555
_cell_length_b       31.9737
_cell_length_c       10.8682
_cell_angle_alpha    89.8887
_cell_angle_beta     93.2077
_cell_angle_gamma    120.169

_symmetry_space_group_name_H-M    'P1'
_space_group_IT_number       1

loop_
  _space_group_symop_operation_xyz
  'x, y, z'

loop_
  _atom_site_type_symbol
  _atom_site_label
  _atom_site_symmetry_multiplicity
  _atom_site_fract_x
  _atom_site_fract_y
  _atom_site_fract_z
  _atom_site_occupancy
  P   P1        1.0  0.67212  0.33272  0.41959  1.0000
  P   P2        1.0  0.33527  0.66828  0.43861  1.0000
  P   P3        1.0  0.66793  0.33736  0.92111  1.0000
  P   P4        1.0  0.33701  0.66859  0.93517  1.0000
  H   H1        1.0  0.50911  0.10480  0.31462  1.0000
  H   H2        1.0  0.90469  0.42596  0.33526  1.0000
  H   H3        1.0  0.59417  0.48450  0.33402  1.0000
  H   H4        1.0  0.48935  0.89575  0.32007  1.0000
  H   H5        1.0  0.10677  0.60480  0.29106  1.0000
  H   H6        1.0  0.40006  0.50650  0.32270  1.0000
  H   H7        1.0  0.51929  0.10552  0.83212  1.0000
  H   H8        1.0  0.89360  0.40624  0.84418  1.0000
  H   H9        1.0  0.58820  0.48749  0.83878  1.0000
  H   H10       1.0  0.49576  0.89210  0.82271  1.0000
  H   H11       1.0  0.10820  0.60569  0.80547  1.0000
  H   H12       1.0  0.39873  0.50728  0.81810  1.0000
  C   C1        1.0  0.53743  0.12401  0.24945  1.0000
  C   C2        1.0  0.87891  0.42236  0.25873  1.0000
  C   C3        1.0  0.58643  0.45860  0.25785  1.0000
  C   C4        1.0  0.45428  0.87557  0.26651  1.0000
  C   C5        1.0  0.12378  0.58625  0.24859  1.0000
  C   C6        1.0  0.41446  0.54000  0.27074  1.0000
  C   C7        1.0  0.54692  0.12542  0.76571  1.0000
  C   C8        1.0  0.87281  0.41068  0.76606  1.0000
  C   C9        1.0  0.58166  0.46051  0.76635  1.0000
  C   C10       1.0  0.46153  0.87441  0.76520  1.0000
  C   C11       1.0  0.12443  0.58749  0.75723  1.0000
  C   C12       1.0  0.41550  0.54144  0.76942  1.0000
  N   N1        1.0  0.54317  0.10049  0.16195  1.0000
  N   N2        1.0  0.89509  0.43998  0.15373  1.0000
  N   N3        1.0  0.55856  0.45673  0.16471  1.0000
  N   N4        1.0  0.44022  0.89718  0.18874  1.0000
  N   N5        1.0  0.09945  0.54853  0.17618  1.0000
  N   N6        1.0  0.45111  0.55406  0.20264  1.0000
  N   N7        1.0  0.55525  0.10285  0.68124  1.0000
  N   N8        1.0  0.89364  0.43441  0.67099  1.0000
  N   N9        1.0  0.55096  0.45119  0.67414  1.0000
  N   N10       1.0  0.45026  0.89900  0.68976  1.0000
  N   N11       1.0  0.09830  0.54946  0.68741  1.0000
  N   N12       1.0  0.44971  0.55140  0.69664  1.0000
  C   C13       1.0  0.62465  0.21476  0.21444  1.0000
  C   C14       1.0  0.58062  0.18118  0.26206  1.0000
  C  Sn1       1.0  0.56046  0.19562  0.35204  1.0000
  C  Sn2       1.0  0.58491  0.24461  0.39493  1.0000
  C   C15       1.0  0.62892  0.27792  0.34664  1.0000
  C   C16       1.0  0.64877  0.26308  0.25666  1.0000
  H   H13       1.0  0.64001  0.20328  0.14477  1.0000
  O  Te1       1.0  0.51646  0.16161  0.39866  1.0000
  O  Te2       1.0  0.56556  0.26002  0.48476  1.0000
  H   H14       1.0  0.68284  0.28909  0.21975  1.0000
  Mg  Mg1       1.0  0.50469  0.20015  0.51998  1.0000
  C   C17       1.0  0.75510  0.39192  0.22890  1.0000
  C   C18       1.0  0.73304  0.35998  0.32365  1.0000
  C  Sn3       1.0  0.76070  0.34847  0.40615  1.0000
  C  Sn4       1.0  0.81138  0.36939  0.39332  1.0000
  C   C19       1.0  0.83312  0.40133  0.29827  1.0000
  C   C20       1.0  0.80509  0.41259  0.21621  1.0000
  H   H15       1.0  0.73343  0.40065  0.16544  1.0000
  O  Te3       1.0  0.73807  0.31648  0.50026  1.0000
  O  Te4       1.0  0.83989  0.35853  0.47451  1.0000
  H   H16       1.0  0.82219  0.43734  0.14291  1.0000
  Mg  Mg2       1.0  0.79235  0.31292  0.58789  1.0000
  C   C21       1.0  0.59854  0.37572  0.20163  1.0000
  C   C22       1.0  0.60410  0.41724  0.26021  1.0000
  C  Sn5       1.0  0.63552  0.43716  0.36555  1.0000
  C  Sn6       1.0  0.66182  0.41503  0.41288  1.0000
  C   C23       1.0  0.65603  0.37353  0.35354  1.0000
  C   C24       1.0  0.62448  0.35389  0.24822  1.0000
  H   H17       1.0  0.57415  0.36054  0.12009  1.0000
  O  Te5       1.0  0.64063  0.47863  0.42297  1.0000
  O  Te6       1.0  0.69348  0.43419  0.51799  1.0000
  H   H18       1.0  0.62021  0.32177  0.20283  1.0000
  Mg  Mg3       1.0  0.68814  0.49118  0.56370  1.0000
  C   C25       1.0  0.37129  0.77905  0.22431  1.0000
  C   C26       1.0  0.41345  0.81758  0.28135  1.0000
  C  Sn7       1.0  0.43676  0.80979  0.38409  1.0000
  C  Sn8       1.0  0.41741  0.76251  0.43036  1.0000
  C   C27       1.0  0.37523  0.72420  0.37258  1.0000
  C   C28       1.0  0.35219  0.73240  0.26985  1.0000
  H   H19       1.0  0.35347  0.78538  0.14478  1.0000
  O  Te7       1.0  0.47885  0.84870  0.44000  1.0000
  O  Te8       1.0  0.43999  0.75371  0.53288  1.0000
  H   H20       1.0  0.31956  0.70256  0.22565  1.0000
  Mg  Mg4       1.0  0.49649  0.81847  0.57731  1.0000
  C   C29       1.0  0.23340  0.66376  0.41867  1.0000
  C   C30       1.0  0.26603  0.64845  0.39169  1.0000
  C  Sn9       1.0  0.25261  0.61123  0.30412  1.0000
  C  Sn10      1.0  0.20564  0.58902  0.24255  1.0000
  C   C31       1.0  0.17327  0.60463  0.27014  1.0000
  C   C32       1.0  0.18706  0.64189  0.35796  1.0000
  H   H21       1.0  0.24407  0.69261  0.48657  1.0000
  O  Te9       1.0  0.28566  0.59636  0.27830  1.0000
  O  Te10      1.0  0.19129  0.55176  0.15460  1.0000
  H   H22       1.0  0.16180  0.65376  0.37877  1.0000
  Mg  Mg5       1.0  0.24919  0.54415  0.15123  1.0000
  C   C33       1.0  0.39094  0.63815  0.24466  1.0000
  C   C34       1.0  0.35757  0.62976  0.33313  1.0000
  C  Sn11      1.0  0.34151  0.58953  0.40759  1.0000
  C  Sn12      1.0  0.35926  0.55718  0.39302  1.0000
  C   C35       1.0  0.39266  0.56591  0.30431  1.0000
  C   C36       1.0  0.40848  0.60627  0.23027  1.0000
  H   H23       1.0  0.40321  0.66939  0.18742  1.0000
  O  Te11      1.0  0.30815  0.58167  0.49549  1.0000
  O  Te12      1.0  0.34382  0.51670  0.46624  1.0000
  H   H24       1.0  0.43434  0.61278  0.16184  1.0000
  Mg  Mg6       1.0  0.29800  0.52146  0.57323  1.0000
  C   C37       1.0  0.52055  0.01724  0.29365  1.0000
  C   C38       1.0  0.52365  0.04506  0.19154  1.0000
  C  Sn13      1.0  0.49584  0.02295  0.08224  1.0000
  C  Sn14      1.0  0.96878  0.97202  0.07532  1.0000
  C   C39       1.0  0.96591  0.94451  0.17801  1.0000
  C   C40       1.0  0.99392  0.96701  0.28692  1.0000
  H   H25       1.0  0.54220  0.03465  0.37794  1.0000
  O  Te13      1.0  0.52448  0.06319  0.98108  1.0000
  O  Te14      1.0  0.96565  0.96090  0.96723  1.0000
  H   H26       1.0  0.99149  0.94546  0.36598  1.0000
  Mg  Mg7       1.0  0.47872  0.01508  0.85415  1.0000
  C   C41       1.0  0.00981  0.53018  0.26539  1.0000
  C   C42       1.0  0.04251  0.52595  0.19318  1.0000
  C  Sn15      1.0  0.02543  0.49389  0.09119  1.0000
  C  Sn16      1.0  0.97464  0.46559  0.06115  1.0000
  C   C43       1.0  0.94223  0.47012  0.13392  1.0000
  C   C44       1.0  0.95972  0.50230  0.23580  1.0000
  H   H27       1.0  0.02334  0.55510  0.34418  1.0000
  O  Te15      1.0  0.05860  0.49009  0.02005  1.0000
  O  Te16      1.0  0.98168  0.44518  0.95969  1.0000
  H   H28       1.0  0.93439  0.50560  0.29164  1.0000
  Mg  Mg8       1.0  0.04135  0.45288  0.89093  1.0000
  C   C45       1.0  0.49649  0.47700  0.29681  1.0000
  C   C46       1.0  0.52450  0.47843  0.20070  1.0000
  C  Sn17      1.0  0.53141  0.50885  0.10202  1.0000
  C  Sn18      1.0  0.50984  0.53836  0.09979  1.0000
  C   C47       1.0  0.48190  0.53670  0.19644  1.0000
  C   C48       1.0  0.47521  0.50611  0.29471  1.0000
  H   H29       1.0  0.49133  0.45336  0.37288  1.0000
  O  Te17      1.0  0.55949  0.50981  0.00673  1.0000
  O  Te18      1.0  0.51617  0.56911  0.00231  1.0000
  H   H30       1.0  0.45354  0.50504  0.36915  1.0000
  Mg  Mg9       1.0  0.58265  0.56955  0.89397  1.0000
  C   C49       1.0  0.56161  0.20698  0.90111  1.0000
  C   C50       1.0  0.56587  0.18246  0.80060  1.0000
  C  Sn19      1.0  0.60410  0.20665  0.72332  1.0000
  C  Sn20      1.0  0.63866  0.25629  0.74737  1.0000
  C   C51       1.0  0.63410  0.28049  0.84821  1.0000
  C   C52       1.0  0.59570  0.25594  0.92492  1.0000
  H   H31       1.0  0.53191  0.18798  0.96050  1.0000
  O  Te19      1.0  0.60780  0.18161  0.62328  1.0000
  O  Te20      1.0  0.67724  0.28134  0.67164  1.0000
  H   H32       1.0  0.56733  0.26302  0.00278  1.0000
  Mg  Mg10      1.0  0.66676  0.23148  0.54665  1.0000
  C   C53       1.0  0.77939  0.40337  0.71061  1.0000
  C   C54       1.0  0.81483  0.39496  0.76726  1.0000
  C  Sn21      1.0  0.80374  0.36421  0.86684  1.0000
  C  Sn22      1.0  0.75625  0.34151  0.91026  1.0000
  C   C55       1.0  0.72104  0.35013  0.85290  1.0000
  C   C56       1.0  0.73254  0.38098  0.75335  1.0000
  H   H33       1.0  0.78828  0.42722  0.63354  1.0000
  O  Te21      1.0  0.83958  0.35621  0.92240  1.0000
  O  Te22      1.0  0.71907  0.29869  0.00958  1.0000
  H   H34       1.0  0.70508  0.38747  0.70945  1.0000
  Mg  Mg11      1.0  0.78041  0.29919  0.05483  1.0000
  C   C57       1.0  0.66322  0.43198  0.91830  1.0000
  C   C58       1.0  0.65007  0.38589  0.87262  1.0000
  C  Sn23      1.0  0.61546  0.36468  0.77361  1.0000
  C  Sn24      1.0  0.59368  0.39018  0.71950  1.0000
  C   C59       1.0  0.60710  0.43629  0.76582  1.0000
  C   C60       1.0  0.64177  0.45717  0.86496  1.0000
  H   H35       1.0  0.69006  0.44815  0.99496  1.0000
  O  Te23      1.0  0.60273  0.31860  0.72914  1.0000
  O  Te24      1.0  0.55900  0.36984  0.62043  1.0000
  H   H36       1.0  0.65196  0.49287  0.90025  1.0000
  Mg  Mg12      1.0  0.55367  0.30612  0.59249  1.0000
  C   C61       1.0  0.42838  0.77138  0.93567  1.0000
  C   C62       1.0  0.38204  0.73587  0.88973  1.0000
  C  Sn25      1.0  0.36053  0.74386  0.78357  1.0000
  C  Sn26      1.0  0.38599  0.78825  0.72246  1.0000
  C   C63       1.0  0.43235  0.82353  0.76911  1.0000
  C   C64       1.0  0.45352  0.81517  0.87543  1.0000
  H   H37       1.0  0.41968  0.75300  0.01789  1.0000
  O  Te25      1.0  0.31419  0.70800  0.73893  1.0000
  O  Te26      1.0  0.36536  0.79718  0.61616  1.0000
  H   H38       1.0  0.48942  0.84265  0.91093  1.0000
  Mg  Mg13      1.0  0.30137  0.73716  0.59102  1.0000
  C   C65       1.0  0.23790  0.66552  0.91020  1.0000
  C   C66       1.0  0.26899  0.64872  0.87951  1.0000
  C  Sn27      1.0  0.25368  0.61152  0.79074  1.0000
  C  Sn28      1.0  0.20634  0.59083  0.73176  1.0000
  C   C67       1.0  0.17553  0.60791  0.76305  1.0000
  C   C68       1.0  0.19122  0.64514  0.85203  1.0000
  H   H39       1.0  0.25005  0.69434  0.97900  1.0000
  O  Te27      1.0  0.28519  0.59515  0.76121  1.0000
  O  Te28      1.0  0.19011  0.55362  0.64268  1.0000
  H   H40       1.0  0.16715  0.65816  0.87572  1.0000
  Mg  Mg14      1.0  0.24641  0.54365  0.63395  1.0000
  C   C69       1.0  0.40249  0.64584  0.75643  1.0000
  C   C70       1.0  0.36640  0.63618  0.83770  1.0000
  C  Sn29      1.0  0.34587  0.59338  0.90296  1.0000
  C  Sn30      1.0  0.36186  0.55970  0.88637  1.0000
  C   C71       1.0  0.39801  0.56973  0.80491  1.0000
  C   C72       1.0  0.41829  0.61266  0.74005  1.0000
  H   H41       1.0  0.41820  0.67907  0.70630  1.0000
  O  Te29      1.0  0.30984  0.58428  0.98375  1.0000
  O  Te30      1.0  0.34198  0.51665  0.95045  1.0000
  H   H42       1.0  0.44626  0.62015  0.67719  1.0000
  Mg  Mg15      1.0  0.26874  0.50865  0.05015  1.0000
  C   C73       1.0  0.47822  0.98503  0.57089  1.0000
  C   C74       1.0  0.48040  0.95498  0.66147  1.0000
  C  Sn31      1.0  0.50913  0.97495  0.77085  1.0000
  C  Sn32      1.0  0.03169  0.02596  0.78965  1.0000
  C   C75       1.0  0.02924  0.05570  0.69850  1.0000
  C   C76       1.0  0.00039  0.03534  0.58938  1.0000
  H   H43       1.0  0.45588  0.96928  0.48648  1.0000
  O  Te31      1.0  0.51091  0.94440  0.86037  1.0000
  O  Te32      1.0  0.06068  0.04687  0.89813  1.0000
  H   H44       1.0  0.99868  0.05862  0.51930  1.0000
  Mg  Mg16      1.0  0.55565  0.99011  0.99277  1.0000
  C   C77       1.0  0.00801  0.52460  0.79034  1.0000
  C   C78       1.0  0.04133  0.52489  0.71147  1.0000
  C  Sn33      1.0  0.02496  0.49528  0.60483  1.0000
  C  Sn34      1.0  0.97427  0.46485  0.57686  1.0000
  C   C79       1.0  0.94124  0.46485  0.65632  1.0000
  C   C80       1.0  0.95802  0.49462  0.76280  1.0000
  H   H45       1.0  0.02099  0.54764  0.87269  1.0000
  O  Te33      1.0  0.05874  0.49600  0.52706  1.0000
  O  Te34      1.0  0.95692  0.43491  0.47087  1.0000
  H   H46       1.0  0.93221  0.49440  0.82380  1.0000
  Mg  Mg17      1.0  0.01724  0.44869  0.39361  1.0000
  C   C81       1.0  0.47015  0.47995  0.79848  1.0000
  C   C82       1.0  0.46850  0.51365  0.71931  1.0000
  C  Sn35      1.0  0.49274  0.52478  0.61027  1.0000
  C  Sn36      1.0  0.51909  0.50166  0.58016  1.0000
  C   C83       1.0  0.52049  0.46797  0.65992  1.0000
  C   C84       1.0  0.49612  0.45712  0.76882  1.0000
  H   H47       1.0  0.45127  0.47153  0.88270  1.0000
  O  Te35      1.0  0.49073  0.55856  0.53225  1.0000
  O  Te36      1.0  0.54363  0.51209  0.47174  1.0000
  H   H48       1.0  0.49738  0.43099  0.83005  1.0000
  Mg  Mg18      1.0  0.53011  0.56068  0.39510  1.0000
