data_image0
_chemical_formula_structural       P4H12C12N12SnCSn2CSnTe4Mg2SnCSn2CSnTe4Mg2SnCSn2CSnTe4Mg2SnCSn2CSnTe4Mg2SnCSn2CSnTe4Mg2SnCSn2CSnTe4Mg2SnCSn2CSnTe4Mg2SnCSn2CSnTe4Mg2SnCSn2CSnTe4Mg2SnCSn2CSnTe4Mg2SnCSn2CSnTe4Mg2SnCSn2CSnTe4Mg2SnCSn2CSnTe4Mg2SnCSn2CSnTe4Mg2SnCSn2CSnTe4Mg2SnCSn2CSnTe4Mg2SnCSn2CSnTe4Mg2SnCSn2CSnTe4Mg2
_chemical_formula_sum              "P4 H12 C48 N12 Sn72 Te72 Mg36"
_cell_length_a       31.8555
_cell_length_b       31.9737
_cell_length_c       10.8682
_cell_angle_alpha    89.8887
_cell_angle_beta     93.2077
_cell_angle_gamma    120.169

_symmetry_space_group_name_H-M    'P1'
_space_group_IT_number       1

loop_
  _space_group_symop_operation_xyz
  'x, y, z'

loop_
  _atom_site_type_symbol
  _atom_site_label
  _atom_site_symmetry_multiplicity
  _atom_site_fract_x
  _atom_site_fract_y
  _atom_site_fract_z
  _atom_site_occupancy
  P   P1        1.0  0.67212  0.33272  0.41959  1.0000
  P   P2        1.0  0.33527  0.66828  0.43861  1.0000
  P   P3        1.0  0.66793  0.33736  0.92111  1.0000
  P   P4        1.0  0.33701  0.66859  0.93517  1.0000
  H   H1        1.0  0.50911  0.10480  0.31462  1.0000
  H   H2        1.0  0.90469  0.42596  0.33526  1.0000
  H   H3        1.0  0.59417  0.48450  0.33402  1.0000
  H   H4        1.0  0.48935  0.89575  0.32007  1.0000
  H   H5        1.0  0.10677  0.60480  0.29106  1.0000
  H   H6        1.0  0.40006  0.50650  0.32270  1.0000
  H   H7        1.0  0.51929  0.10552  0.83212  1.0000
  H   H8        1.0  0.89360  0.40624  0.84418  1.0000
  H   H9        1.0  0.58820  0.48749  0.83878  1.0000
  H   H10       1.0  0.49576  0.89210  0.82271  1.0000
  H   H11       1.0  0.10820  0.60569  0.80547  1.0000
  H   H12       1.0  0.39873  0.50728  0.81810  1.0000
  C   C1        1.0  0.53743  0.12401  0.24945  1.0000
  C   C2        1.0  0.87891  0.42236  0.25873  1.0000
  C   C3        1.0  0.58643  0.45860  0.25785  1.0000
  C   C4        1.0  0.45428  0.87557  0.26651  1.0000
  C   C5        1.0  0.12378  0.58625  0.24859  1.0000
  C   C6        1.0  0.41446  0.54000  0.27074  1.0000
  C   C7        1.0  0.54692  0.12542  0.76571  1.0000
  C   C8        1.0  0.87281  0.41068  0.76606  1.0000
  C   C9        1.0  0.58166  0.46051  0.76635  1.0000
  C   C10       1.0  0.46153  0.87441  0.76520  1.0000
  C   C11       1.0  0.12443  0.58749  0.75723  1.0000
  C   C12       1.0  0.41550  0.54144  0.76942  1.0000
  N   N1        1.0  0.54317  0.10049  0.16195  1.0000
  N   N2        1.0  0.89509  0.43998  0.15373  1.0000
  N   N3        1.0  0.55856  0.45673  0.16471  1.0000
  N   N4        1.0  0.44022  0.89718  0.18874  1.0000
  N   N5        1.0  0.09945  0.54853  0.17618  1.0000
  N   N6        1.0  0.45111  0.55406  0.20264  1.0000
  N   N7        1.0  0.55525  0.10285  0.68124  1.0000
  N   N8        1.0  0.89364  0.43441  0.67099  1.0000
  N   N9        1.0  0.55096  0.45119  0.67414  1.0000
  N   N10       1.0  0.45026  0.89900  0.68976  1.0000
  N   N11       1.0  0.09830  0.54946  0.68741  1.0000
  N   N12       1.0  0.44971  0.55140  0.69664  1.0000
  C  Sn1       1.0  0.58325  0.23188  0.42207  1.0000
  C   C13       1.0  0.62877  0.26391  0.37889  1.0000
  C  Sn2       1.0  0.64299  0.25328  0.26950  1.0000
  C  Sn3       1.0  0.61105  0.20973  0.20179  1.0000
  C   C14       1.0  0.56557  0.17773  0.24496  1.0000
  C  Sn4       1.0  0.55131  0.18833  0.35436  1.0000
  O  Te1       1.0  0.56979  0.24325  0.53165  1.0000
  O  Te2       1.0  0.68868  0.28585  0.22821  1.0000
  O  Te3       1.0  0.62456  0.19838  0.09213  1.0000
  O  Te4       1.0  0.50565  0.15579  0.39564  1.0000
  Mg  Mg1       1.0  0.69049  0.25426  0.07369  1.0000
  Mg  Mg2       1.0  0.50380  0.18735  0.55011  1.0000
  C  Sn5       1.0  0.80065  0.35133  0.38268  1.0000
  C   C15       1.0  0.82147  0.38184  0.28458  1.0000
  C  Sn6       1.0  0.79728  0.40281  0.22295  1.0000
  C  Sn7       1.0  0.75134  0.39311  0.26021  1.0000
  C   C16       1.0  0.73055  0.36263  0.35826  1.0000
  C  Sn8       1.0  0.75470  0.34163  0.41993  1.0000
  O  Te5       1.0  0.82547  0.33077  0.44296  1.0000
  O  Te6       1.0  0.81882  0.43318  0.12511  1.0000
  O  Te7       1.0  0.72652  0.41371  0.19982  1.0000
  O  Te8       1.0  0.73319  0.31129  0.51773  1.0000
  Mg  Mg3       1.0  0.77078  0.45263  0.07193  1.0000
  Mg  Mg4       1.0  0.78121  0.29184  0.57101  1.0000
  C  Sn9       1.0  0.64941  0.41422  0.43483  1.0000
  C   C17       1.0  0.64173  0.37168  0.37728  1.0000
  C  Sn10      1.0  0.62070  0.35900  0.25706  1.0000
  C  Sn11      1.0  0.60710  0.38949  0.19298  1.0000
  C   C18       1.0  0.61479  0.43201  0.25052  1.0000
  C  Sn12      1.0  0.63581  0.44472  0.37075  1.0000
  O  Te9       1.0  0.67049  0.42619  0.55506  1.0000
  O  Te10      1.0  0.61336  0.31627  0.20147  1.0000
  O  Te11      1.0  0.58600  0.37749  0.07266  1.0000
  O  Te12      1.0  0.64316  0.48742  0.42632  1.0000
  Mg  Mg5       1.0  0.58342  0.31558  0.03630  1.0000
  Mg  Mg6       1.0  0.67312  0.48816  0.59146  1.0000
  C  Sn13      1.0  0.44716  0.79423  0.38600  1.0000
  C   C19       1.0  0.43575  0.81652  0.28958  1.0000
  C  Sn14      1.0  0.38841  0.79502  0.23559  1.0000
  C  Sn15      1.0  0.35170  0.75031  0.27894  1.0000
  C   C20       1.0  0.36311  0.72805  0.37532  1.0000
  C  Sn16      1.0  0.41045  0.74953  0.42935  1.0000
  O  Te13      1.0  0.49472  0.81639  0.43860  1.0000
  O  Te14      1.0  0.37789  0.81798  0.13929  1.0000
  O  Te15      1.0  0.30411  0.72816  0.22625  1.0000
  O  Te16      1.0  0.42098  0.72659  0.52561  1.0000
  Mg  Mg7       1.0  0.30770  0.77353  0.09751  1.0000
  Mg  Mg8       1.0  0.49114  0.77102  0.56749  1.0000
  C  Sn17      1.0  0.20979  0.57960  0.27120  1.0000
  C   C21       1.0  0.17661  0.59298  0.30713  1.0000
  C  Sn18      1.0  0.19294  0.63707  0.36994  1.0000
  C  Sn19      1.0  0.24348  0.66848  0.39734  1.0000
  C   C22       1.0  0.27662  0.65510  0.36139  1.0000
  C  Sn20      1.0  0.26033  0.61101  0.29860  1.0000
  O  Te17      1.0  0.19265  0.53535  0.20849  1.0000
  O  Te18      1.0  0.15908  0.64964  0.40495  1.0000
  O  Te19      1.0  0.26060  0.71276  0.46010  1.0000
  O  Te20      1.0  0.29416  0.59844  0.26357  1.0000
  Mg  Mg9       1.0  0.20027  0.71377  0.48847  1.0000
  Mg  Mg10      1.0  0.25301  0.53433  0.18000  1.0000
  C  Sn21      1.0  0.37611  0.62800  0.22614  1.0000
  C   C23       1.0  0.34672  0.62141  0.32353  1.0000
  C  Sn22      1.0  0.34187  0.58925  0.41628  1.0000
  C  Sn23      1.0  0.36695  0.56315  0.41164  1.0000
  C   C24       1.0  0.39632  0.56975  0.31431  1.0000
  C  Sn24      1.0  0.40119  0.60190  0.22150  1.0000
  O  Te21      1.0  0.38043  0.66035  0.13442  1.0000
  O  Te22      1.0  0.31227  0.58325  0.51269  1.0000
  O  Te23      1.0  0.36260  0.53079  0.50347  1.0000
  O  Te24      1.0  0.43078  0.60791  0.12515  1.0000
  Mg  Mg11      1.0  0.31803  0.53506  0.61588  1.0000
  Mg  Mg12      1.0  0.42506  0.65610  0.02195  1.0000
  C  Sn25      1.0  0.53179  0.01699  0.27046  1.0000
  C   C25       1.0  0.53038  0.04430  0.17141  1.0000
  C  Sn26      1.0  0.49329  0.02321  0.07790  1.0000
  C  Sn27      1.0  0.96124  0.97380  0.08352  1.0000
  C   C26       1.0  0.96265  0.94653  0.18253  1.0000
  C  Sn28      1.0  0.99974  0.96759  0.27608  1.0000
  O  Te25      1.0  0.56921  0.03883  0.36292  1.0000
  O  Te26      1.0  0.51776  0.06313  0.97978  1.0000
  O  Te27      1.0  0.94890  0.96389  0.99095  1.0000
  O  Te28      1.0  0.00037  0.93960  0.37416  1.0000
  Mg  Mg13      1.0  0.45930  0.01705  0.87622  1.0000
  Mg  Mg14      1.0  0.05880  0.98565  0.47780  1.0000
  C  Sn29      1.0  0.98371  0.45817  0.07573  1.0000
  C   C27       1.0  0.95178  0.46030  0.15519  1.0000
  C  Sn30      1.0  0.96791  0.49979  0.23707  1.0000
  C  Sn31      1.0  0.01698  0.53797  0.23952  1.0000
  C   C28       1.0  0.04887  0.53584  0.16007  1.0000
  C  Sn32      1.0  0.03277  0.49636  0.07817  1.0000
  O  Te29      1.0  0.99189  0.43025  0.99463  1.0000
  O  Te30      1.0  0.93532  0.50109  0.31566  1.0000
  O  Te31      1.0  0.03388  0.57782  0.32070  1.0000
  O  Te32      1.0  0.09043  0.50695  0.99961  1.0000
  Mg  Mg15      1.0  0.97563  0.56304  0.40962  1.0000
  Mg  Mg16      1.0  0.05016  0.44503  0.90557  1.0000
  C  Sn33      1.0  0.54070  0.53225  0.10166  1.0000
  C   C29       1.0  0.54265  0.49797  0.17802  1.0000
  C  Sn34      1.0  0.50753  0.47419  0.26349  1.0000
  C  Sn35      1.0  0.46965  0.48488  0.27280  1.0000
  C   C30       1.0  0.46770  0.51913  0.19645  1.0000
  C  Sn36      1.0  0.50282  0.54293  0.11096  1.0000
  O  Te33      1.0  0.57620  0.55557  0.01687  1.0000
  O  Te34      1.0  0.51025  0.44007  0.33887  1.0000
  O  Te35      1.0  0.43414  0.46152  0.35768  1.0000
  O  Te36      1.0  0.50010  0.57703  0.03561  1.0000
  Mg  Mg17      1.0  0.45339  0.41788  0.43999  1.0000
  Mg  Mg18      1.0  0.58202  0.61113  0.93442  1.0000
  C  Sn37      1.0  0.62841  0.25106  0.71330  1.0000
  C   C31       1.0  0.62147  0.27544  0.80955  1.0000
  C  Sn38      1.0  0.59151  0.24962  0.90361  1.0000
  C  Sn39      1.0  0.56803  0.19837  0.90148  1.0000
  C   C32       1.0  0.57498  0.17402  0.80528  1.0000
  C  Sn40      1.0  0.60493  0.19981  0.71116  1.0000
  O  Te37      1.0  0.65852  0.27761  0.62024  1.0000
  O  Te38      1.0  0.58512  0.27479  0.99885  1.0000
  O  Te39      1.0  0.53790  0.17183  0.99465  1.0000
  O  Te40      1.0  0.61134  0.17467  0.61598  1.0000
  Mg  Mg19      1.0  0.51551  0.21060  0.10464  1.0000
  Mg  Mg20      1.0  0.65586  0.22691  0.51018  1.0000
  C  Sn41      1.0  0.78623  0.41418  0.74267  1.0000
  C   C33       1.0  0.81931  0.40123  0.79286  1.0000
  C  Sn42      1.0  0.80364  0.36119  0.86784  1.0000
  C  Sn43      1.0  0.75385  0.33350  0.89313  1.0000
  C   C34       1.0  0.72079  0.34644  0.84294  1.0000
  C  Sn44      1.0  0.73644  0.38648  0.76796  1.0000
  O  Te41      1.0  0.80271  0.45435  0.66795  1.0000
  O  Te42      1.0  0.83740  0.34897  0.91700  1.0000
  O  Te43      1.0  0.73739  0.29331  0.96792  1.0000
  O  Te44      1.0  0.70271  0.39871  0.71880  1.0000
  Mg  Mg21      1.0  0.77217  0.27919  0.01338  1.0000
  Mg  Mg22      1.0  0.74279  0.45655  0.62236  1.0000
  C  Sn45      1.0  0.61600  0.37198  0.71523  1.0000
  C   C35       1.0  0.65002  0.37985  0.81246  1.0000
  C  Sn46      1.0  0.66048  0.41436  0.90565  1.0000
  C  Sn47      1.0  0.63640  0.44154  0.90163  1.0000
  C   C36       1.0  0.60240  0.43366  0.80447  1.0000
  C  Sn48      1.0  0.59193  0.39916  0.71122  1.0000
  O  Te45      1.0  0.60611  0.33729  0.62307  1.0000
  O  Te46      1.0  0.66954  0.40969  0.00188  1.0000
  O  Te47      1.0  0.64632  0.47625  0.99391  1.0000
  O  Te48      1.0  0.55778  0.39192  0.61505  1.0000
  Mg  Mg23      1.0  0.67059  0.46103  0.10585  1.0000
  Mg  Mg24      1.0  0.55668  0.34057  0.51107  1.0000
  C  Sn49      1.0  0.36940  0.74871  0.72457  1.0000
  C   C37       1.0  0.37772  0.72710  0.82777  1.0000
  C  Sn50      1.0  0.41177  0.75553  0.92254  1.0000
  C  Sn51      1.0  0.43804  0.80662  0.91403  1.0000
  C   C38       1.0  0.42972  0.82820  0.81090  1.0000
  C  Sn52      1.0  0.39568  0.79980  0.71607  1.0000
  O  Te49      1.0  0.33519  0.71959  0.63093  1.0000
  O  Te50      1.0  0.39437  0.72119  0.02478  1.0000
  O  Te51      1.0  0.44719  0.82384  0.00779  1.0000
  O  Te52      1.0  0.38797  0.82221  0.61389  1.0000
  Mg  Mg25      1.0  0.44478  0.77637  0.12852  1.0000
  Mg  Mg26      1.0  0.33755  0.76708  0.51013  1.0000
  C  Sn53      1.0  0.21072  0.58137  0.76019  1.0000
  C   C39       1.0  0.17916  0.59632  0.79942  1.0000
  C  Sn54      1.0  0.19744  0.64050  0.86349  1.0000
  C  Sn55      1.0  0.24834  0.67039  0.88883  1.0000
  C   C40       1.0  0.27987  0.65544  0.84959  1.0000
  C  Sn56      1.0  0.26162  0.61126  0.78552  1.0000
  O  Te53      1.0  0.19164  0.53706  0.69627  1.0000
  O  Te54      1.0  0.16516  0.65466  0.90181  1.0000
  O  Te55      1.0  0.26740  0.71472  0.95281  1.0000
  O  Te56      1.0  0.29387  0.59710  0.74720  1.0000
  Mg  Mg27      1.0  0.20874  0.71821  0.98584  1.0000
  Mg  Mg28      1.0  0.25033  0.53357  0.66311  1.0000
  C  Sn57      1.0  0.42111  0.63314  0.76610  1.0000
  C   C41       1.0  0.40927  0.58743  0.80846  1.0000
  C  Sn58      1.0  0.36818  0.56104  0.87554  1.0000
  C  Sn59      1.0  0.33827  0.58073  0.90074  1.0000
  C   C42       1.0  0.35011  0.62641  0.85838  1.0000
  C  Sn60      1.0  0.39120  0.65283  0.79130  1.0000
  O  Te57      1.0  0.46236  0.65888  0.69920  1.0000
  O  Te58      1.0  0.35709  0.51542  0.91696  1.0000
  O  Te59      1.0  0.29700  0.55494  0.96770  1.0000
  O  Te60      1.0  0.40229  0.69842  0.74988  1.0000
  Mg  Mg29      1.0  0.27195  0.48240  0.00434  1.0000
  Mg  Mg30      1.0  0.46231  0.71956  0.66244  1.0000
  C  Sn61      1.0  0.49137  0.98374  0.56358  1.0000
  C   C43       1.0  0.49037  0.95461  0.66073  1.0000
  C  Sn62      1.0  0.50832  0.97475  0.77924  1.0000
  C  Sn63      1.0  0.02323  0.02504  0.80115  1.0000
  C   C44       1.0  0.02422  0.05414  0.70405  1.0000
  C  Sn64      1.0  0.00628  0.03403  0.58549  1.0000
  O  Te61      1.0  0.47323  0.96283  0.44585  1.0000
  O  Te62      1.0  0.50695  0.94490  0.87488  1.0000
  O  Te63      1.0  0.04138  0.04594  0.91900  1.0000
  O  Te64      1.0  0.00764  0.06385  0.48989  1.0000
  Mg  Mg31      1.0  0.51087  0.97841  0.01919  1.0000
  Mg  Mg32      1.0  0.97861  0.01848  0.34557  1.0000
  C  Sn65      1.0  0.01043  0.51237  0.80229  1.0000
  C   C45       1.0  0.04261  0.51554  0.71553  1.0000
  C  Sn66      1.0  0.02524  0.49601  0.59629  1.0000
  C  Sn67      1.0  0.97466  0.47285  0.56302  1.0000
  C   C46       1.0  0.94252  0.46970  0.64974  1.0000
  C  Sn68      1.0  0.95986  0.48921  0.76902  1.0000
  O  Te65      1.0  0.02860  0.53215  0.92096  1.0000
  O  Te66      1.0  0.05811  0.49960  0.51117  1.0000
  O  Te67      1.0  0.95651  0.45306  0.44423  1.0000
  O  Te68      1.0  0.92702  0.48563  0.85410  1.0000
  Mg  Mg33      1.0  0.01571  0.46707  0.36093  1.0000
  Mg  Mg34      1.0  0.94428  0.50627  0.00434  1.0000
  C  Sn69      1.0  0.49050  0.51029  0.56192  1.0000
  C   C47       1.0  0.46362  0.51053  0.65894  1.0000
  C  Sn70      1.0  0.46860  0.49328  0.77381  1.0000
  C  Sn71      1.0  0.50115  0.47543  0.79212  1.0000
  C   C48       1.0  0.52801  0.47520  0.69514  1.0000
  C  Sn72      1.0  0.52305  0.49244  0.58023  1.0000
  O  Te69      1.0  0.48495  0.52772  0.44786  1.0000
  O  Te70      1.0  0.44133  0.49387  0.86939  1.0000
  O  Te71      1.0  0.50669  0.45799  0.90629  1.0000
  O  Te72      1.0  0.55031  0.49186  0.48469  1.0000
  Mg  Mg35      1.0  0.43650  0.45440  0.00796  1.0000
  Mg  Mg36      1.0  0.53009  0.51944  0.34611  1.0000
