data_image0
_chemical_formula_structural       P4H60C84N12C2Sn2C2HTe2HMgC2Sn2C2HTe2HMgC2Sn2C2HTe2HMgC2Sn2C2HTe2HMgC2Sn2C2HTe2HMgC2Sn2C2HTe2HMgC2Sn2C2HTe2HMgC2Sn2C2HTe2HMgC2Sn2C2HTe2HMgC2Sn2C2HTe2HMgC2Sn2C2HTe2HMgC2Sn2C2HTe2HMg
_chemical_formula_sum              "P4 H84 C132 N12 Sn24 Te24 Mg12"
_cell_length_a       39.8522
_cell_length_b       39.8939
_cell_length_c       9.84607
_cell_angle_alpha    90.0413
_cell_angle_beta     90.3483
_cell_angle_gamma    120.661

_symmetry_space_group_name_H-M    'P1'
_space_group_IT_number       1

loop_
  _space_group_symop_operation_xyz
  'x, y, z'

loop_
  _atom_site_type_symbol
  _atom_site_label
  _atom_site_symmetry_multiplicity
  _atom_site_fract_x
  _atom_site_fract_y
  _atom_site_fract_z
  _atom_site_occupancy
  P   P1        1.0  0.66507  0.33660  0.45121  1.0000
  P   P2        1.0  0.33491  0.66420  0.45676  1.0000
  P   P3        1.0  0.66519  0.33224  0.96332  1.0000
  P   P4        1.0  0.33327  0.66478  0.95036  1.0000
  H   H1        1.0  0.39611  0.67673  0.26726  1.0000
  H   H2        1.0  0.32116  0.71143  0.24847  1.0000
  H   H3        1.0  0.28592  0.61150  0.24060  1.0000
  H   H4        1.0  0.42623  0.63653  0.21479  1.0000
  H   H5        1.0  0.36032  0.78200  0.19350  1.0000
  H   H6        1.0  0.21581  0.58452  0.17927  1.0000
  H   H7        1.0  0.32984  0.53804  0.40633  1.0000
  H   H8        1.0  0.45636  0.79243  0.42821  1.0000
  H   H9        1.0  0.21005  0.66322  0.46285  1.0000
  H   H10       1.0  0.30093  0.57718  0.46508  1.0000
  H   H11       1.0  0.41769  0.72150  0.48349  1.0000
  H   H12       1.0  0.27906  0.68792  0.53018  1.0000
  H   H13       1.0  0.60510  0.45341  0.35102  1.0000
  H   H14       1.0  0.54047  0.15080  0.35261  1.0000
  H   H15       1.0  0.84660  0.38490  0.34544  1.0000
  H   H16       1.0  0.39053  0.53649  0.35425  1.0000
  H   H17       1.0  0.46155  0.84744  0.36000  1.0000
  H   H18       1.0  0.15218  0.61585  0.35249  1.0000
  H   H19       1.0  0.50155  0.10078  0.27575  1.0000
  H   H20       1.0  0.40009  0.49805  0.23651  1.0000
  H   H21       1.0  0.50624  0.90297  0.25908  1.0000
  H   H22       1.0  0.09768  0.59636  0.29240  1.0000
  H   H23       1.0  0.46542  0.02900  0.28098  1.0000
  H   H24       1.0  0.43442  0.46171  0.22902  1.0000
  H   H25       1.0  0.54196  0.97461  0.25628  1.0000
  H   H26       1.0  0.02756  0.56098  0.27394  1.0000
  H   H27       1.0  0.56869  0.02887  0.15818  1.0000
  H   H28       1.0  0.54357  0.56923  0.18055  1.0000
  H   H29       1.0  0.43523  0.97334  0.17330  1.0000
  H   H30       1.0  0.02856  0.45851  0.14251  1.0000
  H   H31       1.0  0.60580  0.10094  0.16349  1.0000
  H   H32       1.0  0.50896  0.60545  0.18465  1.0000
  H   H33       1.0  0.39839  0.90045  0.17995  1.0000
  H   H34       1.0  0.10056  0.49474  0.16799  1.0000
  H   H35       1.0  0.70841  0.38208  0.72789  1.0000
  H   H36       1.0  0.39382  0.67785  0.74961  1.0000
  H   H37       1.0  0.28430  0.60842  0.73402  1.0000
  H   H38       1.0  0.77917  0.41453  0.66663  1.0000
  H   H39       1.0  0.42480  0.63922  0.69197  1.0000
  H   H40       1.0  0.21417  0.57934  0.67313  1.0000
  H   H41       1.0  0.79881  0.35693  0.00031  1.0000
  H   H42       1.0  0.33636  0.54265  0.91727  1.0000
  H   H43       1.0  0.20772  0.65951  0.94947  1.0000
  H   H44       1.0  0.72844  0.32439  0.05918  1.0000
  H   H45       1.0  0.30730  0.58224  0.98457  1.0000
  H   H46       1.0  0.27825  0.68865  0.00624  1.0000
  H   H47       1.0  0.61596  0.46294  0.83580  1.0000
  H   H48       1.0  0.53326  0.15020  0.83343  1.0000
  H   H49       1.0  0.85148  0.40169  0.88555  1.0000
  H   H50       1.0  0.38500  0.53516  0.81671  1.0000
  H   H51       1.0  0.46211  0.85145  0.85120  1.0000
  H   H52       1.0  0.14907  0.60462  0.88038  1.0000
  H   H53       1.0  0.49713  0.09795  0.75729  1.0000
  H   H54       1.0  0.39821  0.49859  0.72845  1.0000
  H   H55       1.0  0.46165  0.02737  0.76454  1.0000
  H   H56       1.0  0.42940  0.45969  0.72461  1.0000
  H   H57       1.0  0.56738  0.02716  0.67457  1.0000
  H   H58       1.0  0.54033  0.56477  0.67039  1.0000
  H   H59       1.0  0.60412  0.09907  0.68007  1.0000
  H   H60       1.0  0.50871  0.60304  0.68920  1.0000
  C   C1        1.0  0.34752  0.63081  0.37547  1.0000
  C   C2        1.0  0.36612  0.71157  0.37388  1.0000
  C   C3        1.0  0.28623  0.64971  0.39383  1.0000
  C   C4        1.0  0.38188  0.64641  0.29846  1.0000
  C   C5        1.0  0.35096  0.72883  0.28738  1.0000
  C   C6        1.0  0.26875  0.62180  0.29101  1.0000
  C   C7        1.0  0.39878  0.62415  0.26893  1.0000
  C   C8        1.0  0.37281  0.76852  0.25614  1.0000
  C   C9        1.0  0.23008  0.60725  0.25479  1.0000
  C   C10       1.0  0.38164  0.58534  0.31222  1.0000
  C   C11       1.0  0.41080  0.79185  0.30945  1.0000
  C   C12       1.0  0.20805  0.62072  0.32124  1.0000
  C   C13       1.0  0.34513  0.56857  0.37704  1.0000
  C   C14       1.0  0.42700  0.77400  0.38714  1.0000
  C   C15       1.0  0.22658  0.65156  0.41495  1.0000
  C   C16       1.0  0.32844  0.59096  0.41025  1.0000
  C   C17       1.0  0.40500  0.73460  0.42013  1.0000
  C   C18       1.0  0.26523  0.66551  0.45274  1.0000
  C   C19       1.0  0.59898  0.43359  0.26558  1.0000
  C   C20       1.0  0.56747  0.16604  0.29324  1.0000
  C   C21       1.0  0.83352  0.40015  0.29374  1.0000
  C   C22       1.0  0.40201  0.56367  0.29680  1.0000
  C   C23       1.0  0.43487  0.83429  0.29770  1.0000
  C   C24       1.0  0.16596  0.60112  0.30346  1.0000
  C   C25       1.0  0.55617  0.10606  0.21774  1.0000
  C   C26       1.0  0.45216  0.55516  0.21837  1.0000
  C   C27       1.0  0.44906  0.89601  0.22237  1.0000
  C   C28       1.0  0.10512  0.54838  0.23365  1.0000
  C   C29       1.0  0.51621  0.08496  0.24979  1.0000
  C   C30       1.0  0.43168  0.51408  0.22611  1.0000
  C   C31       1.0  0.49004  0.91784  0.24267  1.0000
  C   C32       1.0  0.08314  0.56601  0.26231  1.0000
  C   C33       1.0  0.49573  0.04446  0.25009  1.0000
  C   C34       1.0  0.45101  0.49331  0.21830  1.0000
  C   C35       1.0  0.51051  0.95859  0.23776  1.0000
  C   C36       1.0  0.04292  0.54562  0.25177  1.0000
  C   C37       1.0  0.51359  0.02287  0.21551  1.0000
  C   C38       1.0  0.49189  0.51233  0.20475  1.0000
  C   C39       1.0  0.49126  0.97960  0.21533  1.0000
  C   C40       1.0  0.02173  0.50588  0.21508  1.0000
  C   C41       1.0  0.55386  0.04439  0.18591  1.0000
  C   C42       1.0  0.51202  0.55317  0.19178  1.0000
  C   C43       1.0  0.45053  0.95764  0.19185  1.0000
  C   C44       1.0  0.04366  0.48838  0.18069  1.0000
  C   C45       1.0  0.57471  0.08501  0.18595  1.0000
  C   C46       1.0  0.49260  0.57398  0.19588  1.0000
  C   C47       1.0  0.42991  0.91688  0.19491  1.0000
  C   C48       1.0  0.08422  0.50905  0.19184  1.0000
  C   C49       1.0  0.71394  0.35075  0.89636  1.0000
  C   C50       1.0  0.34926  0.63332  0.87343  1.0000
  C   C51       1.0  0.28527  0.64900  0.87824  1.0000
  C   C52       1.0  0.72825  0.37600  0.78427  1.0000
  C   C53       1.0  0.38173  0.64842  0.78824  1.0000
  C   C54       1.0  0.26722  0.61926  0.78122  1.0000
  C   C55       1.0  0.76756  0.39417  0.75075  1.0000
  C   C56       1.0  0.39870  0.62663  0.75310  1.0000
  C   C57       1.0  0.22774  0.60241  0.74871  1.0000
  C   C58       1.0  0.79310  0.38732  0.82926  1.0000
  C   C59       1.0  0.38285  0.58826  0.80067  1.0000
  C   C60       1.0  0.20527  0.61532  0.81519  1.0000
  C   C61       1.0  0.77852  0.36079  0.93681  1.0000
  C   C62       1.0  0.34907  0.57237  0.88078  1.0000
  C   C63       1.0  0.22424  0.64760  0.90414  1.0000
  C   C64       1.0  0.73925  0.34287  0.97075  1.0000
  C   C65       1.0  0.33266  0.59452  0.91857  1.0000
  C   C66       1.0  0.26380  0.66451  0.93467  1.0000
  C   C67       1.0  0.59861  0.43285  0.79641  1.0000
  C   C68       1.0  0.56237  0.16372  0.78672  1.0000
  C   C69       1.0  0.83508  0.40753  0.80889  1.0000
  C   C70       1.0  0.40123  0.56511  0.77861  1.0000
  C   C71       1.0  0.43288  0.83651  0.80503  1.0000
  C   C72       1.0  0.16279  0.59542  0.80489  1.0000
  C   C73       1.0  0.55326  0.10366  0.71836  1.0000
  C   C74       1.0  0.45097  0.55409  0.71353  1.0000
  C   C75       1.0  0.51277  0.08269  0.74049  1.0000
  C   C76       1.0  0.42955  0.51317  0.71889  1.0000
  C   C77       1.0  0.49263  0.04257  0.74379  1.0000
  C   C78       1.0  0.44746  0.49115  0.71729  1.0000
  C   C79       1.0  0.51182  0.02166  0.72092  1.0000
  C   C80       1.0  0.48818  0.50859  0.70472  1.0000
  C   C81       1.0  0.55215  0.04266  0.69574  1.0000
  C   C82       1.0  0.50919  0.54941  0.68953  1.0000
  C   C83       1.0  0.57274  0.08306  0.69552  1.0000
  C   C84       1.0  0.49134  0.57152  0.69443  1.0000
  N   N1        1.0  0.57129  0.42614  0.17990  1.0000
  N   N2        1.0  0.57916  0.14692  0.22070  1.0000
  N   N3        1.0  0.85475  0.43294  0.23122  1.0000
  N   N4        1.0  0.43435  0.57762  0.22859  1.0000
  N   N5        1.0  0.42513  0.85517  0.22560  1.0000
  N   N6        1.0  0.14606  0.56734  0.24389  1.0000
  N   N7        1.0  0.56323  0.41831  0.75038  1.0000
  N   N8        1.0  0.57589  0.14410  0.72729  1.0000
  N   N9        1.0  0.85249  0.43269  0.71469  1.0000
  N   N10       1.0  0.43543  0.57866  0.72586  1.0000
  N   N11       1.0  0.42039  0.85574  0.73789  1.0000
  N   N12       1.0  0.14199  0.56655  0.72444  1.0000
  C   C85       1.0  0.50765  0.94759  0.74705  1.0000
  C   C86       1.0  0.49540  0.97411  0.72016  1.0000
  C  Sn1       1.0  0.45595  0.96090  0.69720  1.0000
  C  Sn2       1.0  0.42830  0.92038  0.70134  1.0000
  C   C87       1.0  0.44084  0.89409  0.72842  1.0000
  C   C88       1.0  0.48040  0.90762  0.75121  1.0000
  H   H61       1.0  0.53825  0.95805  0.76476  1.0000
  O  Te1       1.0  0.44421  0.98780  0.67042  1.0000
  O  Te2       1.0  0.38868  0.90639  0.67881  1.0000
  H   H62       1.0  0.48986  0.88708  0.77211  1.0000
  Mg  Mg1       1.0  0.38700  0.95449  0.64630  1.0000
  C   C89       1.0  0.56230  0.50846  0.23604  1.0000
  C   C90       1.0  0.52358  0.49619  0.20247  1.0000
  C  Sn3       1.0  0.49766  0.45733  0.16724  1.0000
  C  Sn4       1.0  0.51083  0.43033  0.16572  1.0000
  C   C91       1.0  0.54961  0.44289  0.19957  1.0000
  C   C92       1.0  0.57531  0.48184  0.23462  1.0000
  H   H63       1.0  0.58218  0.53860  0.26324  1.0000
  O  Te3       1.0  0.45908  0.44557  0.13392  1.0000
  O  Te4       1.0  0.48554  0.39132  0.13095  1.0000
  H   H64       1.0  0.60528  0.49133  0.26070  1.0000
  Mg  Mg2       1.0  0.43569  0.38933  0.09335  1.0000
  C   C93       1.0  0.64522  0.26418  0.25862  1.0000
  C   C94       1.0  0.63516  0.28555  0.34443  1.0000
  C  Sn5       1.0  0.60137  0.26657  0.42258  1.0000
  C  Sn6       1.0  0.57728  0.22544  0.41450  1.0000
  C   C95       1.0  0.58762  0.20432  0.32842  1.0000
  C   C96       1.0  0.62148  0.22361  0.25063  1.0000
  H   H65       1.0  0.67144  0.27910  0.19848  1.0000
  O  Te5       1.0  0.59174  0.28837  0.50775  1.0000
  O  Te6       1.0  0.54336  0.20573  0.49153  1.0000
  H   H66       1.0  0.62928  0.20706  0.18427  1.0000
  Mg  Mg3       1.0  0.54257  0.24824  0.59262  1.0000
  C   C97       1.0  0.36225  0.76323  0.76506  1.0000
  C   C98       1.0  0.39929  0.79030  0.81515  1.0000
  C  Sn7       1.0  0.41996  0.77804  0.89582  1.0000
  C  Sn8       1.0  0.40317  0.73791  0.92671  1.0000
  C   C99       1.0  0.36611  0.71106  0.87602  1.0000
  C   C100      1.0  0.34567  0.72364  0.79543  1.0000
  H   H67       1.0  0.34645  0.77296  0.70264  1.0000
  O  Te7       1.0  0.45693  0.80547  0.94508  1.0000
  O  Te8       1.0  0.42104  0.72359  0.00706  1.0000
  H   H68       1.0  0.31701  0.70268  0.75658  1.0000
  Mg  Mg4       1.0  0.47058  0.77214  0.05042  1.0000
  C   C101      1.0  0.60612  0.36630  0.21623  1.0000
  C   C102      1.0  0.61635  0.40397  0.25632  1.0000
  C  Sn9       1.0  0.64914  0.42602  0.33863  1.0000
  C  Sn10      1.0  0.67206  0.40998  0.38141  1.0000
  C   C103      1.0  0.66160  0.37228  0.34068  1.0000
  C   C104      1.0  0.62873  0.35046  0.25834  1.0000
  H   H69       1.0  0.58069  0.34942  0.15246  1.0000
  O  Te9       1.0  0.65893  0.46360  0.37779  1.0000
  O  Te10      1.0  0.70499  0.43139  0.46366  1.0000
  H   H70       1.0  0.62083  0.32131  0.22725  1.0000
  Mg  Mg5       1.0  0.70645  0.48132  0.49038  1.0000
  C   C105      1.0  0.60971  0.35025  0.78163  1.0000
  C   C106      1.0  0.64425  0.36116  0.85282  1.0000
  C  Sn11      1.0  0.66592  0.39841  0.90975  1.0000
  C  Sn12      1.0  0.65267  0.42516  0.89500  1.0000
  C   C107      1.0  0.61805  0.41396  0.82368  1.0000
  C   C108      1.0  0.59661  0.37662  0.76708  1.0000
  H   H71       1.0  0.59310  0.32135  0.73790  1.0000
  O  Te11      1.0  0.70037  0.40883  0.98050  1.0000
  O  Te12      1.0  0.67374  0.46257  0.95092  1.0000
  H   H72       1.0  0.56985  0.36817  0.71205  1.0000
  Mg  Mg6       1.0  0.71676  0.46186  0.03832  1.0000
  C   C109      1.0  0.76792  0.34909  0.44488  1.0000
  C   C110      1.0  0.78676  0.37010  0.32833  1.0000
  C  Sn13      1.0  0.76769  0.38220  0.23890  1.0000
  C  Sn14      1.0  0.72905  0.37306  0.26697  1.0000
  C   C111      1.0  0.71047  0.35206  0.38389  1.0000
  C   C112      1.0  0.72981  0.34009  0.47267  1.0000
  H   H73       1.0  0.78289  0.33985  0.51361  1.0000
  O  Te13      1.0  0.78693  0.40315  0.12290  1.0000
  O  Te14      1.0  0.70932  0.38481  0.17935  1.0000
  H   H74       1.0  0.71523  0.32385  0.56294  1.0000
  Mg  Mg7       1.0  0.74785  0.41272  0.03434  1.0000
  C   C113      1.0  0.04738  0.49088  0.67497  1.0000
  C   C114      1.0  0.02258  0.50454  0.71103  1.0000
  C  Sn15      1.0  0.03801  0.54343  0.74961  1.0000
  C  Sn16      1.0  0.07903  0.56904  0.75199  1.0000
  C   C115      1.0  0.10359  0.55509  0.71564  1.0000
  C   C116      1.0  0.08784  0.51613  0.67724  1.0000
  H   H75       1.0  0.03520  0.46074  0.64518  1.0000
  O  Te15      1.0  0.01282  0.55659  0.78537  1.0000
  O  Te16      1.0  0.09523  0.60804  0.79010  1.0000
  H   H76       1.0  0.10705  0.50556  0.64925  1.0000
  Mg  Mg8       1.0  0.04887  0.61223  0.83013  1.0000
  C   C117      1.0  0.92416  0.50021  0.68052  1.0000
  C   C118      1.0  0.89778  0.46024  0.69218  1.0000
  C  Sn17      1.0  0.91128  0.43455  0.71514  1.0000
  C  Sn18      1.0  0.95196  0.44924  0.72662  1.0000
  C   C119      1.0  0.97811  0.48928  0.71490  1.0000
  C   C120      1.0  0.96429  0.51472  0.69189  1.0000
  H   H77       1.0  0.91347  0.51990  0.66279  1.0000
  O  Te17      1.0  0.88453  0.39470  0.72648  1.0000
  O  Te18      1.0  0.96625  0.42422  0.74961  1.0000
  H   H78       1.0  0.98472  0.54567  0.68295  1.0000
  Mg  Mg9       1.0  0.91824  0.37226  0.75770  1.0000
  C   C121      1.0  0.57410  0.23233  0.91449  1.0000
  C   C122      1.0  0.58141  0.20985  0.82393  1.0000
  C  Sn19      1.0  0.61806  0.22525  0.76424  1.0000
  C  Sn20      1.0  0.64789  0.26389  0.79604  1.0000
  C   C123      1.0  0.64030  0.28614  0.88684  1.0000
  C   C124      1.0  0.60351  0.27044  0.94594  1.0000
  H   H79       1.0  0.54564  0.22018  0.96028  1.0000
  O  Te19      1.0  0.62486  0.20239  0.67394  1.0000
  O  Te20      1.0  0.68479  0.28000  0.73788  1.0000
  H   H80       1.0  0.59572  0.28657  0.01613  1.0000
  Mg  Mg10      1.0  0.67988  0.23734  0.62076  1.0000
  C   C125      1.0  0.92894  0.49772  0.18869  1.0000
  C   C126      1.0  0.90070  0.45860  0.20864  1.0000
  C  Sn21      1.0  0.91186  0.43120  0.23457  1.0000
  C  Sn22      1.0  0.95205  0.44329  0.24061  1.0000
  C   C127      1.0  0.98008  0.48250  0.22060  1.0000
  C   C128      1.0  0.96859  0.50967  0.19468  1.0000
  H   H81       1.0  0.92006  0.51875  0.16870  1.0000
  O  Te21      1.0  0.88326  0.39222  0.25421  1.0000
  O  Te22      1.0  0.96401  0.41652  0.26640  1.0000
  H   H82       1.0  0.99046  0.53996  0.17933  1.0000
  Mg  Mg11      1.0  0.91410  0.36667  0.28633  1.0000
  C   C129      1.0  0.55701  0.50364  0.74744  1.0000
  C   C130      1.0  0.51835  0.49090  0.71126  1.0000
  C  Sn23      1.0  0.49161  0.45119  0.69340  1.0000
  C  Sn24      1.0  0.50388  0.42379  0.71222  1.0000
  C   C131      1.0  0.54261  0.43682  0.74851  1.0000
  C   C132      1.0  0.56913  0.47663  0.76608  1.0000
  H   H83       1.0  0.57752  0.53444  0.76111  1.0000
  O  Te23      1.0  0.45311  0.43897  0.65719  1.0000
  O  Te24      1.0  0.47776  0.38392  0.69507  1.0000
  H   H84       1.0  0.59905  0.48647  0.79418  1.0000
  Mg  Mg12      1.0  0.42838  0.38158  0.64551  1.0000
