data_image0
_chemical_formula_structural       P4H48C66N12C2Sn2C2HTe2HMgC2Sn2C2HTe2HMgC2Sn2C2HTe2HMgC2Sn2C2HTe2HMgC2Sn2C2HTe2HMgC2Sn2C2HTe2HMgC2Sn2C2HTe2HMgC2Sn2C2HTe2HMgC2Sn2C2HTe2HMg
_chemical_formula_sum              "P4 H66 C102 N12 Sn18 Te18 Mg9"
_cell_length_a       31.8555
_cell_length_b       31.9737
_cell_length_c       10.8682
_cell_angle_alpha    89.8887
_cell_angle_beta     93.2077
_cell_angle_gamma    120.169

_symmetry_space_group_name_H-M    'P1'
_space_group_IT_number       1

loop_
  _space_group_symop_operation_xyz
  'x, y, z'

loop_
  _atom_site_type_symbol
  _atom_site_label
  _atom_site_symmetry_multiplicity
  _atom_site_fract_x
  _atom_site_fract_y
  _atom_site_fract_z
  _atom_site_occupancy
  P   P1        1.0  0.67212  0.33272  0.41959  1.0000
  P   P2        1.0  0.33527  0.66828  0.43861  1.0000
  P   P3        1.0  0.66793  0.33736  0.92111  1.0000
  P   P4        1.0  0.33701  0.66859  0.93517  1.0000
  H   H1        1.0  0.67962  0.27215  0.21624  1.0000
  H   H2        1.0  0.27335  0.59365  0.24565  1.0000
  H   H3        1.0  0.62324  0.18513  0.15214  1.0000
  H   H4        1.0  0.18585  0.55752  0.17413  1.0000
  H   H5        1.0  0.51998  0.17780  0.40088  1.0000
  H   H6        1.0  0.17368  0.65619  0.41420  1.0000
  H   H7        1.0  0.57611  0.26348  0.46772  1.0000
  H   H8        1.0  0.26016  0.69104  0.49148  1.0000
  H   H9        1.0  0.50911  0.10480  0.31462  1.0000
  H   H10       1.0  0.90469  0.42596  0.33526  1.0000
  H   H11       1.0  0.59417  0.48450  0.33402  1.0000
  H   H12       1.0  0.48935  0.89575  0.32007  1.0000
  H   H13       1.0  0.10677  0.60480  0.29106  1.0000
  H   H14       1.0  0.40006  0.50650  0.32270  1.0000
  H   H15       1.0  0.45394  0.48818  0.36578  1.0000
  H   H16       1.0  0.50154  0.44808  0.34567  1.0000
  H   H17       1.0  0.55672  0.52288  0.00928  1.0000
  H   H18       1.0  0.50827  0.56349  0.03055  1.0000
  H   H19       1.0  0.59861  0.32660  0.70503  1.0000
  H   H20       1.0  0.32461  0.71860  0.70941  1.0000
  H   H21       1.0  0.27362  0.59308  0.73011  1.0000
  H   H22       1.0  0.40635  0.68226  0.73337  1.0000
  H   H23       1.0  0.56423  0.38002  0.64482  1.0000
  H   H24       1.0  0.37528  0.80315  0.64110  1.0000
  H   H25       1.0  0.18575  0.56005  0.66333  1.0000
  H   H26       1.0  0.43843  0.62939  0.66888  1.0000
  H   H27       1.0  0.65393  0.48266  0.93243  1.0000
  H   H28       1.0  0.47917  0.83145  0.94622  1.0000
  H   H29       1.0  0.17993  0.66108  0.91202  1.0000
  H   H30       1.0  0.35141  0.52383  0.92722  1.0000
  H   H31       1.0  0.68899  0.43050  0.99290  1.0000
  H   H32       1.0  0.42670  0.74789  0.01651  1.0000
  H   H33       1.0  0.26616  0.69223  0.98207  1.0000
  H   H34       1.0  0.32041  0.57690  0.99579  1.0000
  H   H35       1.0  0.51929  0.10552  0.83212  1.0000
  H   H36       1.0  0.89360  0.40624  0.84418  1.0000
  H   H37       1.0  0.58820  0.48749  0.83878  1.0000
  H   H38       1.0  0.49576  0.89210  0.82271  1.0000
  H   H39       1.0  0.10820  0.60569  0.80547  1.0000
  H   H40       1.0  0.39873  0.50728  0.81810  1.0000
  H   H41       1.0  0.03804  0.55081  0.85853  1.0000
  H   H42       1.0  0.44766  0.48505  0.86775  1.0000
  H   H43       1.0  0.94904  0.49897  0.84933  1.0000
  H   H44       1.0  0.49486  0.44308  0.85309  1.0000
  H   H45       1.0  0.95238  0.43608  0.50339  1.0000
  H   H46       1.0  0.54308  0.50556  0.50222  1.0000
  H   H47       1.0  0.04264  0.48891  0.51141  1.0000
  H   H48       1.0  0.49760  0.55021  0.51807  1.0000
  C   C1        1.0  0.63181  0.27324  0.34716  1.0000
  C   C2        1.0  0.27320  0.64527  0.37157  1.0000
  C   C3        1.0  0.64468  0.25128  0.25637  1.0000
  C   C4        1.0  0.25139  0.60722  0.28265  1.0000
  C   C5        1.0  0.61340  0.20303  0.22015  1.0000
  C   C6        1.0  0.20292  0.58737  0.24142  1.0000
  C   C7        1.0  0.56841  0.17603  0.27290  1.0000
  C   C8        1.0  0.17489  0.60595  0.28633  1.0000
  C   C9        1.0  0.55483  0.19862  0.36032  1.0000
  C   C10       1.0  0.19632  0.64346  0.37670  1.0000
  C   C11       1.0  0.58617  0.24659  0.39732  1.0000
  C   C12       1.0  0.24462  0.66275  0.41972  1.0000
  C   C13       1.0  0.53743  0.12401  0.24945  1.0000
  C   C14       1.0  0.87891  0.42236  0.25873  1.0000
  C   C15       1.0  0.58643  0.45860  0.25785  1.0000
  C   C16       1.0  0.45428  0.87557  0.26651  1.0000
  C   C17       1.0  0.12378  0.58625  0.24859  1.0000
  C   C18       1.0  0.41446  0.54000  0.27074  1.0000
  C   C19       1.0  0.47626  0.49639  0.28715  1.0000
  C   C20       1.0  0.50415  0.47420  0.27734  1.0000
  C   C21       1.0  0.47658  0.52863  0.19753  1.0000
  C   C22       1.0  0.53336  0.48239  0.17670  1.0000
  C   C23       1.0  0.50688  0.53782  0.09886  1.0000
  C   C24       1.0  0.53388  0.51473  0.08694  1.0000
  C   C25       1.0  0.64604  0.37535  0.85288  1.0000
  C   C26       1.0  0.37243  0.72771  0.86735  1.0000
  C   C27       1.0  0.27579  0.64481  0.86143  1.0000
  C   C28       1.0  0.36006  0.63257  0.86688  1.0000
  C   C29       1.0  0.61146  0.36122  0.75265  1.0000
  C   C30       1.0  0.35844  0.74364  0.76070  1.0000
  C   C31       1.0  0.25291  0.60781  0.76972  1.0000
  C   C32       1.0  0.39345  0.64716  0.77416  1.0000
  C   C33       1.0  0.59247  0.39057  0.71850  1.0000
  C   C34       1.0  0.38682  0.79091  0.72259  1.0000
  C   C35       1.0  0.20413  0.58965  0.73134  1.0000
  C   C36       1.0  0.41181  0.61794  0.73838  1.0000
  C   C37       1.0  0.60739  0.43400  0.78486  1.0000
  C   C38       1.0  0.43068  0.82328  0.78954  1.0000
  C   C39       1.0  0.17685  0.60823  0.78296  1.0000
  C   C40       1.0  0.39656  0.57322  0.79423  1.0000
  C   C41       1.0  0.64346  0.44924  0.88115  1.0000
  C   C42       1.0  0.44545  0.80661  0.89373  1.0000
  C   C43       1.0  0.20055  0.64657  0.87090  1.0000
  C   C44       1.0  0.36200  0.55803  0.88344  1.0000
  C   C45       1.0  0.66259  0.42003  0.91478  1.0000
  C   C46       1.0  0.41638  0.75984  0.93276  1.0000
  C   C47       1.0  0.24885  0.66405  0.91024  1.0000
  C   C48       1.0  0.34444  0.58752  0.92055  1.0000
  C   C49       1.0  0.54692  0.12542  0.76571  1.0000
  C   C50       1.0  0.87281  0.41068  0.76606  1.0000
  C   C51       1.0  0.58166  0.46051  0.76635  1.0000
  C   C52       1.0  0.46153  0.87441  0.76520  1.0000
  C   C53       1.0  0.12443  0.58749  0.75723  1.0000
  C   C54       1.0  0.41550  0.54144  0.76942  1.0000
  C   C55       1.0  0.01982  0.52755  0.77743  1.0000
  C   C56       1.0  0.46735  0.48922  0.78571  1.0000
  C   C57       1.0  0.96961  0.49757  0.77425  1.0000
  C   C58       1.0  0.49387  0.46571  0.77910  1.0000
  C   C59       1.0  0.04726  0.52518  0.68279  1.0000
  C   C60       1.0  0.46910  0.52064  0.69160  1.0000
  C   C61       1.0  0.94447  0.46377  0.67583  1.0000
  C   C62       1.0  0.52167  0.47203  0.67729  1.0000
  C   C63       1.0  0.02177  0.49167  0.58370  1.0000
  C   C64       1.0  0.49600  0.52543  0.58890  1.0000
  C   C65       1.0  0.97144  0.46218  0.57934  1.0000
  C   C66       1.0  0.52105  0.50055  0.57968  1.0000
  N   N1        1.0  0.54317  0.10049  0.16195  1.0000
  N   N2        1.0  0.89509  0.43998  0.15373  1.0000
  N   N3        1.0  0.55856  0.45673  0.16471  1.0000
  N   N4        1.0  0.44022  0.89718  0.18874  1.0000
  N   N5        1.0  0.09945  0.54853  0.17618  1.0000
  N   N6        1.0  0.45111  0.55406  0.20264  1.0000
  N   N7        1.0  0.55525  0.10285  0.68124  1.0000
  N   N8        1.0  0.89364  0.43441  0.67099  1.0000
  N   N9        1.0  0.55096  0.45119  0.67414  1.0000
  N   N10       1.0  0.45026  0.89900  0.68976  1.0000
  N   N11       1.0  0.09830  0.54946  0.68741  1.0000
  N   N12       1.0  0.44971  0.55140  0.69664  1.0000
  C   C67       1.0  0.35329  0.55865  0.41193  1.0000
  C   C68       1.0  0.37937  0.56238  0.30927  1.0000
  C  Sn1       1.0  0.39451  0.60202  0.23302  1.0000
  C  Sn2       1.0  0.38330  0.63855  0.26030  1.0000
  C   C69       1.0  0.35722  0.63451  0.36327  1.0000
  C   C70       1.0  0.34223  0.59468  0.43893  1.0000
  H   H49       1.0  0.34172  0.52785  0.47051  1.0000
  O  Te1       1.0  0.42052  0.60516  0.13079  1.0000
  O  Te2       1.0  0.39800  0.67857  0.18566  1.0000
  H   H50       1.0  0.32207  0.59183  0.51846  1.0000
  Mg  Mg1       1.0  0.43260  0.66661  0.05680  1.0000
  C   C71       1.0  0.98279  0.51324  0.26682  1.0000
  C   C72       1.0  0.95111  0.48099  0.17356  1.0000
  C  Sn3       1.0  0.96943  0.46875  0.07459  1.0000
  C  Sn4       1.0  0.02043  0.48922  0.06916  1.0000
  C   C73       1.0  0.05182  0.52143  0.16296  1.0000
  C   C74       1.0  0.03310  0.53344  0.26156  1.0000
  H   H51       1.0  0.96832  0.52251  0.34314  1.0000
  O  Te3       1.0  0.96235  0.44839  0.98217  1.0000
  O  Te4       1.0  0.06481  0.48951  0.97132  1.0000
  H   H52       1.0  0.05764  0.55838  0.33379  1.0000
  Mg  Mg2       1.0  0.00619  0.44379  0.86763  1.0000
  C   C75       1.0  0.37129  0.77905  0.22431  1.0000
  C   C76       1.0  0.41345  0.81758  0.28135  1.0000
  C  Sn5       1.0  0.43676  0.80979  0.38409  1.0000
  C  Sn6       1.0  0.41741  0.76251  0.43036  1.0000
  C   C77       1.0  0.37523  0.72420  0.37258  1.0000
  C   C78       1.0  0.35219  0.73240  0.26985  1.0000
  H   H53       1.0  0.35347  0.78538  0.14478  1.0000
  O  Te5       1.0  0.47885  0.84870  0.44000  1.0000
  O  Te6       1.0  0.43999  0.75371  0.53288  1.0000
  H   H54       1.0  0.31956  0.70256  0.22565  1.0000
  Mg  Mg3       1.0  0.49649  0.81847  0.57731  1.0000
  C   C79       1.0  0.59854  0.37572  0.20163  1.0000
  C   C80       1.0  0.60410  0.41724  0.26021  1.0000
  C  Sn7       1.0  0.63552  0.43716  0.36555  1.0000
  C  Sn8       1.0  0.66182  0.41503  0.41288  1.0000
  C   C81       1.0  0.65603  0.37353  0.35354  1.0000
  C   C82       1.0  0.62448  0.35389  0.24822  1.0000
  H   H55       1.0  0.57415  0.36054  0.12009  1.0000
  O  Te7       1.0  0.64063  0.47863  0.42297  1.0000
  O  Te8       1.0  0.69348  0.43419  0.51799  1.0000
  H   H56       1.0  0.62021  0.32177  0.20283  1.0000
  Mg  Mg4       1.0  0.68814  0.49118  0.56370  1.0000
  C   C83       1.0  0.80435  0.36243  0.41329  1.0000
  C   C84       1.0  0.82483  0.38889  0.30890  1.0000
  C  Sn9       1.0  0.79699  0.39981  0.22535  1.0000
  C  Sn10      1.0  0.74775  0.38389  0.24698  1.0000
  C   C85       1.0  0.72761  0.35747  0.35174  1.0000
  C   C86       1.0  0.75579  0.34674  0.43472  1.0000
  H   H57       1.0  0.82615  0.35415  0.47753  1.0000
  O  Te9       1.0  0.81802  0.42626  0.12150  1.0000
  O  Te10      1.0  0.71912  0.39431  0.16501  1.0000
  H   H58       1.0  0.73993  0.32628  0.51558  1.0000
  Mg  Mg5       1.0  0.76420  0.43142  0.03668  1.0000
  C   C87       1.0  0.76551  0.33961  0.91612  1.0000
  C   C88       1.0  0.73260  0.35362  0.87113  1.0000
  C  Sn11      1.0  0.74398  0.38500  0.77288  1.0000
  C  Sn12      1.0  0.78917  0.40262  0.71884  1.0000
  C   C89       1.0  0.82183  0.38836  0.76446  1.0000
  C   C90       1.0  0.81008  0.35695  0.86284  1.0000
  H   H59       1.0  0.75641  0.31529  0.99220  1.0000
  O  Te11      1.0  0.71068  0.39865  0.72910  1.0000
  O  Te12      1.0  0.80146  0.43401  0.62052  1.0000
  H   H60       1.0  0.83556  0.34608  0.89760  1.0000
  Mg  Mg6       1.0  0.74404  0.44216  0.59334  1.0000
  C   C91       1.0  0.56161  0.20698  0.90111  1.0000
  C   C92       1.0  0.56587  0.18246  0.80060  1.0000
  C  Sn13      1.0  0.60410  0.20665  0.72332  1.0000
  C  Sn14      1.0  0.63866  0.25629  0.74737  1.0000
  C   C93       1.0  0.63410  0.28049  0.84821  1.0000
  C   C94       1.0  0.59570  0.25594  0.92492  1.0000
  H   H61       1.0  0.53191  0.18798  0.96050  1.0000
  O  Te13      1.0  0.60780  0.18161  0.62328  1.0000
  O  Te14      1.0  0.67724  0.28134  0.67164  1.0000
  H   H62       1.0  0.56733  0.26302  0.00278  1.0000
  Mg  Mg7       1.0  0.66676  0.23148  0.54665  1.0000
  C   C95       1.0  0.52055  0.01724  0.29365  1.0000
  C   C96       1.0  0.52365  0.04506  0.19154  1.0000
  C  Sn15      1.0  0.49584  0.02295  0.08224  1.0000
  C  Sn16      1.0  0.96878  0.97202  0.07532  1.0000
  C   C97       1.0  0.96591  0.94451  0.17801  1.0000
  C   C98       1.0  0.99392  0.96701  0.28692  1.0000
  H   H63       1.0  0.54220  0.03465  0.37794  1.0000
  O  Te15      1.0  0.52448  0.06319  0.98108  1.0000
  O  Te16      1.0  0.96565  0.96090  0.96723  1.0000
  H   H64       1.0  0.99149  0.94546  0.36598  1.0000
  Mg  Mg8       1.0  0.47872  0.01508  0.85415  1.0000
  C   C99       1.0  0.53348  0.01715  0.80674  1.0000
  C   C100      1.0  0.53680  0.04692  0.70899  1.0000
  C  Sn17      1.0  0.50871  0.02692  0.59879  1.0000
  C  Sn18      1.0  0.98113  0.97616  0.58651  1.0000
  C   C101      1.0  0.97805  0.94670  0.68487  1.0000
  C   C102      1.0  0.00633  0.96709  0.79471  1.0000
  H   H65       1.0  0.55534  0.03293  0.89176  1.0000
  O  Te17      1.0  0.51249  0.05718  0.50204  1.0000
  O  Te18      1.0  0.95263  0.95523  0.47741  1.0000
  H   H66       1.0  0.00373  0.94404  0.87040  1.0000
  Mg  Mg9       1.0  0.46618  0.01155  0.37167  1.0000
