data_image0
_chemical_formula_structural       P4H12C12N12C2Sn2C2HTe2HMgC2Sn2C2HTe2HMgC2Sn2C2HTe2HMgC2Sn2C2HTe2HMgC2Sn2C2HTe2HMgC2Sn2C2HTe2HMgC2Sn2C2HTe2HMgC2Sn2C2HTe2HMgC2Sn2C2HTe2HMgC2Sn2C2HTe2HMgC2Sn2C2HTe2HMgC2Sn2C2HTe2HMgC2Sn2C2HTe2HMgC2Sn2C2HTe2HMgC2Sn2C2HTe2HMgC2Sn2C2HTe2HMgC2Sn2C2HTe2HMgC2Sn2C2HTe2HMgC2Sn2C2HTe2HMgC2Sn2C2HTe2HMgC2Sn2C2HTe2HMgC2Sn2C2HTe2HMgC2Sn2C2HTe2HMgC2Sn2C2HTe2HMg
_chemical_formula_sum              "P4 H60 C108 N12 Sn48 Te48 Mg24"
_cell_length_a       39.8522
_cell_length_b       39.8939
_cell_length_c       9.84607
_cell_angle_alpha    90.0413
_cell_angle_beta     90.3483
_cell_angle_gamma    120.661

_symmetry_space_group_name_H-M    'P1'
_space_group_IT_number       1

loop_
  _space_group_symop_operation_xyz
  'x, y, z'

loop_
  _atom_site_type_symbol
  _atom_site_label
  _atom_site_symmetry_multiplicity
  _atom_site_fract_x
  _atom_site_fract_y
  _atom_site_fract_z
  _atom_site_occupancy
  P   P1        1.0  0.66507  0.33660  0.45121  1.0000
  P   P2        1.0  0.33491  0.66420  0.45676  1.0000
  P   P3        1.0  0.66519  0.33224  0.96332  1.0000
  P   P4        1.0  0.33327  0.66478  0.95036  1.0000
  H   H1        1.0  0.60510  0.45341  0.35102  1.0000
  H   H2        1.0  0.54047  0.15080  0.35261  1.0000
  H   H3        1.0  0.84660  0.38490  0.34544  1.0000
  H   H4        1.0  0.39053  0.53649  0.35425  1.0000
  H   H5        1.0  0.46155  0.84744  0.36000  1.0000
  H   H6        1.0  0.15218  0.61585  0.35249  1.0000
  H   H7        1.0  0.61596  0.46294  0.83580  1.0000
  H   H8        1.0  0.53326  0.15020  0.83343  1.0000
  H   H9        1.0  0.85148  0.40169  0.88555  1.0000
  H   H10       1.0  0.38500  0.53516  0.81671  1.0000
  H   H11       1.0  0.46211  0.85145  0.85120  1.0000
  H   H12       1.0  0.14907  0.60462  0.88038  1.0000
  C   C1        1.0  0.59898  0.43359  0.26558  1.0000
  C   C2        1.0  0.56747  0.16604  0.29324  1.0000
  C   C3        1.0  0.83352  0.40015  0.29374  1.0000
  C   C4        1.0  0.40201  0.56367  0.29680  1.0000
  C   C5        1.0  0.43487  0.83429  0.29770  1.0000
  C   C6        1.0  0.16596  0.60112  0.30346  1.0000
  C   C7        1.0  0.59861  0.43285  0.79641  1.0000
  C   C8        1.0  0.56237  0.16372  0.78672  1.0000
  C   C9        1.0  0.83508  0.40753  0.80889  1.0000
  C   C10       1.0  0.40123  0.56511  0.77861  1.0000
  C   C11       1.0  0.43288  0.83651  0.80503  1.0000
  C   C12       1.0  0.16279  0.59542  0.80489  1.0000
  N   N1        1.0  0.57129  0.42614  0.17990  1.0000
  N   N2        1.0  0.57916  0.14692  0.22070  1.0000
  N   N3        1.0  0.85475  0.43294  0.23122  1.0000
  N   N4        1.0  0.43435  0.57762  0.22859  1.0000
  N   N5        1.0  0.42513  0.85517  0.22560  1.0000
  N   N6        1.0  0.14606  0.56734  0.24389  1.0000
  N   N7        1.0  0.56323  0.41831  0.75038  1.0000
  N   N8        1.0  0.57589  0.14410  0.72729  1.0000
  N   N9        1.0  0.85249  0.43269  0.71469  1.0000
  N   N10       1.0  0.43543  0.57866  0.72586  1.0000
  N   N11       1.0  0.42039  0.85574  0.73789  1.0000
  N   N12       1.0  0.14199  0.56655  0.72444  1.0000
  C   C13       1.0  0.60612  0.36630  0.21623  1.0000
  C   C14       1.0  0.61635  0.40397  0.25632  1.0000
  C  Sn1       1.0  0.64914  0.42602  0.33863  1.0000
  C  Sn2       1.0  0.67206  0.40998  0.38141  1.0000
  C   C15       1.0  0.66160  0.37228  0.34068  1.0000
  C   C16       1.0  0.62873  0.35046  0.25834  1.0000
  H   H13       1.0  0.58069  0.34942  0.15246  1.0000
  O  Te1       1.0  0.65893  0.46360  0.37779  1.0000
  O  Te2       1.0  0.70499  0.43139  0.46366  1.0000
  H   H14       1.0  0.62083  0.32131  0.22725  1.0000
  Mg  Mg1       1.0  0.70645  0.48132  0.49038  1.0000
  C   C17       1.0  0.64522  0.26418  0.25862  1.0000
  C   C18       1.0  0.63516  0.28555  0.34443  1.0000
  C  Sn3       1.0  0.60137  0.26657  0.42258  1.0000
  C  Sn4       1.0  0.57728  0.22544  0.41450  1.0000
  C   C19       1.0  0.58762  0.20432  0.32842  1.0000
  C   C20       1.0  0.62148  0.22361  0.25063  1.0000
  H   H15       1.0  0.67144  0.27910  0.19848  1.0000
  O  Te3       1.0  0.59174  0.28837  0.50775  1.0000
  O  Te4       1.0  0.54336  0.20573  0.49153  1.0000
  H   H16       1.0  0.62928  0.20706  0.18427  1.0000
  Mg  Mg2       1.0  0.54257  0.24824  0.59262  1.0000
  C   C21       1.0  0.76792  0.34909  0.44488  1.0000
  C   C22       1.0  0.78676  0.37010  0.32833  1.0000
  C  Sn5       1.0  0.76769  0.38220  0.23890  1.0000
  C  Sn6       1.0  0.72905  0.37306  0.26697  1.0000
  C   C23       1.0  0.71047  0.35206  0.38389  1.0000
  C   C24       1.0  0.72981  0.34009  0.47267  1.0000
  H   H17       1.0  0.78289  0.33985  0.51361  1.0000
  O  Te5       1.0  0.78693  0.40315  0.12290  1.0000
  O  Te6       1.0  0.70932  0.38481  0.17935  1.0000
  H   H18       1.0  0.71523  0.32385  0.56294  1.0000
  Mg  Mg3       1.0  0.74785  0.41272  0.03434  1.0000
  C   C25       1.0  0.33765  0.56956  0.39663  1.0000
  C   C26       1.0  0.37024  0.57907  0.31716  1.0000
  C  Sn7       1.0  0.39336  0.61686  0.26743  1.0000
  C  Sn8       1.0  0.38360  0.64562  0.29803  1.0000
  C   C27       1.0  0.35096  0.63582  0.37770  1.0000
  C   C28       1.0  0.32802  0.59790  0.42690  1.0000
  H   H19       1.0  0.31991  0.54023  0.43476  1.0000
  O  Te7       1.0  0.42580  0.62587  0.18814  1.0000
  O  Te8       1.0  0.40621  0.68362  0.24969  1.0000
  H   H20       1.0  0.30281  0.59055  0.48851  1.0000
  Mg  Mg4       1.0  0.44757  0.68170  0.14569  1.0000
  C   C29       1.0  0.36383  0.75884  0.24962  1.0000
  C   C30       1.0  0.40075  0.78701  0.29732  1.0000
  C  Sn9       1.0  0.42224  0.77630  0.38044  1.0000
  C  Sn10      1.0  0.40641  0.73662  0.41627  1.0000
  C   C31       1.0  0.36946  0.70865  0.36794  1.0000
  C   C32       1.0  0.34820  0.71969  0.28486  1.0000
  H   H21       1.0  0.34738  0.76737  0.18528  1.0000
  O  Te9       1.0  0.45908  0.80482  0.42726  1.0000
  O  Te10      1.0  0.42728  0.72510  0.49915  1.0000
  H   H22       1.0  0.31962  0.69787  0.24787  1.0000
  Mg  Mg5       1.0  0.47626  0.77471  0.53761  1.0000
  C   C33       1.0  0.23956  0.60789  0.24672  1.0000
  C   C34       1.0  0.21242  0.61565  0.30582  1.0000
  C  Sn11      1.0  0.22410  0.64406  0.40717  1.0000
  C  Sn12      1.0  0.26371  0.66505  0.44991  1.0000
  C   C35       1.0  0.29064  0.65709  0.39008  1.0000
  C   C36       1.0  0.27863  0.62859  0.28878  1.0000
  H   H23       1.0  0.23027  0.58585  0.16828  1.0000
  O  Te11      1.0  0.19661  0.65144  0.46518  1.0000
  O  Te12      1.0  0.27618  0.69361  0.55097  1.0000
  H   H24       1.0  0.29965  0.62260  0.24298  1.0000
  Mg  Mg6       1.0  0.22778  0.69313  0.59931  1.0000
  C   C37       1.0  0.56230  0.50846  0.23604  1.0000
  C   C38       1.0  0.52358  0.49619  0.20247  1.0000
  C  Sn13      1.0  0.49766  0.45733  0.16724  1.0000
  C  Sn14      1.0  0.51083  0.43033  0.16572  1.0000
  C   C39       1.0  0.54961  0.44289  0.19957  1.0000
  C   C40       1.0  0.57531  0.48184  0.23462  1.0000
  H   H25       1.0  0.58218  0.53860  0.26324  1.0000
  O  Te13      1.0  0.45908  0.44557  0.13392  1.0000
  O  Te14      1.0  0.48554  0.39132  0.13095  1.0000
  H   H26       1.0  0.60528  0.49133  0.26070  1.0000
  Mg  Mg7       1.0  0.43569  0.38933  0.09335  1.0000
  C   C41       1.0  0.50660  0.07567  0.25256  1.0000
  C   C42       1.0  0.54625  0.10151  0.22993  1.0000
  C  Sn15      1.0  0.57072  0.08739  0.19471  1.0000
  C  Sn16      1.0  0.55511  0.04664  0.18194  1.0000
  C   C43       1.0  0.51539  0.02103  0.20469  1.0000
  C   C44       1.0  0.49117  0.03547  0.23993  1.0000
  H   H27       1.0  0.48785  0.08684  0.27975  1.0000
  O  Te15      1.0  0.61027  0.11361  0.17251  1.0000
  O  Te16      1.0  0.57890  0.03174  0.14680  1.0000
  H   H28       1.0  0.46046  0.01546  0.25736  1.0000
  Mg  Mg8       1.0  0.63091  0.07916  0.12682  1.0000
  C   C45       1.0  0.94514  0.43672  0.24457  1.0000
  C   C46       1.0  0.97302  0.47476  0.20809  1.0000
  C  Sn17      1.0  0.96183  0.50205  0.18048  1.0000
  C  Sn18      1.0  0.92196  0.49096  0.18969  1.0000
  C   C47       1.0  0.89429  0.45283  0.22637  1.0000
  C   C48       1.0  0.90581  0.42576  0.25373  1.0000
  H   H29       1.0  0.95405  0.41577  0.26582  1.0000
  O  Te17      1.0  0.99006  0.53993  0.14412  1.0000
  O  Te18      1.0  0.90997  0.51765  0.16270  1.0000
  H   H30       1.0  0.88422  0.39631  0.28207  1.0000
  Mg  Mg9       1.0  0.95933  0.56581  0.11704  1.0000
  C   C49       1.0  0.44177  0.49330  0.22520  1.0000
  C   C50       1.0  0.48104  0.50668  0.19913  1.0000
  C  Sn19      1.0  0.50746  0.54651  0.18359  1.0000
  C  Sn20      1.0  0.49422  0.57335  0.19443  1.0000
  C   C51       1.0  0.45488  0.55967  0.22063  1.0000
  C   C52       1.0  0.42870  0.51976  0.23596  1.0000
  H   H31       1.0  0.42152  0.46242  0.23714  1.0000
  O  Te19      1.0  0.54659  0.55939  0.15753  1.0000
  O  Te20      1.0  0.52000  0.61331  0.17939  1.0000
  H   H32       1.0  0.39830  0.50940  0.25623  1.0000
  Mg  Mg10      1.0  0.57051  0.61665  0.14486  1.0000
  C   C53       1.0  0.42956  0.92608  0.19383  1.0000
  C   C54       1.0  0.44391  0.90075  0.20676  1.0000
  C  Sn21      1.0  0.48368  0.91549  0.22949  1.0000
  C  Sn22      1.0  0.50947  0.95635  0.23945  1.0000
  C   C55       1.0  0.49482  0.98144  0.22648  1.0000
  C   C56       1.0  0.45498  0.96638  0.20370  1.0000
  H   H33       1.0  0.39873  0.91443  0.17629  1.0000
  O  Te21      1.0  0.49753  0.88978  0.24211  1.0000
  O  Te22      1.0  0.54934  0.97187  0.26218  1.0000
  H   H34       1.0  0.44387  0.98600  0.19379  1.0000
  Mg  Mg11      1.0  0.55425  0.92498  0.27238  1.0000
  C   C57       1.0  0.05310  0.48871  0.17486  1.0000
  C   C58       1.0  0.02653  0.50048  0.20703  1.0000
  C  Sn23      1.0  0.03984  0.53856  0.25120  1.0000
  C  Sn24      1.0  0.08052  0.56528  0.26324  1.0000
  C   C59       1.0  0.10686  0.55322  0.23072  1.0000
  C   C60       1.0  0.09322  0.51505  0.18666  1.0000
  H   H35       1.0  0.04255  0.45918  0.14070  1.0000
  O  Te23      1.0  0.01290  0.54983  0.28297  1.0000
  O  Te24      1.0  0.09462  0.60350  0.30709  1.0000
  H   H36       1.0  0.11380  0.50595  0.16168  1.0000
  Mg  Mg12      1.0  0.04639  0.60506  0.33843  1.0000
  C   C61       1.0  0.65894  0.42476  0.91363  1.0000
  C   C62       1.0  0.62855  0.41615  0.82244  1.0000
  C  Sn25      1.0  0.60741  0.37919  0.76300  1.0000
  C  Sn26      1.0  0.61693  0.35037  0.79569  1.0000
  C   C63       1.0  0.64736  0.35926  0.88711  1.0000
  C   C64       1.0  0.66834  0.39634  0.94596  1.0000
  H   H37       1.0  0.67515  0.45344  0.95923  1.0000
  O  Te25      1.0  0.57714  0.37109  0.67207  1.0000
  O  Te26      1.0  0.59626  0.31319  0.73779  1.0000
  H   H38       1.0  0.68969  0.40172  0.01663  1.0000
  Mg  Mg13      1.0  0.55751  0.31618  0.61956  1.0000
  C   C65       1.0  0.57410  0.23233  0.91449  1.0000
  C   C66       1.0  0.58141  0.20985  0.82393  1.0000
  C  Sn27      1.0  0.61806  0.22525  0.76424  1.0000
  C  Sn28      1.0  0.64789  0.26389  0.79604  1.0000
  C   C67       1.0  0.64030  0.28614  0.88684  1.0000
  C   C68       1.0  0.60351  0.27044  0.94594  1.0000
  H   H39       1.0  0.54564  0.22018  0.96028  1.0000
  O  Te27      1.0  0.62486  0.20239  0.67394  1.0000
  O  Te28      1.0  0.68479  0.28000  0.73788  1.0000
  H   H40       1.0  0.59572  0.28657  0.01613  1.0000
  Mg  Mg14      1.0  0.67988  0.23734  0.62076  1.0000
  C   C69       1.0  0.74891  0.34361  0.97622  1.0000
  C   C70       1.0  0.71968  0.34886  0.91961  1.0000
  C  Sn29      1.0  0.72762  0.37306  0.80718  1.0000
  C  Sn30      1.0  0.76556  0.39232  0.75059  1.0000
  C   C71       1.0  0.79460  0.38686  0.80791  1.0000
  C   C72       1.0  0.78634  0.36258  0.92043  1.0000
  H   H41       1.0  0.74036  0.32353  0.06323  1.0000
  O  Te29      1.0  0.69808  0.37799  0.75191  1.0000
  O  Te30      1.0  0.77430  0.41667  0.63820  1.0000
  H   H42       1.0  0.80897  0.35851  0.96418  1.0000
  Mg  Mg15      1.0  0.72426  0.41413  0.59894  1.0000
  C   C73       1.0  0.39808  0.63555  0.74682  1.0000
  C   C74       1.0  0.38907  0.59887  0.79396  1.0000
  C  Sn31      1.0  0.35687  0.57750  0.87774  1.0000
  C  Sn32      1.0  0.33330  0.59321  0.91481  1.0000
  C   C75       1.0  0.34254  0.62992  0.86704  1.0000
  C   C76       1.0  0.37483  0.65107  0.78329  1.0000
  H   H43       1.0  0.42305  0.65191  0.68196  1.0000
  O  Te31      1.0  0.34830  0.54090  0.92397  1.0000
  O  Te32      1.0  0.30094  0.57247  0.99837  1.0000
  H   H44       1.0  0.38178  0.67945  0.74674  1.0000
  Mg  Mg16      1.0  0.29900  0.52254  0.03563  1.0000
  C   C77       1.0  0.34900  0.74203  0.78461  1.0000
  C   C78       1.0  0.35924  0.71754  0.85104  1.0000
  C  Sn33      1.0  0.39599  0.73294  0.91185  1.0000
  C  Sn34      1.0  0.42292  0.77362  0.90592  1.0000
  C   C79       1.0  0.41238  0.79787  0.83931  1.0000
  C   C80       1.0  0.37553  0.78215  0.77876  1.0000
  H   H45       1.0  0.32048  0.72987  0.73782  1.0000
  O  Te33      1.0  0.40576  0.70806  0.97776  1.0000
  O  Te34      1.0  0.45984  0.78978  0.96589  1.0000
  H   H46       1.0  0.36760  0.80112  0.72741  1.0000
  Mg  Mg17      1.0  0.45742  0.74265  0.04397  1.0000
  C   C81       1.0  0.23267  0.65429  0.92651  1.0000
  C   C82       1.0  0.21014  0.62574  0.82994  1.0000
  C  Sn35      1.0  0.22609  0.60720  0.75697  1.0000
  C  Sn36      1.0  0.26534  0.61749  0.78140  1.0000
  C   C83       1.0  0.28763  0.64607  0.87829  1.0000
  C   C84       1.0  0.27138  0.66445  0.95069  1.0000
  H   H47       1.0  0.22009  0.66850  0.98258  1.0000
  O  Te35      1.0  0.20317  0.57874  0.66082  1.0000
  O  Te36      1.0  0.28201  0.59941  0.70995  1.0000
  H   H48       1.0  0.28667  0.68526  0.02552  1.0000
  Mg  Mg18      1.0  0.23901  0.56240  0.58926  1.0000
  C   C85       1.0  0.49668  0.42336  0.70801  1.0000
  C   C86       1.0  0.53613  0.43642  0.73067  1.0000
  C  Sn37      1.0  0.56294  0.47616  0.74739  1.0000
  C  Sn38      1.0  0.54992  0.50326  0.74130  1.0000
  C   C87       1.0  0.51039  0.48990  0.71868  1.0000
  C   C88       1.0  0.48382  0.45007  0.70204  1.0000
  H   H49       1.0  0.47612  0.39254  0.69521  1.0000
  O  Te37      1.0  0.60225  0.48871  0.76991  1.0000
  O  Te38      1.0  0.57609  0.54314  0.75772  1.0000
  H   H50       1.0  0.45327  0.43996  0.68458  1.0000
  Mg  Mg19      1.0  0.62671  0.54599  0.78610  1.0000
  C   C89       1.0  0.56151  0.05199  0.68944  1.0000
  C   C90       1.0  0.52220  0.02590  0.71697  1.0000
  C  Sn39      1.0  0.49691  0.03969  0.74275  1.0000
  C  Sn40      1.0  0.51131  0.08037  0.74084  1.0000
  C   C91       1.0  0.55067  0.10623  0.71310  1.0000
  C   C92       1.0  0.57573  0.09211  0.68748  1.0000
  H   H51       1.0  0.58089  0.04107  0.66955  1.0000
  O  Te39      1.0  0.45772  0.01323  0.77012  1.0000
  O  Te40      1.0  0.48666  0.09494  0.76621  1.0000
  H   H52       1.0  0.60616  0.11232  0.66609  1.0000
  Mg  Mg20      1.0  0.43559  0.04727  0.79844  1.0000
  C   C93       1.0  0.92416  0.50021  0.68052  1.0000
  C   C94       1.0  0.89778  0.46024  0.69218  1.0000
  C  Sn41      1.0  0.91128  0.43455  0.71514  1.0000
  C  Sn42      1.0  0.95196  0.44924  0.72662  1.0000
  C   C95       1.0  0.97811  0.48928  0.71490  1.0000
  C   C96       1.0  0.96429  0.51472  0.69189  1.0000
  H   H53       1.0  0.91347  0.51990  0.66279  1.0000
  O  Te41      1.0  0.88453  0.39470  0.72648  1.0000
  O  Te42      1.0  0.96625  0.42422  0.74961  1.0000
  H   H54       1.0  0.98472  0.54567  0.68295  1.0000
  Mg  Mg21      1.0  0.91824  0.37226  0.75770  1.0000
  C   C97       1.0  0.50994  0.55913  0.68662  1.0000
  C   C98       1.0  0.49400  0.51895  0.70005  1.0000
  C  Sn43      1.0  0.45385  0.49444  0.71702  1.0000
  C  Sn44      1.0  0.42928  0.51053  0.72055  1.0000
  C   C99       1.0  0.44552  0.55076  0.70693  1.0000
  C   C100      1.0  0.48573  0.57502  0.69003  1.0000
  H   H55       1.0  0.54106  0.57790  0.67347  1.0000
  O  Te43      1.0  0.43840  0.45436  0.73033  1.0000
  O  Te44      1.0  0.38905  0.48669  0.73735  1.0000
  H   H56       1.0  0.49807  0.60613  0.67955  1.0000
  Mg  Mg22      1.0  0.38180  0.43388  0.75114  1.0000
  C   C101      1.0  0.43973  0.94918  0.69282  1.0000
  C   C102      1.0  0.47956  0.97446  0.71629  1.0000
  C  Sn45      1.0  0.50408  0.95964  0.74126  1.0000
  C  Sn46      1.0  0.48835  0.91873  0.74264  1.0000
  C   C103      1.0  0.44846  0.89368  0.71894  1.0000
  C   C104      1.0  0.42419  0.90883  0.69411  1.0000
  H   H57       1.0  0.42094  0.96090  0.67353  1.0000
  O  Te45      1.0  0.54381  0.98531  0.76456  1.0000
  O  Te46      1.0  0.51220  0.90313  0.76728  1.0000
  H   H58       1.0  0.39335  0.88925  0.67585  1.0000
  Mg  Mg23      1.0  0.56446  0.94999  0.79345  1.0000
  C   C105      1.0  0.05056  0.55973  0.75684  1.0000
  C   C106      1.0  0.02380  0.52186  0.71339  1.0000
  C  Sn47      1.0  0.03652  0.49619  0.67883  1.0000
  C  Sn48      1.0  0.07679  0.50875  0.68809  1.0000
  C   C107      1.0  0.10332  0.54668  0.73176  1.0000
  C   C108      1.0  0.09028  0.57213  0.76604  1.0000
  H   H59       1.0  0.04047  0.57941  0.78344  1.0000
  O  Te47      1.0  0.00939  0.45846  0.63557  1.0000
  O  Te48      1.0  0.09029  0.48369  0.65423  1.0000
  H   H60       1.0  0.11100  0.60144  0.79976  1.0000
  Mg  Mg24      1.0  0.04203  0.43508  0.60064  1.0000
