data_image0
_chemical_formula_structural       H12C24N24O12C2Sn2C2HTe2HMgC2Sn2C2HTe2HMgC2Sn2C2HTe2HMgC2Sn2C2HTe2HMgC2Sn2C2HTe2HMgC2Sn2C2HTe2HMgC2Sn2C2HTe2HMgC2Sn2C2HTe2HMgC2Sn2C2HTe2HMgC2Sn2C2HTe2HMgC2Sn2C2HTe2HMgC2Sn2C2HTe2HMgC2Sn2C2HTe2HMgC2Sn2C2HTe2HMgC2Sn2C2HTe2HMgC2Sn2C2HTe2HMgC2Sn2C2HTe2HMgC2Sn2C2HTe2HMg
_chemical_formula_sum              "H48 C96 N24 O12 Sn36 Te36 Mg18"
_cell_length_a       37.0402
_cell_length_b       37.3307
_cell_length_c       8.05914
_cell_angle_alpha    62.4497
_cell_angle_beta     84.8999
_cell_angle_gamma    119.696

_symmetry_space_group_name_H-M    'P1'
_space_group_IT_number       1

loop_
  _space_group_symop_operation_xyz
  'x, y, z'

loop_
  _atom_site_type_symbol
  _atom_site_label
  _atom_site_symmetry_multiplicity
  _atom_site_fract_x
  _atom_site_fract_y
  _atom_site_fract_z
  _atom_site_occupancy
  H   H1        1.0  0.11865  0.59692  0.25012  1.0000
  H   H2        1.0  0.43521  0.54868  0.19073  1.0000
  H   H3        1.0  0.49128  0.91170  0.25476  1.0000
  H   H4        1.0  0.91189  0.43489  0.20475  1.0000
  H   H5        1.0  0.59362  0.49022  0.26243  1.0000
  H   H6        1.0  0.54158  0.12990  0.19049  1.0000
  H   H7        1.0  0.08898  0.56594  0.78100  1.0000
  H   H8        1.0  0.40901  0.51242  0.72795  1.0000
  H   H9        1.0  0.45773  0.86983  0.80898  1.0000
  H   H10       1.0  0.88165  0.40296  0.74202  1.0000
  H   H11       1.0  0.56738  0.45360  0.80488  1.0000
  H   H12       1.0  0.50885  0.08859  0.74089  1.0000
  C   C1        1.0  0.30465  0.66156  0.27713  1.0000
  C   C2        1.0  0.36539  0.66022  0.28248  1.0000
  C   C3        1.0  0.36554  0.72126  0.28318  1.0000
  C   C4        1.0  0.72244  0.37109  0.22737  1.0000
  C   C5        1.0  0.66216  0.37353  0.21866  1.0000
  C   C6        1.0  0.66110  0.31166  0.22149  1.0000
  C   C7        1.0  0.49046  0.57979  0.25520  1.0000
  C   C8        1.0  0.44665  0.92805  0.27136  1.0000
  C   C9        1.0  0.10142  0.53473  0.25825  1.0000
  C   C10       1.0  0.53430  0.45172  0.23589  1.0000
  C   C11       1.0  0.58208  0.10728  0.22017  1.0000
  C   C12       1.0  0.92881  0.49268  0.22984  1.0000
  C   C13       1.0  0.27691  0.62782  0.77573  1.0000
  C   C14       1.0  0.33729  0.62571  0.78443  1.0000
  C   C15       1.0  0.33792  0.68722  0.78313  1.0000
  C   C16       1.0  0.69478  0.33754  0.72524  1.0000
  C   C17       1.0  0.63439  0.33954  0.71775  1.0000
  C   C18       1.0  0.63396  0.27823  0.71787  1.0000
  C   C19       1.0  0.46600  0.54830  0.77384  1.0000
  C   C20       1.0  0.41736  0.89257  0.77921  1.0000
  C   C21       1.0  0.07198  0.50775  0.75819  1.0000
  C   C22       1.0  0.51037  0.42064  0.75344  1.0000
  C   C23       1.0  0.55317  0.07169  0.72767  1.0000
  C   C24       1.0  0.89892  0.46522  0.73339  1.0000
  N   N1        1.0  0.32418  0.70310  0.27759  1.0000
  N   N2        1.0  0.32357  0.63837  0.28272  1.0000
  N   N3        1.0  0.38752  0.70117  0.28588  1.0000
  N   N4        1.0  0.70222  0.32928  0.22917  1.0000
  N   N5        1.0  0.70399  0.39494  0.22053  1.0000
  N   N6        1.0  0.63959  0.33235  0.21671  1.0000
  N   N7        1.0  0.13053  0.57753  0.25105  1.0000
  N   N8        1.0  0.45085  0.57167  0.23557  1.0000
  N   N9        1.0  0.45967  0.89999  0.26075  1.0000
  N   N10       1.0  0.89940  0.45194  0.22641  1.0000
  N   N11       1.0  0.57528  0.46227  0.24422  1.0000
  N   N12       1.0  0.56945  0.13651  0.22028  1.0000
  N   N13       1.0  0.29681  0.66944  0.77539  1.0000
  N   N14       1.0  0.29559  0.60425  0.78163  1.0000
  N   N15       1.0  0.35954  0.66668  0.78781  1.0000
  N   N16       1.0  0.67522  0.29618  0.72397  1.0000
  N   N17       1.0  0.67607  0.36095  0.71927  1.0000
  N   N18       1.0  0.61209  0.29857  0.71407  1.0000
  N   N19       1.0  0.10134  0.54855  0.76172  1.0000
  N   N20       1.0  0.42598  0.53886  0.75533  1.0000
  N   N21       1.0  0.42971  0.86306  0.78048  1.0000
  N   N22       1.0  0.86970  0.42222  0.74185  1.0000
  N   N23       1.0  0.55054  0.42938  0.76677  1.0000
  N   N24       1.0  0.54024  0.09994  0.73721  1.0000
  O   O1        1.0  0.91983  0.51996  0.23547  1.0000
  O   O2        1.0  0.50833  0.41841  0.21543  1.0000
  O   O3        1.0  0.61900  0.11610  0.21753  1.0000
  O   O4        1.0  0.10945  0.50522  0.27418  1.0000
  O   O5        1.0  0.51604  0.61171  0.28262  1.0000
  O   O6        1.0  0.40823  0.91671  0.29257  1.0000
  O   O7        1.0  0.89050  0.49421  0.72094  1.0000
  O   O8        1.0  0.48404  0.38794  0.73108  1.0000
  O   O9        1.0  0.59142  0.08277  0.70815  1.0000
  O   O10       1.0  0.08082  0.48014  0.75545  1.0000
  O   O11       1.0  0.49077  0.58046  0.80168  1.0000
  O   O12       1.0  0.38067  0.88422  0.77982  1.0000
  C   C25       1.0  0.44177  0.65702  0.27472  1.0000
  C   C26       1.0  0.40066  0.64585  0.26031  1.0000
  C  Sn1       1.0  0.37292  0.60568  0.24738  1.0000
  C  Sn2       1.0  0.38668  0.57621  0.24899  1.0000
  C   C27       1.0  0.42785  0.58767  0.26360  1.0000
  C   C28       1.0  0.45535  0.62796  0.27640  1.0000
  H   H13       1.0  0.46305  0.68817  0.28473  1.0000
  O  Te1       1.0  0.33197  0.59505  0.23299  1.0000
  O  Te2       1.0  0.35959  0.53584  0.23634  1.0000
  H   H14       1.0  0.48717  0.63658  0.28769  1.0000
  Mg  Mg1       1.0  0.30677  0.53621  0.21911  1.0000
  C   C29       1.0  0.44348  0.79905  0.27414  1.0000
  C   C30       1.0  0.39900  0.77021  0.29181  1.0000
  C  Sn3       1.0  0.37231  0.78675  0.28799  1.0000
  C  Sn4       1.0  0.39060  0.83305  0.26602  1.0000
  C   C31       1.0  0.43514  0.86165  0.24832  1.0000
  C   C32       1.0  0.46154  0.84473  0.25238  1.0000
  H   H15       1.0  0.46392  0.78598  0.27718  1.0000
  O  Te3       1.0  0.32793  0.75746  0.30590  1.0000
  O  Te4       1.0  0.36468  0.85049  0.26166  1.0000
  H   H16       1.0  0.49599  0.86709  0.23857  1.0000
  Mg  Mg2       1.0  0.30599  0.79717  0.29161  1.0000
  C   C33       1.0  0.22883  0.58697  0.26477  1.0000
  C   C34       1.0  0.25644  0.63120  0.25356  1.0000
  C  Sn5       1.0  0.24050  0.65837  0.25061  1.0000
  C  Sn6       1.0  0.19607  0.64084  0.25911  1.0000
  C   C35       1.0  0.16869  0.59653  0.27044  1.0000
  C   C36       1.0  0.18499  0.56964  0.27324  1.0000
  H   H17       1.0  0.24142  0.56614  0.26705  1.0000
  O  Te5       1.0  0.26855  0.70250  0.23929  1.0000
  O  Te6       1.0  0.17927  0.66725  0.25647  1.0000
  H   H18       1.0  0.16359  0.53538  0.28205  1.0000
  Mg  Mg3       1.0  0.23037  0.72533  0.23983  1.0000
  C   C37       1.0  0.57311  0.38691  0.22563  1.0000
  C   C38       1.0  0.58740  0.42653  0.24557  1.0000
  C  Sn7       1.0  0.63051  0.45348  0.24370  1.0000
  C  Sn8       1.0  0.65978  0.44046  0.22137  1.0000
  C   C39       1.0  0.64518  0.40078  0.20137  1.0000
  C   C40       1.0  0.60197  0.37405  0.20351  1.0000
  H   H19       1.0  0.53969  0.36624  0.22717  1.0000
  O  Te7       1.0  0.64424  0.49295  0.26389  1.0000
  O  Te8       1.0  0.70305  0.46678  0.21892  1.0000
  H   H20       1.0  0.59093  0.34339  0.18793  1.0000
  Mg  Mg4       1.0  0.70632  0.51759  0.25162  1.0000
  C   C41       1.0  0.58698  0.23936  0.19206  1.0000
  C   C42       1.0  0.62585  0.26048  0.22908  1.0000
  C  Sn9       1.0  0.65067  0.24130  0.25224  1.0000
  C  Sn10      1.0  0.63624  0.20022  0.23794  1.0000
  C   C43       1.0  0.59732  0.17937  0.20072  1.0000
  C   C44       1.0  0.57272  0.19885  0.17786  1.0000
  H   H21       1.0  0.56796  0.25444  0.17426  1.0000
  O  Te9       1.0  0.68942  0.26284  0.28922  1.0000
  O  Te10      1.0  0.66042  0.18033  0.26040  1.0000
  H   H22       1.0  0.54265  0.18251  0.14907  1.0000
  Mg  Mg5       1.0  0.71100  0.22252  0.30895  1.0000
  C   C45       1.0  0.82450  0.45629  0.23544  1.0000
  C   C46       1.0  0.85025  0.43853  0.24242  1.0000
  C  Sn11      1.0  0.83450  0.39686  0.23534  1.0000
  C  Sn12      1.0  0.79218  0.37261  0.22096  1.0000
  C   C47       1.0  0.76670  0.39068  0.21392  1.0000
  C   C48       1.0  0.78277  0.43240  0.22117  1.0000
  H   H23       1.0  0.83695  0.48858  0.24093  1.0000
  O  Te11      1.0  0.86064  0.37961  0.24255  1.0000
  O  Te12      1.0  0.77564  0.33090  0.21355  1.0000
  H   H24       1.0  0.76285  0.44616  0.21563  1.0000
  Mg  Mg6       1.0  0.82364  0.32143  0.22799  1.0000
  C   C49       1.0  0.46693  0.49268  0.24875  1.0000
  C   C50       1.0  0.49009  0.53361  0.26213  1.0000
  C  Sn13      1.0  0.53395  0.55331  0.25616  1.0000
  C  Sn14      1.0  0.55493  0.53154  0.23636  1.0000
  C   C51       1.0  0.53149  0.49062  0.22294  1.0000
  C   C52       1.0  0.48761  0.47120  0.22914  1.0000
  H   H25       1.0  0.43299  0.47767  0.25343  1.0000
  O  Te13      1.0  0.55659  0.59421  0.26979  1.0000
  O  Te14      1.0  0.59874  0.55049  0.22993  1.0000
  H   H26       1.0  0.46970  0.43952  0.21864  1.0000
  Mg  Mg7       1.0  0.61577  0.60666  0.25404  1.0000
  C   C53       1.0  0.97151  0.00816  0.30973  1.0000
  C   C54       1.0  0.97970  0.98171  0.25399  1.0000
  C  Sn15      1.0  0.02355  0.99524  0.19173  1.0000
  C  Sn16      1.0  0.05978  0.03602  0.18538  1.0000
  C   C55       1.0  0.05122  0.06223  0.24160  1.0000
  C   C56       1.0  0.00722  0.04838  0.30359  1.0000
  H   H27       1.0  0.93746  0.99743  0.35781  1.0000
  O  Te15      1.0  0.53043  0.96842  0.13648  1.0000
  O  Te16      1.0  0.10393  0.05033  0.12383  1.0000
  H   H28       1.0  0.00088  0.06885  0.34687  1.0000
  Mg  Mg8       1.0  0.09721  0.00221  0.06312  1.0000
  C   C57       1.0  0.99434  0.46866  0.24332  1.0000
  C   C58       1.0  0.97426  0.49215  0.24034  1.0000
  C  Sn17      1.0  0.99816  0.53684  0.22864  1.0000
  C  Sn18      1.0  0.04301  0.55833  0.21973  1.0000
  C   C59       1.0  0.06281  0.53456  0.22267  1.0000
  C   C60       1.0  0.03858  0.48984  0.23446  1.0000
  H   H29       1.0  0.97560  0.43408  0.25234  1.0000
  O  Te17      1.0  0.97758  0.55980  0.22589  1.0000
  O  Te18      1.0  0.06767  0.60297  0.20790  1.0000
  H   H30       1.0  0.05415  0.47168  0.23664  1.0000
  Mg  Mg9       1.0  0.02497  0.62015  0.20858  1.0000
  C   C61       1.0  0.42823  0.61559  0.76140  1.0000
  C   C62       1.0  0.41162  0.57126  0.77395  1.0000
  C  Sn19      1.0  0.36807  0.54300  0.78194  1.0000
  C  Sn20      1.0  0.34072  0.55953  0.77721  1.0000
  C   C63       1.0  0.35766  0.60395  0.76449  1.0000
  C   C64       1.0  0.40128  0.63193  0.75664  1.0000
  H   H31       1.0  0.46199  0.63726  0.75520  1.0000
  O  Te19      1.0  0.35200  0.49879  0.79453  1.0000
  O  Te20      1.0  0.29707  0.53202  0.78492  1.0000
  H   H32       1.0  0.41414  0.66627  0.74678  1.0000
  Mg  Mg10      1.0  0.29029  0.47427  0.80142  1.0000
  C   C65       1.0  0.35353  0.79202  0.75959  1.0000
  C   C66       1.0  0.39344  0.81444  0.78822  1.0000
  C  Sn21      1.0  0.41871  0.79584  0.80743  1.0000
  C  Sn22      1.0  0.40365  0.75402  0.79767  1.0000
  C   C67       1.0  0.36369  0.73188  0.76883  1.0000
  C   C68       1.0  0.33867  0.75078  0.74986  1.0000
  H   H33       1.0  0.33418  0.80666  0.74479  1.0000
  O  Te21      1.0  0.45850  0.81867  0.83605  1.0000
  O  Te22      1.0  0.42826  0.73468  0.81633  1.0000
  H   H34       1.0  0.30778  0.73344  0.72755  1.0000
  Mg  Mg11      1.0  0.48030  0.77867  0.85335  1.0000
  C   C69       1.0  0.17658  0.54483  0.75161  1.0000
  C   C70       1.0  0.14813  0.55818  0.77245  1.0000
  C  Sn23      1.0  0.16344  0.59935  0.78266  1.0000
  C  Sn24      1.0  0.20807  0.62761  0.77171  1.0000
  C   C71       1.0  0.23627  0.61396  0.75072  1.0000
  C   C72       1.0  0.22060  0.57269  0.74072  1.0000
  H   H35       1.0  0.16447  0.51291  0.74376  1.0000
  O  Te23      1.0  0.13457  0.61216  0.80356  1.0000
  O  Te24      1.0  0.22423  0.66893  0.78146  1.0000
  H   H36       1.0  0.24264  0.56238  0.72445  1.0000
  Mg  Mg12      1.0  0.17212  0.67159  0.81014  1.0000
  C   C73       1.0  0.55774  0.34233  0.73379  1.0000
  C   C74       1.0  0.60164  0.35794  0.71747  1.0000
  C  Sn25      1.0  0.62977  0.39813  0.72968  1.0000
  C  Sn26      1.0  0.61356  0.42306  0.75884  1.0000
  C   C75       1.0  0.56957  0.40712  0.77514  1.0000
  C   C76       1.0  0.54171  0.36688  0.76263  1.0000
  H   H37       1.0  0.53617  0.31117  0.72423  1.0000
  O  Te25      1.0  0.67355  0.41326  0.71299  1.0000
  O  Te26      1.0  0.64095  0.46332  0.77167  1.0000
  H   H38       1.0  0.50772  0.35478  0.77541  1.0000
  Mg  Mg13      1.0  0.69806  0.47006  0.74006  1.0000
  C   C77       1.0  0.54423  0.17717  0.72669  1.0000
  C   C78       1.0  0.55957  0.15005  0.72172  1.0000
  C  Sn27      1.0  0.60189  0.16375  0.72606  1.0000
  C  Sn28      1.0  0.62928  0.20538  0.73562  1.0000
  C   C79       1.0  0.61361  0.23225  0.74068  1.0000
  C   C80       1.0  0.57122  0.21822  0.73620  1.0000
  H   H39       1.0  0.51142  0.16630  0.72334  1.0000
  O  Te27      1.0  0.61670  0.13625  0.72092  1.0000
  O  Te28      1.0  0.67171  0.21988  0.74021  1.0000
  H   H40       1.0  0.55934  0.23921  0.74018  1.0000
  Mg  Mg14      1.0  0.67704  0.17062  0.73019  1.0000
  C   C81       1.0  0.77248  0.33793  0.73228  1.0000
  C   C82       1.0  0.74306  0.35035  0.74887  1.0000
  C  Sn29      1.0  0.75712  0.39192  0.75464  1.0000
  C  Sn30      1.0  0.80149  0.42154  0.74352  1.0000
  C   C83       1.0  0.83068  0.40882  0.72681  1.0000
  C   C84       1.0  0.81625  0.36713  0.72123  1.0000
  H   H41       1.0  0.76133  0.30569  0.72785  1.0000
  O  Te29      1.0  0.72729  0.40379  0.77132  1.0000
  O  Te30      1.0  0.81643  0.46330  0.74888  1.0000
  H   H42       1.0  0.83905  0.35754  0.70825  1.0000
  Mg  Mg15      1.0  0.76331  0.46429  0.77279  1.0000
  C   C85       1.0  0.52821  0.52511  0.75612  1.0000
  C   C86       1.0  0.48826  0.52006  0.75484  1.0000
  C  Sn31      1.0  0.45260  0.47897  0.76579  1.0000
  C  Sn32      1.0  0.45711  0.44231  0.77829  1.0000
  C   C87       1.0  0.49720  0.44768  0.77961  1.0000
  C   C88       1.0  0.53267  0.48895  0.76852  1.0000
  H   H43       1.0  0.55565  0.55703  0.74765  1.0000
  O  Te31      1.0  0.41294  0.47452  0.76427  1.0000
  O  Te32      1.0  0.42199  0.40086  0.78947  1.0000
  H   H44       1.0  0.56359  0.49283  0.76964  1.0000
  Mg  Mg16      1.0  0.37459  0.41137  0.78236  1.0000
  C   C89       1.0  0.52821  0.98967  0.70161  1.0000
  C   C90       1.0  0.52153  0.02107  0.72490  1.0000
  C  Sn33      1.0  0.47792  0.00830  0.78307  1.0000
  C  Sn34      1.0  0.44037  0.96322  0.81852  1.0000
  C   C91       1.0  0.44740  0.93205  0.79495  1.0000
  C   C92       1.0  0.49119  0.94520  0.73662  1.0000
  H   H45       1.0  0.56209  0.99983  0.65659  1.0000
  O  Te33      1.0  0.47185  0.04010  0.80557  1.0000
  O  Te34      1.0  0.39641  0.94954  0.87687  1.0000
  H   H46       1.0  0.49635  0.92087  0.71873  1.0000
  Mg  Mg17      1.0  0.40545  0.00522  0.88752  1.0000
  C   C93       1.0  0.98535  0.44553  0.77193  1.0000
  C   C94       1.0  0.02142  0.48909  0.74568  1.0000
  C  Sn35      1.0  0.01653  0.52537  0.72742  1.0000
  C  Sn36      1.0  0.97472  0.51779  0.73570  1.0000
  C   C95       1.0  0.93883  0.47406  0.76216  1.0000
  C   C96       1.0  0.94409  0.43801  0.78020  1.0000
  H   H47       1.0  0.98941  0.41762  0.78601  1.0000
  O  Te35      1.0  0.05292  0.56869  0.70119  1.0000
  O  Te36      1.0  0.96891  0.55343  0.71794  1.0000
  H   H48       1.0  0.91615  0.40427  0.80066  1.0000
  Mg  Mg18      1.0  0.02844  0.60634  0.68429  1.0000
