data_image0
_chemical_formula_structural       H12C24N24SnCSn2CSnTe4Mg2SnCSn2CSnTe4Mg2SnCSn2CSnTe4Mg2SnCSn2CSnTe4Mg2SnCSn2CSnTe4Mg2SnCSn2CSnTe4Mg2SnCSn2CSnTe4Mg2SnCSn2CSnTe4Mg2SnCSn2CSnTe4Mg2SnCSn2CSnTe4Mg2SnCSn2CSnTe4Mg2SnCSn2CSnTe4Mg2SnCSn2CSnTe4Mg2SnCSn2CSnTe4Mg2SnCSn2CSnTe4Mg2SnCSn2CSnTe4Mg2SnCSn2CSnTe4Mg2SnCSn2CSnTe4Mg2SnCSn2CSnTe4Mg2SnCSn2CSnTe4Mg2SnCSn2CSnTe4Mg2SnCSn2CSnTe4Mg2SnCSn2CSnTe4Mg2SnCSn2CSnTe4Mg2
_chemical_formula_sum              "H12 C72 N24 Sn96 Te96 Mg48"
_cell_length_a       44.4454
_cell_length_b       44.4483
_cell_length_c       8.28848
_cell_angle_alpha    121.052
_cell_angle_beta     67.5324
_cell_angle_gamma    120.503

_symmetry_space_group_name_H-M    'P1'
_space_group_IT_number       1

loop_
  _space_group_symop_operation_xyz
  'x, y, z'

loop_
  _atom_site_type_symbol
  _atom_site_label
  _atom_site_symmetry_multiplicity
  _atom_site_fract_x
  _atom_site_fract_y
  _atom_site_fract_z
  _atom_site_occupancy
  H   H1        1.0  0.40014  0.85837  0.27412  1.0000
  H   H2        1.0  0.13515  0.54830  0.35461  1.0000
  H   H3        1.0  0.46229  0.60425  0.27673  1.0000
  H   H4        1.0  0.59889  0.13662  0.21779  1.0000
  H   H5        1.0  0.86075  0.45223  0.15768  1.0000
  H   H6        1.0  0.54579  0.39547  0.16884  1.0000
  H   H7        1.0  0.40206  0.86303  0.78148  1.0000
  H   H8        1.0  0.13999  0.54062  0.72246  1.0000
  H   H9        1.0  0.45405  0.60042  0.79231  1.0000
  H   H10       1.0  0.60001  0.13601  0.66983  1.0000
  H   H11       1.0  0.85955  0.45014  0.65400  1.0000
  H   H12       1.0  0.54049  0.39851  0.72378  1.0000
  C   C1        1.0  0.35398  0.69691  0.24618  1.0000
  C   C2        1.0  0.29954  0.64906  0.25833  1.0000
  C   C3        1.0  0.34810  0.64399  0.25708  1.0000
  C   C4        1.0  0.64523  0.29947  0.26398  1.0000
  C   C5        1.0  0.69959  0.34754  0.25554  1.0000
  C   C6        1.0  0.65106  0.35254  0.25495  1.0000
  C   C7        1.0  0.42873  0.86706  0.26052  1.0000
  C   C8        1.0  0.12873  0.56013  0.28892  1.0000
  C   C9        1.0  0.44539  0.57435  0.25563  1.0000
  C   C10       1.0  0.57023  0.12868  0.24245  1.0000
  C   C11       1.0  0.86945  0.44008  0.20966  1.0000
  C   C12       1.0  0.56064  0.42659  0.22830  1.0000
  C   C13       1.0  0.35504  0.69957  0.73630  1.0000
  C   C14       1.0  0.29979  0.65293  0.75171  1.0000
  C   C15       1.0  0.34739  0.64663  0.75452  1.0000
  C   C16       1.0  0.64513  0.30051  0.75627  1.0000
  C   C17       1.0  0.69936  0.34936  0.76167  1.0000
  C   C18       1.0  0.65144  0.35464  0.75572  1.0000
  C   C19       1.0  0.43057  0.87131  0.76817  1.0000
  C   C20       1.0  0.13043  0.56114  0.74429  1.0000
  C   C21       1.0  0.43701  0.57026  0.76556  1.0000
  C   C22       1.0  0.57174  0.12997  0.72720  1.0000
  C   C23       1.0  0.86883  0.43924  0.71084  1.0000
  C   C24       1.0  0.55844  0.42818  0.74476  1.0000
  N   N1        1.0  0.31898  0.68350  0.24994  1.0000
  N   N2        1.0  0.31271  0.62828  0.26447  1.0000
  N   N3        1.0  0.36978  0.67818  0.24874  1.0000
  N   N4        1.0  0.68022  0.31285  0.26090  1.0000
  N   N5        1.0  0.68627  0.36850  0.25258  1.0000
  N   N6        1.0  0.62948  0.31815  0.26072  1.0000
  N   N7        1.0  0.44144  0.84519  0.24711  1.0000
  N   N8        1.0  0.15230  0.58774  0.23792  1.0000
  N   N9        1.0  0.41251  0.55917  0.23743  1.0000
  N   N10       1.0  0.55743  0.15102  0.26218  1.0000
  N   N11       1.0  0.84759  0.41152  0.25712  1.0000
  N   N12       1.0  0.59107  0.44165  0.27837  1.0000
  N   N13       1.0  0.32021  0.68677  0.73785  1.0000
  N   N14       1.0  0.31202  0.63199  0.76356  1.0000
  N   N15       1.0  0.36999  0.68037  0.74198  1.0000
  N   N16       1.0  0.67996  0.31396  0.75754  1.0000
  N   N17       1.0  0.68631  0.37110  0.76300  1.0000
  N   N18       1.0  0.62981  0.31951  0.75202  1.0000
  N   N19       1.0  0.44293  0.84938  0.75633  1.0000
  N   N20       1.0  0.15148  0.59577  0.76222  1.0000
  N   N21       1.0  0.40470  0.55564  0.73960  1.0000
  N   N22       1.0  0.55815  0.15364  0.77218  1.0000
  N   N23       1.0  0.84719  0.41193  0.76839  1.0000
  N   N24       1.0  0.59108  0.44236  0.76583  1.0000
  C  Sn1       1.0  0.41422  0.76579  0.33171  1.0000
  C   C25       1.0  0.37990  0.74197  0.29009  1.0000
  C  Sn2       1.0  0.36489  0.74972  0.20252  1.0000
  C  Sn3       1.0  0.38461  0.78194  0.15546  1.0000
  C   C26       1.0  0.41892  0.80573  0.19704  1.0000
  C  Sn4       1.0  0.43394  0.79801  0.28465  1.0000
  O  Te1       1.0  0.42870  0.75750  0.41929  1.0000
  O  Te2       1.0  0.33053  0.72550  0.16237  1.0000
  O  Te3       1.0  0.37011  0.79022  0.06782  1.0000
  O  Te4       1.0  0.46829  0.82220  0.32476  1.0000
  Mg  Mg1       1.0  0.32235  0.74874  0.04184  1.0000
  Mg  Mg2       1.0  0.47650  0.79899  0.44520  1.0000
  C  Sn5       1.0  0.21974  0.63948  0.19824  1.0000
  C   C27       1.0  0.19441  0.60422  0.20138  1.0000
  C  Sn6       1.0  0.20188  0.58375  0.25381  1.0000
  C  Sn7       1.0  0.23536  0.59885  0.30426  1.0000
  C   C28       1.0  0.26066  0.63409  0.30114  1.0000
  C  Sn8       1.0  0.25322  0.65458  0.24870  1.0000
  O  Te5       1.0  0.21170  0.65945  0.14539  1.0000
  O  Te6       1.0  0.17613  0.54856  0.25581  1.0000
  O  Te7       1.0  0.24338  0.57885  0.35714  1.0000
  O  Te8       1.0  0.27894  0.68976  0.24671  1.0000
  Mg  Mg3       1.0  0.19962  0.53211  0.33800  1.0000
  Mg  Mg4       1.0  0.25548  0.70624  0.16465  1.0000
  C  Sn9       1.0  0.34684  0.59042  0.35312  1.0000
  C   C29       1.0  0.36248  0.62234  0.31015  1.0000
  C  Sn10      1.0  0.39695  0.63226  0.20988  1.0000
  C  Sn11      1.0  0.41619  0.60981  0.15123  1.0000
  C   C30       1.0  0.40055  0.57791  0.19416  1.0000
  C  Sn12      1.0  0.36608  0.56797  0.29446  1.0000
  O  Te9       1.0  0.31235  0.58103  0.45349  1.0000
  O  Te10      1.0  0.41202  0.66430  0.16864  1.0000
  O  Te11      1.0  0.45070  0.61923  0.05079  1.0000
  O  Te12      1.0  0.35101  0.53595  0.33567  1.0000
  Mg  Mg5       1.0  0.45975  0.66548  0.02849  1.0000
  Mg  Mg6       1.0  0.30327  0.53473  0.47572  1.0000
  C  Sn13      1.0  0.63748  0.22997  0.23996  1.0000
  C   C31       1.0  0.62770  0.25259  0.21608  1.0000
  C  Sn14      1.0  0.59201  0.24414  0.23421  1.0000
  C  Sn15      1.0  0.56553  0.21243  0.27721  1.0000
  C   C32       1.0  0.57531  0.18984  0.30110  1.0000
  C  Sn16      1.0  0.61100  0.19827  0.28297  1.0000
  O  Te13      1.0  0.67332  0.23895  0.22121  1.0000
  O  Te14      1.0  0.58288  0.26716  0.20963  1.0000
  O  Te15      1.0  0.52967  0.20347  0.29596  1.0000
  O  Te16      1.0  0.62013  0.17527  0.30755  1.0000
  Mg  Mg7       1.0  0.53051  0.24336  0.24956  1.0000
  Mg  Mg8       1.0  0.67249  0.19906  0.26776  1.0000
  C  Sn17      1.0  0.76113  0.34509  0.27014  1.0000
  C   C33       1.0  0.73976  0.36272  0.30001  1.0000
  C  Sn18      1.0  0.75497  0.39837  0.29276  1.0000
  C  Sn19      1.0  0.79232  0.41678  0.25474  1.0000
  C   C34       1.0  0.81367  0.39915  0.22487  1.0000
  C  Sn20      1.0  0.79848  0.36350  0.23212  1.0000
  O  Te17      1.0  0.74535  0.30945  0.27804  1.0000
  O  Te18      1.0  0.73306  0.41544  0.32315  1.0000
  O  Te19      1.0  0.80809  0.45245  0.24687  1.0000
  O  Te20      1.0  0.82037  0.34643  0.20172  1.0000
  Mg  Mg9       1.0  0.76707  0.46414  0.29780  1.0000
  Mg  Mg10      1.0  0.78639  0.29773  0.22694  1.0000
  C  Sn21      1.0  0.58355  0.38161  0.34192  1.0000
  C   C35       1.0  0.60065  0.41640  0.32352  1.0000
  C  Sn22      1.0  0.63663  0.42925  0.24809  1.0000
  C  Sn23      1.0  0.65592  0.40686  0.18972  1.0000
  C   C36       1.0  0.63882  0.37210  0.20810  1.0000
  C  Sn24      1.0  0.60284  0.35922  0.28355  1.0000
  O  Te21      1.0  0.54756  0.36932  0.41770  1.0000
  O  Te22      1.0  0.65315  0.46413  0.23114  1.0000
  O  Te23      1.0  0.69193  0.41919  0.11390  1.0000
  O  Te24      1.0  0.58632  0.32437  0.30048  1.0000
  Mg  Mg11      1.0  0.70262  0.46866  0.11930  1.0000
  Mg  Mg12      1.0  0.53684  0.31980  0.41220  1.0000
  C  Sn25      1.0  0.50575  0.94850  0.21836  1.0000
  C   C37       1.0  0.49320  0.97203  0.22190  1.0000
  C  Sn26      1.0  0.45692  0.96340  0.26293  1.0000
  C  Sn27      1.0  0.43266  0.93058  0.30133  1.0000
  C   C38       1.0  0.44521  0.90708  0.29781  1.0000
  C  Sn28      1.0  0.48149  0.91568  0.25676  1.0000
  O  Te25      1.0  0.54214  0.95768  0.17702  1.0000
  O  Te26      1.0  0.44501  0.98734  0.26558  1.0000
  O  Te27      1.0  0.39625  0.92142  0.34269  1.0000
  O  Te28      1.0  0.49340  0.89176  0.25413  1.0000
  Mg  Mg13      1.0  0.39295  0.96284  0.32943  1.0000
  Mg  Mg14      1.0  0.54545  0.91625  0.19040  1.0000
  C  Sn29      1.0  0.06330  0.49719  0.24382  1.0000
  C   C39       1.0  0.08936  0.53018  0.21738  1.0000
  C  Sn30      1.0  0.07991  0.55550  0.21506  1.0000
  C  Sn31      1.0  0.04366  0.54770  0.23981  1.0000
  C   C40       1.0  0.01763  0.51473  0.26627  1.0000
  C  Sn32      1.0  0.02705  0.48939  0.26857  1.0000
  O  Te29      1.0  0.07336  0.47228  0.24565  1.0000
  O  Te30      1.0  0.10644  0.58829  0.18833  1.0000
  O  Te31      1.0  0.03362  0.57264  0.23796  1.0000
  O  Te32      1.0  0.00055  0.45662  0.29531  1.0000
  Mg  Mg15      1.0  0.07945  0.61352  0.19688  1.0000
  Mg  Mg16      1.0  0.02750  0.43138  0.28689  1.0000
  C  Sn33      1.0  0.45236  0.49516  0.22108  1.0000
  C   C41       1.0  0.48833  0.50557  0.20848  1.0000
  C  Sn34      1.0  0.51248  0.54286  0.23357  1.0000
  C  Sn35      1.0  0.50041  0.57033  0.27219  1.0000
  C   C42       1.0  0.46446  0.55992  0.28481  1.0000
  C  Sn36      1.0  0.44029  0.52264  0.25970  1.0000
  O  Te33      1.0  0.42869  0.45772  0.19551  1.0000
  O  Te34      1.0  0.54832  0.55258  0.22024  1.0000
  O  Te35      1.0  0.52412  0.60779  0.29775  1.0000
  O  Te36      1.0  0.40447  0.51291  0.27304  1.0000
  Mg  Mg17      1.0  0.57030  0.60721  0.26611  1.0000
  Mg  Mg18      1.0  0.38246  0.45829  0.22730  1.0000
  C  Sn37      1.0  0.50470  0.07303  0.33455  1.0000
  C   C43       1.0  0.54143  0.09247  0.30475  1.0000
  C  Sn38      1.0  0.56367  0.07334  0.23686  1.0000
  C  Sn39      1.0  0.54889  0.03395  0.19783  1.0000
  C   C44       1.0  0.01979  0.01453  0.22759  1.0000
  C  Sn40      1.0  0.48991  0.03365  0.29551  1.0000
  O  Te37      1.0  0.48297  0.09273  0.40249  1.0000
  O  Te38      1.0  0.60032  0.09338  0.20825  1.0000
  O  Te39      1.0  0.57065  0.01426  0.12984  1.0000
  O  Te40      1.0  0.96091  0.01363  0.32409  1.0000
  Mg  Mg19      1.0  0.61892  0.05400  0.11364  1.0000
  Mg  Mg20      1.0  0.43467  0.05297  0.41859  1.0000
  C  Sn41      1.0  0.92881  0.44324  0.28271  1.0000
  C   C45       1.0  0.90880  0.45868  0.27671  1.0000
  C  Sn42      1.0  0.92545  0.48975  0.22628  1.0000
  C  Sn43      1.0  0.96288  0.50571  0.18078  1.0000
  C   C46       1.0  0.98287  0.49027  0.18675  1.0000
  C  Sn44      1.0  0.96624  0.45920  0.23720  1.0000
  O  Te41      1.0  0.91160  0.41217  0.33349  1.0000
  O  Te42      1.0  0.90489  0.50471  0.22135  1.0000
  O  Te43      1.0  0.98008  0.53680  0.12997  1.0000
  O  Te44      1.0  0.98678  0.44424  0.24211  1.0000
  Mg  Mg21      1.0  0.94057  0.54711  0.14365  1.0000
  Mg  Mg22      1.0  0.95113  0.40183  0.31970  1.0000
  C  Sn45      1.0  0.55520  0.50549  0.24804  1.0000
  C   C47       1.0  0.52152  0.49195  0.20995  1.0000
  C  Sn46      1.0  0.49648  0.45579  0.20090  1.0000
  C  Sn47      1.0  0.50528  0.43268  0.23067  1.0000
  C   C48       1.0  0.53893  0.44621  0.26877  1.0000
  C  Sn48      1.0  0.56399  0.48237  0.27781  1.0000
  O  Te45      1.0  0.57981  0.54173  0.25643  1.0000
  O  Te46      1.0  0.46299  0.44287  0.16254  1.0000
  O  Te47      1.0  0.48063  0.39641  0.22224  1.0000
  O  Te48      1.0  0.59746  0.49530  0.31617  1.0000
  Mg  Mg23      1.0  0.43852  0.39147  0.16570  1.0000
  Mg  Mg24      1.0  0.62195  0.54669  0.31314  1.0000
  C  Sn49      1.0  0.43494  0.78012  0.70698  1.0000
  C   C49       1.0  0.42442  0.80390  0.69786  1.0000
  C  Sn50      1.0  0.38853  0.79544  0.72184  1.0000
  C  Sn51      1.0  0.36261  0.76253  0.75577  1.0000
  C   C50       1.0  0.37314  0.73878  0.76491  1.0000
  C  Sn52      1.0  0.40903  0.74722  0.74091  1.0000
  O  Te49      1.0  0.47097  0.78914  0.68260  1.0000
  O  Te50      1.0  0.37865  0.81963  0.71205  1.0000
  O  Te51      1.0  0.32656  0.75353  0.78015  1.0000
  O  Te52      1.0  0.41891  0.72305  0.75072  1.0000
  Mg  Mg25      1.0  0.32630  0.79527  0.75455  1.0000
  Mg  Mg26      1.0  0.47125  0.74739  0.70834  1.0000
  C  Sn53      1.0  0.20832  0.59749  0.84840  1.0000
  C   C51       1.0  0.18996  0.61180  0.82012  1.0000
  C  Sn54      1.0  0.20806  0.63806  0.73609  1.0000
  C  Sn55      1.0  0.24529  0.65025  0.67902  1.0000
  C   C52       1.0  0.26363  0.63593  0.70728  1.0000
  C  Sn56      1.0  0.24555  0.60968  0.79134  1.0000
  O  Te53      1.0  0.18968  0.57127  0.93267  1.0000
  O  Te54      1.0  0.18912  0.65197  0.70934  1.0000
  O  Te55      1.0  0.26392  0.67649  0.59470  1.0000
  O  Te56      1.0  0.26447  0.59576  0.81806  1.0000
  Mg  Mg27      1.0  0.22636  0.68722  0.58833  1.0000
  Mg  Mg28      1.0  0.22725  0.56050  0.93896  1.0000
  C  Sn57      1.0  0.41425  0.62447  0.75282  1.0000
  C   C53       1.0  0.39651  0.59104  0.78453  1.0000
  C  Sn58      1.0  0.35995  0.57138  0.78906  1.0000
  C  Sn59      1.0  0.34072  0.58540  0.76120  1.0000
  C   C54       1.0  0.35847  0.61880  0.72947  1.0000
  C  Sn60      1.0  0.39503  0.63849  0.72495  1.0000
  O  Te57      1.0  0.45082  0.64366  0.74886  1.0000
  O  Te58      1.0  0.34279  0.53803  0.82107  1.0000
  O  Te59      1.0  0.30413  0.56617  0.76518  1.0000
  O  Te60      1.0  0.41219  0.67181  0.69293  1.0000
  Mg  Mg29      1.0  0.29268  0.52200  0.81364  1.0000
  Mg  Mg30      1.0  0.46229  0.68785  0.70024  1.0000
  C  Sn61      1.0  0.63741  0.23151  0.73741  1.0000
  C   C55       1.0  0.62760  0.25335  0.70754  1.0000
  C  Sn62      1.0  0.59190  0.24465  0.72412  1.0000
  C  Sn63      1.0  0.56545  0.21349  0.77168  1.0000
  C   C56       1.0  0.57526  0.19168  0.80155  1.0000
  C  Sn64      1.0  0.61096  0.20035  0.78496  1.0000
  O  Te61      1.0  0.67326  0.24073  0.72008  1.0000
  O  Te62      1.0  0.58274  0.26688  0.69353  1.0000
  O  Te63      1.0  0.52958  0.20428  0.78898  1.0000
  O  Te64      1.0  0.62012  0.17815  0.81556  1.0000
  Mg  Mg31      1.0  0.53037  0.24304  0.73376  1.0000
  Mg  Mg32      1.0  0.67248  0.20197  0.77547  1.0000
  C  Sn65      1.0  0.76736  0.40908  0.75936  1.0000
  C   C57       1.0  0.74385  0.37109  0.72097  1.0000
  C  Sn66      1.0  0.75324  0.34594  0.72529  1.0000
  C  Sn67      1.0  0.78682  0.35904  0.76901  1.0000
  C   C58       1.0  0.81031  0.39701  0.80741  1.0000
  C  Sn68      1.0  0.80094  0.42218  0.80308  1.0000
  O  Te65      1.0  0.75741  0.43372  0.75425  1.0000
  O  Te66      1.0  0.72929  0.30809  0.68635  1.0000
  O  Te67      1.0  0.79675  0.33437  0.77409  1.0000
  O  Te68      1.0  0.82486  0.46001  0.84203  1.0000
  Mg  Mg33      1.0  0.75501  0.28544  0.71094  1.0000
  Mg  Mg34      1.0  0.79917  0.48270  0.81758  1.0000
  C  Sn69      1.0  0.58324  0.38040  0.81724  1.0000
  C   C59       1.0  0.59968  0.41645  0.81294  1.0000
  C  Sn70      1.0  0.63631  0.43235  0.75895  1.0000
  C  Sn71      1.0  0.65693  0.41177  0.70807  1.0000
  C   C60       1.0  0.64049  0.37574  0.71235  1.0000
  C  Sn72      1.0  0.60386  0.35983  0.76636  1.0000
  O  Te69      1.0  0.54658  0.36506  0.87165  1.0000
  O  Te70      1.0  0.65216  0.46844  0.75581  1.0000
  O  Te71      1.0  0.69361  0.42714  0.65364  1.0000
  O  Te72      1.0  0.58802  0.32376  0.76948  1.0000
  Mg  Mg35      1.0  0.70296  0.47724  0.67165  1.0000
  Mg  Mg36      1.0  0.53721  0.31492  0.85351  1.0000
  C  Sn73      1.0  0.44161  0.92975  0.68696  1.0000
  C   C61       1.0  0.45243  0.90896  0.71867  1.0000
  C  Sn74      1.0  0.48370  0.92667  0.79107  1.0000
  C  Sn75      1.0  0.50459  0.96600  0.83276  1.0000
  C   C62       1.0  0.49377  0.98677  0.80109  1.0000
  C  Sn76      1.0  0.46250  0.96908  0.72865  1.0000
  O  Te73      1.0  0.41025  0.91146  0.61449  1.0000
  O  Te74      1.0  0.49398  0.90528  0.82152  1.0000
  O  Te75      1.0  0.53598  0.98428  0.90528  1.0000
  O  Te76      1.0  0.45222  0.99045  0.69824  1.0000
  Mg  Mg37      1.0  0.53883  0.94302  0.92244  1.0000
  Mg  Mg38      1.0  0.40737  0.95274  0.59742  1.0000
  C  Sn77      1.0  0.06547  0.56901  0.82604  1.0000
  C   C63       1.0  0.08715  0.55246  0.80447  1.0000
  C  Sn78      1.0  0.07501  0.51287  0.73644  1.0000
  C  Sn79      1.0  0.04049  0.48931  0.68886  1.0000
  C   C64       1.0  0.01883  0.50585  0.71040  1.0000
  C  Sn80      1.0  0.03095  0.54545  0.77846  1.0000
  O  Te77      1.0  0.07815  0.60866  0.89429  1.0000
  O  Te78      1.0  0.09717  0.49699  0.71614  1.0000
  O  Te79      1.0  0.02782  0.44963  0.62057  1.0000
  O  Te80      1.0  0.00881  0.56132  0.79874  1.0000
  Mg  Mg39      1.0  0.06791  0.44149  0.61753  1.0000
  Mg  Mg40      1.0  0.03805  0.61681  0.89723  1.0000
  C  Sn81      1.0  0.44794  0.49044  0.70072  1.0000
  C   C65       1.0  0.48364  0.50333  0.70602  1.0000
  C  Sn82      1.0  0.50551  0.54206  0.75726  1.0000
  C  Sn83      1.0  0.49140  0.56846  0.80430  1.0000
  C   C66       1.0  0.45571  0.55557  0.79903  1.0000
  C  Sn84      1.0  0.43382  0.51684  0.74777  1.0000
  O  Te81      1.0  0.42656  0.45159  0.64911  1.0000
  O  Te82      1.0  0.54113  0.55426  0.76147  1.0000
  O  Te83      1.0  0.51281  0.60733  0.85594  1.0000
  O  Te84      1.0  0.39822  0.50464  0.74358  1.0000
  Mg  Mg41      1.0  0.55961  0.61005  0.84078  1.0000
  Mg  Mg42      1.0  0.37972  0.44886  0.66439  1.0000
  C  Sn85      1.0  0.06495  0.04583  0.74585  1.0000
  C   C67       1.0  0.02854  0.02854  0.80117  1.0000
  C  Sn86      1.0  0.00554  0.04285  0.81566  1.0000
  C  Sn87      1.0  0.51159  0.07510  0.77388  1.0000
  C   C68       1.0  0.54797  0.09237  0.71856  1.0000
  C  Sn88      1.0  0.57099  0.07809  0.70406  1.0000
  O  Te85      1.0  0.08745  0.03105  0.73230  1.0000
  O  Te86      1.0  0.96925  0.02508  0.87131  1.0000
  O  Te87      1.0  0.48905  0.08988  0.78748  1.0000
  O  Te88      1.0  0.60726  0.09583  0.64842  1.0000
  Mg  Mg43      1.0  0.94928  0.05577  0.86894  1.0000
  Mg  Mg44      1.0  0.62726  0.06515  0.65065  1.0000
  C  Sn89      1.0  0.95270  0.44615  0.70437  1.0000
  C   C69       1.0  0.97762  0.48017  0.68507  1.0000
  C  Sn90      1.0  0.96666  0.50548  0.69398  1.0000
  C  Sn91      1.0  0.93002  0.49661  0.72289  1.0000
  C   C70       1.0  0.90512  0.46261  0.74220  1.0000
  C  Sn92      1.0  0.91606  0.43728  0.73328  1.0000
  O  Te89      1.0  0.96425  0.42127  0.69501  1.0000
  O  Te90      1.0  0.99207  0.53931  0.67423  1.0000
  O  Te91      1.0  0.91848  0.52152  0.73223  1.0000
  O  Te92      1.0  0.89067  0.40347  0.75304  1.0000
  Mg  Mg45      1.0  0.96320  0.56406  0.69737  1.0000
  Mg  Mg46      1.0  0.91951  0.37871  0.73002  1.0000
  C  Sn93      1.0  0.48805  0.44766  0.78252  1.0000
  C   C71       1.0  0.50228  0.48491  0.79623  1.0000
  C  Sn94      1.0  0.53891  0.50488  0.76647  1.0000
  C  Sn95      1.0  0.56180  0.48723  0.72197  1.0000
  C   C72       1.0  0.54758  0.44999  0.70825  1.0000
  C  Sn96      1.0  0.51094  0.43001  0.73802  1.0000
  O  Te93      1.0  0.45135  0.42823  0.81283  1.0000
  O  Te94      1.0  0.55251  0.54211  0.78100  1.0000
  O  Te95      1.0  0.59853  0.50669  0.69167  1.0000
  O  Te96      1.0  0.49734  0.39280  0.72348  1.0000
  Mg  Mg47      1.0  0.60435  0.55684  0.72721  1.0000
  Mg  Mg48      1.0  0.44551  0.37804  0.77714  1.0000
