data_image0
_chemical_formula_structural       H48C78N24O12C2Sn2C2HTe2HMgC2Sn2C2HTe2HMgC2Sn2C2HTe2HMgC2Sn2C2HTe2HMgC2Sn2C2HTe2HMgC2Sn2C2HTe2HMgC2Sn2C2HTe2HMgC2Sn2C2HTe2HMgC2Sn2C2HTe2HMg
_chemical_formula_sum              "H66 C114 N24 O12 Sn18 Te18 Mg9"
_cell_length_a       37.0402
_cell_length_b       37.3307
_cell_length_c       8.05914
_cell_angle_alpha    62.4497
_cell_angle_beta     84.8999
_cell_angle_gamma    119.696

_symmetry_space_group_name_H-M    'P1'
_space_group_IT_number       1

loop_
  _space_group_symop_operation_xyz
  'x, y, z'

loop_
  _atom_site_type_symbol
  _atom_site_label
  _atom_site_symmetry_multiplicity
  _atom_site_fract_x
  _atom_site_fract_y
  _atom_site_fract_z
  _atom_site_occupancy
  H   H1        1.0  0.33334  0.58205  0.25757  1.0000
  H   H2        1.0  0.25349  0.69452  0.26693  1.0000
  H   H3        1.0  0.58164  0.26753  0.18600  1.0000
  H   H4        1.0  0.77233  0.33815  0.21775  1.0000
  H   H5        1.0  0.37085  0.54368  0.23632  1.0000
  H   H6        1.0  0.17713  0.65658  0.25493  1.0000
  H   H7        1.0  0.54296  0.19190  0.17892  1.0000
  H   H8        1.0  0.84971  0.37423  0.21842  1.0000
  H   H9        1.0  0.48746  0.65187  0.25949  1.0000
  H   H10       1.0  0.18010  0.54303  0.25155  1.0000
  H   H11       1.0  0.65031  0.17851  0.25370  1.0000
  H   H12       1.0  0.85111  0.48734  0.24607  1.0000
  H   H13       1.0  0.44909  0.68993  0.27996  1.0000
  H   H14       1.0  0.25685  0.58185  0.26238  1.0000
  H   H15       1.0  0.68963  0.25602  0.25124  1.0000
  H   H16       1.0  0.77324  0.45007  0.24878  1.0000
  H   H17       1.0  0.11865  0.59692  0.25012  1.0000
  H   H18       1.0  0.43521  0.54868  0.19073  1.0000
  H   H19       1.0  0.49128  0.91170  0.25476  1.0000
  H   H20       1.0  0.91189  0.43489  0.20475  1.0000
  H   H21       1.0  0.59362  0.49022  0.26243  1.0000
  H   H22       1.0  0.54158  0.12990  0.19049  1.0000
  H   H23       1.0  0.54183  0.97793  0.15407  1.0000
  H   H24       1.0  0.48772  0.05894  0.32830  1.0000
  H   H25       1.0  0.59607  0.05322  0.14111  1.0000
  H   H26       1.0  0.43287  0.98253  0.34607  1.0000
  H   H27       1.0  0.22745  0.66143  0.77943  1.0000
  H   H28       1.0  0.55224  0.23053  0.70760  1.0000
  H   H29       1.0  0.15077  0.62633  0.77084  1.0000
  H   H30       1.0  0.51133  0.15219  0.71868  1.0000
  H   H31       1.0  0.14922  0.51227  0.75054  1.0000
  H   H32       1.0  0.62398  0.14613  0.74089  1.0000
  H   H33       1.0  0.22649  0.54884  0.75440  1.0000
  H   H34       1.0  0.66386  0.22390  0.73501  1.0000
  H   H35       1.0  0.08898  0.56594  0.78100  1.0000
  H   H36       1.0  0.40901  0.51242  0.72795  1.0000
  H   H37       1.0  0.45773  0.86983  0.80898  1.0000
  H   H38       1.0  0.88165  0.40296  0.74202  1.0000
  H   H39       1.0  0.56738  0.45360  0.80488  1.0000
  H   H40       1.0  0.50885  0.08859  0.74089  1.0000
  H   H41       1.0  0.41099  0.45859  0.79434  1.0000
  H   H42       1.0  0.03811  0.56392  0.73111  1.0000
  H   H43       1.0  0.56591  0.51013  0.73774  1.0000
  H   H44       1.0  0.93252  0.40861  0.77017  1.0000
  H   H45       1.0  0.43384  0.40752  0.78468  1.0000
  H   H46       1.0  0.96385  0.54178  0.71991  1.0000
  H   H47       1.0  0.54347  0.56169  0.74543  1.0000
  H   H48       1.0  0.00694  0.43158  0.77594  1.0000
  C   C1        1.0  0.30465  0.66156  0.27713  1.0000
  C   C2        1.0  0.36539  0.66022  0.28248  1.0000
  C   C3        1.0  0.36554  0.72126  0.28318  1.0000
  C   C4        1.0  0.72244  0.37109  0.22737  1.0000
  C   C5        1.0  0.66216  0.37353  0.21866  1.0000
  C   C6        1.0  0.66110  0.31166  0.22149  1.0000
  C   C7        1.0  0.25985  0.64017  0.26696  1.0000
  C   C8        1.0  0.38851  0.63817  0.27175  1.0000
  C   C9        1.0  0.63797  0.26638  0.22068  1.0000
  C   C10       1.0  0.76788  0.39212  0.23131  1.0000
  C   C11       1.0  0.36688  0.59680  0.25905  1.0000
  C   C12       1.0  0.23731  0.66162  0.26264  1.0000
  C   C13       1.0  0.59618  0.24760  0.20180  1.0000
  C   C14       1.0  0.78981  0.37071  0.22383  1.0000
  C   C15       1.0  0.38803  0.57560  0.24692  1.0000
  C   C16       1.0  0.19480  0.64027  0.25643  1.0000
  C   C17       1.0  0.57462  0.20518  0.19984  1.0000
  C   C18       1.0  0.83291  0.39098  0.22396  1.0000
  C   C19       1.0  0.43175  0.59539  0.24729  1.0000
  C   C20       1.0  0.17366  0.59700  0.25529  1.0000
  C   C21       1.0  0.59397  0.17993  0.21849  1.0000
  C   C22       1.0  0.85554  0.43354  0.22936  1.0000
  C   C23       1.0  0.45390  0.63700  0.25852  1.0000
  C   C24       1.0  0.19633  0.57598  0.25468  1.0000
  C   C25       1.0  0.63567  0.19821  0.23824  1.0000
  C   C26       1.0  0.83385  0.45499  0.23912  1.0000
  C   C27       1.0  0.43217  0.65783  0.27081  1.0000
  C   C28       1.0  0.23892  0.59778  0.26082  1.0000
  C   C29       1.0  0.65721  0.24119  0.23758  1.0000
  C   C30       1.0  0.79048  0.43402  0.24028  1.0000
  C   C31       1.0  0.49046  0.57979  0.25520  1.0000
  C   C32       1.0  0.44665  0.92805  0.27136  1.0000
  C   C33       1.0  0.10142  0.53473  0.25825  1.0000
  C   C34       1.0  0.53430  0.45172  0.23589  1.0000
  C   C35       1.0  0.58208  0.10728  0.22017  1.0000
  C   C36       1.0  0.92881  0.49268  0.22984  1.0000
  C   C37       1.0  0.48278  0.97420  0.25483  1.0000
  C   C38       1.0  0.54636  0.06210  0.22933  1.0000
  C   C39       1.0  0.52902  0.99434  0.19801  1.0000
  C   C40       1.0  0.50021  0.04219  0.28531  1.0000
  C   C41       1.0  0.56027  0.03752  0.18570  1.0000
  C   C42       1.0  0.46887  0.99887  0.29830  1.0000
  C   C43       1.0  0.27691  0.62782  0.77573  1.0000
  C   C44       1.0  0.33729  0.62571  0.78443  1.0000
  C   C45       1.0  0.33792  0.68722  0.78313  1.0000
  C   C46       1.0  0.69478  0.33754  0.72524  1.0000
  C   C47       1.0  0.63439  0.33954  0.71775  1.0000
  C   C48       1.0  0.63396  0.27823  0.71787  1.0000
  C   C49       1.0  0.23171  0.60699  0.76953  1.0000
  C   C50       1.0  0.61062  0.23234  0.72076  1.0000
  C   C51       1.0  0.21002  0.62885  0.77332  1.0000
  C   C52       1.0  0.56728  0.21134  0.71735  1.0000
  C   C53       1.0  0.16728  0.60905  0.76910  1.0000
  C   C54       1.0  0.54468  0.16765  0.72390  1.0000
  C   C55       1.0  0.14480  0.56647  0.76347  1.0000
  C   C56       1.0  0.56510  0.14387  0.73141  1.0000
  C   C57       1.0  0.16630  0.54458  0.75775  1.0000
  C   C58       1.0  0.60842  0.16452  0.73519  1.0000
  C   C59       1.0  0.20932  0.56514  0.76028  1.0000
  C   C60       1.0  0.63056  0.20816  0.72990  1.0000
  C   C61       1.0  0.46600  0.54830  0.77384  1.0000
  C   C62       1.0  0.41736  0.89257  0.77921  1.0000
  C   C63       1.0  0.07198  0.50775  0.75819  1.0000
  C   C64       1.0  0.51037  0.42064  0.75344  1.0000
  C   C65       1.0  0.55317  0.07169  0.72767  1.0000
  C   C66       1.0  0.89892  0.46522  0.73339  1.0000
  C   C67       1.0  0.47646  0.51494  0.76632  1.0000
  C   C68       1.0  0.02779  0.49869  0.75445  1.0000
  C   C69       1.0  0.50079  0.45452  0.76181  1.0000
  C   C70       1.0  0.94291  0.47446  0.74243  1.0000
  C   C71       1.0  0.44543  0.47110  0.77872  1.0000
  C   C72       1.0  0.01544  0.52975  0.73949  1.0000
  C   C73       1.0  0.53174  0.49817  0.75067  1.0000
  C   C74       1.0  0.95511  0.44309  0.75998  1.0000
  C   C75       1.0  0.45751  0.44146  0.77573  1.0000
  C   C76       1.0  0.97375  0.51791  0.73261  1.0000
  C   C77       1.0  0.51975  0.52786  0.75378  1.0000
  C   C78       1.0  0.99689  0.45520  0.76497  1.0000
  N   N1        1.0  0.32418  0.70310  0.27759  1.0000
  N   N2        1.0  0.32357  0.63837  0.28272  1.0000
  N   N3        1.0  0.38752  0.70117  0.28588  1.0000
  N   N4        1.0  0.70222  0.32928  0.22917  1.0000
  N   N5        1.0  0.70399  0.39494  0.22053  1.0000
  N   N6        1.0  0.63959  0.33235  0.21671  1.0000
  N   N7        1.0  0.13053  0.57753  0.25105  1.0000
  N   N8        1.0  0.45085  0.57167  0.23557  1.0000
  N   N9        1.0  0.45967  0.89999  0.26075  1.0000
  N   N10       1.0  0.89940  0.45194  0.22641  1.0000
  N   N11       1.0  0.57528  0.46227  0.24422  1.0000
  N   N12       1.0  0.56945  0.13651  0.22028  1.0000
  N   N13       1.0  0.29681  0.66944  0.77539  1.0000
  N   N14       1.0  0.29559  0.60425  0.78163  1.0000
  N   N15       1.0  0.35954  0.66668  0.78781  1.0000
  N   N16       1.0  0.67522  0.29618  0.72397  1.0000
  N   N17       1.0  0.67607  0.36095  0.71927  1.0000
  N   N18       1.0  0.61209  0.29857  0.71407  1.0000
  N   N19       1.0  0.10134  0.54855  0.76172  1.0000
  N   N20       1.0  0.42598  0.53886  0.75533  1.0000
  N   N21       1.0  0.42971  0.86306  0.78048  1.0000
  N   N22       1.0  0.86970  0.42222  0.74185  1.0000
  N   N23       1.0  0.55054  0.42938  0.76677  1.0000
  N   N24       1.0  0.54024  0.09994  0.73721  1.0000
  O   O1        1.0  0.91983  0.51996  0.23547  1.0000
  O   O2        1.0  0.50833  0.41841  0.21543  1.0000
  O   O3        1.0  0.61900  0.11610  0.21753  1.0000
  O   O4        1.0  0.10945  0.50522  0.27418  1.0000
  O   O5        1.0  0.51604  0.61171  0.28262  1.0000
  O   O6        1.0  0.40823  0.91671  0.29257  1.0000
  O   O7        1.0  0.89050  0.49421  0.72094  1.0000
  O   O8        1.0  0.48404  0.38794  0.73108  1.0000
  O   O9        1.0  0.59142  0.08277  0.70815  1.0000
  O   O10       1.0  0.08082  0.48014  0.75545  1.0000
  O   O11       1.0  0.49077  0.58046  0.80168  1.0000
  O   O12       1.0  0.38067  0.88422  0.77982  1.0000
  C   C79       1.0  0.42823  0.61559  0.76140  1.0000
  C   C80       1.0  0.41162  0.57126  0.77395  1.0000
  C  Sn1       1.0  0.36807  0.54300  0.78194  1.0000
  C  Sn2       1.0  0.34072  0.55953  0.77721  1.0000
  C   C81       1.0  0.35766  0.60395  0.76449  1.0000
  C   C82       1.0  0.40128  0.63193  0.75664  1.0000
  H   H49       1.0  0.46199  0.63726  0.75520  1.0000
  O  Te1       1.0  0.35200  0.49879  0.79453  1.0000
  O  Te2       1.0  0.29707  0.53202  0.78492  1.0000
  H   H50       1.0  0.41414  0.66627  0.74678  1.0000
  Mg  Mg1       1.0  0.29029  0.47427  0.80142  1.0000
  C   C83       1.0  0.79394  0.42401  0.74001  1.0000
  C   C84       1.0  0.82039  0.40688  0.75502  1.0000
  C  Sn3       1.0  0.80598  0.36477  0.75291  1.0000
  C  Sn4       1.0  0.76431  0.33941  0.73537  1.0000
  C   C85       1.0  0.73811  0.35686  0.72029  1.0000
  C   C86       1.0  0.75284  0.39903  0.72262  1.0000
  H   H51       1.0  0.80535  0.45665  0.74170  1.0000
  O  Te3       1.0  0.83281  0.34815  0.76813  1.0000
  O  Te4       1.0  0.74911  0.29724  0.73279  1.0000
  H   H52       1.0  0.73237  0.41230  0.71086  1.0000
  Mg  Mg2       1.0  0.79762  0.28897  0.75776  1.0000
  C   C87       1.0  0.66197  0.45057  0.21799  1.0000
  C   C88       1.0  0.64474  0.40599  0.23178  1.0000
  C  Sn5       1.0  0.60128  0.37844  0.23769  1.0000
  C  Sn6       1.0  0.57467  0.39594  0.22956  1.0000
  C   C89       1.0  0.59223  0.44061  0.21562  1.0000
  C   C90       1.0  0.63575  0.46787  0.20988  1.0000
  H   H53       1.0  0.69566  0.47168  0.21343  1.0000
  O  Te5       1.0  0.58457  0.33397  0.25157  1.0000
  O  Te6       1.0  0.53113  0.36916  0.23513  1.0000
  H   H54       1.0  0.64910  0.50240  0.19906  1.0000
  Mg  Mg3       1.0  0.52330  0.31069  0.25455  1.0000
  C   C91       1.0  0.45902  0.99690  0.80620  1.0000
  C   C92       1.0  0.50497  0.02001  0.77071  1.0000
  C  Sn7       1.0  0.52705  0.00290  0.71923  1.0000
  C  Sn8       1.0  0.50260  0.96189  0.70305  1.0000
  C   C93       1.0  0.45665  0.93904  0.73871  1.0000
  C   C94       1.0  0.43488  0.95646  0.79019  1.0000
  H   H55       1.0  0.44218  0.01039  0.84592  1.0000
  O  Te7       1.0  0.57297  0.02641  0.68435  1.0000
  O  Te8       1.0  0.52384  0.94404  0.65176  1.0000
  H   H56       1.0  0.39931  0.93858  0.81753  1.0000
  Mg  Mg4       1.0  0.58691  0.98846  0.61870  1.0000
  C   C95       1.0  0.45477  0.82136  0.28101  1.0000
  C   C96       1.0  0.44214  0.85247  0.25714  1.0000
  C  Sn9       1.0  0.39975  0.83867  0.25344  1.0000
  C  Sn10      1.0  0.36953  0.79284  0.27412  1.0000
  C   C97       1.0  0.38248  0.76196  0.29808  1.0000
  C   C98       1.0  0.42498  0.77614  0.30150  1.0000
  H   H57       1.0  0.48764  0.83231  0.28378  1.0000
  O  Te9       1.0  0.38767  0.87020  0.22939  1.0000
  O  Te10      1.0  0.32696  0.77813  0.27103  1.0000
  H   H58       1.0  0.43474  0.75203  0.32012  1.0000
  Mg  Mg5       1.0  0.32598  0.83381  0.23459  1.0000
  C   C99       1.0  0.46693  0.49268  0.24875  1.0000
  C   C100      1.0  0.49009  0.53361  0.26213  1.0000
  C  Sn11      1.0  0.53395  0.55331  0.25616  1.0000
  C  Sn12      1.0  0.55493  0.53154  0.23636  1.0000
  C   C101      1.0  0.53149  0.49062  0.22294  1.0000
  C   C102      1.0  0.48761  0.47120  0.22914  1.0000
  H   H59       1.0  0.43299  0.47767  0.25343  1.0000
  O  Te11      1.0  0.55659  0.59421  0.26979  1.0000
  O  Te12      1.0  0.59874  0.55049  0.22993  1.0000
  H   H60       1.0  0.46970  0.43952  0.21864  1.0000
  Mg  Mg6       1.0  0.61577  0.60666  0.25404  1.0000
  C   C103      1.0  0.55774  0.34233  0.73379  1.0000
  C   C104      1.0  0.60164  0.35794  0.71747  1.0000
  C  Sn13      1.0  0.62977  0.39813  0.72968  1.0000
  C  Sn14      1.0  0.61356  0.42306  0.75884  1.0000
  C   C105      1.0  0.56957  0.40712  0.77514  1.0000
  C   C106      1.0  0.54171  0.36688  0.76263  1.0000
  H   H61       1.0  0.53617  0.31117  0.72423  1.0000
  O  Te13      1.0  0.67355  0.41326  0.71299  1.0000
  O  Te14      1.0  0.64095  0.46332  0.77167  1.0000
  H   H62       1.0  0.50772  0.35478  0.77541  1.0000
  Mg  Mg7       1.0  0.69806  0.47006  0.74006  1.0000
  C   C107      1.0  0.99434  0.46866  0.24332  1.0000
  C   C108      1.0  0.97426  0.49215  0.24034  1.0000
  C  Sn15      1.0  0.99816  0.53684  0.22864  1.0000
  C  Sn16      1.0  0.04301  0.55833  0.21973  1.0000
  C   C109      1.0  0.06281  0.53456  0.22267  1.0000
  C   C110      1.0  0.03858  0.48984  0.23446  1.0000
  H   H63       1.0  0.97560  0.43408  0.25234  1.0000
  O  Te15      1.0  0.97758  0.55980  0.22589  1.0000
  O  Te16      1.0  0.06767  0.60297  0.20790  1.0000
  H   H64       1.0  0.05415  0.47168  0.23664  1.0000
  Mg  Mg8       1.0  0.02497  0.62015  0.20858  1.0000
  C   C111      1.0  0.42421  0.78363  0.80688  1.0000
  C   C112      1.0  0.41206  0.81531  0.77925  1.0000
  C  Sn17      1.0  0.37128  0.80369  0.75948  1.0000
  C  Sn18      1.0  0.34220  0.75949  0.76765  1.0000
  C   C113      1.0  0.35464  0.72801  0.79549  1.0000
  C   C114      1.0  0.39553  0.74001  0.81503  1.0000
  H   H65       1.0  0.45583  0.79289  0.82212  1.0000
  O  Te17      1.0  0.35967  0.83577  0.73189  1.0000
  O  Te18      1.0  0.30124  0.74696  0.74840  1.0000
  H   H66       1.0  0.40491  0.71545  0.83656  1.0000
  Mg  Mg9       1.0  0.30031  0.80258  0.71323  1.0000
