data_image0
_chemical_formula_structural       H12C24N24O12SnCSn2CSnTe4Mg2SnCSn2CSnTe4Mg2SnCSn2CSnTe4Mg2SnCSn2CSnTe4Mg2SnCSn2CSnTe4Mg2SnCSn2CSnTe4Mg2SnCSn2CSnTe4Mg2SnCSn2CSnTe4Mg2SnCSn2CSnTe4Mg2SnCSn2CSnTe4Mg2SnCSn2CSnTe4Mg2SnCSn2CSnTe4Mg2SnCSn2CSnTe4Mg2SnCSn2CSnTe4Mg2SnCSn2CSnTe4Mg2SnCSn2CSnTe4Mg2SnCSn2CSnTe4Mg2SnCSn2CSnTe4Mg2
_chemical_formula_sum              "H12 C60 N24 O12 Sn72 Te72 Mg36"
_cell_length_a       37.0402
_cell_length_b       37.3307
_cell_length_c       8.05914
_cell_angle_alpha    62.4497
_cell_angle_beta     84.8999
_cell_angle_gamma    119.696

_symmetry_space_group_name_H-M    'P1'
_space_group_IT_number       1

loop_
  _space_group_symop_operation_xyz
  'x, y, z'

loop_
  _atom_site_type_symbol
  _atom_site_label
  _atom_site_symmetry_multiplicity
  _atom_site_fract_x
  _atom_site_fract_y
  _atom_site_fract_z
  _atom_site_occupancy
  H   H1        1.0  0.11865  0.59692  0.25012  1.0000
  H   H2        1.0  0.43521  0.54868  0.19073  1.0000
  H   H3        1.0  0.49128  0.91170  0.25476  1.0000
  H   H4        1.0  0.91189  0.43489  0.20475  1.0000
  H   H5        1.0  0.59362  0.49022  0.26243  1.0000
  H   H6        1.0  0.54158  0.12990  0.19049  1.0000
  H   H7        1.0  0.08898  0.56594  0.78100  1.0000
  H   H8        1.0  0.40901  0.51242  0.72795  1.0000
  H   H9        1.0  0.45773  0.86983  0.80898  1.0000
  H   H10       1.0  0.88165  0.40296  0.74202  1.0000
  H   H11       1.0  0.56738  0.45360  0.80488  1.0000
  H   H12       1.0  0.50885  0.08859  0.74089  1.0000
  C   C1        1.0  0.30465  0.66156  0.27713  1.0000
  C   C2        1.0  0.36539  0.66022  0.28248  1.0000
  C   C3        1.0  0.36554  0.72126  0.28318  1.0000
  C   C4        1.0  0.72244  0.37109  0.22737  1.0000
  C   C5        1.0  0.66216  0.37353  0.21866  1.0000
  C   C6        1.0  0.66110  0.31166  0.22149  1.0000
  C   C7        1.0  0.49046  0.57979  0.25520  1.0000
  C   C8        1.0  0.44665  0.92805  0.27136  1.0000
  C   C9        1.0  0.10142  0.53473  0.25825  1.0000
  C   C10       1.0  0.53430  0.45172  0.23589  1.0000
  C   C11       1.0  0.58208  0.10728  0.22017  1.0000
  C   C12       1.0  0.92881  0.49268  0.22984  1.0000
  C   C13       1.0  0.27691  0.62782  0.77573  1.0000
  C   C14       1.0  0.33729  0.62571  0.78443  1.0000
  C   C15       1.0  0.33792  0.68722  0.78313  1.0000
  C   C16       1.0  0.69478  0.33754  0.72524  1.0000
  C   C17       1.0  0.63439  0.33954  0.71775  1.0000
  C   C18       1.0  0.63396  0.27823  0.71787  1.0000
  C   C19       1.0  0.46600  0.54830  0.77384  1.0000
  C   C20       1.0  0.41736  0.89257  0.77921  1.0000
  C   C21       1.0  0.07198  0.50775  0.75819  1.0000
  C   C22       1.0  0.51037  0.42064  0.75344  1.0000
  C   C23       1.0  0.55317  0.07169  0.72767  1.0000
  C   C24       1.0  0.89892  0.46522  0.73339  1.0000
  N   N1        1.0  0.32418  0.70310  0.27759  1.0000
  N   N2        1.0  0.32357  0.63837  0.28272  1.0000
  N   N3        1.0  0.38752  0.70117  0.28588  1.0000
  N   N4        1.0  0.70222  0.32928  0.22917  1.0000
  N   N5        1.0  0.70399  0.39494  0.22053  1.0000
  N   N6        1.0  0.63959  0.33235  0.21671  1.0000
  N   N7        1.0  0.13053  0.57753  0.25105  1.0000
  N   N8        1.0  0.45085  0.57167  0.23557  1.0000
  N   N9        1.0  0.45967  0.89999  0.26075  1.0000
  N   N10       1.0  0.89940  0.45194  0.22641  1.0000
  N   N11       1.0  0.57528  0.46227  0.24422  1.0000
  N   N12       1.0  0.56945  0.13651  0.22028  1.0000
  N   N13       1.0  0.29681  0.66944  0.77539  1.0000
  N   N14       1.0  0.29559  0.60425  0.78163  1.0000
  N   N15       1.0  0.35954  0.66668  0.78781  1.0000
  N   N16       1.0  0.67522  0.29618  0.72397  1.0000
  N   N17       1.0  0.67607  0.36095  0.71927  1.0000
  N   N18       1.0  0.61209  0.29857  0.71407  1.0000
  N   N19       1.0  0.10134  0.54855  0.76172  1.0000
  N   N20       1.0  0.42598  0.53886  0.75533  1.0000
  N   N21       1.0  0.42971  0.86306  0.78048  1.0000
  N   N22       1.0  0.86970  0.42222  0.74185  1.0000
  N   N23       1.0  0.55054  0.42938  0.76677  1.0000
  N   N24       1.0  0.54024  0.09994  0.73721  1.0000
  O   O1        1.0  0.91983  0.51996  0.23547  1.0000
  O   O2        1.0  0.50833  0.41841  0.21543  1.0000
  O   O3        1.0  0.61900  0.11610  0.21753  1.0000
  O   O4        1.0  0.10945  0.50522  0.27418  1.0000
  O   O5        1.0  0.51604  0.61171  0.28262  1.0000
  O   O6        1.0  0.40823  0.91671  0.29257  1.0000
  O   O7        1.0  0.89050  0.49421  0.72094  1.0000
  O   O8        1.0  0.48404  0.38794  0.73108  1.0000
  O   O9        1.0  0.59142  0.08277  0.70815  1.0000
  O   O10       1.0  0.08082  0.48014  0.75545  1.0000
  O   O11       1.0  0.49077  0.58046  0.80168  1.0000
  O   O12       1.0  0.38067  0.88422  0.77982  1.0000
  C  Sn1       1.0  0.44630  0.63427  0.32361  1.0000
  C   C25       1.0  0.43009  0.59417  0.30526  1.0000
  C  Sn2       1.0  0.39358  0.57821  0.24892  1.0000
  C  Sn3       1.0  0.37284  0.60287  0.20997  1.0000
  C   C26       1.0  0.38905  0.64295  0.22829  1.0000
  C  Sn4       1.0  0.42556  0.65892  0.28466  1.0000
  O  Te1       1.0  0.48284  0.64958  0.38012  1.0000
  O  Te2       1.0  0.37797  0.53803  0.23164  1.0000
  O  Te3       1.0  0.33627  0.58751  0.15343  1.0000
  O  Te4       1.0  0.44118  0.69909  0.30191  1.0000
  Mg  Mg1       1.0  0.32725  0.53100  0.15016  1.0000
  Mg  Mg2       1.0  0.49191  0.70616  0.38327  1.0000
  C  Sn5       1.0  0.45877  0.83153  0.21287  1.0000
  C   C27       1.0  0.44335  0.85911  0.21039  1.0000
  C  Sn6       1.0  0.39716  0.83782  0.26243  1.0000
  C  Sn7       1.0  0.36573  0.78791  0.31824  1.0000
  C   C28       1.0  0.38116  0.76036  0.32074  1.0000
  C  Sn8       1.0  0.42734  0.78162  0.26869  1.0000
  O  Te5       1.0  0.50510  0.85356  0.16030  1.0000
  O  Te6       1.0  0.38255  0.86614  0.25875  1.0000
  O  Te7       1.0  0.31937  0.76589  0.37083  1.0000
  O  Te8       1.0  0.44195  0.75332  0.27238  1.0000
  Mg  Mg3       1.0  0.31604  0.81959  0.34291  1.0000
  Mg  Mg4       1.0  0.50845  0.79982  0.18835  1.0000
  C  Sn9       1.0  0.23602  0.59997  0.19722  1.0000
  C   C29       1.0  0.26096  0.64124  0.20731  1.0000
  C  Sn10      1.0  0.23989  0.65908  0.26000  1.0000
  C  Sn11      1.0  0.19289  0.63515  0.30365  1.0000
  C   C30       1.0  0.16797  0.59390  0.29358  1.0000
  C  Sn12      1.0  0.18903  0.57604  0.24086  1.0000
  O  Te9       1.0  0.25780  0.58277  0.14423  1.0000
  O  Te10      1.0  0.26553  0.70042  0.26902  1.0000
  O  Te11      1.0  0.17113  0.65239  0.35666  1.0000
  O  Te12      1.0  0.16341  0.53473  0.23187  1.0000
  Mg  Mg5       1.0  0.22053  0.70991  0.34846  1.0000
  Mg  Mg6       1.0  0.20837  0.52519  0.15255  1.0000
  C  Sn13      1.0  0.56953  0.37984  0.29338  1.0000
  C   C31       1.0  0.58652  0.42285  0.29185  1.0000
  C  Sn14      1.0  0.63313  0.45696  0.23442  1.0000
  C  Sn15      1.0  0.66341  0.44792  0.17721  1.0000
  C   C32       1.0  0.64643  0.40495  0.17873  1.0000
  C  Sn16      1.0  0.59982  0.37080  0.23617  1.0000
  O  Te13      1.0  0.52281  0.34625  0.35132  1.0000
  O  Te14      1.0  0.64930  0.49968  0.23415  1.0000
  O  Te15      1.0  0.71017  0.48156  0.11926  1.0000
  O  Te16      1.0  0.58365  0.32811  0.23643  1.0000
  Mg  Mg7       1.0  0.71578  0.53435  0.14325  1.0000
  Mg  Mg8       1.0  0.51718  0.29344  0.32719  1.0000
  C  Sn17      1.0  0.66182  0.24065  0.17764  1.0000
  C   C33       1.0  0.64739  0.26979  0.16330  1.0000
  C  Sn18      1.0  0.60221  0.25095  0.19526  1.0000
  C  Sn19      1.0  0.57078  0.20195  0.24268  1.0000
  C   C34       1.0  0.58521  0.17284  0.25703  1.0000
  C  Sn20      1.0  0.63039  0.19165  0.22506  1.0000
  O  Te17      1.0  0.70715  0.26024  0.14510  1.0000
  O  Te18      1.0  0.58859  0.28080  0.18003  1.0000
  O  Te19      1.0  0.52543  0.18238  0.27522  1.0000
  O  Te20      1.0  0.64402  0.16183  0.24030  1.0000
  Mg  Mg9       1.0  0.52322  0.23743  0.23765  1.0000
  Mg  Mg10      1.0  0.70937  0.20515  0.18283  1.0000
  C  Sn21      1.0  0.81906  0.44372  0.30237  1.0000
  C   C35       1.0  0.84614  0.42843  0.28788  1.0000
  C  Sn22      1.0  0.83567  0.39654  0.22552  1.0000
  C  Sn23      1.0  0.79736  0.37959  0.17649  1.0000
  C   C36       1.0  0.77031  0.39488  0.19095  1.0000
  C  Sn24      1.0  0.78074  0.42677  0.25334  1.0000
  O  Te21      1.0  0.83016  0.47562  0.36504  1.0000
  O  Te22      1.0  0.86324  0.38176  0.21226  1.0000
  O  Te23      1.0  0.78628  0.34767  0.11379  1.0000
  O  Te24      1.0  0.75320  0.44156  0.26658  1.0000
  Mg  Mg11      1.0  0.83420  0.33798  0.11942  1.0000
  Mg  Mg12      1.0  0.78223  0.48535  0.35929  1.0000
  C  Sn25      1.0  0.48099  0.48606  0.19062  1.0000
  C   C37       1.0  0.52153  0.49228  0.18804  1.0000
  C  Sn26      1.0  0.55097  0.52359  0.23701  1.0000
  C  Sn27      1.0  0.53964  0.54919  0.28980  1.0000
  C   C38       1.0  0.49913  0.54296  0.29240  1.0000
  C  Sn28      1.0  0.46967  0.51166  0.24340  1.0000
  O  Te25      1.0  0.45207  0.45458  0.14114  1.0000
  O  Te26      1.0  0.59130  0.52923  0.23331  1.0000
  O  Te27      1.0  0.56861  0.58070  0.33930  1.0000
  O  Te28      1.0  0.42935  0.50601  0.24713  1.0000
  Mg  Mg13      1.0  0.61962  0.57622  0.31263  1.0000
  Mg  Mg14      1.0  0.40100  0.45901  0.16794  1.0000
  C  Sn29      1.0  0.55872  0.03750  0.12342  1.0000
  C   C39       1.0  0.54991  0.06445  0.17302  1.0000
  C  Sn30      1.0  0.50523  0.04340  0.28344  1.0000
  C  Sn31      1.0  0.46859  0.99438  0.34571  1.0000
  C   C40       1.0  0.47741  0.96745  0.29613  1.0000
  C  Sn32      1.0  0.52208  0.98848  0.18568  1.0000
  O  Te29      1.0  0.60366  0.05928  0.01292  1.0000
  O  Te30      1.0  0.49727  0.07109  0.33117  1.0000
  O  Te31      1.0  0.42363  0.97261  0.45628  1.0000
  O  Te32      1.0  0.02934  0.96082  0.13799  1.0000
  Mg  Mg15      1.0  0.43013  0.02520  0.48446  1.0000
  Mg  Mg16      1.0  0.50547  0.86172  0.98480  1.0000
  C  Sn33      1.0  0.03202  0.54985  0.28433  1.0000
  C   C41       1.0  0.05090  0.52496  0.29231  1.0000
  C  Sn34      1.0  0.03240  0.48875  0.25072  1.0000
  C  Sn35      1.0  0.99426  0.47720  0.19996  1.0000
  C   C42       1.0  0.97541  0.50209  0.19196  1.0000
  C  Sn36      1.0  0.99388  0.53830  0.23357  1.0000
  O  Te33      1.0  0.05107  0.58592  0.32646  1.0000
  O  Te34      1.0  0.05185  0.46435  0.25974  1.0000
  O  Te35      1.0  0.97522  0.44109  0.15782  1.0000
  O  Te36      1.0  0.97445  0.56270  0.22454  1.0000
  Mg  Mg17      1.0  0.01376  0.41809  0.18970  1.0000
  Mg  Mg18      1.0  0.01252  0.60897  0.29444  1.0000
  C  Sn37      1.0  0.42017  0.60268  0.82916  1.0000
  C   C43       1.0  0.40454  0.56124  0.82052  1.0000
  C  Sn38      1.0  0.36706  0.54223  0.77275  1.0000
  C  Sn39      1.0  0.34474  0.56514  0.73265  1.0000
  C   C44       1.0  0.36037  0.60656  0.74126  1.0000
  C  Sn40      1.0  0.39785  0.62559  0.78905  1.0000
  O  Te37      1.0  0.45771  0.62106  0.87720  1.0000
  O  Te38      1.0  0.35205  0.50075  0.76510  1.0000
  O  Te39      1.0  0.30717  0.54672  0.68458  1.0000
  O  Te40      1.0  0.41286  0.66705  0.79668  1.0000
  Mg  Mg19      1.0  0.29951  0.48947  0.69283  1.0000
  Mg  Mg20      1.0  0.46541  0.67838  0.86882  1.0000
  C  Sn41      1.0  0.35030  0.77575  0.70481  1.0000
  C   C45       1.0  0.36379  0.74538  0.72769  1.0000
  C  Sn42      1.0  0.39762  0.74935  0.79948  1.0000
  C  Sn43      1.0  0.41839  0.78438  0.84957  1.0000
  C   C46       1.0  0.40490  0.81472  0.82672  1.0000
  C  Sn44      1.0  0.37107  0.81078  0.75490  1.0000
  O  Te41      1.0  0.31641  0.77115  0.63279  1.0000
  O  Te42      1.0  0.41054  0.71859  0.82103  1.0000
  O  Te43      1.0  0.45231  0.78896  0.92163  1.0000
  O  Te44      1.0  0.35815  0.84151  0.73338  1.0000
  Mg  Mg21      1.0  0.45823  0.73879  0.92503  1.0000
  Mg  Mg22      1.0  0.31044  0.82132  0.62950  1.0000
  C  Sn45      1.0  0.16955  0.53676  0.81985  1.0000
  C   C47       1.0  0.14371  0.55416  0.81947  1.0000
  C  Sn46      1.0  0.16398  0.60252  0.77378  1.0000
  C  Sn47      1.0  0.21107  0.63417  0.72738  1.0000
  C   C48       1.0  0.23689  0.61677  0.72774  1.0000
  C  Sn48      1.0  0.21664  0.56841  0.77345  1.0000
  O  Te45      1.0  0.14858  0.48829  0.86596  1.0000
  O  Te46      1.0  0.13743  0.61907  0.77443  1.0000
  O  Te47      1.0  0.23203  0.68268  0.68125  1.0000
  O  Te48      1.0  0.24316  0.55186  0.77278  1.0000
  Mg  Mg23      1.0  0.18156  0.68815  0.70169  1.0000
  Mg  Mg24      1.0  0.19908  0.48281  0.84538  1.0000
  C  Sn49      1.0  0.62567  0.43231  0.69142  1.0000
  C   C49       1.0  0.58246  0.41750  0.69757  1.0000
  C  Sn50      1.0  0.55054  0.37026  0.73765  1.0000
  C  Sn51      1.0  0.56203  0.33712  0.77245  1.0000
  C   C50       1.0  0.60521  0.35194  0.76633  1.0000
  C  Sn52      1.0  0.63716  0.39918  0.72622  1.0000
  O  Te49      1.0  0.65705  0.47971  0.65108  1.0000
  O  Te50      1.0  0.50757  0.35629  0.74295  1.0000
  O  Te51      1.0  0.53061  0.28969  0.81281  1.0000
  O  Te52      1.0  0.68010  0.41314  0.72095  1.0000
  Mg  Mg25      1.0  0.47649  0.28782  0.80412  1.0000
  Mg  Mg26      1.0  0.71120  0.48159  0.65990  1.0000
  C  Sn53      1.0  0.55292  0.18571  0.65976  1.0000
  C   C51       1.0  0.56703  0.15619  0.67618  1.0000
  C  Sn54      1.0  0.60272  0.16199  0.73586  1.0000
  C  Sn55      1.0  0.62475  0.19802  0.78020  1.0000
  C   C52       1.0  0.61063  0.22751  0.76381  1.0000
  C  Sn56      1.0  0.57495  0.22174  0.70409  1.0000
  O  Te53      1.0  0.51717  0.17928  0.59983  1.0000
  O  Te54      1.0  0.61623  0.13206  0.75112  1.0000
  O  Te55      1.0  0.66052  0.20444  0.84015  1.0000
  O  Te56      1.0  0.56144  0.25165  0.68886  1.0000
  Mg  Mg27      1.0  0.66659  0.15478  0.83881  1.0000
  Mg  Mg28      1.0  0.51107  0.22893  0.60130  1.0000
  C  Sn57      1.0  0.80170  0.36115  0.67738  1.0000
  C   C53       1.0  0.82687  0.40245  0.68713  1.0000
  C  Sn58      1.0  0.80586  0.41999  0.74291  1.0000
  C  Sn59      1.0  0.75870  0.39572  0.79006  1.0000
  C   C54       1.0  0.73356  0.35445  0.78033  1.0000
  C  Sn60      1.0  0.75455  0.33689  0.72452  1.0000
  O  Te57      1.0  0.82341  0.34426  0.62127  1.0000
  O  Te58      1.0  0.83173  0.46135  0.75153  1.0000
  O  Te59      1.0  0.73700  0.41266  0.84620  1.0000
  O  Te60      1.0  0.72870  0.29555  0.71594  1.0000
  Mg  Mg29      1.0  0.78673  0.47035  0.83604  1.0000
  Mg  Mg30      1.0  0.77366  0.28649  0.63155  1.0000
  C  Sn61      1.0  0.52725  0.49811  0.81261  1.0000
  C   C55       1.0  0.50193  0.45460  0.81680  1.0000
  C  Sn62      1.0  0.46276  0.44161  0.77898  1.0000
  C  Sn63      1.0  0.44861  0.47278  0.73595  1.0000
  C   C56       1.0  0.47393  0.51626  0.73174  1.0000
  C  Sn64      1.0  0.51310  0.52928  0.76957  1.0000
  O  Te61      1.0  0.56630  0.51036  0.85086  1.0000
  O  Te62      1.0  0.43800  0.39792  0.78408  1.0000
  O  Te63      1.0  0.40953  0.46049  0.69769  1.0000
  O  Te64      1.0  0.53786  0.57294  0.76445  1.0000
  Mg  Mg31      1.0  0.38722  0.39718  0.72179  1.0000
  Mg  Mg32      1.0  0.58866  0.57373  0.82661  1.0000
  C  Sn65      1.0  0.45908  0.98752  0.86693  1.0000
  C   C57       1.0  0.50602  0.01316  0.81018  1.0000
  C  Sn66      1.0  0.52954  0.00451  0.70714  1.0000
  C  Sn67      1.0  0.50566  0.96953  0.65969  1.0000
  C   C58       1.0  0.45875  0.94392  0.71639  1.0000
  C  Sn68      1.0  0.43520  0.95254  0.81948  1.0000
  O  Te65      1.0  0.43626  0.99676  0.96983  1.0000
  O  Te66      1.0  0.57647  0.03058  0.65204  1.0000
  O  Te67      1.0  0.52852  0.96030  0.55671  1.0000
  O  Te68      1.0  0.38830  0.92650  0.87453  1.0000
  Mg  Mg33      1.0  0.59244  0.00509  0.51377  1.0000
  Mg  Mg34      1.0  0.46400  0.09691  0.01271  1.0000
  C  Sn69      1.0  0.99296  0.45766  0.70329  1.0000
  C   C59       1.0  0.02664  0.49885  0.69808  1.0000
  C  Sn70      1.0  0.01657  0.52652  0.73586  1.0000
  C  Sn71      1.0  0.97189  0.51271  0.77990  1.0000
  C   C60       1.0  0.93824  0.47154  0.78513  1.0000
  C  Sn72      1.0  0.94828  0.44385  0.74733  1.0000
  O  Te69      1.0  0.00379  0.43053  0.66506  1.0000
  O  Te70      1.0  0.05082  0.56756  0.72973  1.0000
  O  Te71      1.0  0.96108  0.53988  0.81814  1.0000
  O  Te72      1.0  0.91406  0.40283  0.75348  1.0000
  Mg  Mg35      1.0  0.01935  0.59275  0.79243  1.0000
  Mg  Mg36      1.0  0.94549  0.37760  0.69091  1.0000
