data_image0
_chemical_formula_structural       H12C24N24C2Sn2C2HTe2HMgC2Sn2C2HTe2HMgC2Sn2C2HTe2HMgC2Sn2C2HTe2HMgC2Sn2C2HTe2HMgC2Sn2C2HTe2HMgC2Sn2C2HTe2HMgC2Sn2C2HTe2HMgC2Sn2C2HTe2HMgC2Sn2C2HTe2HMgC2Sn2C2HTe2HMgC2Sn2C2HTe2HMgC2Sn2C2HTe2HMgC2Sn2C2HTe2HMgC2Sn2C2HTe2HMgC2Sn2C2HTe2HMgC2Sn2C2HTe2HMgC2Sn2C2HTe2HMgC2Sn2C2HTe2HMgC2Sn2C2HTe2HMgC2Sn2C2HTe2HMgC2Sn2C2HTe2HMgC2Sn2C2HTe2HMgC2Sn2C2HTe2HMg
_chemical_formula_sum              "H60 C120 N24 Sn48 Te48 Mg24"
_cell_length_a       44.4454
_cell_length_b       44.4483
_cell_length_c       8.28848
_cell_angle_alpha    121.052
_cell_angle_beta     67.5324
_cell_angle_gamma    120.503

_symmetry_space_group_name_H-M    'P1'
_space_group_IT_number       1

loop_
  _space_group_symop_operation_xyz
  'x, y, z'

loop_
  _atom_site_type_symbol
  _atom_site_label
  _atom_site_symmetry_multiplicity
  _atom_site_fract_x
  _atom_site_fract_y
  _atom_site_fract_z
  _atom_site_occupancy
  H   H1        1.0  0.40014  0.85837  0.27412  1.0000
  H   H2        1.0  0.13515  0.54830  0.35461  1.0000
  H   H3        1.0  0.46229  0.60425  0.27673  1.0000
  H   H4        1.0  0.59889  0.13662  0.21779  1.0000
  H   H5        1.0  0.86075  0.45223  0.15768  1.0000
  H   H6        1.0  0.54579  0.39547  0.16884  1.0000
  H   H7        1.0  0.40206  0.86303  0.78148  1.0000
  H   H8        1.0  0.13999  0.54062  0.72246  1.0000
  H   H9        1.0  0.45405  0.60042  0.79231  1.0000
  H   H10       1.0  0.60001  0.13601  0.66983  1.0000
  H   H11       1.0  0.85955  0.45014  0.65400  1.0000
  H   H12       1.0  0.54049  0.39851  0.72378  1.0000
  C   C1        1.0  0.35398  0.69691  0.24618  1.0000
  C   C2        1.0  0.29954  0.64906  0.25833  1.0000
  C   C3        1.0  0.34810  0.64399  0.25708  1.0000
  C   C4        1.0  0.64523  0.29947  0.26398  1.0000
  C   C5        1.0  0.69959  0.34754  0.25554  1.0000
  C   C6        1.0  0.65106  0.35254  0.25495  1.0000
  C   C7        1.0  0.42873  0.86706  0.26052  1.0000
  C   C8        1.0  0.12873  0.56013  0.28892  1.0000
  C   C9        1.0  0.44539  0.57435  0.25563  1.0000
  C   C10       1.0  0.57023  0.12868  0.24245  1.0000
  C   C11       1.0  0.86945  0.44008  0.20966  1.0000
  C   C12       1.0  0.56064  0.42659  0.22830  1.0000
  C   C13       1.0  0.35504  0.69957  0.73630  1.0000
  C   C14       1.0  0.29979  0.65293  0.75171  1.0000
  C   C15       1.0  0.34739  0.64663  0.75452  1.0000
  C   C16       1.0  0.64513  0.30051  0.75627  1.0000
  C   C17       1.0  0.69936  0.34936  0.76167  1.0000
  C   C18       1.0  0.65144  0.35464  0.75572  1.0000
  C   C19       1.0  0.43057  0.87131  0.76817  1.0000
  C   C20       1.0  0.13043  0.56114  0.74429  1.0000
  C   C21       1.0  0.43701  0.57026  0.76556  1.0000
  C   C22       1.0  0.57174  0.12997  0.72720  1.0000
  C   C23       1.0  0.86883  0.43924  0.71084  1.0000
  C   C24       1.0  0.55844  0.42818  0.74476  1.0000
  N   N1        1.0  0.31898  0.68350  0.24994  1.0000
  N   N2        1.0  0.31271  0.62828  0.26447  1.0000
  N   N3        1.0  0.36978  0.67818  0.24874  1.0000
  N   N4        1.0  0.68022  0.31285  0.26090  1.0000
  N   N5        1.0  0.68627  0.36850  0.25258  1.0000
  N   N6        1.0  0.62948  0.31815  0.26072  1.0000
  N   N7        1.0  0.44144  0.84519  0.24711  1.0000
  N   N8        1.0  0.15230  0.58774  0.23792  1.0000
  N   N9        1.0  0.41251  0.55917  0.23743  1.0000
  N   N10       1.0  0.55743  0.15102  0.26218  1.0000
  N   N11       1.0  0.84759  0.41152  0.25712  1.0000
  N   N12       1.0  0.59107  0.44165  0.27837  1.0000
  N   N13       1.0  0.32021  0.68677  0.73785  1.0000
  N   N14       1.0  0.31202  0.63199  0.76356  1.0000
  N   N15       1.0  0.36999  0.68037  0.74198  1.0000
  N   N16       1.0  0.67996  0.31396  0.75754  1.0000
  N   N17       1.0  0.68631  0.37110  0.76300  1.0000
  N   N18       1.0  0.62981  0.31951  0.75202  1.0000
  N   N19       1.0  0.44293  0.84938  0.75633  1.0000
  N   N20       1.0  0.15148  0.59577  0.76222  1.0000
  N   N21       1.0  0.40470  0.55564  0.73960  1.0000
  N   N22       1.0  0.55815  0.15364  0.77218  1.0000
  N   N23       1.0  0.84719  0.41193  0.76839  1.0000
  N   N24       1.0  0.59108  0.44236  0.76583  1.0000
  C   C25       1.0  0.43120  0.78210  0.28424  1.0000
  C   C26       1.0  0.42296  0.80331  0.24084  1.0000
  C  Sn1       1.0  0.38937  0.78947  0.20091  1.0000
  C  Sn2       1.0  0.36360  0.75373  0.20467  1.0000
  C   C27       1.0  0.37210  0.73274  0.24838  1.0000
  C   C28       1.0  0.40579  0.74685  0.28804  1.0000
  H   H13       1.0  0.45726  0.79303  0.31503  1.0000
  O  Te1       1.0  0.38158  0.81102  0.15775  1.0000
  O  Te2       1.0  0.32982  0.73922  0.16540  1.0000
  H   H14       1.0  0.41216  0.73044  0.32176  1.0000
  Mg  Mg1       1.0  0.33187  0.77916  0.11426  1.0000
  C   C29       1.0  0.21111  0.57950  0.25133  1.0000
  C   C30       1.0  0.19075  0.59636  0.26140  1.0000
  C  Sn3       1.0  0.20686  0.63298  0.26436  1.0000
  C  Sn4       1.0  0.24404  0.65302  0.25704  1.0000
  C   C31       1.0  0.26418  0.63590  0.24685  1.0000
  C   C32       1.0  0.24779  0.59925  0.24403  1.0000
  H   H15       1.0  0.19843  0.55113  0.24904  1.0000
  O  Te3       1.0  0.18612  0.64940  0.27452  1.0000
  O  Te4       1.0  0.26082  0.68965  0.25973  1.0000
  H   H16       1.0  0.26356  0.58619  0.23611  1.0000
  Mg  Mg2       1.0  0.22120  0.69995  0.27454  1.0000
  C   C33       1.0  0.34359  0.58103  0.29637  1.0000
  C   C34       1.0  0.35892  0.61517  0.27335  1.0000
  C  Sn5       1.0  0.39553  0.63178  0.22097  1.0000
  C  Sn6       1.0  0.41711  0.61380  0.19112  1.0000
  C   C35       1.0  0.40152  0.57964  0.21438  1.0000
  C   C36       1.0  0.36486  0.56327  0.26689  1.0000
  H   H17       1.0  0.31523  0.56835  0.33690  1.0000
  O  Te5       1.0  0.41041  0.66590  0.19865  1.0000
  O  Te6       1.0  0.45377  0.62977  0.13862  1.0000
  H   H18       1.0  0.35300  0.53683  0.28458  1.0000
  Mg  Mg3       1.0  0.46165  0.67657  0.12578  1.0000
  C   C37       1.0  0.56690  0.21557  0.24138  1.0000
  C   C38       1.0  0.57693  0.19117  0.24841  1.0000
  C  Sn7       1.0  0.61106  0.20379  0.27771  1.0000
  C  Sn8       1.0  0.63554  0.24155  0.30039  1.0000
  C   C39       1.0  0.62525  0.26574  0.29326  1.0000
  C   C40       1.0  0.59103  0.25282  0.26381  1.0000
  H   H19       1.0  0.54042  0.20557  0.21869  1.0000
  O  Te7       1.0  0.62064  0.17905  0.28428  1.0000
  O  Te8       1.0  0.66982  0.25491  0.32993  1.0000
  H   H20       1.0  0.58327  0.27172  0.25850  1.0000
  Mg  Mg4       1.0  0.67039  0.21044  0.32776  1.0000
  C   C41       1.0  0.78581  0.42055  0.29382  1.0000
  C   C42       1.0  0.80721  0.40416  0.27701  1.0000
  C  Sn9       1.0  0.79336  0.36532  0.23632  1.0000
  C  Sn10      1.0  0.75740  0.34254  0.21201  1.0000
  C   C43       1.0  0.73621  0.35920  0.22897  1.0000
  C   C44       1.0  0.75034  0.39809  0.26979  1.0000
  H   H21       1.0  0.79674  0.45064  0.32529  1.0000
  O  Te9       1.0  0.81511  0.34941  0.22008  1.0000
  O  Te10      1.0  0.74288  0.30365  0.17118  1.0000
  H   H22       1.0  0.73376  0.41077  0.28267  1.0000
  Mg  Mg5       1.0  0.78314  0.29510  0.16296  1.0000
  C   C45       1.0  0.64960  0.43052  0.24353  1.0000
  C   C46       1.0  0.61398  0.42105  0.25291  1.0000
  C  Sn11      1.0  0.58801  0.38730  0.27167  1.0000
  C  Sn12      1.0  0.59798  0.36264  0.28124  1.0000
  C   C47       1.0  0.63368  0.37239  0.27187  1.0000
  C   C48       1.0  0.65945  0.40622  0.25303  1.0000
  H   H23       1.0  0.66953  0.45671  0.22906  1.0000
  O  Te11      1.0  0.55255  0.37827  0.28076  1.0000
  O  Te12      1.0  0.57257  0.32874  0.30007  1.0000
  H   H24       1.0  0.68702  0.41356  0.24590  1.0000
  Mg  Mg6       1.0  0.52766  0.32888  0.30637  1.0000
  C   C49       1.0  0.49558  0.93205  0.26949  1.0000
  C   C50       1.0  0.45937  0.90957  0.27116  1.0000
  C  Sn13      1.0  0.43708  0.92234  0.26446  1.0000
  C  Sn14      1.0  0.45137  0.95828  0.25589  1.0000
  C   C51       1.0  0.48763  0.98054  0.25415  1.0000
  C   C52       1.0  0.50970  0.96750  0.26097  1.0000
  H   H25       1.0  0.51265  0.92195  0.27466  1.0000
  O  Te13      1.0  0.40096  0.89952  0.26631  1.0000
  O  Te14      1.0  0.42970  0.97172  0.24900  1.0000
  H   H26       1.0  0.53774  0.98490  0.25955  1.0000
  Mg  Mg7       1.0  0.38219  0.93025  0.25481  1.0000
  C   C53       1.0  0.07042  0.55763  0.20060  1.0000
  C   C54       1.0  0.08867  0.54866  0.26342  1.0000
  C  Sn15      1.0  0.07149  0.51673  0.30747  1.0000
  C  Sn16      1.0  0.03537  0.49339  0.28807  1.0000
  C   C55       1.0  0.01736  0.50259  0.22498  1.0000
  C   C56       1.0  0.03481  0.53462  0.18135  1.0000
  H   H27       1.0  0.08392  0.58239  0.16674  1.0000
  O  Te15      1.0  0.09010  0.50818  0.37012  1.0000
  O  Te16      1.0  0.01756  0.46130  0.33104  1.0000
  H   H28       1.0  0.02068  0.54155  0.13259  1.0000
  Mg  Mg8       1.0  0.05429  0.46145  0.41119  1.0000
  C   C57       1.0  0.50724  0.56744  0.23701  1.0000
  C   C58       1.0  0.47145  0.55761  0.24832  1.0000
  C  Sn17      1.0  0.44580  0.52438  0.27349  1.0000
  C  Sn18      1.0  0.45625  0.50061  0.28760  1.0000
  C   C59       1.0  0.49212  0.51071  0.27625  1.0000
  C   C60       1.0  0.51757  0.54402  0.25099  1.0000
  H   H29       1.0  0.52694  0.59323  0.21757  1.0000
  O  Te17      1.0  0.41015  0.51498  0.28442  1.0000
  O  Te18      1.0  0.43116  0.46724  0.31286  1.0000
  H   H30       1.0  0.54528  0.55164  0.24236  1.0000
  Mg  Mg9       1.0  0.38583  0.46657  0.31935  1.0000
  C   C61       1.0  0.50259  0.06708  0.27398  1.0000
  C   C62       1.0  0.53901  0.08879  0.26407  1.0000
  C  Sn19      1.0  0.56181  0.07395  0.24675  1.0000
  C  Sn20      1.0  0.54780  0.03666  0.23919  1.0000
  C   C63       1.0  0.01895  0.01516  0.24907  1.0000
  C   C64       1.0  0.48875  0.03029  0.26645  1.0000
  H   H31       1.0  0.48512  0.07877  0.28732  1.0000
  O  Te19      1.0  0.59813  0.09603  0.23711  1.0000
  O  Te20      1.0  0.56999  0.02113  0.22183  1.0000
  H   H32       1.0  0.96818  0.01346  0.27399  1.0000
  Mg  Mg10      1.0  0.61761  0.06234  0.21404  1.0000
  C   C65       1.0  0.93112  0.43608  0.21983  1.0000
  C   C66       1.0  0.90997  0.45246  0.23370  1.0000
  C  Sn21      1.0  0.92534  0.48888  0.23496  1.0000
  C  Sn22      1.0  0.96257  0.50919  0.22203  1.0000
  C   C67       1.0  0.98350  0.49254  0.20807  1.0000
  C   C68       1.0  0.96785  0.45609  0.20700  1.0000
  H   H33       1.0  0.91902  0.40787  0.21890  1.0000
  O  Te21      1.0  0.90381  0.50483  0.24896  1.0000
  O  Te22      1.0  0.97862  0.54562  0.22290  1.0000
  H   H34       1.0  0.98424  0.44341  0.19614  1.0000
  Mg  Mg11      1.0  0.93808  0.55526  0.24451  1.0000
  C   C69       1.0  0.49390  0.44165  0.18582  1.0000
  C   C70       1.0  0.50544  0.48108  0.24979  1.0000
  C  Sn23      1.0  0.53868  0.50552  0.30574  1.0000
  C  Sn24      1.0  0.56072  0.49010  0.29728  1.0000
  C   C71       1.0  0.54894  0.45061  0.23295  1.0000
  C   C72       1.0  0.51563  0.42642  0.17736  1.0000
  H   H35       1.0  0.46814  0.42293  0.14271  1.0000
  O  Te23      1.0  0.54979  0.54485  0.36936  1.0000
  O  Te24      1.0  0.59406  0.51387  0.35227  1.0000
  H   H36       1.0  0.50672  0.39589  0.12772  1.0000
  Mg  Mg12      1.0  0.59741  0.56554  0.42887  1.0000
  C   C73       1.0  0.42264  0.76328  0.75615  1.0000
  C   C74       1.0  0.38671  0.74152  0.74333  1.0000
  C  Sn25      1.0  0.36694  0.75524  0.72179  1.0000
  C  Sn26      1.0  0.38354  0.79143  0.71291  1.0000
  C   C75       1.0  0.41950  0.81297  0.72573  1.0000
  C   C76       1.0  0.43903  0.79897  0.74733  1.0000
  H   H37       1.0  0.43775  0.75244  0.77275  1.0000
  O  Te25      1.0  0.33107  0.73314  0.70929  1.0000
  O  Te26      1.0  0.36441  0.80583  0.69136  1.0000
  H   H38       1.0  0.46686  0.81582  0.75712  1.0000
  Mg  Mg13      1.0  0.31620  0.76507  0.68085  1.0000
  C   C77       1.0  0.21972  0.65009  0.73045  1.0000
  C   C78       1.0  0.19326  0.61621  0.74582  1.0000
  C  Sn27      1.0  0.20133  0.59314  0.77620  1.0000
  C  Sn28      1.0  0.23656  0.60428  0.79145  1.0000
  C   C79       1.0  0.26284  0.63824  0.77600  1.0000
  C   C80       1.0  0.25448  0.66111  0.74555  1.0000
  H   H39       1.0  0.21325  0.66780  0.70699  1.0000
  O  Te27      1.0  0.17457  0.55937  0.79115  1.0000
  O  Te28      1.0  0.24535  0.58176  0.82187  1.0000
  H   H40       1.0  0.27497  0.68735  0.73377  1.0000
  Mg  Mg14      1.0  0.19966  0.53829  0.83248  1.0000
  C   C81       1.0  0.33914  0.58268  0.79977  1.0000
  C   C82       1.0  0.35634  0.61674  0.77425  1.0000
  C  Sn29      1.0  0.39307  0.63154  0.72081  1.0000
  C  Sn30      1.0  0.41289  0.61180  0.69246  1.0000
  C   C83       1.0  0.39543  0.57774  0.71821  1.0000
  C   C84       1.0  0.35866  0.56319  0.77175  1.0000
  H   H41       1.0  0.31069  0.57141  0.84109  1.0000
  O  Te29      1.0  0.40984  0.66561  0.69600  1.0000
  O  Te30      1.0  0.44963  0.62595  0.63895  1.0000
  H   H42       1.0  0.34535  0.53680  0.79138  1.0000
  Mg  Mg15      1.0  0.46041  0.67343  0.62261  1.0000
  C   C85       1.0  0.57867  0.23518  0.72382  1.0000
  C   C86       1.0  0.61274  0.25982  0.76791  1.0000
  C  Sn31      1.0  0.63196  0.24785  0.80589  1.0000
  C  Sn32      1.0  0.61672  0.21049  0.79945  1.0000
  C   C87       1.0  0.58262  0.18605  0.75507  1.0000
  C   C88       1.0  0.56362  0.19833  0.71736  1.0000
  H   H43       1.0  0.56397  0.24467  0.69453  1.0000
  O  Te31      1.0  0.66597  0.27284  0.84977  1.0000
  O  Te32      1.0  0.63534  0.19778  0.83674  1.0000
  H   H44       1.0  0.53725  0.17923  0.68311  1.0000
  Mg  Mg16      1.0  0.68083  0.24235  0.88985  1.0000
  C   C89       1.0  0.78222  0.35018  0.72634  1.0000
  C   C90       1.0  0.80663  0.38743  0.75221  1.0000
  C  Sn33      1.0  0.79525  0.41526  0.79571  1.0000
  C  Sn34      1.0  0.75873  0.40553  0.81360  1.0000
  C   C91       1.0  0.73451  0.36819  0.78758  1.0000
  C   C92       1.0  0.74619  0.34056  0.74403  1.0000
  H   H45       1.0  0.79125  0.32880  0.69274  1.0000
  O  Te33      1.0  0.81999  0.45234  0.82103  1.0000
  O  Te34      1.0  0.74662  0.43279  0.85705  1.0000
  H   H46       1.0  0.72728  0.31172  0.72413  1.0000
  Mg  Mg17      1.0  0.79056  0.47946  0.87843  1.0000
  C   C93       1.0  0.58281  0.37290  0.75444  1.0000
  C   C94       1.0  0.59806  0.41041  0.77009  1.0000
  C  Sn35      1.0  0.63449  0.43130  0.76768  1.0000
  C  Sn36      1.0  0.65598  0.41425  0.74918  1.0000
  C   C95       1.0  0.64046  0.37670  0.73348  1.0000
  C   C96       1.0  0.60399  0.35605  0.73612  1.0000
  H   H47       1.0  0.55459  0.35691  0.75637  1.0000
  O  Te35      1.0  0.64929  0.46875  0.78354  1.0000
  O  Te36      1.0  0.69245  0.43448  0.74630  1.0000
  H   H48       1.0  0.59219  0.32700  0.72387  1.0000
  Mg  Mg18      1.0  0.70028  0.48470  0.77241  1.0000
  C   C97       1.0  0.50737  0.95650  0.79149  1.0000
  C   C98       1.0  0.49723  0.97791  0.76035  1.0000
  C  Sn37      1.0  0.46248  0.96434  0.73660  1.0000
  C  Sn38      1.0  0.43748  0.92869  0.74430  1.0000
  C   C99       1.0  0.44788  0.90750  0.77567  1.0000
  C   C100      1.0  0.48272  0.92133  0.79919  1.0000
  H   H49       1.0  0.53432  0.96721  0.80980  1.0000
  O  Te37      1.0  0.45279  0.98609  0.70553  1.0000
  O  Te38      1.0  0.40258  0.91446  0.72110  1.0000
  H   H50       1.0  0.49056  0.90476  0.82342  1.0000
  Mg  Mg19      1.0  0.40212  0.95458  0.68214  1.0000
  C   C101      1.0  0.06689  0.56709  0.76489  1.0000
  C   C102      1.0  0.08847  0.55252  0.76335  1.0000
  C  Sn39      1.0  0.07451  0.51505  0.74610  1.0000
  C  Sn40      1.0  0.03826  0.49180  0.73007  1.0000
  C   C103      1.0  0.01689  0.50664  0.73163  1.0000
  C   C104      1.0  0.03113  0.54417  0.74902  1.0000
  H   H51       1.0  0.07791  0.59612  0.77824  1.0000
  O  Te39      1.0  0.09645  0.50095  0.74487  1.0000
  O  Te40      1.0  0.02363  0.45425  0.71259  1.0000
  H   H52       1.0  0.01442  0.55544  0.75008  1.0000
  Mg  Mg20      1.0  0.06422  0.44799  0.71805  1.0000
  C   C105      1.0  0.44346  0.49357  0.76360  1.0000
  C   C106      1.0  0.47955  0.50418  0.74902  1.0000
  C  Sn41      1.0  0.50395  0.53991  0.74858  1.0000
  C  Sn42      1.0  0.49191  0.56542  0.76309  1.0000
  C   C107      1.0  0.45574  0.55454  0.77776  1.0000
  C   C108      1.0  0.43156  0.51872  0.77799  1.0000
  H   H53       1.0  0.42475  0.46587  0.76389  1.0000
  O  Te41      1.0  0.53992  0.55005  0.73384  1.0000
  O  Te42      1.0  0.51572  0.60130  0.76308  1.0000
  H   H54       1.0  0.40361  0.51052  0.78941  1.0000
  Mg  Mg21      1.0  0.56210  0.60206  0.73994  1.0000
  C   C109      1.0  0.50557  0.07347  0.81796  1.0000
  C   C110      1.0  0.54206  0.09203  0.77112  1.0000
  C  Sn43      1.0  0.56448  0.07337  0.70903  1.0000
  C  Sn44      1.0  0.05763  0.03543  0.69363  1.0000
  C   C111      1.0  0.02108  0.01711  0.74070  1.0000
  C   C112      1.0  0.99889  0.03605  0.80274  1.0000
  H   H55       1.0  0.48839  0.08812  0.86586  1.0000
  O  Te43      1.0  0.60088  0.09232  0.66288  1.0000
  O  Te44      1.0  0.07943  0.01611  0.63188  1.0000
  H   H56       1.0  0.97063  0.02167  0.83887  1.0000
  Mg  Mg22      1.0  0.61972  0.05401  0.58556  1.0000
  C   C113      1.0  0.94948  0.45057  0.76855  1.0000
  C   C114      1.0  0.97559  0.48230  0.73054  1.0000
  C  Sn45      1.0  0.96650  0.50291  0.68752  1.0000
  C  Sn46      1.0  0.93057  0.49146  0.68262  1.0000
  C   C115      1.0  0.90465  0.45969  0.72099  1.0000
  C   C116      1.0  0.91404  0.43927  0.76382  1.0000
  H   H57       1.0  0.95675  0.43478  0.80180  1.0000
  O  Te45      1.0  0.99291  0.53454  0.64984  1.0000
  O  Te46      1.0  0.92075  0.51155  0.64008  1.0000
  H   H58       1.0  0.89382  0.41471  0.79336  1.0000
  Mg  Mg23      1.0  0.96635  0.55269  0.59891  1.0000
  C   C117      1.0  0.48912  0.44115  0.71838  1.0000
  C   C118      1.0  0.50173  0.47944  0.75151  1.0000
  C  Sn47      1.0  0.53701  0.50355  0.77385  1.0000
  C  Sn48      1.0  0.56002  0.48897  0.76268  1.0000
  C   C119      1.0  0.54715  0.45061  0.72935  1.0000
  C   C120      1.0  0.51181  0.42674  0.70727  1.0000
  H   H59       1.0  0.46178  0.42267  0.70119  1.0000
  O  Te47      1.0  0.54917  0.54173  0.80694  1.0000
  O  Te48      1.0  0.59540  0.51243  0.78441  1.0000
  H   H60       1.0  0.50205  0.39709  0.68149  1.0000
  Mg  Mg24      1.0  0.59954  0.56243  0.82716  1.0000
