data_image0
_chemical_formula_structural       H60C96N24C2Sn2C2HTe2HMgC2Sn2C2HTe2HMgC2Sn2C2HTe2HMgC2Sn2C2HTe2HMgC2Sn2C2HTe2HMgC2Sn2C2HTe2HMgC2Sn2C2HTe2HMgC2Sn2C2HTe2HMgC2Sn2C2HTe2HMgC2Sn2C2HTe2HMgC2Sn2C2HTe2HMgC2Sn2C2HTe2HMg
_chemical_formula_sum              "H84 C144 N24 Sn24 Te24 Mg12"
_cell_length_a       44.4454
_cell_length_b       44.4483
_cell_length_c       8.28848
_cell_angle_alpha    121.052
_cell_angle_beta     67.5324
_cell_angle_gamma    120.503

_symmetry_space_group_name_H-M    'P1'
_space_group_IT_number       1

loop_
  _space_group_symop_operation_xyz
  'x, y, z'

loop_
  _atom_site_type_symbol
  _atom_site_label
  _atom_site_symmetry_multiplicity
  _atom_site_fract_x
  _atom_site_fract_y
  _atom_site_fract_z
  _atom_site_occupancy
  H   H1        1.0  0.66385  0.25714  0.31996  1.0000
  H   H2        1.0  0.74356  0.42018  0.32218  1.0000
  H   H3        1.0  0.58211  0.33441  0.29232  1.0000
  H   H4        1.0  0.62719  0.19326  0.32387  1.0000
  H   H5        1.0  0.80833  0.45007  0.33021  1.0000
  H   H6        1.0  0.55432  0.37292  0.31064  1.0000
  H   H7        1.0  0.53932  0.19224  0.21560  1.0000
  H   H8        1.0  0.80561  0.34104  0.19046  1.0000
  H   H9        1.0  0.65762  0.45811  0.23000  1.0000
  H   H10       1.0  0.57633  0.25806  0.22364  1.0000
  H   H11       1.0  0.74008  0.31163  0.18816  1.0000
  H   H12       1.0  0.68519  0.41932  0.21642  1.0000
  H   H13       1.0  0.49989  0.90956  0.27749  1.0000
  H   H14       1.0  0.41278  0.50826  0.29624  1.0000
  H   H15       1.0  0.53329  0.97479  0.28928  1.0000
  H   H16       1.0  0.44104  0.47299  0.30327  1.0000
  H   H17       1.0  0.43866  0.97438  0.25404  1.0000
  H   H18       1.0  0.54368  0.55812  0.21037  1.0000
  H   H19       1.0  0.40533  0.91047  0.25498  1.0000
  H   H20       1.0  0.51519  0.59438  0.21770  1.0000
  H   H21       1.0  0.40014  0.85837  0.27412  1.0000
  H   H22       1.0  0.13515  0.54830  0.35461  1.0000
  H   H23       1.0  0.46229  0.60425  0.27673  1.0000
  H   H24       1.0  0.59889  0.13662  0.21779  1.0000
  H   H25       1.0  0.86075  0.45223  0.15768  1.0000
  H   H26       1.0  0.54579  0.39547  0.16884  1.0000
  H   H27       1.0  0.33638  0.74298  0.69434  1.0000
  H   H28       1.0  0.41602  0.65824  0.67002  1.0000
  H   H29       1.0  0.74376  0.42284  0.84548  1.0000
  H   H30       1.0  0.58346  0.33315  0.75560  1.0000
  H   H31       1.0  0.37282  0.80786  0.69977  1.0000
  H   H32       1.0  0.44208  0.61836  0.65194  1.0000
  H   H33       1.0  0.80834  0.45172  0.85540  1.0000
  H   H34       1.0  0.55534  0.36974  0.76397  1.0000
  H   H35       1.0  0.46155  0.80673  0.78653  1.0000
  H   H36       1.0  0.33845  0.54473  0.82549  1.0000
  H   H37       1.0  0.80434  0.34109  0.69869  1.0000
  H   H38       1.0  0.65690  0.46241  0.75457  1.0000
  H   H39       1.0  0.42446  0.73994  0.77038  1.0000
  H   H40       1.0  0.31226  0.58426  0.83697  1.0000
  H   H41       1.0  0.73934  0.31268  0.69366  1.0000
  H   H42       1.0  0.68499  0.42478  0.74748  1.0000
  H   H43       1.0  0.40633  0.49922  0.76389  1.0000
  H   H44       1.0  0.50146  0.10009  0.85682  1.0000
  H   H45       1.0  0.58858  0.50180  0.77807  1.0000
  H   H46       1.0  0.43628  0.46508  0.76212  1.0000
  H   H47       1.0  0.46731  0.03655  0.87264  1.0000
  H   H48       1.0  0.55840  0.53612  0.78346  1.0000
  H   H49       1.0  0.53593  0.56071  0.75651  1.0000
  H   H50       1.0  0.56303  0.01567  0.65265  1.0000
  H   H51       1.0  0.46163  0.43500  0.71130  1.0000
  H   H52       1.0  0.50540  0.59467  0.76692  1.0000
  H   H53       1.0  0.59674  0.07919  0.63988  1.0000
  H   H54       1.0  0.49211  0.40182  0.70867  1.0000
  H   H55       1.0  0.40206  0.86303  0.78148  1.0000
  H   H56       1.0  0.13999  0.54062  0.72246  1.0000
  H   H57       1.0  0.45405  0.60042  0.79231  1.0000
  H   H58       1.0  0.60001  0.13601  0.66983  1.0000
  H   H59       1.0  0.85955  0.45014  0.65400  1.0000
  H   H60       1.0  0.54049  0.39851  0.72378  1.0000
  C   C1        1.0  0.35398  0.69691  0.24618  1.0000
  C   C2        1.0  0.29954  0.64906  0.25833  1.0000
  C   C3        1.0  0.34810  0.64399  0.25708  1.0000
  C   C4        1.0  0.64523  0.29947  0.26398  1.0000
  C   C5        1.0  0.69959  0.34754  0.25554  1.0000
  C   C6        1.0  0.65106  0.35254  0.25495  1.0000
  C   C7        1.0  0.62269  0.26152  0.26871  1.0000
  C   C8        1.0  0.73803  0.36413  0.25315  1.0000
  C   C9        1.0  0.63522  0.37449  0.25335  1.0000
  C   C10       1.0  0.63672  0.24245  0.29403  1.0000
  C   C11       1.0  0.75758  0.40316  0.29129  1.0000
  C   C12       1.0  0.59823  0.36133  0.27702  1.0000
  C   C13       1.0  0.61610  0.20618  0.29250  1.0000
  C   C14       1.0  0.79369  0.41954  0.29360  1.0000
  C   C15       1.0  0.58298  0.38274  0.28499  1.0000
  C   C16       1.0  0.58063  0.18729  0.26206  1.0000
  C   C17       1.0  0.81139  0.39700  0.25435  1.0000
  C   C18       1.0  0.60437  0.41793  0.26702  1.0000
  C   C19       1.0  0.56653  0.20681  0.23977  1.0000
  C   C20       1.0  0.79165  0.35795  0.21816  1.0000
  C   C21       1.0  0.64141  0.43099  0.24370  1.0000
  C   C22       1.0  0.58714  0.24337  0.24379  1.0000
  C   C23       1.0  0.75548  0.34174  0.21668  1.0000
  C   C24       1.0  0.65661  0.40953  0.23553  1.0000
  C   C25       1.0  0.42873  0.86706  0.26052  1.0000
  C   C26       1.0  0.12873  0.56013  0.28892  1.0000
  C   C27       1.0  0.44539  0.57435  0.25563  1.0000
  C   C28       1.0  0.57023  0.12868  0.24245  1.0000
  C   C29       1.0  0.86945  0.44008  0.20966  1.0000
  C   C30       1.0  0.56064  0.42659  0.22830  1.0000
  C   C31       1.0  0.45027  0.90511  0.26292  1.0000
  C   C32       1.0  0.46192  0.55331  0.25545  1.0000
  C   C33       1.0  0.48680  0.92398  0.27146  1.0000
  C   C34       1.0  0.44142  0.51847  0.27613  1.0000
  C   C35       1.0  0.50539  0.96066  0.27705  1.0000
  C   C36       1.0  0.45742  0.49882  0.27750  1.0000
  C   C37       1.0  0.48898  0.98017  0.27086  1.0000
  C   C38       1.0  0.49458  0.51251  0.25453  1.0000
  C   C39       1.0  0.45244  0.96103  0.26297  1.0000
  C   C40       1.0  0.51496  0.54741  0.23382  1.0000
  C   C41       1.0  0.43355  0.92463  0.26113  1.0000
  C   C42       1.0  0.49897  0.56775  0.23712  1.0000
  C   C43       1.0  0.35504  0.69957  0.73630  1.0000
  C   C44       1.0  0.29979  0.65293  0.75171  1.0000
  C   C45       1.0  0.34739  0.64663  0.75452  1.0000
  C   C46       1.0  0.64513  0.30051  0.75627  1.0000
  C   C47       1.0  0.69936  0.34936  0.76167  1.0000
  C   C48       1.0  0.65144  0.35464  0.75572  1.0000
  C   C49       1.0  0.37800  0.73755  0.73293  1.0000
  C   C50       1.0  0.36252  0.62400  0.75620  1.0000
  C   C51       1.0  0.73760  0.36590  0.76552  1.0000
  C   C52       1.0  0.63582  0.37674  0.75304  1.0000
  C   C53       1.0  0.36377  0.75743  0.71540  1.0000
  C   C54       1.0  0.39936  0.63373  0.70707  1.0000
  C   C55       1.0  0.75743  0.40515  0.81059  1.0000
  C   C56       1.0  0.59920  0.36146  0.75579  1.0000
  C   C57       1.0  0.38426  0.79408  0.72221  1.0000
  C   C58       1.0  0.41379  0.61153  0.69891  1.0000
  C   C59       1.0  0.79350  0.42106  0.81370  1.0000
  C   C60       1.0  0.58373  0.38224  0.76022  1.0000
  C   C61       1.0  0.41984  0.81257  0.75028  1.0000
  C   C62       1.0  0.39199  0.57915  0.74266  1.0000
  C   C63       1.0  0.81092  0.39779  0.76854  1.0000
  C   C64       1.0  0.60434  0.41914  0.76100  1.0000
  C   C65       1.0  0.43414  0.79226  0.76444  1.0000
  C   C66       1.0  0.35516  0.56949  0.79063  1.0000
  C   C67       1.0  0.79082  0.35865  0.72903  1.0000
  C   C68       1.0  0.64110  0.43411  0.75593  1.0000
  C   C69       1.0  0.41368  0.75533  0.75521  1.0000
  C   C70       1.0  0.34066  0.59162  0.79818  1.0000
  C   C71       1.0  0.75472  0.34294  0.72649  1.0000
  C   C72       1.0  0.65664  0.41319  0.75085  1.0000
  C   C73       1.0  0.43057  0.87131  0.76817  1.0000
  C   C74       1.0  0.13043  0.56114  0.74429  1.0000
  C   C75       1.0  0.43701  0.57026  0.76556  1.0000
  C   C76       1.0  0.57174  0.12997  0.72720  1.0000
  C   C77       1.0  0.86883  0.43924  0.71084  1.0000
  C   C78       1.0  0.55844  0.42818  0.74476  1.0000
  C   C79       1.0  0.45365  0.54900  0.76282  1.0000
  C   C80       1.0  0.55115  0.09359  0.74431  1.0000
  C   C81       1.0  0.54235  0.44955  0.74482  1.0000
  C   C82       1.0  0.43479  0.51211  0.76072  1.0000
  C   C83       1.0  0.51441  0.08107  0.81075  1.0000
  C   C84       1.0  0.56074  0.48772  0.76445  1.0000
  C   C85       1.0  0.45198  0.49311  0.75843  1.0000
  C   C86       1.0  0.49558  0.04545  0.81765  1.0000
  C   C87       1.0  0.54344  0.50660  0.76661  1.0000
  C   C88       1.0  0.48900  0.50948  0.75473  1.0000
  C   C89       1.0  0.51247  0.02091  0.76041  1.0000
  C   C90       1.0  0.50723  0.48880  0.74913  1.0000
  C   C91       1.0  0.50751  0.54659  0.75849  1.0000
  C   C92       1.0  0.54937  0.03404  0.69826  1.0000
  C   C93       1.0  0.48934  0.45039  0.72696  1.0000
  C   C94       1.0  0.49030  0.56605  0.76447  1.0000
  C   C95       1.0  0.56828  0.06968  0.69048  1.0000
  C   C96       1.0  0.50652  0.43135  0.72423  1.0000
  N   N1        1.0  0.31898  0.68350  0.24994  1.0000
  N   N2        1.0  0.31271  0.62828  0.26447  1.0000
  N   N3        1.0  0.36978  0.67818  0.24874  1.0000
  N   N4        1.0  0.68022  0.31285  0.26090  1.0000
  N   N5        1.0  0.68627  0.36850  0.25258  1.0000
  N   N6        1.0  0.62948  0.31815  0.26072  1.0000
  N   N7        1.0  0.44144  0.84519  0.24711  1.0000
  N   N8        1.0  0.15230  0.58774  0.23792  1.0000
  N   N9        1.0  0.41251  0.55917  0.23743  1.0000
  N   N10       1.0  0.55743  0.15102  0.26218  1.0000
  N   N11       1.0  0.84759  0.41152  0.25712  1.0000
  N   N12       1.0  0.59107  0.44165  0.27837  1.0000
  N   N13       1.0  0.32021  0.68677  0.73785  1.0000
  N   N14       1.0  0.31202  0.63199  0.76356  1.0000
  N   N15       1.0  0.36999  0.68037  0.74198  1.0000
  N   N16       1.0  0.67996  0.31396  0.75754  1.0000
  N   N17       1.0  0.68631  0.37110  0.76300  1.0000
  N   N18       1.0  0.62981  0.31951  0.75202  1.0000
  N   N19       1.0  0.44293  0.84938  0.75633  1.0000
  N   N20       1.0  0.15148  0.59577  0.76222  1.0000
  N   N21       1.0  0.40470  0.55564  0.73960  1.0000
  N   N22       1.0  0.55815  0.15364  0.77218  1.0000
  N   N23       1.0  0.84719  0.41193  0.76839  1.0000
  N   N24       1.0  0.59108  0.44236  0.76583  1.0000
  C   C97       1.0  0.41896  0.62119  0.18626  1.0000
  C   C98       1.0  0.40418  0.59041  0.23719  1.0000
  C  Sn1       1.0  0.36764  0.57419  0.29279  1.0000
  C  Sn2       1.0  0.34555  0.58911  0.29729  1.0000
  C   C99       1.0  0.36059  0.61989  0.24594  1.0000
  C   C100      1.0  0.39719  0.63592  0.19058  1.0000
  H   H61       1.0  0.44728  0.63358  0.14333  1.0000
  O  Te1       1.0  0.35331  0.54346  0.34330  1.0000
  O  Te2       1.0  0.30894  0.57344  0.35224  1.0000
  H   H62       1.0  0.40862  0.65973  0.15103  1.0000
  Mg  Mg1       1.0  0.30192  0.53184  0.40829  1.0000
  C   C101      1.0  0.49390  0.44165  0.18582  1.0000
  C   C102      1.0  0.50544  0.48108  0.24979  1.0000
  C  Sn3       1.0  0.53868  0.50552  0.30574  1.0000
  C  Sn4       1.0  0.56072  0.49010  0.29728  1.0000
  C   C103      1.0  0.54894  0.45061  0.23295  1.0000
  C   C104      1.0  0.51563  0.42642  0.17736  1.0000
  H   H63       1.0  0.46814  0.42293  0.14271  1.0000
  O  Te3       1.0  0.54979  0.54485  0.36936  1.0000
  O  Te4       1.0  0.59406  0.51387  0.35227  1.0000
  H   H64       1.0  0.50672  0.39589  0.12772  1.0000
  Mg  Mg2       1.0  0.59741  0.56554  0.42887  1.0000
  C   C105      1.0  0.49237  0.04868  0.28784  1.0000
  C   C106      1.0  0.50438  0.02265  0.26187  1.0000
  C  Sn5       1.0  0.54060  0.03223  0.23548  1.0000
  C  Sn6       1.0  0.56519  0.06857  0.23521  1.0000
  C   C107      1.0  0.55290  0.09442  0.26144  1.0000
  C   C108      1.0  0.51660  0.08454  0.28767  1.0000
  H   H65       1.0  0.46428  0.04105  0.30824  1.0000
  O  Te5       1.0  0.05977  0.00587  0.20967  1.0000
  O  Te6       1.0  0.60154  0.07889  0.20921  1.0000
  H   H66       1.0  0.50730  0.10471  0.30789  1.0000
  Mg  Mg3       1.0  0.60431  0.03318  0.17968  1.0000
  C   C109      1.0  0.21111  0.57950  0.25133  1.0000
  C   C110      1.0  0.19075  0.59636  0.26140  1.0000
  C  Sn7       1.0  0.20686  0.63298  0.26436  1.0000
  C  Sn8       1.0  0.24404  0.65302  0.25704  1.0000
  C   C111      1.0  0.26418  0.63590  0.24685  1.0000
  C   C112      1.0  0.24779  0.59925  0.24403  1.0000
  H   H67       1.0  0.19843  0.55113  0.24904  1.0000
  O  Te7       1.0  0.18612  0.64940  0.27452  1.0000
  O  Te8       1.0  0.26082  0.68965  0.25973  1.0000
  H   H68       1.0  0.26356  0.58619  0.23611  1.0000
  Mg  Mg4       1.0  0.22120  0.69995  0.27454  1.0000
  C   C113      1.0  0.04434  0.49005  0.72452  1.0000
  C   C114      1.0  0.02195  0.50620  0.75068  1.0000
  C  Sn9       1.0  0.03583  0.54384  0.77049  1.0000
  C  Sn10      1.0  0.07282  0.56562  0.76388  1.0000
  C   C115      1.0  0.09499  0.54919  0.73753  1.0000
  C   C116      1.0  0.08083  0.51151  0.71792  1.0000
  H   H69       1.0  0.03338  0.46089  0.70924  1.0000
  O  Te9       1.0  0.01308  0.55954  0.79659  1.0000
  O  Te10      1.0  0.08739  0.60329  0.78323  1.0000
  H   H70       1.0  0.09817  0.49900  0.69755  1.0000
  Mg  Mg5       1.0  0.04555  0.61203  0.81601  1.0000
  C   C117      1.0  0.22909  0.59753  0.79788  1.0000
  C   C118      1.0  0.25625  0.62760  0.74914  1.0000
  C  Sn11      1.0  0.24827  0.65020  0.71463  1.0000
  C  Sn12      1.0  0.21241  0.64249  0.72934  1.0000
  C   C119      1.0  0.18543  0.61236  0.77831  1.0000
  C   C120      1.0  0.19371  0.58992  0.81249  1.0000
  H   H71       1.0  0.23549  0.58018  0.82443  1.0000
  O  Te11      1.0  0.27574  0.68011  0.66602  1.0000
  O  Te12      1.0  0.20369  0.66463  0.69567  1.0000
  H   H72       1.0  0.17267  0.56666  0.85034  1.0000
  Mg  Mg6       1.0  0.25046  0.70222  0.63361  1.0000
  C   C121      1.0  0.44765  0.95457  0.73717  1.0000
  C   C122      1.0  0.48266  0.97897  0.76480  1.0000
  C  Sn13      1.0  0.50366  0.96720  0.79046  1.0000
  C  Sn14      1.0  0.48927  0.93030  0.78828  1.0000
  C   C123      1.0  0.45422  0.90609  0.76040  1.0000
  C   C124      1.0  0.43344  0.91816  0.73493  1.0000
  H   H73       1.0  0.43158  0.96390  0.71736  1.0000
  O  Te13      1.0  0.53858  0.99194  0.81796  1.0000
  O  Te14      1.0  0.50967  0.91780  0.81350  1.0000
  H   H74       1.0  0.40634  0.89926  0.71341  1.0000
  Mg  Mg7       1.0  0.55585  0.96190  0.84601  1.0000
  C   C125      1.0  0.56677  0.21643  0.73506  1.0000
  C   C126      1.0  0.57685  0.19272  0.74776  1.0000
  C  Sn15      1.0  0.61099  0.20581  0.77842  1.0000
  C  Sn16      1.0  0.63544  0.24336  0.79670  1.0000
  C   C127      1.0  0.62509  0.26687  0.78392  1.0000
  C   C128      1.0  0.59086  0.25348  0.75315  1.0000
  H   H75       1.0  0.54028  0.20608  0.71136  1.0000
  O  Te15      1.0  0.62063  0.18173  0.79067  1.0000
  O  Te16      1.0  0.66973  0.25718  0.82748  1.0000
  H   H76       1.0  0.58305  0.27185  0.74345  1.0000
  Mg  Mg8       1.0  0.67037  0.21357  0.83370  1.0000
  C   C129      1.0  0.95656  0.50751  0.68376  1.0000
  C   C130      1.0  0.97625  0.49808  0.73442  1.0000
  C  Sn17      1.0  0.96041  0.46533  0.77055  1.0000
  C  Sn18      1.0  0.92418  0.44164  0.75553  1.0000
  C   C131      1.0  0.90472  0.45132  0.70462  1.0000
  C   C132      1.0  0.92083  0.48415  0.66884  1.0000
  H   H77       1.0  0.96902  0.53291  0.65597  1.0000
  O  Te17      1.0  0.98046  0.45633  0.82107  1.0000
  O  Te18      1.0  0.90770  0.40874  0.79079  1.0000
  H   H78       1.0  0.90559  0.49144  0.62950  1.0000
  Mg  Mg9       1.0  0.94612  0.40852  0.85517  1.0000
  C   C133      1.0  0.37502  0.78013  0.19483  1.0000
  C   C134      1.0  0.40922  0.80461  0.23721  1.0000
  C  Sn19      1.0  0.42822  0.79277  0.27765  1.0000
  C  Sn20      1.0  0.41263  0.75572  0.27547  1.0000
  C   C135      1.0  0.37840  0.73143  0.23277  1.0000
  C   C136      1.0  0.35962  0.74357  0.19257  1.0000
  H   H79       1.0  0.36049  0.78951  0.16362  1.0000
  O  Te19      1.0  0.46236  0.81760  0.31977  1.0000
  O  Te20      1.0  0.43103  0.74315  0.31529  1.0000
  H   H80       1.0  0.33315  0.72461  0.15964  1.0000
  Mg  Mg10      1.0  0.47682  0.78741  0.36456  1.0000
  C   C137      1.0  0.05070  0.54957  0.20410  1.0000
  C   C138      1.0  0.02468  0.51545  0.21863  1.0000
  C  Sn21      1.0  0.03238  0.49484  0.26894  1.0000
  C  Sn22      1.0  0.06679  0.50871  0.30533  1.0000
  C   C139      1.0  0.09263  0.54288  0.29053  1.0000
  C   C140      1.0  0.08464  0.56328  0.24004  1.0000
  H   H81       1.0  0.04452  0.56536  0.16513  1.0000
  O  Te21      1.0  0.00608  0.46080  0.28274  1.0000
  O  Te22      1.0  0.07520  0.48869  0.35592  1.0000
  H   H82       1.0  0.10478  0.58970  0.22892  1.0000
  Mg  Mg11      1.0  0.03038  0.44374  0.35622  1.0000
  C   C141      1.0  0.95028  0.44586  0.23236  1.0000
  C   C142      1.0  0.97626  0.47955  0.21285  1.0000
  C  Sn23      1.0  0.96678  0.50422  0.20472  1.0000
  C  Sn24      1.0  0.93061  0.49494  0.21642  1.0000
  C   C143      1.0  0.90482  0.46118  0.23606  1.0000
  C   C144      1.0  0.91459  0.43669  0.24399  1.0000
  H   H83       1.0  0.95784  0.42692  0.23860  1.0000
  O  Te23      1.0  0.99307  0.53775  0.18513  1.0000
  O  Te24      1.0  0.92040  0.51910  0.20873  1.0000
  H   H84       1.0  0.89447  0.41062  0.25922  1.0000
  Mg  Mg12      1.0  0.96596  0.56150  0.18124  1.0000
