data_image0
_chemical_formula_structural       H48C78N24O12SnCSn2CSnTe4Mg2SnCSn2CSnTe4Mg2SnCSn2CSnTe4Mg2SnCSn2CSnTe4Mg2SnCSn2CSnTe4Mg2SnCSn2CSnTe4Mg2SnCSn2CSnTe4Mg2SnCSn2CSnTe4Mg2SnCSn2CSnTe4Mg2
_chemical_formula_sum              "H48 C96 N24 O12 Sn36 Te36 Mg18"
_cell_length_a       37.0402
_cell_length_b       37.3307
_cell_length_c       8.05914
_cell_angle_alpha    62.4497
_cell_angle_beta     84.8999
_cell_angle_gamma    119.696

_symmetry_space_group_name_H-M    'P1'
_space_group_IT_number       1

loop_
  _space_group_symop_operation_xyz
  'x, y, z'

loop_
  _atom_site_type_symbol
  _atom_site_label
  _atom_site_symmetry_multiplicity
  _atom_site_fract_x
  _atom_site_fract_y
  _atom_site_fract_z
  _atom_site_occupancy
  H   H1        1.0  0.44788  0.76965  0.28850  1.0000
  H   H2        1.0  0.77233  0.33815  0.21775  1.0000
  H   H3        1.0  0.48892  0.84818  0.27592  1.0000
  H   H4        1.0  0.84971  0.37423  0.21842  1.0000
  H   H5        1.0  0.37517  0.85264  0.26548  1.0000
  H   H6        1.0  0.85111  0.48734  0.24607  1.0000
  H   H7        1.0  0.33500  0.77440  0.27426  1.0000
  H   H8        1.0  0.77324  0.45007  0.24878  1.0000
  H   H9        1.0  0.11865  0.59692  0.25012  1.0000
  H   H10       1.0  0.43521  0.54868  0.19073  1.0000
  H   H11       1.0  0.49128  0.91170  0.25476  1.0000
  H   H12       1.0  0.91189  0.43489  0.20475  1.0000
  H   H13       1.0  0.59362  0.49022  0.26243  1.0000
  H   H14       1.0  0.54158  0.12990  0.19049  1.0000
  H   H15       1.0  0.43572  0.49199  0.26191  1.0000
  H   H16       1.0  0.54183  0.97793  0.15407  1.0000
  H   H17       1.0  0.06874  0.59252  0.21262  1.0000
  H   H18       1.0  0.58831  0.53922  0.23356  1.0000
  H   H19       1.0  0.48772  0.05894  0.32830  1.0000
  H   H20       1.0  0.96334  0.43708  0.25184  1.0000
  H   H21       1.0  0.45794  0.44012  0.25432  1.0000
  H   H22       1.0  0.59607  0.05322  0.14111  1.0000
  H   H23       1.0  0.99417  0.56943  0.20684  1.0000
  H   H24       1.0  0.56592  0.59063  0.24053  1.0000
  H   H25       1.0  0.43287  0.98253  0.34607  1.0000
  H   H26       1.0  0.03730  0.45907  0.26654  1.0000
  H   H27       1.0  0.30502  0.54306  0.78317  1.0000
  H   H28       1.0  0.41782  0.73236  0.81234  1.0000
  H   H29       1.0  0.66705  0.41746  0.74494  1.0000
  H   H30       1.0  0.74555  0.30432  0.73432  1.0000
  H   H31       1.0  0.34449  0.50602  0.77094  1.0000
  H   H32       1.0  0.45667  0.80820  0.81816  1.0000
  H   H33       1.0  0.62993  0.45599  0.76916  1.0000
  H   H34       1.0  0.82265  0.34298  0.73921  1.0000
  H   H35       1.0  0.46190  0.62220  0.75716  1.0000
  H   H36       1.0  0.34814  0.82002  0.75413  1.0000
  H   H37       1.0  0.51341  0.34975  0.73826  1.0000
  H   H38       1.0  0.81976  0.45588  0.74902  1.0000
  H   H39       1.0  0.42142  0.65851  0.77347  1.0000
  H   H40       1.0  0.30869  0.74244  0.75733  1.0000
  H   H41       1.0  0.55137  0.31148  0.71476  1.0000
  H   H42       1.0  0.74240  0.41653  0.74420  1.0000
  H   H43       1.0  0.08898  0.56594  0.78100  1.0000
  H   H44       1.0  0.40901  0.51242  0.72795  1.0000
  H   H45       1.0  0.45773  0.86983  0.80898  1.0000
  H   H46       1.0  0.88165  0.40296  0.74202  1.0000
  H   H47       1.0  0.56738  0.45360  0.80488  1.0000
  H   H48       1.0  0.50885  0.08859  0.74089  1.0000
  C   C1        1.0  0.30465  0.66156  0.27713  1.0000
  C   C2        1.0  0.36539  0.66022  0.28248  1.0000
  C   C3        1.0  0.36554  0.72126  0.28318  1.0000
  C   C4        1.0  0.72244  0.37109  0.22737  1.0000
  C   C5        1.0  0.66216  0.37353  0.21866  1.0000
  C   C6        1.0  0.66110  0.31166  0.22149  1.0000
  C   C7        1.0  0.38891  0.76707  0.28072  1.0000
  C   C8        1.0  0.76788  0.39212  0.23131  1.0000
  C   C9        1.0  0.43259  0.78849  0.28074  1.0000
  C   C10       1.0  0.78981  0.37071  0.22383  1.0000
  C   C11       1.0  0.45531  0.83233  0.27329  1.0000
  C   C12       1.0  0.83291  0.39098  0.22396  1.0000
  C   C13       1.0  0.43469  0.85581  0.26821  1.0000
  C   C14       1.0  0.85554  0.43354  0.22936  1.0000
  C   C15       1.0  0.39096  0.83458  0.26856  1.0000
  C   C16       1.0  0.83385  0.45499  0.23912  1.0000
  C   C17       1.0  0.36870  0.79079  0.27505  1.0000
  C   C18       1.0  0.79048  0.43402  0.24028  1.0000
  C   C19       1.0  0.49046  0.57979  0.25520  1.0000
  C   C20       1.0  0.44665  0.92805  0.27136  1.0000
  C   C21       1.0  0.10142  0.53473  0.25825  1.0000
  C   C22       1.0  0.53430  0.45172  0.23589  1.0000
  C   C23       1.0  0.58208  0.10728  0.22017  1.0000
  C   C24       1.0  0.92881  0.49268  0.22984  1.0000
  C   C25       1.0  0.50012  0.54585  0.24859  1.0000
  C   C26       1.0  0.48278  0.97420  0.25483  1.0000
  C   C27       1.0  0.05795  0.52623  0.24399  1.0000
  C   C28       1.0  0.52407  0.48511  0.24511  1.0000
  C   C29       1.0  0.54636  0.06210  0.22933  1.0000
  C   C30       1.0  0.97328  0.50211  0.23007  1.0000
  C   C31       1.0  0.46945  0.50300  0.25426  1.0000
  C   C32       1.0  0.52902  0.99434  0.19801  1.0000
  C   C33       1.0  0.04598  0.55791  0.22390  1.0000
  C   C34       1.0  0.55455  0.52780  0.24065  1.0000
  C   C35       1.0  0.50021  0.04219  0.28531  1.0000
  C   C36       1.0  0.98573  0.47116  0.24444  1.0000
  C   C37       1.0  0.48132  0.47318  0.25147  1.0000
  C   C38       1.0  0.56027  0.03752  0.18570  1.0000
  C   C39       1.0  0.00422  0.54577  0.21837  1.0000
  C   C40       1.0  0.54269  0.55766  0.24291  1.0000
  C   C41       1.0  0.46887  0.99887  0.29830  1.0000
  C   C42       1.0  0.02729  0.48291  0.25279  1.0000
  C   C43       1.0  0.27691  0.62782  0.77573  1.0000
  C   C44       1.0  0.33729  0.62571  0.78443  1.0000
  C   C45       1.0  0.33792  0.68722  0.78313  1.0000
  C   C46       1.0  0.69478  0.33754  0.72524  1.0000
  C   C47       1.0  0.63439  0.33954  0.71775  1.0000
  C   C48       1.0  0.63396  0.27823  0.71787  1.0000
  C   C49       1.0  0.36092  0.73264  0.78323  1.0000
  C   C50       1.0  0.36043  0.60308  0.78086  1.0000
  C   C51       1.0  0.73948  0.35865  0.73563  1.0000
  C   C52       1.0  0.61176  0.36212  0.72765  1.0000
  C   C53       1.0  0.33908  0.55985  0.77989  1.0000
  C   C54       1.0  0.40306  0.75198  0.79871  1.0000
  C   C55       1.0  0.63362  0.40318  0.74240  1.0000
  C   C56       1.0  0.76203  0.33736  0.73758  1.0000
  C   C57       1.0  0.36131  0.53935  0.77252  1.0000
  C   C58       1.0  0.42474  0.79456  0.79965  1.0000
  C   C59       1.0  0.61276  0.42454  0.75569  1.0000
  C   C60       1.0  0.80486  0.35900  0.74045  1.0000
  C   C61       1.0  0.40565  0.56151  0.76524  1.0000
  C   C62       1.0  0.40510  0.81949  0.78325  1.0000
  C   C63       1.0  0.56920  0.40536  0.75407  1.0000
  C   C64       1.0  0.82618  0.40231  0.74130  1.0000
  C   C65       1.0  0.42753  0.60486  0.76524  1.0000
  C   C66       1.0  0.36301  0.80060  0.76718  1.0000
  C   C67       1.0  0.54685  0.36417  0.74017  1.0000
  C   C68       1.0  0.80336  0.42295  0.74563  1.0000
  C   C69       1.0  0.40473  0.62491  0.77407  1.0000
  C   C70       1.0  0.34138  0.75749  0.76859  1.0000
  C   C71       1.0  0.56831  0.34313  0.72675  1.0000
  C   C72       1.0  0.76048  0.40092  0.74255  1.0000
  C   C73       1.0  0.46600  0.54830  0.77384  1.0000
  C   C74       1.0  0.41736  0.89257  0.77921  1.0000
  C   C75       1.0  0.07198  0.50775  0.75819  1.0000
  C   C76       1.0  0.51037  0.42064  0.75344  1.0000
  C   C77       1.0  0.55317  0.07169  0.72767  1.0000
  C   C78       1.0  0.89892  0.46522  0.73339  1.0000
  N   N1        1.0  0.32418  0.70310  0.27759  1.0000
  N   N2        1.0  0.32357  0.63837  0.28272  1.0000
  N   N3        1.0  0.38752  0.70117  0.28588  1.0000
  N   N4        1.0  0.70222  0.32928  0.22917  1.0000
  N   N5        1.0  0.70399  0.39494  0.22053  1.0000
  N   N6        1.0  0.63959  0.33235  0.21671  1.0000
  N   N7        1.0  0.13053  0.57753  0.25105  1.0000
  N   N8        1.0  0.45085  0.57167  0.23557  1.0000
  N   N9        1.0  0.45967  0.89999  0.26075  1.0000
  N   N10       1.0  0.89940  0.45194  0.22641  1.0000
  N   N11       1.0  0.57528  0.46227  0.24422  1.0000
  N   N12       1.0  0.56945  0.13651  0.22028  1.0000
  N   N13       1.0  0.29681  0.66944  0.77539  1.0000
  N   N14       1.0  0.29559  0.60425  0.78163  1.0000
  N   N15       1.0  0.35954  0.66668  0.78781  1.0000
  N   N16       1.0  0.67522  0.29618  0.72397  1.0000
  N   N17       1.0  0.67607  0.36095  0.71927  1.0000
  N   N18       1.0  0.61209  0.29857  0.71407  1.0000
  N   N19       1.0  0.10134  0.54855  0.76172  1.0000
  N   N20       1.0  0.42598  0.53886  0.75533  1.0000
  N   N21       1.0  0.42971  0.86306  0.78048  1.0000
  N   N22       1.0  0.86970  0.42222  0.74185  1.0000
  N   N23       1.0  0.55054  0.42938  0.76677  1.0000
  N   N24       1.0  0.54024  0.09994  0.73721  1.0000
  O   O1        1.0  0.91983  0.51996  0.23547  1.0000
  O   O2        1.0  0.50833  0.41841  0.21543  1.0000
  O   O3        1.0  0.61900  0.11610  0.21753  1.0000
  O   O4        1.0  0.10945  0.50522  0.27418  1.0000
  O   O5        1.0  0.51604  0.61171  0.28262  1.0000
  O   O6        1.0  0.40823  0.91671  0.29257  1.0000
  O   O7        1.0  0.89050  0.49421  0.72094  1.0000
  O   O8        1.0  0.48404  0.38794  0.73108  1.0000
  O   O9        1.0  0.59142  0.08277  0.70815  1.0000
  O   O10       1.0  0.08082  0.48014  0.75545  1.0000
  O   O11       1.0  0.49077  0.58046  0.80168  1.0000
  O   O12       1.0  0.38067  0.88422  0.77982  1.0000
  C  Sn1       1.0  0.44630  0.63427  0.32361  1.0000
  C   C79       1.0  0.43009  0.59417  0.30526  1.0000
  C  Sn2       1.0  0.39358  0.57821  0.24892  1.0000
  C  Sn3       1.0  0.37284  0.60287  0.20997  1.0000
  C   C80       1.0  0.38905  0.64295  0.22829  1.0000
  C  Sn4       1.0  0.42556  0.65892  0.28466  1.0000
  O  Te1       1.0  0.48284  0.64958  0.38012  1.0000
  O  Te2       1.0  0.37797  0.53803  0.23164  1.0000
  O  Te3       1.0  0.33627  0.58751  0.15343  1.0000
  O  Te4       1.0  0.44118  0.69909  0.30191  1.0000
  Mg  Mg1       1.0  0.32725  0.53100  0.15016  1.0000
  Mg  Mg2       1.0  0.49191  0.70616  0.38327  1.0000
  C  Sn5       1.0  0.63610  0.19818  0.30145  1.0000
  C   C81       1.0  0.59524  0.17534  0.27989  1.0000
  C  Sn6       1.0  0.57692  0.20142  0.20667  1.0000
  C  Sn7       1.0  0.59993  0.25138  0.15376  1.0000
  C   C82       1.0  0.64077  0.27420  0.17529  1.0000
  C  Sn8       1.0  0.65911  0.24814  0.24854  1.0000
  O  Te5       1.0  0.65380  0.17139  0.37494  1.0000
  O  Te6       1.0  0.53601  0.17779  0.18650  1.0000
  O  Te7       1.0  0.58219  0.27816  0.08023  1.0000
  O  Te8       1.0  0.70000  0.27174  0.26868  1.0000
  Mg  Mg3       1.0  0.52555  0.22981  0.07961  1.0000
  Mg  Mg4       1.0  0.71050  0.21978  0.37545  1.0000
  C  Sn9       1.0  0.22211  0.65045  0.32355  1.0000
  C   C83       1.0  0.24981  0.63531  0.32130  1.0000
  C  Sn10      1.0  0.24124  0.60275  0.26419  1.0000
  C  Sn11      1.0  0.20423  0.58497  0.20803  1.0000
  C   C84       1.0  0.17656  0.60011  0.21026  1.0000
  C  Sn12      1.0  0.18510  0.63267  0.26739  1.0000
  O  Te9       1.0  0.23132  0.68302  0.38115  1.0000
  O  Te10      1.0  0.26940  0.58812  0.26319  1.0000
  O  Te11      1.0  0.19504  0.55236  0.15041  1.0000
  O  Te12      1.0  0.15697  0.64730  0.26837  1.0000
  Mg  Mg5       1.0  0.24307  0.54322  0.17312  1.0000
  Mg  Mg6       1.0  0.18328  0.69222  0.35831  1.0000
  C  Sn13      1.0  0.59340  0.38647  0.16472  1.0000
  C   C85       1.0  0.63641  0.40195  0.16376  1.0000
  C  Sn14      1.0  0.65865  0.43498  0.21832  1.0000
  C  Sn15      1.0  0.63745  0.45288  0.27515  1.0000
  C   C86       1.0  0.59447  0.43739  0.27612  1.0000
  C  Sn16      1.0  0.57220  0.40437  0.22155  1.0000
  O  Te13      1.0  0.57180  0.35343  0.10963  1.0000
  O  Te14      1.0  0.70163  0.44994  0.21613  1.0000
  O  Te15      1.0  0.65909  0.48594  0.33025  1.0000
  O  Te16      1.0  0.52924  0.38940  0.22375  1.0000
  Mg  Mg7       1.0  0.71735  0.49543  0.30361  1.0000
  Mg  Mg8       1.0  0.51349  0.34390  0.13641  1.0000
  C  Sn17      1.0  0.60967  0.16473  0.79735  1.0000
  C   C87       1.0  0.56760  0.14042  0.78676  1.0000
  C  Sn18      1.0  0.54772  0.16506  0.72378  1.0000
  C  Sn19      1.0  0.57037  0.21505  0.67014  1.0000
  C   C88       1.0  0.61242  0.23934  0.68070  1.0000
  C  Sn20      1.0  0.63232  0.21473  0.74371  1.0000
  O  Te17      1.0  0.62891  0.13938  0.86072  1.0000
  O  Te18      1.0  0.50563  0.13997  0.71448  1.0000
  O  Te19      1.0  0.55109  0.24040  0.60674  1.0000
  O  Te20      1.0  0.67439  0.23979  0.75299  1.0000
  Mg  Mg9       1.0  0.49325  0.19036  0.61887  1.0000
  Mg  Mg10      1.0  0.68681  0.18945  0.84846  1.0000
  C  Sn21      1.0  0.20602  0.56773  0.69713  1.0000
  C   C89       1.0  0.23242  0.60840  0.70914  1.0000
  C  Sn22      1.0  0.21280  0.62669  0.76816  1.0000
  C  Sn23      1.0  0.16579  0.60382  0.81631  1.0000
  C   C90       1.0  0.13941  0.56317  0.80433  1.0000
  C  Sn24      1.0  0.15901  0.54486  0.74528  1.0000
  O  Te21      1.0  0.22635  0.55007  0.63779  1.0000
  O  Te22      1.0  0.23989  0.66741  0.77899  1.0000
  O  Te23      1.0  0.14547  0.62152  0.87568  1.0000
  O  Te24      1.0  0.13194  0.50416  0.73448  1.0000
  Mg  Mg11      1.0  0.19653  0.67789  0.86763  1.0000
  Mg  Mg12      1.0  0.17526  0.49364  0.64596  1.0000
  C  Sn25      1.0  0.53016  0.53253  0.68970  1.0000
  C   C91       1.0  0.48816  0.52369  0.70990  1.0000
  C  Sn26      1.0  0.44955  0.47621  0.77589  1.0000
  C  Sn27      1.0  0.45298  0.43671  0.82281  1.0000
  C   C92       1.0  0.49497  0.44555  0.80264  1.0000
  C  Sn28      1.0  0.53360  0.49303  0.73661  1.0000
  O  Te25      1.0  0.56831  0.58029  0.62347  1.0000
  O  Te26      1.0  0.40792  0.46829  0.79484  1.0000
  O  Te27      1.0  0.41478  0.38892  0.88907  1.0000
  O  Te28      1.0  0.57520  0.50096  0.71769  1.0000
  Mg  Mg13      1.0  0.36565  0.39668  0.89085  1.0000
  Mg  Mg14      1.0  0.61748  0.57253  0.62181  1.0000
  C  Sn29      1.0  0.45908  0.98752  0.86693  1.0000
  C   C93       1.0  0.50602  0.01316  0.81018  1.0000
  C  Sn30      1.0  0.52954  0.00451  0.70714  1.0000
  C  Sn31      1.0  0.50566  0.96953  0.65969  1.0000
  C   C94       1.0  0.45875  0.94392  0.71639  1.0000
  C  Sn32      1.0  0.43520  0.95254  0.81948  1.0000
  O  Te29      1.0  0.43626  0.99676  0.96983  1.0000
  O  Te30      1.0  0.57647  0.03058  0.65204  1.0000
  O  Te31      1.0  0.52852  0.96030  0.55671  1.0000
  O  Te32      1.0  0.38830  0.92650  0.87453  1.0000
  Mg  Mg15      1.0  0.59244  0.00509  0.51377  1.0000
  Mg  Mg16      1.0  0.46400  0.09691  0.01271  1.0000
  C  Sn33      1.0  0.99296  0.45766  0.70329  1.0000
  C   C95       1.0  0.02664  0.49885  0.69808  1.0000
  C  Sn34      1.0  0.01657  0.52652  0.73586  1.0000
  C  Sn35      1.0  0.97189  0.51271  0.77990  1.0000
  C   C96       1.0  0.93824  0.47154  0.78513  1.0000
  C  Sn36      1.0  0.94828  0.44385  0.74733  1.0000
  O  Te33      1.0  0.00379  0.43053  0.66506  1.0000
  O  Te34      1.0  0.05082  0.56756  0.72973  1.0000
  O  Te35      1.0  0.96108  0.53988  0.81814  1.0000
  O  Te36      1.0  0.91406  0.40283  0.75348  1.0000
  Mg  Mg17      1.0  0.01935  0.59275  0.79243  1.0000
  Mg  Mg18      1.0  0.94549  0.37760  0.69091  1.0000
