data_image0
_chemical_formula_structural       H60C96N24SnCSn2CSnTe4Mg2SnCSn2CSnTe4Mg2SnCSn2CSnTe4Mg2SnCSn2CSnTe4Mg2SnCSn2CSnTe4Mg2SnCSn2CSnTe4Mg2SnCSn2CSnTe4Mg2SnCSn2CSnTe4Mg2SnCSn2CSnTe4Mg2SnCSn2CSnTe4Mg2SnCSn2CSnTe4Mg2SnCSn2CSnTe4Mg2
_chemical_formula_sum              "H60 C120 N24 Sn48 Te48 Mg24"
_cell_length_a       44.4454
_cell_length_b       44.4483
_cell_length_c       8.28848
_cell_angle_alpha    121.052
_cell_angle_beta     67.5324
_cell_angle_gamma    120.503

_symmetry_space_group_name_H-M    'P1'
_space_group_IT_number       1

loop_
  _space_group_symop_operation_xyz
  'x, y, z'

loop_
  _atom_site_type_symbol
  _atom_site_label
  _atom_site_symmetry_multiplicity
  _atom_site_fract_x
  _atom_site_fract_y
  _atom_site_fract_z
  _atom_site_occupancy
  H   H1        1.0  0.33590  0.73745  0.17650  1.0000
  H   H2        1.0  0.74356  0.42018  0.32218  1.0000
  H   H3        1.0  0.37264  0.80124  0.16813  1.0000
  H   H4        1.0  0.80833  0.45007  0.33021  1.0000
  H   H5        1.0  0.45904  0.80535  0.30360  1.0000
  H   H6        1.0  0.80561  0.34104  0.19046  1.0000
  H   H7        1.0  0.42211  0.73931  0.29806  1.0000
  H   H8        1.0  0.74008  0.31163  0.18816  1.0000
  H   H9        1.0  0.49989  0.90956  0.27749  1.0000
  H   H10       1.0  0.41278  0.50826  0.29624  1.0000
  H   H11       1.0  0.49800  0.09123  0.28466  1.0000
  H   H12       1.0  0.90643  0.40940  0.22805  1.0000
  H   H13       1.0  0.58771  0.50318  0.33389  1.0000
  H   H14       1.0  0.53329  0.97479  0.28928  1.0000
  H   H15       1.0  0.44104  0.47299  0.30327  1.0000
  H   H16       1.0  0.46368  0.02833  0.30182  1.0000
  H   H17       1.0  0.97069  0.43734  0.22899  1.0000
  H   H18       1.0  0.55891  0.53994  0.34601  1.0000
  H   H19       1.0  0.43866  0.97438  0.25404  1.0000
  H   H20       1.0  0.54368  0.55812  0.21037  1.0000
  H   H21       1.0  0.56075  0.01962  0.22828  1.0000
  H   H22       1.0  0.97988  0.53854  0.22692  1.0000
  H   H23       1.0  0.46803  0.43606  0.15909  1.0000
  H   H24       1.0  0.40533  0.91047  0.25498  1.0000
  H   H25       1.0  0.51519  0.59438  0.21770  1.0000
  H   H26       1.0  0.59438  0.08248  0.21489  1.0000
  H   H27       1.0  0.91668  0.50881  0.20759  1.0000
  H   H28       1.0  0.49658  0.39995  0.14942  1.0000
  H   H29       1.0  0.40014  0.85837  0.27412  1.0000
  H   H30       1.0  0.13515  0.54830  0.35461  1.0000
  H   H31       1.0  0.46229  0.60425  0.27673  1.0000
  H   H32       1.0  0.59889  0.13662  0.21779  1.0000
  H   H33       1.0  0.86075  0.45223  0.15768  1.0000
  H   H34       1.0  0.54579  0.39547  0.16884  1.0000
  H   H35       1.0  0.24897  0.59027  0.81091  1.0000
  H   H36       1.0  0.74376  0.42284  0.84548  1.0000
  H   H37       1.0  0.58346  0.33315  0.75560  1.0000
  H   H38       1.0  0.18462  0.56540  0.82477  1.0000
  H   H39       1.0  0.80834  0.45172  0.85540  1.0000
  H   H40       1.0  0.55534  0.36974  0.76397  1.0000
  H   H41       1.0  0.19986  0.65611  0.70823  1.0000
  H   H42       1.0  0.80434  0.34109  0.69869  1.0000
  H   H43       1.0  0.65690  0.46241  0.75457  1.0000
  H   H44       1.0  0.26493  0.68204  0.70173  1.0000
  H   H45       1.0  0.73934  0.31268  0.69366  1.0000
  H   H46       1.0  0.68499  0.42478  0.74748  1.0000
  H   H47       1.0  0.09016  0.59573  0.77837  1.0000
  H   H48       1.0  0.58858  0.50180  0.77807  1.0000
  H   H49       1.0  0.02592  0.56637  0.77963  1.0000
  H   H50       1.0  0.55840  0.53612  0.78346  1.0000
  H   H51       1.0  0.02160  0.46181  0.71656  1.0000
  H   H52       1.0  0.46163  0.43500  0.71130  1.0000
  H   H53       1.0  0.08527  0.49181  0.72311  1.0000
  H   H54       1.0  0.49211  0.40182  0.70867  1.0000
  H   H55       1.0  0.40206  0.86303  0.78148  1.0000
  H   H56       1.0  0.13999  0.54062  0.72246  1.0000
  H   H57       1.0  0.45405  0.60042  0.79231  1.0000
  H   H58       1.0  0.60001  0.13601  0.66983  1.0000
  H   H59       1.0  0.85955  0.45014  0.65400  1.0000
  H   H60       1.0  0.54049  0.39851  0.72378  1.0000
  C   C1        1.0  0.35398  0.69691  0.24618  1.0000
  C   C2        1.0  0.29954  0.64906  0.25833  1.0000
  C   C3        1.0  0.34810  0.64399  0.25708  1.0000
  C   C4        1.0  0.64523  0.29947  0.26398  1.0000
  C   C5        1.0  0.69959  0.34754  0.25554  1.0000
  C   C6        1.0  0.65106  0.35254  0.25495  1.0000
  C   C7        1.0  0.37650  0.73464  0.23986  1.0000
  C   C8        1.0  0.73803  0.36413  0.25315  1.0000
  C   C9        1.0  0.36282  0.75279  0.20539  1.0000
  C   C10       1.0  0.75758  0.40316  0.29129  1.0000
  C   C11       1.0  0.38344  0.78884  0.20437  1.0000
  C   C12       1.0  0.79369  0.41954  0.29360  1.0000
  C   C13       1.0  0.41842  0.80855  0.24327  1.0000
  C   C14       1.0  0.81139  0.39700  0.25435  1.0000
  C   C15       1.0  0.43215  0.78989  0.27433  1.0000
  C   C16       1.0  0.79165  0.35795  0.21816  1.0000
  C   C17       1.0  0.41168  0.75343  0.27158  1.0000
  C   C18       1.0  0.75548  0.34174  0.21668  1.0000
  C   C19       1.0  0.42873  0.86706  0.26052  1.0000
  C   C20       1.0  0.12873  0.56013  0.28892  1.0000
  C   C21       1.0  0.44539  0.57435  0.25563  1.0000
  C   C22       1.0  0.57023  0.12868  0.24245  1.0000
  C   C23       1.0  0.86945  0.44008  0.20966  1.0000
  C   C24       1.0  0.56064  0.42659  0.22830  1.0000
  C   C25       1.0  0.45027  0.90511  0.26292  1.0000
  C   C26       1.0  0.46192  0.55331  0.25545  1.0000
  C   C27       1.0  0.54856  0.09139  0.24947  1.0000
  C   C28       1.0  0.90707  0.45705  0.21816  1.0000
  C   C29       1.0  0.54426  0.44909  0.24060  1.0000
  C   C30       1.0  0.48680  0.92398  0.27146  1.0000
  C   C31       1.0  0.44142  0.51847  0.27613  1.0000
  C   C32       1.0  0.51134  0.07525  0.27350  1.0000
  C   C33       1.0  0.92311  0.43743  0.22470  1.0000
  C   C34       1.0  0.56152  0.48891  0.29556  1.0000
  C   C35       1.0  0.50539  0.96066  0.27705  1.0000
  C   C36       1.0  0.45742  0.49882  0.27750  1.0000
  C   C37       1.0  0.49235  0.03973  0.28185  1.0000
  C   C38       1.0  0.95916  0.45353  0.22647  1.0000
  C   C39       1.0  0.54535  0.50913  0.30046  1.0000
  C   C40       1.0  0.48898  0.98017  0.27086  1.0000
  C   C41       1.0  0.49458  0.51251  0.25453  1.0000
  C   C42       1.0  0.50920  0.01836  0.26639  1.0000
  C   C43       1.0  0.98082  0.49039  0.22784  1.0000
  C   C44       1.0  0.51128  0.49089  0.25234  1.0000
  C   C45       1.0  0.45244  0.96103  0.26297  1.0000
  C   C46       1.0  0.51496  0.54741  0.23382  1.0000
  C   C47       1.0  0.54645  0.03482  0.24177  1.0000
  C   C48       1.0  0.96439  0.51002  0.22456  1.0000
  C   C49       1.0  0.49398  0.45118  0.20033  1.0000
  C   C50       1.0  0.43355  0.92463  0.26113  1.0000
  C   C51       1.0  0.49897  0.56775  0.23712  1.0000
  C   C52       1.0  0.56562  0.07041  0.23359  1.0000
  C   C53       1.0  0.92845  0.49347  0.21624  1.0000
  C   C54       1.0  0.51024  0.43070  0.19302  1.0000
  C   C55       1.0  0.35504  0.69957  0.73630  1.0000
  C   C56       1.0  0.29979  0.65293  0.75171  1.0000
  C   C57       1.0  0.34739  0.64663  0.75452  1.0000
  C   C58       1.0  0.64513  0.30051  0.75627  1.0000
  C   C59       1.0  0.69936  0.34936  0.76167  1.0000
  C   C60       1.0  0.65144  0.35464  0.75572  1.0000
  C   C61       1.0  0.26141  0.63770  0.75388  1.0000
  C   C62       1.0  0.73760  0.36590  0.76552  1.0000
  C   C63       1.0  0.63582  0.37674  0.75304  1.0000
  C   C64       1.0  0.23817  0.60429  0.78580  1.0000
  C   C65       1.0  0.75743  0.40515  0.81059  1.0000
  C   C66       1.0  0.59920  0.36146  0.75579  1.0000
  C   C67       1.0  0.20208  0.59012  0.79069  1.0000
  C   C68       1.0  0.79350  0.42106  0.81370  1.0000
  C   C69       1.0  0.58373  0.38224  0.76022  1.0000
  C   C70       1.0  0.18766  0.60836  0.76114  1.0000
  C   C71       1.0  0.81092  0.39779  0.76854  1.0000
  C   C72       1.0  0.60434  0.41914  0.76100  1.0000
  C   C73       1.0  0.21088  0.64205  0.73127  1.0000
  C   C74       1.0  0.79082  0.35865  0.72903  1.0000
  C   C75       1.0  0.64110  0.43411  0.75593  1.0000
  C   C76       1.0  0.24711  0.65639  0.72748  1.0000
  C   C77       1.0  0.75472  0.34294  0.72649  1.0000
  C   C78       1.0  0.65664  0.41319  0.75085  1.0000
  C   C79       1.0  0.43057  0.87131  0.76817  1.0000
  C   C80       1.0  0.13043  0.56114  0.74429  1.0000
  C   C81       1.0  0.43701  0.57026  0.76556  1.0000
  C   C82       1.0  0.57174  0.12997  0.72720  1.0000
  C   C83       1.0  0.86883  0.43924  0.71084  1.0000
  C   C84       1.0  0.55844  0.42818  0.74476  1.0000
  C   C85       1.0  0.09251  0.54580  0.74879  1.0000
  C   C86       1.0  0.54235  0.44955  0.74482  1.0000
  C   C87       1.0  0.07484  0.56651  0.76695  1.0000
  C   C88       1.0  0.56074  0.48772  0.76445  1.0000
  C   C89       1.0  0.03862  0.54960  0.76619  1.0000
  C   C90       1.0  0.54344  0.50660  0.76661  1.0000
  C   C91       1.0  0.01823  0.51132  0.74622  1.0000
  C   C92       1.0  0.50723  0.48880  0.74913  1.0000
  C   C93       1.0  0.03610  0.49119  0.73124  1.0000
  C   C94       1.0  0.48934  0.45039  0.72696  1.0000
  C   C95       1.0  0.07224  0.50799  0.73296  1.0000
  C   C96       1.0  0.50652  0.43135  0.72423  1.0000
  N   N1        1.0  0.31898  0.68350  0.24994  1.0000
  N   N2        1.0  0.31271  0.62828  0.26447  1.0000
  N   N3        1.0  0.36978  0.67818  0.24874  1.0000
  N   N4        1.0  0.68022  0.31285  0.26090  1.0000
  N   N5        1.0  0.68627  0.36850  0.25258  1.0000
  N   N6        1.0  0.62948  0.31815  0.26072  1.0000
  N   N7        1.0  0.44144  0.84519  0.24711  1.0000
  N   N8        1.0  0.15230  0.58774  0.23792  1.0000
  N   N9        1.0  0.41251  0.55917  0.23743  1.0000
  N   N10       1.0  0.55743  0.15102  0.26218  1.0000
  N   N11       1.0  0.84759  0.41152  0.25712  1.0000
  N   N12       1.0  0.59107  0.44165  0.27837  1.0000
  N   N13       1.0  0.32021  0.68677  0.73785  1.0000
  N   N14       1.0  0.31202  0.63199  0.76356  1.0000
  N   N15       1.0  0.36999  0.68037  0.74198  1.0000
  N   N16       1.0  0.67996  0.31396  0.75754  1.0000
  N   N17       1.0  0.68631  0.37110  0.76300  1.0000
  N   N18       1.0  0.62981  0.31951  0.75202  1.0000
  N   N19       1.0  0.44293  0.84938  0.75633  1.0000
  N   N20       1.0  0.15148  0.59577  0.76222  1.0000
  N   N21       1.0  0.40470  0.55564  0.73960  1.0000
  N   N22       1.0  0.55815  0.15364  0.77218  1.0000
  N   N23       1.0  0.84719  0.41193  0.76839  1.0000
  N   N24       1.0  0.59108  0.44236  0.76583  1.0000
  C  Sn1       1.0  0.65543  0.42155  0.29260  1.0000
  C   C97       1.0  0.63837  0.38605  0.30354  1.0000
  C  Sn2       1.0  0.60292  0.36377  0.28034  1.0000
  C  Sn3       1.0  0.58413  0.37724  0.24535  1.0000
  C   C98       1.0  0.60119  0.41272  0.23439  1.0000
  C  Sn4       1.0  0.63664  0.43502  0.25761  1.0000
  O  Te1       1.0  0.69088  0.44334  0.31623  1.0000
  O  Te2       1.0  0.58643  0.32839  0.29195  1.0000
  O  Te3       1.0  0.54865  0.35542  0.22172  1.0000
  O  Te4       1.0  0.65313  0.47038  0.24598  1.0000
  Mg  Mg1       1.0  0.53778  0.30915  0.24985  1.0000
  Mg  Mg2       1.0  0.70178  0.48963  0.28795  1.0000
  C  Sn5       1.0  0.20854  0.58657  0.31406  1.0000
  C   C99       1.0  0.18944  0.60252  0.30436  1.0000
  C  Sn6       1.0  0.20707  0.63389  0.25563  1.0000
  C  Sn7       1.0  0.24458  0.64963  0.21566  1.0000
  C   C100      1.0  0.26367  0.63368  0.22534  1.0000
  C  Sn8       1.0  0.24606  0.60231  0.27409  1.0000
  O  Te5       1.0  0.19037  0.55521  0.36305  1.0000
  O  Te6       1.0  0.18739  0.64936  0.24692  1.0000
  O  Te7       1.0  0.26275  0.68102  0.16664  1.0000
  O  Te8       1.0  0.26571  0.58684  0.28278  1.0000
  Mg  Mg3       1.0  0.22422  0.69201  0.17363  1.0000
  Mg  Mg4       1.0  0.22891  0.54418  0.35595  1.0000
  C  Sn9       1.0  0.95468  0.51258  0.74831  1.0000
  C   C101      1.0  0.97453  0.50036  0.77998  1.0000
  C  Sn10      1.0  0.96084  0.46305  0.76426  1.0000
  C  Sn11      1.0  0.92659  0.43740  0.71576  1.0000
  C   C102      1.0  0.90675  0.44962  0.68410  1.0000
  C  Sn12      1.0  0.92043  0.48693  0.69982  1.0000
  O  Te9       1.0  0.96890  0.55002  0.76480  1.0000
  O  Te10      1.0  0.98118  0.45150  0.79665  1.0000
  O  Te11      1.0  0.91237  0.39994  0.69930  1.0000
  O  Te12      1.0  0.90011  0.49849  0.66743  1.0000
  Mg  Mg5       1.0  0.95028  0.39764  0.75699  1.0000
  Mg  Mg6       1.0  0.93099  0.55232  0.70695  1.0000
  C  Sn13      1.0  0.50864  0.95205  0.72740  1.0000
  C   C103      1.0  0.49685  0.97453  0.71563  1.0000
  C  Sn14      1.0  0.46066  0.96530  0.74399  1.0000
  C  Sn15      1.0  0.43573  0.93294  0.78510  1.0000
  C   C104      1.0  0.44752  0.91048  0.79688  1.0000
  C  Sn16      1.0  0.48370  0.91969  0.76850  1.0000
  O  Te13      1.0  0.54494  0.96182  0.69854  1.0000
  O  Te14      1.0  0.44951  0.98819  0.73144  1.0000
  O  Te15      1.0  0.39940  0.92318  0.81395  1.0000
  O  Te16      1.0  0.49485  0.89682  0.78106  1.0000
  Mg  Mg7       1.0  0.39726  0.96321  0.78214  1.0000
  Mg  Mg8       1.0  0.54709  0.92179  0.73050  1.0000
  C  Sn17      1.0  0.05220  0.54017  0.14660  1.0000
  C   C105      1.0  0.02582  0.50815  0.18121  1.0000
  C  Sn18      1.0  0.03148  0.49421  0.27974  1.0000
  C  Sn19      1.0  0.06417  0.51267  0.34517  1.0000
  C   C106      1.0  0.09053  0.54468  0.31059  1.0000
  C  Sn20      1.0  0.08490  0.55864  0.21203  1.0000
  O  Te17      1.0  0.04597  0.55362  0.04782  1.0000
  O  Te18      1.0  0.00471  0.46214  0.31257  1.0000
  O  Te19      1.0  0.07039  0.49920  0.44401  1.0000
  O  Te20      1.0  0.11164  0.59069  0.17923  1.0000
  Mg  Mg9       1.0  0.02579  0.45461  0.45378  1.0000
  Mg  Mg10      1.0  0.09058  0.59825  0.03812  1.0000
  C  Sn21      1.0  0.41678  0.76738  0.81626  1.0000
  C   C107      1.0  0.38183  0.74466  0.78354  1.0000
  C  Sn22      1.0  0.36576  0.75434  0.71171  1.0000
  C  Sn23      1.0  0.38502  0.78740  0.67164  1.0000
  C   C108      1.0  0.41994  0.81009  0.70433  1.0000
  C  Sn24      1.0  0.43604  0.80044  0.77619  1.0000
  O  Te21      1.0  0.43232  0.75716  0.88812  1.0000
  O  Te22      1.0  0.33078  0.73119  0.68023  1.0000
  O  Te23      1.0  0.36944  0.79760  0.59973  1.0000
  O  Te24      1.0  0.47099  0.82356  0.80764  1.0000
  Mg  Mg11      1.0  0.32119  0.75699  0.58069  1.0000
  Mg  Mg12      1.0  0.48062  0.79777  0.90708  1.0000
  C  Sn25      1.0  0.49766  0.55943  0.70527  1.0000
  C   C109      1.0  0.46152  0.54778  0.71553  1.0000
  C  Sn26      1.0  0.43678  0.51706  0.76515  1.0000
  C  Sn27      1.0  0.44841  0.49761  0.80548  1.0000
  C   C110      1.0  0.48454  0.50926  0.79524  1.0000
  C  Sn28      1.0  0.50930  0.53997  0.74560  1.0000
  O  Te25      1.0  0.52192  0.59020  0.65538  1.0000
  O  Te26      1.0  0.40078  0.50593  0.77440  1.0000
  O  Te27      1.0  0.42412  0.46681  0.85539  1.0000
  O  Te28      1.0  0.54528  0.55110  0.73637  1.0000
  Mg  Mg13      1.0  0.37793  0.46237  0.84887  1.0000
  Mg  Mg14      1.0  0.56814  0.59468  0.66201  1.0000
  C  Sn29      1.0  0.34684  0.59042  0.35312  1.0000
  C   C111      1.0  0.36248  0.62234  0.31015  1.0000
  C  Sn30      1.0  0.39695  0.63226  0.20988  1.0000
  C  Sn31      1.0  0.41619  0.60981  0.15123  1.0000
  C   C112      1.0  0.40055  0.57791  0.19416  1.0000
  C  Sn32      1.0  0.36608  0.56797  0.29446  1.0000
  O  Te29      1.0  0.31235  0.58103  0.45349  1.0000
  O  Te30      1.0  0.41202  0.66430  0.16864  1.0000
  O  Te31      1.0  0.45070  0.61923  0.05079  1.0000
  O  Te32      1.0  0.35101  0.53595  0.33567  1.0000
  Mg  Mg15      1.0  0.45975  0.66548  0.02849  1.0000
  Mg  Mg16      1.0  0.30327  0.53473  0.47572  1.0000
  C  Sn33      1.0  0.57211  0.21006  0.18139  1.0000
  C   C113      1.0  0.58170  0.18771  0.20853  1.0000
  C  Sn34      1.0  0.61190  0.20416  0.28784  1.0000
  C  Sn35      1.0  0.63295  0.24377  0.34127  1.0000
  C   C114      1.0  0.62335  0.26610  0.31416  1.0000
  C  Sn36      1.0  0.59315  0.24968  0.23482  1.0000
  O  Te33      1.0  0.54180  0.19302  0.10186  1.0000
  O  Te34      1.0  0.62097  0.18123  0.31352  1.0000
  O  Te35      1.0  0.66327  0.26080  0.42084  1.0000
  O  Te36      1.0  0.58408  0.27259  0.20917  1.0000
  Mg  Mg17      1.0  0.66467  0.21766  0.42755  1.0000
  Mg  Mg18      1.0  0.54038  0.23619  0.09525  1.0000
  C  Sn37      1.0  0.51005  0.07875  0.87151  1.0000
  C   C115      1.0  0.54609  0.09509  0.80528  1.0000
  C  Sn38      1.0  0.56598  0.07260  0.69718  1.0000
  C  Sn39      1.0  0.05713  0.03294  0.65428  1.0000
  C   C116      1.0  0.02110  0.01662  0.72047  1.0000
  C  Sn40      1.0  0.00119  0.03909  0.82861  1.0000
  O  Te37      1.0  0.49068  0.10177  0.97933  1.0000
  O  Te38      1.0  0.60198  0.08959  0.63260  1.0000
  O  Te39      1.0  0.07653  0.00992  0.54637  1.0000
  O  Te40      1.0  0.96522  0.02212  0.89315  1.0000
  Mg  Mg19      1.0  0.61716  0.04628  0.49064  1.0000
  Mg  Mg20      1.0  0.98024  0.98456  0.03503  1.0000
  C  Sn41      1.0  0.40350  0.62408  0.64560  1.0000
  C   C117      1.0  0.36809  0.61965  0.70116  1.0000
  C  Sn42      1.0  0.34378  0.59598  0.79658  1.0000
  C  Sn43      1.0  0.35511  0.57633  0.83742  1.0000
  C   C118      1.0  0.39050  0.58077  0.78190  1.0000
  C  Sn44      1.0  0.41483  0.60443  0.68644  1.0000
  O  Te41      1.0  0.42735  0.64789  0.55038  1.0000
  O  Te42      1.0  0.30852  0.59199  0.85064  1.0000
  O  Te43      1.0  0.33123  0.55250  0.93272  1.0000
  O  Te44      1.0  0.45007  0.60842  0.63242  1.0000
  Mg  Mg21      1.0  0.28602  0.55633  0.97729  1.0000
  Mg  Mg22      1.0  0.47260  0.64409  0.50586  1.0000
  C  Sn45      1.0  0.57197  0.21072  0.67555  1.0000
  C   C119      1.0  0.58162  0.18913  0.70827  1.0000
  C  Sn46      1.0  0.61184  0.20625  0.78874  1.0000
  C  Sn47      1.0  0.63284  0.24577  0.83763  1.0000
  C   C120      1.0  0.62319  0.26733  0.80494  1.0000
  C  Sn48      1.0  0.59298  0.25024  0.72444  1.0000
  O  Te45      1.0  0.54166  0.19301  0.59496  1.0000
  O  Te46      1.0  0.62096  0.18408  0.82005  1.0000
  O  Te47      1.0  0.66318  0.26347  0.91827  1.0000
  O  Te48      1.0  0.58385  0.27239  0.69317  1.0000
  Mg  Mg23      1.0  0.66466  0.22123  0.93335  1.0000
  Mg  Mg24      1.0  0.54015  0.23527  0.57997  1.0000
