data_image0
_chemical_formula_structural       H12C18N8C2Sn2C2HTe2HMgC2Sn2C2HTe2HMgC2Sn2C2HTe2HMgC2Sn2C2HTe2HMgC2Sn2C2HTe2HMgC2Sn2C2HTe2HMgC2Sn2C2HTe2HMgC2Sn2C2HTe2HMgC2Sn2C2HTe2HMgC2Sn2C2HTe2HMgC2Sn2C2HTe2HMgC2Sn2C2HTe2HMg
_chemical_formula_sum              "H36 C66 N8 Sn24 Te24 Mg12"
_cell_length_a       23.5516
_cell_length_b       23.5325
_cell_length_c       8.20293
_cell_angle_alpha    90.3796
_cell_angle_beta     92.2608
_cell_angle_gamma    120.595

_symmetry_space_group_name_H-M    'P1'
_space_group_IT_number       1

loop_
  _space_group_symop_operation_xyz
  'x, y, z'

loop_
  _atom_site_type_symbol
  _atom_site_label
  _atom_site_symmetry_multiplicity
  _atom_site_fract_x
  _atom_site_fract_y
  _atom_site_fract_z
  _atom_site_occupancy
  H   H1        1.0  0.27401  0.72462  0.46540  1.0000
  H   H2        1.0  0.27267  0.54127  0.46468  1.0000
  H   H3        1.0  0.45655  0.72505  0.45816  1.0000
  H   H4        1.0  0.57043  0.53770  0.18553  1.0000
  H   H5        1.0  0.46293  0.03554  0.16084  1.0000
  H   H6        1.0  0.96560  0.42747  0.16286  1.0000
  H   H7        1.0  0.26874  0.72451  0.95589  1.0000
  H   H8        1.0  0.27195  0.54380  0.97764  1.0000
  H   H9        1.0  0.45398  0.72966  0.97094  1.0000
  H   H10       1.0  0.58089  0.54293  0.65054  1.0000
  H   H11       1.0  0.46963  0.03290  0.65860  1.0000
  H   H12       1.0  0.97195  0.43538  0.67924  1.0000
  C   C1        1.0  0.30044  0.69791  0.46305  1.0000
  C   C2        1.0  0.29929  0.59493  0.46336  1.0000
  C   C3        1.0  0.40293  0.69823  0.45996  1.0000
  C   C4        1.0  0.26432  0.62863  0.46426  1.0000
  C   C5        1.0  0.36850  0.62899  0.46223  1.0000
  C   C6        1.0  0.36960  0.73359  0.46037  1.0000
  C   C7        1.0  0.54988  0.49847  0.08975  1.0000
  C   C8        1.0  0.50242  0.05533  0.07377  1.0000
  C   C9        1.0  0.94520  0.45056  0.08230  1.0000
  C   C10       1.0  0.29644  0.69904  0.96044  1.0000
  C   C11       1.0  0.29796  0.59741  0.97293  1.0000
  C   C12       1.0  0.40031  0.70189  0.96912  1.0000
  C   C13       1.0  0.26181  0.62982  0.96596  1.0000
  C   C14       1.0  0.36724  0.63278  0.97402  1.0000
  C   C15       1.0  0.36565  0.73590  0.96259  1.0000
  C   C16       1.0  0.55359  0.49693  0.57611  1.0000
  C   C17       1.0  0.50853  0.05303  0.56981  1.0000
  C   C18       1.0  0.94914  0.45221  0.58692  1.0000
  N   N1        1.0  0.50005  0.48088  0.48939  1.0000
  N   N2        1.0  0.51853  0.01616  0.47121  1.0000
  N   N3        1.0  0.98297  0.49690  0.48306  1.0000
  N   N4        1.0  0.66554  0.33629  0.08140  1.0000
  N   N5        1.0  0.50227  0.48844  0.98726  1.0000
  N   N6        1.0  0.51264  0.01820  0.97646  1.0000
  N   N7        1.0  0.98081  0.49851  0.98760  1.0000
  N   N8        1.0  0.66888  0.33420  0.58365  1.0000
  C   C19       1.0  0.37996  0.51658  0.37060  1.0000
  C   C20       1.0  0.39441  0.57516  0.45187  1.0000
  C  Sn1       1.0  0.45213  0.61008  0.55105  1.0000
  C  Sn2       1.0  0.49612  0.58579  0.56892  1.0000
  C   C21       1.0  0.48124  0.52716  0.48700  1.0000
  C   C22       1.0  0.42333  0.49260  0.38811  1.0000
  H   H13       1.0  0.33517  0.48986  0.29401  1.0000
  O  Te1       1.0  0.46580  0.66851  0.63142  1.0000
  O  Te2       1.0  0.55417  0.61972  0.66723  1.0000
  H   H14       1.0  0.41217  0.44727  0.32512  1.0000
  Mg  Mg1       1.0  0.55110  0.69707  0.75182  1.0000
  C   C23       1.0  0.38341  0.85876  0.55179  1.0000
  C   C24       1.0  0.39723  0.81486  0.47185  1.0000
  C  Sn3       1.0  0.45552  0.83863  0.38935  1.0000
  C  Sn4       1.0  0.50072  0.90764  0.38709  1.0000
  C   C25       1.0  0.48646  0.95114  0.46755  1.0000
  C   C26       1.0  0.42798  0.92683  0.54969  1.0000
  H   H15       1.0  0.33818  0.83995  0.61543  1.0000
  O  Te3       1.0  0.46854  0.79409  0.31006  1.0000
  O  Te4       1.0  0.55935  0.93273  0.30562  1.0000
  H   H16       1.0  0.41732  0.96082  0.61166  1.0000
  Mg  Mg2       1.0  0.55503  0.85226  0.21562  1.0000
  C   C27       1.0  0.10339  0.49661  0.54950  1.0000
  C   C28       1.0  0.05931  0.51681  0.49791  1.0000
  C  Sn5       1.0  0.08224  0.57686  0.42067  1.0000
  C  Sn6       1.0  0.15060  0.61732  0.39473  1.0000
  C   C29       1.0  0.19429  0.59666  0.44669  1.0000
  C   C30       1.0  0.17082  0.53648  0.52390  1.0000
  H   H17       1.0  0.08522  0.45004  0.60916  1.0000
  O  Te5       1.0  0.03753  0.59630  0.36996  1.0000
  O  Te6       1.0  0.17485  0.67756  0.31779  1.0000
  H   H18       1.0  0.20495  0.52084  0.56373  1.0000
  Mg  Mg3       1.0  0.09446  0.68263  0.27071  1.0000
  C   C31       1.0  0.47909  0.62174  0.08641  1.0000
  C   C32       1.0  0.44207  0.61986  0.99392  1.0000
  C  Sn7       1.0  0.40830  0.56173  0.89796  1.0000
  C  Sn8       1.0  0.43229  0.51734  0.89483  1.0000
  C   C33       1.0  0.48948  0.53222  0.98789  1.0000
  C   C34       1.0  0.50277  0.57797  0.08344  1.0000
  H   H19       1.0  0.50493  0.66684  0.16041  1.0000
  O  Te7       1.0  0.35129  0.54807  0.80625  1.0000
  O  Te8       1.0  0.39948  0.45888  0.80004  1.0000
  H   H20       1.0  0.54699  0.58912  0.15512  1.0000
  Mg  Mg4       1.0  0.32390  0.46213  0.69617  1.0000
  C   C35       1.0  0.47724  0.86072  0.87741  1.0000
  C   C36       1.0  0.41824  0.81653  0.94846  1.0000
  C  Sn9       1.0  0.36288  0.82733  0.03095  1.0000
  C  Sn10      1.0  0.38728  0.89623  0.04228  1.0000
  C   C37       1.0  0.46646  0.95259  0.97069  1.0000
  C   C38       1.0  0.50133  0.92869  0.88847  1.0000
  H   H21       1.0  0.50420  0.84223  0.81372  1.0000
  O  Te9       1.0  0.30403  0.78249  0.10129  1.0000
  O  Te10      1.0  0.35305  0.92091  0.12396  1.0000
  H   H22       1.0  0.54699  0.96291  0.83338  1.0000
  Mg  Mg5       1.0  0.27518  0.84015  0.19982  1.0000
  C   C39       1.0  0.13987  0.52244  0.07801  1.0000
  C   C40       1.0  0.20109  0.58837  0.98327  1.0000
  C  Sn11      1.0  0.17479  0.61884  0.88628  1.0000
  C  Sn12      1.0  0.10606  0.59535  0.88439  1.0000
  C   C41       1.0  0.06538  0.54196  0.97970  1.0000
  C   C42       1.0  0.07208  0.49925  0.07627  1.0000
  H   H23       1.0  0.16064  0.49913  0.15281  1.0000
  O  Te11      1.0  0.21654  0.67209  0.79232  1.0000
  O  Te12      1.0  0.07848  0.62492  0.78861  1.0000
  H   H24       1.0  0.04026  0.45796  0.14970  1.0000
  Mg  Mg6       1.0  0.15563  0.69598  0.68163  1.0000
  C   C43       1.0  0.56283  0.35973  0.97977  1.0000
  C   C44       1.0  0.60254  0.35887  0.05230  1.0000
  C  Sn13      1.0  0.64130  0.41523  0.15170  1.0000
  C  Sn14      1.0  0.61961  0.46063  0.17880  1.0000
  C   C45       1.0  0.55964  0.44846  0.10578  1.0000
  C   C46       1.0  0.52125  0.39191  0.00649  1.0000
  H   H25       1.0  0.53311  0.31596  0.90302  1.0000
  O  Te13      1.0  0.70097  0.42618  0.22317  1.0000
  O  Te14      1.0  0.65736  0.51735  0.27765  1.0000
  H   H26       1.0  0.49503  0.39540  0.95043  1.0000
  Mg  Mg7       1.0  0.73504  0.51057  0.34804  1.0000
  C   C47       1.0  0.52807  0.18363  0.16929  1.0000
  C   C48       1.0  0.53682  0.13581  0.09147  1.0000
  C  Sn15      1.0  0.59390  0.15444  0.00745  1.0000
  C  Sn16      1.0  0.64306  0.22223  0.00148  1.0000
  C   C49       1.0  0.63387  0.26968  0.07983  1.0000
  C   C50       1.0  0.57655  0.25050  0.16352  1.0000
  H   H27       1.0  0.48374  0.16880  0.23412  1.0000
  O  Te15      1.0  0.62197  0.11859  0.93032  1.0000
  O  Te16      1.0  0.72073  0.25477  0.91841  1.0000
  H   H28       1.0  0.56981  0.28753  0.22385  1.0000
  Mg  Mg8       1.0  0.70889  0.17038  0.83248  1.0000
  C   C51       1.0  0.81890  0.35216  0.18578  1.0000
  C   C52       1.0  0.86537  0.40733  0.10431  1.0000
  C  Sn17      1.0  0.84583  0.44536  0.01486  1.0000
  C  Sn18      1.0  0.77849  0.42771  0.00708  1.0000
  C   C53       1.0  0.73239  0.37244  0.08911  1.0000
  C   C54       1.0  0.75247  0.33473  0.17822  1.0000
  H   H29       1.0  0.83444  0.32299  0.25480  1.0000
  O  Te17      1.0  0.91303  0.51287  0.93414  1.0000
  O  Te18      1.0  0.77775  0.47742  0.91861  1.0000
  H   H30       1.0  0.71648  0.29204  0.24137  1.0000
  Mg  Mg9       1.0  0.86040  0.54795  0.82933  1.0000
  C   C55       1.0  0.54991  0.37727  0.48135  1.0000
  C   C56       1.0  0.57177  0.43781  0.56261  1.0000
  C  Sn19      1.0  0.63195  0.46883  0.65333  1.0000
  C  Sn20      1.0  0.67087  0.43855  0.66262  1.0000
  C   C57       1.0  0.64858  0.37800  0.58079  1.0000
  C   C58       1.0  0.58828  0.34739  0.49039  1.0000
  H   H31       1.0  0.50327  0.35359  0.41133  1.0000
  O  Te19      1.0  0.65304  0.52929  0.73382  1.0000
  O  Te20      1.0  0.73122  0.46849  0.75238  1.0000
  H   H32       1.0  0.57138  0.30053  0.42741  1.0000
  Mg  Mg10      1.0  0.73883  0.55072  0.84076  1.0000
  C   C59       1.0  0.55225  0.21747  0.66584  1.0000
  C   C60       1.0  0.61449  0.25766  0.60412  1.0000
  C  Sn21      1.0  0.64446  0.22969  0.51676  1.0000
  C  Sn22      1.0  0.61139  0.16017  0.49086  1.0000
  C   C61       1.0  0.54912  0.12039  0.55300  1.0000
  C   C62       1.0  0.51958  0.14890  0.64029  1.0000
  H   H33       1.0  0.52938  0.23952  0.73330  1.0000
  O  Te21      1.0  0.70667  0.27056  0.45600  1.0000
  O  Te22      1.0  0.64020  0.13092  0.40393  1.0000
  H   H34       1.0  0.47138  0.11777  0.68797  1.0000
  Mg  Mg11      1.0  0.72564  0.20740  0.34531  1.0000
  C   C63       1.0  0.79395  0.43621  0.49150  1.0000
  C   C64       1.0  0.74716  0.37766  0.56105  1.0000
  C  Sn23      1.0  0.76733  0.34118  0.65503  1.0000
  C  Sn24      1.0  0.83565  0.36388  0.67967  1.0000
  C   C65       1.0  0.88207  0.42254  0.60966  1.0000
  C   C66       1.0  0.86134  0.45865  0.51579  1.0000
  H   H35       1.0  0.77792  0.46417  0.41894  1.0000
  O  Te23      1.0  0.71993  0.28277  0.72359  1.0000
  O  Te24      1.0  0.85717  0.32840  0.77311  1.0000
  H   H36       1.0  0.89759  0.50400  0.46204  1.0000
  Mg  Mg12      1.0  0.77371  0.25174  0.84120  1.0000
