data_image0
_chemical_formula_structural       H36C54N8SnCSn2CSnTe4Mg2SnCSn2CSnTe4Mg2SnCSn2CSnTe4Mg2SnCSn2CSnTe4Mg2SnCSn2CSnTe4Mg2SnCSn2CSnTe4Mg2
_chemical_formula_sum              "H36 C66 N8 Sn24 Te24 Mg12"
_cell_length_a       23.5516
_cell_length_b       23.5325
_cell_length_c       8.20293
_cell_angle_alpha    90.3796
_cell_angle_beta     92.2608
_cell_angle_gamma    120.595

_symmetry_space_group_name_H-M    'P1'
_space_group_IT_number       1

loop_
  _space_group_symop_operation_xyz
  'x, y, z'

loop_
  _atom_site_type_symbol
  _atom_site_label
  _atom_site_symmetry_multiplicity
  _atom_site_fract_x
  _atom_site_fract_y
  _atom_site_fract_z
  _atom_site_occupancy
  H   H1        1.0  0.27401  0.72462  0.46540  1.0000
  H   H2        1.0  0.27267  0.54127  0.46468  1.0000
  H   H3        1.0  0.45655  0.72505  0.45816  1.0000
  H   H4        1.0  0.54572  0.61037  0.14570  1.0000
  H   H5        1.0  0.38807  0.93885  0.09852  1.0000
  H   H6        1.0  0.06275  0.45911  0.14184  1.0000
  H   H7        1.0  0.48510  0.66976  0.13689  1.0000
  H   H8        1.0  0.32805  0.81747  0.09099  1.0000
  H   H9        1.0  0.18321  0.51847  0.12976  1.0000
  H   H10       1.0  0.57043  0.53770  0.18553  1.0000
  H   H11       1.0  0.46293  0.03554  0.16084  1.0000
  H   H12       1.0  0.96560  0.42747  0.16286  1.0000
  H   H13       1.0  0.87523  0.49420  0.43242  1.0000
  H   H14       1.0  0.75358  0.44402  0.43515  1.0000
  H   H15       1.0  0.71311  0.45218  0.24095  1.0000
  H   H16       1.0  0.73742  0.29150  0.23409  1.0000
  H   H17       1.0  0.66193  0.52091  0.25006  1.0000
  H   H18       1.0  0.85845  0.34205  0.23722  1.0000
  H   H19       1.0  0.26874  0.72451  0.95589  1.0000
  H   H20       1.0  0.27195  0.54380  0.97764  1.0000
  H   H21       1.0  0.45398  0.72966  0.97094  1.0000
  H   H22       1.0  0.33361  0.51727  0.81891  1.0000
  H   H23       1.0  0.48278  0.81870  0.82697  1.0000
  H   H24       1.0  0.17592  0.65681  0.80234  1.0000
  H   H25       1.0  0.39496  0.45690  0.82900  1.0000
  H   H26       1.0  0.54478  0.94153  0.84029  1.0000
  H   H27       1.0  0.05405  0.59838  0.81961  1.0000
  H   H28       1.0  0.58089  0.54293  0.65054  1.0000
  H   H29       1.0  0.46963  0.03290  0.65860  1.0000
  H   H30       1.0  0.97195  0.43538  0.67924  1.0000
  H   H31       1.0  0.50388  0.38307  0.92063  1.0000
  H   H32       1.0  0.87307  0.49873  0.94254  1.0000
  H   H33       1.0  0.55319  0.31165  0.91986  1.0000
  H   H34       1.0  0.75159  0.44978  0.94682  1.0000
  H   H35       1.0  0.74166  0.29116  0.74095  1.0000
  H   H36       1.0  0.86286  0.34320  0.74623  1.0000
  C   C1        1.0  0.30044  0.69791  0.46305  1.0000
  C   C2        1.0  0.29929  0.59493  0.46336  1.0000
  C   C3        1.0  0.40293  0.69823  0.45996  1.0000
  C   C4        1.0  0.26432  0.62863  0.46426  1.0000
  C   C5        1.0  0.36850  0.62899  0.46223  1.0000
  C   C6        1.0  0.36960  0.73359  0.46037  1.0000
  C   C7        1.0  0.49933  0.58938  0.07360  1.0000
  C   C8        1.0  0.40977  0.91314  0.04045  1.0000
  C   C9        1.0  0.08672  0.50224  0.06662  1.0000
  C   C10       1.0  0.46528  0.62338  0.06750  1.0000
  C   C11       1.0  0.37533  0.84448  0.03435  1.0000
  C   C12       1.0  0.15501  0.53541  0.05853  1.0000
  C   C13       1.0  0.54988  0.49847  0.08975  1.0000
  C   C14       1.0  0.50242  0.05533  0.07377  1.0000
  C   C15       1.0  0.94520  0.45056  0.08230  1.0000
  C   C16       1.0  0.57905  0.45685  0.08526  1.0000
  C   C17       1.0  0.87434  0.42330  0.08646  1.0000
  C   C18       1.0  0.54920  0.39713  0.99247  1.0000
  C   C19       1.0  0.84287  0.45364  0.00734  1.0000
  C   C20       1.0  0.57723  0.35770  0.99121  1.0000
  C   C21       1.0  0.77500  0.42575  0.00816  1.0000
  C   C22       1.0  0.63676  0.37675  0.08127  1.0000
  C   C23       1.0  0.73540  0.36592  0.08626  1.0000
  C   C24       1.0  0.66703  0.43663  0.17212  1.0000
  C   C25       1.0  0.76682  0.33659  0.16929  1.0000
  C   C26       1.0  0.63833  0.47559  0.17521  1.0000
  C   C27       1.0  0.83498  0.36493  0.16953  1.0000
  C   C28       1.0  0.29644  0.69904  0.96044  1.0000
  C   C29       1.0  0.29796  0.59741  0.97293  1.0000
  C   C30       1.0  0.40031  0.70189  0.96912  1.0000
  C   C31       1.0  0.26181  0.62982  0.96596  1.0000
  C   C32       1.0  0.36724  0.63278  0.97402  1.0000
  C   C33       1.0  0.36565  0.73590  0.96259  1.0000
  C   C34       1.0  0.40146  0.80878  0.96191  1.0000
  C   C35       1.0  0.18898  0.59277  0.96727  1.0000
  C   C36       1.0  0.40424  0.59757  0.97902  1.0000
  C   C37       1.0  0.37920  0.53683  0.89383  1.0000
  C   C38       1.0  0.46300  0.84492  0.89122  1.0000
  C   C39       1.0  0.15135  0.61455  0.88014  1.0000
  C   C40       1.0  0.41338  0.50304  0.89813  1.0000
  C   C41       1.0  0.49767  0.91359  0.89708  1.0000
  C   C42       1.0  0.08305  0.58169  0.88816  1.0000
  C   C43       1.0  0.47343  0.52787  0.99010  1.0000
  C   C44       1.0  0.47258  0.94918  0.97467  1.0000
  C   C45       1.0  0.04931  0.52559  0.98351  1.0000
  C   C46       1.0  0.55359  0.49693  0.57611  1.0000
  C   C47       1.0  0.50853  0.05303  0.56981  1.0000
  C   C48       1.0  0.94914  0.45221  0.58692  1.0000
  C   C49       1.0  0.87777  0.42252  0.58867  1.0000
  C   C50       1.0  0.84555  0.45048  0.50232  1.0000
  C   C51       1.0  0.77765  0.42196  0.50257  1.0000
  C   C52       1.0  0.73882  0.36386  0.58739  1.0000
  C   C53       1.0  0.77071  0.33587  0.67440  1.0000
  C   C54       1.0  0.83909  0.36510  0.67584  1.0000
  N   N1        1.0  0.50005  0.48088  0.48939  1.0000
  N   N2        1.0  0.51853  0.01616  0.47121  1.0000
  N   N3        1.0  0.98297  0.49690  0.48306  1.0000
  N   N4        1.0  0.66554  0.33629  0.08140  1.0000
  N   N5        1.0  0.50227  0.48844  0.98726  1.0000
  N   N6        1.0  0.51264  0.01820  0.97646  1.0000
  N   N7        1.0  0.98081  0.49851  0.98760  1.0000
  N   N8        1.0  0.66888  0.33420  0.58365  1.0000
  C  Sn1       1.0  0.56201  0.22145  0.20266  1.0000
  C   C55       1.0  0.62163  0.25954  0.12719  1.0000
  C  Sn2       1.0  0.64154  0.23097  0.00956  1.0000
  C  Sn3       1.0  0.62112  0.17547  0.96637  1.0000
  C   C56       1.0  0.54141  0.12486  0.04179  1.0000
  C  Sn4       1.0  0.52146  0.15339  0.15946  1.0000
  O  Te1       1.0  0.54308  0.25105  0.31993  1.0000
  O  Te2       1.0  0.72149  0.28261  0.93584  1.0000
  O  Te3       1.0  0.64011  0.14589  0.84900  1.0000
  O  Te4       1.0  0.46168  0.11435  0.23314  1.0000
  Mg  Mg1       1.0  0.72588  0.21966  0.78294  1.0000
  Mg  Mg2       1.0  0.45722  0.17725  0.38598  1.0000
  C  Sn5       1.0  0.37590  0.85725  0.49941  1.0000
  C   C57       1.0  0.39417  0.81440  0.43284  1.0000
  C  Sn6       1.0  0.45925  0.83809  0.39108  1.0000
  C  Sn7       1.0  0.50707  0.90602  0.41648  1.0000
  C   C58       1.0  0.48879  0.94882  0.48304  1.0000
  C  Sn8       1.0  0.42372  0.92517  0.52481  1.0000
  O  Te5       1.0  0.31056  0.83248  0.54027  1.0000
  O  Te6       1.0  0.47634  0.79431  0.32466  1.0000
  O  Te7       1.0  0.57245  0.93076  0.37555  1.0000
  O  Te8       1.0  0.40663  0.96891  0.59122  1.0000
  Mg  Mg3       1.0  0.57163  0.85166  0.28873  1.0000
  Mg  Mg4       1.0  0.31136  0.91161  0.62728  1.0000
  C  Sn9       1.0  0.54303  0.37230  0.53277  1.0000
  C   C59       1.0  0.56925  0.43582  0.60124  1.0000
  C  Sn10      1.0  0.63595  0.47292  0.65208  1.0000
  C  Sn11      1.0  0.67732  0.44598  0.63402  1.0000
  C   C60       1.0  0.65110  0.38251  0.56556  1.0000
  C  Sn12      1.0  0.58440  0.34537  0.51471  1.0000
  O  Te9       1.0  0.47621  0.33610  0.48278  1.0000
  O  Te10      1.0  0.66104  0.53630  0.72024  1.0000
  O  Te11      1.0  0.74419  0.48224  0.68408  1.0000
  O  Te12      1.0  0.55932  0.28203  0.44656  1.0000
  Mg  Mg5       1.0  0.75528  0.56632  0.76977  1.0000
  Mg  Mg6       1.0  0.46509  0.25198  0.39692  1.0000
  C  Sn13      1.0  0.14040  0.51063  0.49970  1.0000
  C   C61       1.0  0.18236  0.57310  0.43922  1.0000
  C  Sn14      1.0  0.15901  0.61590  0.40503  1.0000
  C  Sn15      1.0  0.09234  0.59588  0.43192  1.0000
  C   C62       1.0  0.05043  0.53345  0.49238  1.0000
  C  Sn16      1.0  0.07373  0.49060  0.52659  1.0000
  O  Te13      1.0  0.16481  0.46865  0.53304  1.0000
  O  Te14      1.0  0.20188  0.67810  0.34460  1.0000
  O  Te15      1.0  0.06796  0.63792  0.39852  1.0000
  O  Te16      1.0  0.03090  0.42845  0.58700  1.0000
  Mg  Mg7       1.0  0.14549  0.71769  0.31792  1.0000
  Mg  Mg8       1.0  0.08725  0.38883  0.61380  1.0000
  C  Sn17      1.0  0.56694  0.21809  0.70408  1.0000
  C   C63       1.0  0.62588  0.25735  0.62688  1.0000
  C  Sn18      1.0  0.64569  0.23006  0.50570  1.0000
  C  Sn19      1.0  0.60574  0.16212  0.46064  1.0000
  C   C64       1.0  0.54684  0.12290  0.53779  1.0000
  C  Sn20      1.0  0.52699  0.15014  0.65902  1.0000
  O  Te17      1.0  0.54810  0.24641  0.82489  1.0000
  O  Te18      1.0  0.70483  0.27030  0.43030  1.0000
  O  Te19      1.0  0.62463  0.13381  0.33972  1.0000
  O  Te20      1.0  0.46789  0.10995  0.73437  1.0000
  Mg  Mg9       1.0  0.70937  0.20887  0.27254  1.0000
  Mg  Mg10      1.0  0.46328  0.17133  0.89208  1.0000
  C  Sn21      1.0  0.48562  0.62356  0.52497  1.0000
  C   C65       1.0  0.42500  0.60458  0.44378  1.0000
  C  Sn22      1.0  0.38309  0.53909  0.39015  1.0000
  C  Sn23      1.0  0.40215  0.49156  0.41834  1.0000
  C   C66       1.0  0.46272  0.51055  0.49951  1.0000
  C  Sn24      1.0  0.50467  0.57604  0.55316  1.0000
  O  Te21      1.0  0.52674  0.68931  0.57752  1.0000
  O  Te22      1.0  0.32275  0.52130  0.30921  1.0000
  O  Te23      1.0  0.36097  0.42578  0.36571  1.0000
  O  Te24      1.0  0.56498  0.59383  0.63408  1.0000
  Mg  Mg11      1.0  0.28373  0.42566  0.26106  1.0000
  Mg  Mg12      1.0  0.60402  0.68944  0.68235  1.0000
