data_image0
_chemical_formula_structural       H12C18N8SnCSn2CSnTe4Mg2SnCSn2CSnTe4Mg2SnCSn2CSnTe4Mg2SnCSn2CSnTe4Mg2SnCSn2CSnTe4Mg2SnCSn2CSnTe4Mg2SnCSn2CSnTe4Mg2SnCSn2CSnTe4Mg2SnCSn2CSnTe4Mg2SnCSn2CSnTe4Mg2SnCSn2CSnTe4Mg2SnCSn2CSnTe4Mg2
_chemical_formula_sum              "H12 C42 N8 Sn48 Te48 Mg24"
_cell_length_a       23.5516
_cell_length_b       23.5325
_cell_length_c       8.20293
_cell_angle_alpha    90.3796
_cell_angle_beta     92.2608
_cell_angle_gamma    120.595

_symmetry_space_group_name_H-M    'P1'
_space_group_IT_number       1

loop_
  _space_group_symop_operation_xyz
  'x, y, z'

loop_
  _atom_site_type_symbol
  _atom_site_label
  _atom_site_symmetry_multiplicity
  _atom_site_fract_x
  _atom_site_fract_y
  _atom_site_fract_z
  _atom_site_occupancy
  H   H1        1.0  0.27401  0.72462  0.46540  1.0000
  H   H2        1.0  0.27267  0.54127  0.46468  1.0000
  H   H3        1.0  0.45655  0.72505  0.45816  1.0000
  H   H4        1.0  0.57043  0.53770  0.18553  1.0000
  H   H5        1.0  0.46293  0.03554  0.16084  1.0000
  H   H6        1.0  0.96560  0.42747  0.16286  1.0000
  H   H7        1.0  0.26874  0.72451  0.95589  1.0000
  H   H8        1.0  0.27195  0.54380  0.97764  1.0000
  H   H9        1.0  0.45398  0.72966  0.97094  1.0000
  H   H10       1.0  0.58089  0.54293  0.65054  1.0000
  H   H11       1.0  0.46963  0.03290  0.65860  1.0000
  H   H12       1.0  0.97195  0.43538  0.67924  1.0000
  C   C1        1.0  0.30044  0.69791  0.46305  1.0000
  C   C2        1.0  0.29929  0.59493  0.46336  1.0000
  C   C3        1.0  0.40293  0.69823  0.45996  1.0000
  C   C4        1.0  0.26432  0.62863  0.46426  1.0000
  C   C5        1.0  0.36850  0.62899  0.46223  1.0000
  C   C6        1.0  0.36960  0.73359  0.46037  1.0000
  C   C7        1.0  0.54988  0.49847  0.08975  1.0000
  C   C8        1.0  0.50242  0.05533  0.07377  1.0000
  C   C9        1.0  0.94520  0.45056  0.08230  1.0000
  C   C10       1.0  0.29644  0.69904  0.96044  1.0000
  C   C11       1.0  0.29796  0.59741  0.97293  1.0000
  C   C12       1.0  0.40031  0.70189  0.96912  1.0000
  C   C13       1.0  0.26181  0.62982  0.96596  1.0000
  C   C14       1.0  0.36724  0.63278  0.97402  1.0000
  C   C15       1.0  0.36565  0.73590  0.96259  1.0000
  C   C16       1.0  0.55359  0.49693  0.57611  1.0000
  C   C17       1.0  0.50853  0.05303  0.56981  1.0000
  C   C18       1.0  0.94914  0.45221  0.58692  1.0000
  N   N1        1.0  0.50005  0.48088  0.48939  1.0000
  N   N2        1.0  0.51853  0.01616  0.47121  1.0000
  N   N3        1.0  0.98297  0.49690  0.48306  1.0000
  N   N4        1.0  0.66554  0.33629  0.08140  1.0000
  N   N5        1.0  0.50227  0.48844  0.98726  1.0000
  N   N6        1.0  0.51264  0.01820  0.97646  1.0000
  N   N7        1.0  0.98081  0.49851  0.98760  1.0000
  N   N8        1.0  0.66888  0.33420  0.58365  1.0000
  C  Sn1       1.0  0.48562  0.62356  0.52497  1.0000
  C   C19       1.0  0.42500  0.60458  0.44378  1.0000
  C  Sn2       1.0  0.38309  0.53909  0.39015  1.0000
  C  Sn3       1.0  0.40215  0.49156  0.41834  1.0000
  C   C20       1.0  0.46272  0.51055  0.49951  1.0000
  C  Sn4       1.0  0.50467  0.57604  0.55316  1.0000
  O  Te1       1.0  0.52674  0.68931  0.57752  1.0000
  O  Te2       1.0  0.32275  0.52130  0.30921  1.0000
  O  Te3       1.0  0.36097  0.42578  0.36571  1.0000
  O  Te4       1.0  0.56498  0.59383  0.63408  1.0000
  Mg  Mg1       1.0  0.28373  0.42566  0.26106  1.0000
  Mg  Mg2       1.0  0.60402  0.68944  0.68235  1.0000
  C  Sn5       1.0  0.48864  0.89646  0.34057  1.0000
  C   C21       1.0  0.47287  0.93933  0.41816  1.0000
  C  Sn6       1.0  0.42448  0.91585  0.53356  1.0000
  C  Sn7       1.0  0.39119  0.84809  0.57231  1.0000
  C   C22       1.0  0.40698  0.80526  0.49477  1.0000
  C  Sn8       1.0  0.45535  0.82871  0.37932  1.0000
  O  Te5       1.0  0.53719  0.92102  0.22560  1.0000
  O  Te6       1.0  0.40954  0.95965  0.60947  1.0000
  O  Te7       1.0  0.34261  0.82356  0.68738  1.0000
  O  Te8       1.0  0.47030  0.78494  0.30345  1.0000
  Mg  Mg3       1.0  0.33972  0.90261  0.75784  1.0000
  Mg  Mg4       1.0  0.54014  0.84193  0.15513  1.0000
  C  Sn9       1.0  0.14040  0.51063  0.49970  1.0000
  C   C23       1.0  0.18236  0.57310  0.43922  1.0000
  C  Sn10      1.0  0.15901  0.61590  0.40503  1.0000
  C  Sn11      1.0  0.09234  0.59588  0.43192  1.0000
  C   C24       1.0  0.05043  0.53345  0.49238  1.0000
  C  Sn12      1.0  0.07373  0.49060  0.52659  1.0000
  O  Te9       1.0  0.16481  0.46865  0.53304  1.0000
  O  Te10      1.0  0.20188  0.67810  0.34460  1.0000
  O  Te11      1.0  0.06796  0.63792  0.39852  1.0000
  O  Te12      1.0  0.03090  0.42845  0.58700  1.0000
  Mg  Mg5       1.0  0.14549  0.71769  0.31792  1.0000
  Mg  Mg6       1.0  0.08725  0.38883  0.61380  1.0000
  C  Sn13      1.0  0.48583  0.62944  0.03620  1.0000
  C   C25       1.0  0.44520  0.62304  0.95586  1.0000
  C  Sn14      1.0  0.40397  0.55796  0.89843  1.0000
  C  Sn15      1.0  0.42386  0.51082  0.92186  1.0000
  C   C26       1.0  0.46446  0.51722  0.00217  1.0000
  C  Sn16      1.0  0.50573  0.58231  0.05963  1.0000
  O  Te13      1.0  0.52626  0.69478  0.09261  1.0000
  O  Te14      1.0  0.34346  0.54018  0.81843  1.0000
  O  Te15      1.0  0.38337  0.44544  0.86537  1.0000
  O  Te16      1.0  0.56620  0.60009  0.13960  1.0000
  Mg  Mg7       1.0  0.30559  0.44517  0.76383  1.0000
  Mg  Mg8       1.0  0.60409  0.69507  0.19433  1.0000
  C  Sn17      1.0  0.48287  0.85938  0.93000  1.0000
  C   C27       1.0  0.42054  0.81616  0.98755  1.0000
  C  Sn18      1.0  0.35859  0.82674  0.02885  1.0000
  C  Sn19      1.0  0.37948  0.89448  0.01219  1.0000
  C   C28       1.0  0.46189  0.95021  0.95463  1.0000
  C  Sn20      1.0  0.50375  0.92711  0.91333  1.0000
  O  Te17      1.0  0.52386  0.83516  0.88943  1.0000
  O  Te18      1.0  0.29652  0.78260  0.08618  1.0000
  O  Te19      1.0  0.33842  0.91867  0.05282  1.0000
  O  Te20      1.0  0.56578  0.97121  0.85600  1.0000
  Mg  Mg9       1.0  0.25843  0.83924  0.12551  1.0000
  Mg  Mg10      1.0  0.60390  0.91462  0.81656  1.0000
  C  Sn21      1.0  0.13901  0.51368  0.02809  1.0000
  C   C29       1.0  0.19984  0.58373  0.94537  1.0000
  C  Sn22      1.0  0.17548  0.62321  0.88658  1.0000
  C  Sn23      1.0  0.10907  0.60486  0.91108  1.0000
  C   C30       1.0  0.06842  0.54741  0.99378  1.0000
  C  Sn24      1.0  0.07260  0.49533  0.05259  1.0000
  O  Te21      1.0  0.16441  0.47495  0.08581  1.0000
  O  Te22      1.0  0.21710  0.68045  0.80420  1.0000
  O  Te23      1.0  0.08369  0.64364  0.85327  1.0000
  O  Te24      1.0  0.03103  0.43813  0.13495  1.0000
  Mg  Mg11      1.0  0.15968  0.71703  0.74854  1.0000
  Mg  Mg12      1.0  0.08840  0.40154  0.19073  1.0000
  C  Sn25      1.0  0.57853  0.37284  0.94542  1.0000
  C   C31       1.0  0.61491  0.36980  0.03266  1.0000
  C  Sn26      1.0  0.64262  0.41579  0.16304  1.0000
  C  Sn27      1.0  0.61320  0.45301  0.20720  1.0000
  C   C32       1.0  0.55671  0.44347  0.12000  1.0000
  C  Sn28      1.0  0.54911  0.41006  0.98958  1.0000
  O  Te25      1.0  0.55167  0.32660  0.81552  1.0000
  O  Te26      1.0  0.69914  0.42446  0.24840  1.0000
  O  Te27      1.0  0.64011  0.49927  0.33721  1.0000
  O  Te28      1.0  0.49262  0.40138  0.90427  1.0000
  Mg  Mg13      1.0  0.71736  0.49331  0.41618  1.0000
  Mg  Mg14      1.0  0.47434  0.33252  0.73653  1.0000
  C  Sn29      1.0  0.56201  0.22145  0.20266  1.0000
  C   C33       1.0  0.62163  0.25954  0.12719  1.0000
  C  Sn30      1.0  0.64154  0.23097  0.00956  1.0000
  C  Sn31      1.0  0.62112  0.17547  0.96637  1.0000
  C   C34       1.0  0.54141  0.12486  0.04179  1.0000
  C  Sn32      1.0  0.52146  0.15339  0.15946  1.0000
  O  Te29      1.0  0.54308  0.25105  0.31993  1.0000
  O  Te30      1.0  0.72149  0.28261  0.93584  1.0000
  O  Te31      1.0  0.64011  0.14589  0.84900  1.0000
  O  Te32      1.0  0.46168  0.11435  0.23314  1.0000
  Mg  Mg15      1.0  0.72588  0.21966  0.78294  1.0000
  Mg  Mg16      1.0  0.45722  0.17725  0.38598  1.0000
  C  Sn33      1.0  0.80744  0.43672  0.96014  1.0000
  C   C35       1.0  0.74169  0.36813  0.04054  1.0000
  C  Sn34      1.0  0.76308  0.34093  0.16186  1.0000
  C  Sn35      1.0  0.83150  0.37035  0.20378  1.0000
  C   C36       1.0  0.87708  0.42634  0.12343  1.0000
  C  Sn36      1.0  0.85573  0.45358  0.00206  1.0000
  O  Te33      1.0  0.78495  0.46308  0.83924  1.0000
  O  Te34      1.0  0.71654  0.28489  0.24049  1.0000
  O  Te35      1.0  0.85397  0.34394  0.32479  1.0000
  O  Te36      1.0  0.92236  0.52215  0.92347  1.0000
  Mg  Mg17      1.0  0.77150  0.26724  0.39700  1.0000
  Mg  Mg18      1.0  0.86746  0.53987  0.76701  1.0000
  C  Sn37      1.0  0.54303  0.37230  0.53277  1.0000
  C   C37       1.0  0.56925  0.43582  0.60124  1.0000
  C  Sn38      1.0  0.63595  0.47292  0.65208  1.0000
  C  Sn39      1.0  0.67732  0.44598  0.63402  1.0000
  C   C38       1.0  0.65110  0.38251  0.56556  1.0000
  C  Sn40      1.0  0.58440  0.34537  0.51471  1.0000
  O  Te37      1.0  0.47621  0.33610  0.48278  1.0000
  O  Te38      1.0  0.66104  0.53630  0.72024  1.0000
  O  Te39      1.0  0.74419  0.48224  0.68408  1.0000
  O  Te40      1.0  0.55932  0.28203  0.44656  1.0000
  Mg  Mg19      1.0  0.75528  0.56632  0.76977  1.0000
  Mg  Mg20      1.0  0.46509  0.25198  0.39692  1.0000
  C  Sn41      1.0  0.56694  0.21809  0.70408  1.0000
  C   C39       1.0  0.62588  0.25735  0.62688  1.0000
  C  Sn42      1.0  0.64569  0.23006  0.50570  1.0000
  C  Sn43      1.0  0.60574  0.16212  0.46064  1.0000
  C   C40       1.0  0.54684  0.12290  0.53779  1.0000
  C  Sn44      1.0  0.52699  0.15014  0.65902  1.0000
  O  Te41      1.0  0.54810  0.24641  0.82489  1.0000
  O  Te42      1.0  0.70483  0.27030  0.43030  1.0000
  O  Te43      1.0  0.62463  0.13381  0.33972  1.0000
  O  Te44      1.0  0.46789  0.10995  0.73437  1.0000
  Mg  Mg21      1.0  0.70937  0.20887  0.27254  1.0000
  Mg  Mg22      1.0  0.46328  0.17133  0.89208  1.0000
  C  Sn45      1.0  0.83363  0.45918  0.53593  1.0000
  C   C41       1.0  0.87261  0.43649  0.60965  1.0000
  C  Sn46      1.0  0.84359  0.37211  0.66541  1.0000
  C  Sn47      1.0  0.77416  0.32950  0.64701  1.0000
  C   C42       1.0  0.73522  0.35219  0.57330  1.0000
  C  Sn48      1.0  0.76420  0.41657  0.51753  1.0000
  O  Te45      1.0  0.86370  0.52373  0.48109  1.0000
  O  Te46      1.0  0.88358  0.35056  0.73877  1.0000
  O  Te47      1.0  0.74410  0.26491  0.70193  1.0000
  O  Te48      1.0  0.72425  0.43812  0.44419  1.0000
  Mg  Mg23      1.0  0.81950  0.25839  0.79372  1.0000
  Mg  Mg24      1.0  0.78827  0.53027  0.38912  1.0000
