data_image0
_chemical_formula_structural       H36C54N8C2Sn2C2HTe2HMgC2Sn2C2HTe2HMgC2Sn2C2HTe2HMgC2Sn2C2HTe2HMgC2Sn2C2HTe2HMgC2Sn2C2HTe2HMg
_chemical_formula_sum              "H48 C78 N8 Sn12 Te12 Mg6"
_cell_length_a       23.5516
_cell_length_b       23.5325
_cell_length_c       8.20293
_cell_angle_alpha    90.3796
_cell_angle_beta     92.2608
_cell_angle_gamma    120.595

_symmetry_space_group_name_H-M    'P1'
_space_group_IT_number       1

loop_
  _space_group_symop_operation_xyz
  'x, y, z'

loop_
  _atom_site_type_symbol
  _atom_site_label
  _atom_site_symmetry_multiplicity
  _atom_site_fract_x
  _atom_site_fract_y
  _atom_site_fract_z
  _atom_site_occupancy
  H   H1        1.0  0.27401  0.72462  0.46540  1.0000
  H   H2        1.0  0.27267  0.54127  0.46468  1.0000
  H   H3        1.0  0.45655  0.72505  0.45816  1.0000
  H   H4        1.0  0.33262  0.51067  0.31111  1.0000
  H   H5        1.0  0.48630  0.81573  0.32005  1.0000
  H   H6        1.0  0.39244  0.44889  0.32994  1.0000
  H   H7        1.0  0.54898  0.93826  0.33099  1.0000
  H   H8        1.0  0.38807  0.93885  0.09852  1.0000
  H   H9        1.0  0.32805  0.81747  0.09099  1.0000
  H   H10       1.0  0.57043  0.53770  0.18553  1.0000
  H   H11       1.0  0.46293  0.03554  0.16084  1.0000
  H   H12       1.0  0.96560  0.42747  0.16286  1.0000
  H   H13       1.0  0.50356  0.37659  0.43063  1.0000
  H   H14       1.0  0.55312  0.30516  0.43648  1.0000
  H   H15       1.0  0.71311  0.45218  0.24095  1.0000
  H   H16       1.0  0.54768  0.26604  0.21335  1.0000
  H   H17       1.0  0.66193  0.52091  0.25006  1.0000
  H   H18       1.0  0.47842  0.14440  0.21506  1.0000
  H   H19       1.0  0.26874  0.72451  0.95589  1.0000
  H   H20       1.0  0.27195  0.54380  0.97764  1.0000
  H   H21       1.0  0.45398  0.72966  0.97094  1.0000
  H   H22       1.0  0.48278  0.81870  0.82697  1.0000
  H   H23       1.0  0.54478  0.94153  0.84029  1.0000
  H   H24       1.0  0.54441  0.60449  0.63981  1.0000
  H   H25       1.0  0.39562  0.93762  0.60069  1.0000
  H   H26       1.0  0.48515  0.66494  0.62338  1.0000
  H   H27       1.0  0.33511  0.81703  0.59586  1.0000
  H   H28       1.0  0.58089  0.54293  0.65054  1.0000
  H   H29       1.0  0.46963  0.03290  0.65860  1.0000
  H   H30       1.0  0.97195  0.43538  0.67924  1.0000
  H   H31       1.0  0.50388  0.38307  0.92063  1.0000
  H   H32       1.0  0.61981  0.12679  0.93739  1.0000
  H   H33       1.0  0.55319  0.31165  0.91986  1.0000
  H   H34       1.0  0.69124  0.24863  0.94279  1.0000
  H   H35       1.0  0.71952  0.45399  0.72653  1.0000
  H   H36       1.0  0.66846  0.52322  0.72843  1.0000
  C   C1        1.0  0.30044  0.69791  0.46305  1.0000
  C   C2        1.0  0.29929  0.59493  0.46336  1.0000
  C   C3        1.0  0.40293  0.69823  0.45996  1.0000
  C   C4        1.0  0.26432  0.62863  0.46426  1.0000
  C   C5        1.0  0.36850  0.62899  0.46223  1.0000
  C   C6        1.0  0.36960  0.73359  0.46037  1.0000
  C   C7        1.0  0.40634  0.80656  0.46012  1.0000
  C   C8        1.0  0.40423  0.59243  0.46691  1.0000
  C   C9        1.0  0.37836  0.53072  0.38578  1.0000
  C   C10       1.0  0.46713  0.84221  0.38566  1.0000
  C   C11       1.0  0.41175  0.49607  0.39489  1.0000
  C   C12       1.0  0.50231  0.91094  0.39004  1.0000
  C   C13       1.0  0.47215  0.52127  0.48587  1.0000
  C   C14       1.0  0.47837  0.94711  0.46997  1.0000
  C   C15       1.0  0.40977  0.91314  0.04045  1.0000
  C   C16       1.0  0.37533  0.84448  0.03435  1.0000
  C   C17       1.0  0.54988  0.49847  0.08975  1.0000
  C   C18       1.0  0.50242  0.05533  0.07377  1.0000
  C   C19       1.0  0.94520  0.45056  0.08230  1.0000
  C   C20       1.0  0.57905  0.45685  0.08526  1.0000
  C   C21       1.0  0.54429  0.12691  0.07561  1.0000
  C   C22       1.0  0.54920  0.39713  0.99247  1.0000
  C   C23       1.0  0.60505  0.15788  0.99954  1.0000
  C   C24       1.0  0.57723  0.35770  0.99121  1.0000
  C   C25       1.0  0.64449  0.22602  0.00162  1.0000
  C   C26       1.0  0.63676  0.37675  0.08127  1.0000
  C   C27       1.0  0.62469  0.26640  0.07894  1.0000
  C   C28       1.0  0.66703  0.43663  0.17212  1.0000
  C   C29       1.0  0.56387  0.23571  0.15421  1.0000
  C   C30       1.0  0.63833  0.47559  0.17521  1.0000
  C   C31       1.0  0.52481  0.16721  0.15359  1.0000
  C   C32       1.0  0.29644  0.69904  0.96044  1.0000
  C   C33       1.0  0.29796  0.59741  0.97293  1.0000
  C   C34       1.0  0.40031  0.70189  0.96912  1.0000
  C   C35       1.0  0.26181  0.62982  0.96596  1.0000
  C   C36       1.0  0.36724  0.63278  0.97402  1.0000
  C   C37       1.0  0.36565  0.73590  0.96259  1.0000
  C   C38       1.0  0.40146  0.80878  0.96191  1.0000
  C   C39       1.0  0.46300  0.84492  0.89122  1.0000
  C   C40       1.0  0.49767  0.91359  0.89708  1.0000
  C   C41       1.0  0.47258  0.94918  0.97467  1.0000
  C   C42       1.0  0.49850  0.58354  0.56578  1.0000
  C   C43       1.0  0.41637  0.91160  0.53983  1.0000
  C   C44       1.0  0.46515  0.61812  0.55594  1.0000
  C   C45       1.0  0.38157  0.84300  0.53529  1.0000
  C   C46       1.0  0.55359  0.49693  0.57611  1.0000
  C   C47       1.0  0.50853  0.05303  0.56981  1.0000
  C   C48       1.0  0.94914  0.45221  0.58692  1.0000
  C   C49       1.0  0.58211  0.45472  0.57898  1.0000
  C   C50       1.0  0.55032  0.39241  0.49740  1.0000
  C   C51       1.0  0.57839  0.35302  0.49967  1.0000
  C   C52       1.0  0.63991  0.37439  0.58256  1.0000
  C   C53       1.0  0.67199  0.43669  0.66305  1.0000
  C   C54       1.0  0.64338  0.47581  0.66187  1.0000
  N   N1        1.0  0.50005  0.48088  0.48939  1.0000
  N   N2        1.0  0.51853  0.01616  0.47121  1.0000
  N   N3        1.0  0.98297  0.49690  0.48306  1.0000
  N   N4        1.0  0.66554  0.33629  0.08140  1.0000
  N   N5        1.0  0.50227  0.48844  0.98726  1.0000
  N   N6        1.0  0.51264  0.01820  0.97646  1.0000
  N   N7        1.0  0.98081  0.49851  0.98760  1.0000
  N   N8        1.0  0.66888  0.33420  0.58365  1.0000
  C   C55       1.0  0.81152  0.45262  0.99785  1.0000
  C   C56       1.0  0.74407  0.38063  0.06290  1.0000
  C  Sn1       1.0  0.76352  0.34218  0.15073  1.0000
  C  Sn2       1.0  0.83165  0.36378  0.17369  1.0000
  C   C57       1.0  0.87861  0.42333  0.10823  1.0000
  C   C58       1.0  0.85860  0.46141  0.02050  1.0000
  H   H37       1.0  0.79604  0.48211  0.93005  1.0000
  O  Te1       1.0  0.71560  0.28293  0.21484  1.0000
  O  Te2       1.0  0.85246  0.32633  0.26102  1.0000
  H   H38       1.0  0.91538  0.52000  0.97024  1.0000
  Mg  Mg1       1.0  0.76848  0.24916  0.32473  1.0000
  C   C59       1.0  0.83035  0.45003  0.48523  1.0000
  C   C60       1.0  0.87108  0.43227  0.57134  1.0000
  C  Sn3       1.0  0.84356  0.37615  0.66622  1.0000
  C  Sn4       1.0  0.77395  0.33718  0.67478  1.0000
  C   C61       1.0  0.73362  0.35535  0.58809  1.0000
  C   C62       1.0  0.76168  0.41161  0.49355  1.0000
  H   H39       1.0  0.85205  0.49355  0.41201  1.0000
  O  Te3       1.0  0.88498  0.35912  0.75153  1.0000
  O  Te4       1.0  0.74514  0.28084  0.76864  1.0000
  H   H40       1.0  0.73013  0.42533  0.42681  1.0000
  Mg  Mg2       1.0  0.82229  0.27791  0.86285  1.0000
  C   C63       1.0  0.14072  0.51606  0.55286  1.0000
  C   C64       1.0  0.18319  0.57522  0.47850  1.0000
  C  Sn5       1.0  0.15830  0.61160  0.40272  1.0000
  C  Sn6       1.0  0.08959  0.58819  0.40160  1.0000
  C   C65       1.0  0.04752  0.52896  0.47643  1.0000
  C   C66       1.0  0.07296  0.49294  0.55187  1.0000
  H   H41       1.0  0.16040  0.48820  0.61131  1.0000
  O  Te5       1.0  0.20142  0.67060  0.32895  1.0000
  O  Te6       1.0  0.06340  0.62357  0.32678  1.0000
  H   H42       1.0  0.04007  0.44715  0.60952  1.0000
  Mg  Mg3       1.0  0.14211  0.70120  0.24263  1.0000
  C   C67       1.0  0.62469  0.17186  0.47841  1.0000
  C   C68       1.0  0.56626  0.13148  0.55645  1.0000
  C  Sn7       1.0  0.53666  0.15943  0.64540  1.0000
  C  Sn8       1.0  0.56621  0.22913  0.65618  1.0000
  C   C69       1.0  0.62464  0.26909  0.57758  1.0000
  C   C70       1.0  0.65385  0.24060  0.48893  1.0000
  H   H43       1.0  0.64728  0.14982  0.40975  1.0000
  O  Te7       1.0  0.47830  0.11837  0.72267  1.0000
  O  Te8       1.0  0.53765  0.25837  0.74424  1.0000
  H   H44       1.0  0.69907  0.27188  0.42844  1.0000
  Mg  Mg4       1.0  0.45814  0.18159  0.82829  1.0000
  C   C71       1.0  0.13987  0.52244  0.07801  1.0000
  C   C72       1.0  0.20109  0.58837  0.98327  1.0000
  C  Sn9       1.0  0.17479  0.61884  0.88628  1.0000
  C  Sn10      1.0  0.10606  0.59535  0.88439  1.0000
  C   C73       1.0  0.06538  0.54196  0.97970  1.0000
  C   C74       1.0  0.07208  0.49925  0.07627  1.0000
  H   H45       1.0  0.16064  0.49913  0.15281  1.0000
  O  Te9       1.0  0.21654  0.67209  0.79232  1.0000
  O  Te10      1.0  0.07848  0.62492  0.78861  1.0000
  H   H46       1.0  0.04026  0.45796  0.14970  1.0000
  Mg  Mg5       1.0  0.15563  0.69598  0.68163  1.0000
  C   C75       1.0  0.38104  0.52302  0.87726  1.0000
  C   C76       1.0  0.39468  0.58042  0.96324  1.0000
  C  Sn11      1.0  0.43222  0.60239  0.06278  1.0000
  C  Sn12      1.0  0.47698  0.57892  0.07621  1.0000
  C   C77       1.0  0.48304  0.53403  0.98961  1.0000
  C   C78       1.0  0.42518  0.49985  0.89039  1.0000
  H   H47       1.0  0.33629  0.49658  0.80043  1.0000
  O  Te11      1.0  0.44507  0.65964  0.14788  1.0000
  O  Te12      1.0  0.53499  0.61249  0.17478  1.0000
  H   H48       1.0  0.41466  0.45543  0.82376  1.0000
  Mg  Mg6       1.0  0.53066  0.68813  0.26668  1.0000
