data_image0
_chemical_formula_structural       H48C96N12SnCSn2CSnTe4Mg2SnCSn2CSnTe4Mg2SnCSn2CSnTe4Mg2SnCSn2CSnTe4Mg2SnCSn2CSnTe4Mg2SnCSn2CSnTe4Mg2
_chemical_formula_sum              "H48 C108 N12 Sn24 Te24 Mg12"
_cell_length_a       30.7915
_cell_length_b       30.5704
_cell_length_c       8.15736
_cell_angle_alpha    84.3748
_cell_angle_beta     121.342
_cell_angle_gamma    120.213

_symmetry_space_group_name_H-M    'P1'
_space_group_IT_number       1

loop_
  _space_group_symop_operation_xyz
  'x, y, z'

loop_
  _atom_site_type_symbol
  _atom_site_label
  _atom_site_symmetry_multiplicity
  _atom_site_fract_x
  _atom_site_fract_y
  _atom_site_fract_z
  _atom_site_occupancy
  H   H1        1.0  0.30983  0.73073  0.27984  1.0000
  H   H2        1.0  0.27651  0.57653  0.28651  1.0000
  H   H3        1.0  0.42427  0.69475  0.25211  1.0000
  H   H4        1.0  0.44938  0.64566  0.30476  1.0000
  H   H5        1.0  0.35695  0.79832  0.25580  1.0000
  H   H6        1.0  0.20330  0.55787  0.26124  1.0000
  H   H7        1.0  0.12179  0.48713  0.22481  1.0000
  H   H8        1.0  0.02552  0.44216  0.19841  1.0000
  H   H9        1.0  0.04784  0.58948  0.30480  1.0000
  H   H10       1.0  0.14179  0.63429  0.32258  1.0000
  H   H11       1.0  0.45538  0.41757  0.28534  1.0000
  H   H12       1.0  0.50198  0.37111  0.29416  1.0000
  H   H13       1.0  0.63290  0.50728  0.23223  1.0000
  H   H14       1.0  0.58425  0.55228  0.21107  1.0000
  H   H15       1.0  0.56890  0.36437  0.28468  1.0000
  H   H16       1.0  0.64210  0.20374  0.24976  1.0000
  H   H17       1.0  0.79820  0.44266  0.23121  1.0000
  H   H18       1.0  0.73106  0.42745  0.23618  1.0000
  H   H19       1.0  0.57786  0.30998  0.24745  1.0000
  H   H20       1.0  0.69547  0.27248  0.25295  1.0000
  H   H21       1.0  0.31106  0.72977  0.78428  1.0000
  H   H22       1.0  0.27350  0.57402  0.78544  1.0000
  H   H23       1.0  0.42056  0.68986  0.74204  1.0000
  H   H24       1.0  0.44524  0.64010  0.80168  1.0000
  H   H25       1.0  0.35752  0.79606  0.75166  1.0000
  H   H26       1.0  0.20151  0.55721  0.76437  1.0000
  H   H27       1.0  0.51628  0.63442  0.81639  1.0000
  H   H28       1.0  0.36112  0.87070  0.72830  1.0000
  H   H29       1.0  0.12021  0.48792  0.72699  1.0000
  H   H30       1.0  0.55988  0.58682  0.81239  1.0000
  H   H31       1.0  0.40849  0.96291  0.72443  1.0000
  H   H32       1.0  0.02343  0.44290  0.69826  1.0000
  H   H33       1.0  0.39653  0.44228  0.66314  1.0000
  H   H34       1.0  0.55442  0.96135  0.77685  1.0000
  H   H35       1.0  0.04577  0.59030  0.80073  1.0000
  H   H36       1.0  0.35348  0.48944  0.67201  1.0000
  H   H37       1.0  0.50707  0.86983  0.77879  1.0000
  H   H38       1.0  0.14061  0.63475  0.82152  1.0000
  H   H39       1.0  0.95418  0.54974  0.67225  1.0000
  H   H40       1.0  0.86274  0.50656  0.67455  1.0000
  H   H41       1.0  0.87379  0.37007  0.77894  1.0000
  H   H42       1.0  0.96582  0.41393  0.78622  1.0000
  H   H43       1.0  0.56349  0.35785  0.77698  1.0000
  H   H44       1.0  0.64323  0.20171  0.75048  1.0000
  H   H45       1.0  0.79508  0.44111  0.72942  1.0000
  H   H46       1.0  0.72839  0.42508  0.74109  1.0000
  H   H47       1.0  0.57464  0.30465  0.74344  1.0000
  H   H48       1.0  0.69557  0.27090  0.75508  1.0000
  C   C1        1.0  0.32262  0.70356  0.27920  1.0000
  C   C2        1.0  0.30283  0.61645  0.28141  1.0000
  C   C3        1.0  0.38707  0.68288  0.26718  1.0000
  C   C4        1.0  0.59382  0.40340  0.26736  1.0000
  C   C5        1.0  0.60300  0.19236  0.25384  1.0000
  C   C6        1.0  0.80957  0.41413  0.23233  1.0000
  C   C7        1.0  0.28739  0.65235  0.28484  1.0000
  C   C8        1.0  0.35228  0.63112  0.27152  1.0000
  C   C9        1.0  0.37257  0.71939  0.26980  1.0000
  C   C10       1.0  0.63972  0.41347  0.24926  1.0000
  C   C11       1.0  0.59327  0.23129  0.25651  1.0000
  C   C12       1.0  0.77151  0.36513  0.23562  1.0000
  C   C13       1.0  0.36522  0.59167  0.25582  1.0000
  C   C14       1.0  0.40873  0.77305  0.25677  1.0000
  C   C15       1.0  0.23418  0.63704  0.29000  1.0000
  C   C16       1.0  0.65365  0.37378  0.24520  1.0000
  C   C17       1.0  0.63184  0.28503  0.24996  1.0000
  C   C18       1.0  0.71868  0.35104  0.24071  1.0000
  C   C19       1.0  0.31910  0.53922  0.21724  1.0000
  C   C20       1.0  0.45734  0.78314  0.24475  1.0000
  C   C21       1.0  0.22700  0.67858  0.30756  1.0000
  C   C22       1.0  0.70380  0.38765  0.24054  1.0000
  C   C23       1.0  0.61743  0.32201  0.24621  1.0000
  C   C24       1.0  0.68284  0.30017  0.24803  1.0000
  C   C25       1.0  0.67799  0.46338  0.23435  1.0000
  C   C26       1.0  0.54433  0.22232  0.26397  1.0000
  C   C27       1.0  0.77886  0.32329  0.22547  1.0000
  C   C28       1.0  0.41696  0.60421  0.27199  1.0000
  C   C29       1.0  0.39649  0.81066  0.25346  1.0000
  C   C30       1.0  0.19400  0.58676  0.27629  1.0000
  C   C31       1.0  0.13944  0.56432  0.27263  1.0000
  C   C32       1.0  0.10535  0.50961  0.24150  1.0000
  C   C33       1.0  0.05110  0.48424  0.22757  1.0000
  C   C34       1.0  0.02818  0.51197  0.24674  1.0000
  C   C35       1.0  0.06284  0.56658  0.28175  1.0000
  C   C36       1.0  0.11682  0.59222  0.29424  1.0000
  C   C37       1.0  0.51540  0.48878  0.24439  1.0000
  C   C38       1.0  0.49294  0.43702  0.26700  1.0000
  C   C39       1.0  0.51983  0.41093  0.27499  1.0000
  C   C40       1.0  0.57082  0.43498  0.26283  1.0000
  C   C41       1.0  0.59378  0.48706  0.24206  1.0000
  C   C42       1.0  0.56630  0.51274  0.23210  1.0000
  C   C43       1.0  0.32232  0.70163  0.78029  1.0000
  C   C44       1.0  0.30032  0.61378  0.77967  1.0000
  C   C45       1.0  0.38424  0.67882  0.76096  1.0000
  C   C46       1.0  0.58881  0.39751  0.76510  1.0000
  C   C47       1.0  0.60381  0.18960  0.75353  1.0000
  C   C48       1.0  0.80729  0.41315  0.73181  1.0000
  C   C49       1.0  0.28630  0.65059  0.78578  1.0000
  C   C50       1.0  0.34888  0.62733  0.76600  1.0000
  C   C51       1.0  0.37152  0.71632  0.76794  1.0000
  C   C52       1.0  0.63590  0.40888  0.75167  1.0000
  C   C53       1.0  0.59270  0.22763  0.75569  1.0000
  C   C54       1.0  0.77005  0.36401  0.73684  1.0000
  C   C55       1.0  0.36035  0.58706  0.74701  1.0000
  C   C56       1.0  0.40894  0.76978  0.75661  1.0000
  C   C57       1.0  0.23356  0.63636  0.79223  1.0000
  C   C58       1.0  0.65059  0.36988  0.74586  1.0000
  C   C59       1.0  0.63044  0.28165  0.74968  1.0000
  C   C60       1.0  0.71699  0.34896  0.74211  1.0000
  C   C61       1.0  0.31279  0.53493  0.70208  1.0000
  C   C62       1.0  0.45798  0.77936  0.74808  1.0000
  C   C63       1.0  0.22746  0.67845  0.81108  1.0000
  C   C64       1.0  0.70127  0.38488  0.74277  1.0000
  C   C65       1.0  0.61478  0.31773  0.74465  1.0000
  C   C66       1.0  0.68186  0.29782  0.74903  1.0000
  C   C67       1.0  0.67518  0.45962  0.74480  1.0000
  C   C68       1.0  0.54322  0.21747  0.76243  1.0000
  C   C69       1.0  0.77859  0.32289  0.72868  1.0000
  C   C70       1.0  0.41205  0.59875  0.76520  1.0000
  C   C71       1.0  0.39752  0.80793  0.75288  1.0000
  C   C72       1.0  0.19271  0.58650  0.77887  1.0000
  C   C73       1.0  0.43173  0.56629  0.74858  1.0000
  C   C74       1.0  0.42950  0.86223  0.75156  1.0000
  C   C75       1.0  0.13803  0.56476  0.77435  1.0000
  C   C76       1.0  0.48986  0.59214  0.78344  1.0000
  C   C77       1.0  0.40349  0.89067  0.73778  1.0000
  C   C78       1.0  0.10357  0.51019  0.74302  1.0000
  C   C79       1.0  0.51446  0.56504  0.77974  1.0000
  C   C80       1.0  0.43061  0.94308  0.73605  1.0000
  C   C81       1.0  0.04911  0.48494  0.72781  1.0000
  C   C82       1.0  0.48225  0.51030  0.73967  1.0000
  C   C83       1.0  0.48553  0.97049  0.74828  1.0000
  C   C84       1.0  0.02602  0.51268  0.74541  1.0000
  C   C85       1.0  0.42369  0.48449  0.70019  1.0000
  C   C86       1.0  0.51180  0.94207  0.76483  1.0000
  C   C87       1.0  0.06092  0.56728  0.77981  1.0000
  C   C88       1.0  0.39882  0.51136  0.70418  1.0000
  C   C89       1.0  0.48484  0.88961  0.76608  1.0000
  C   C90       1.0  0.11524  0.59274  0.79368  1.0000
  C   C91       1.0  0.96878  0.48603  0.73303  1.0000
  C   C92       1.0  0.93765  0.51082  0.70001  1.0000
  C   C93       1.0  0.88529  0.48605  0.69840  1.0000
  C   C94       1.0  0.86056  0.43484  0.72798  1.0000
  C   C95       1.0  0.89074  0.40937  0.75540  1.0000
  C   C96       1.0  0.94329  0.43457  0.75848  1.0000
  N   N1        1.0  0.27906  0.49713  0.18385  1.0000
  N   N2        1.0  0.49562  0.78888  0.23004  1.0000
  N   N3        1.0  0.22407  0.71458  0.32303  1.0000
  N   N4        1.0  0.71156  0.50330  0.22316  1.0000
  N   N5        1.0  0.50555  0.21757  0.27355  1.0000
  N   N6        1.0  0.78157  0.28702  0.21257  1.0000
  N   N7        1.0  0.27141  0.49315  0.66225  1.0000
  N   N8        1.0  0.49650  0.78469  0.73572  1.0000
  N   N9        1.0  0.22538  0.71485  0.82820  1.0000
  N   N10       1.0  0.70980  0.50001  0.73991  1.0000
  N   N11       1.0  0.50395  0.21179  0.77116  1.0000
  N   N12       1.0  0.78240  0.28714  0.71786  1.0000
  C  Sn1       1.0  0.88892  0.48863  0.13865  1.0000
  C   C97       1.0  0.85983  0.43958  0.17263  1.0000
  C  Sn2       1.0  0.88912  0.41267  0.25582  1.0000
  C  Sn3       1.0  0.94876  0.43528  0.30623  1.0000
  C   C98       1.0  0.97782  0.48431  0.27228  1.0000
  C  Sn4       1.0  0.94856  0.51124  0.18905  1.0000
  O  Te1       1.0  0.85877  0.51483  0.05534  1.0000
  O  Te2       1.0  0.85911  0.36367  0.28834  1.0000
  O  Te3       1.0  0.97890  0.40904  0.38959  1.0000
  O  Te4       1.0  0.97854  0.56022  0.15657  1.0000
  Mg  Mg1       1.0  0.91911  0.34329  0.40541  1.0000
  Mg  Mg2       1.0  0.91860  0.58064  0.03961  1.0000
  C  Sn5       1.0  0.48338  0.06336  0.68638  1.0000
  C   C99       1.0  0.00138  0.02956  0.69053  1.0000
  C  Sn6       1.0  0.56018  0.04904  0.74184  1.0000
  C  Sn7       1.0  0.60106  0.10345  0.79014  1.0000
  C   C100      1.0  0.58265  0.13722  0.78601  1.0000
  C  Sn8       1.0  0.52426  0.11777  0.73468  1.0000
  O  Te5       1.0  0.42479  0.04303  0.63467  1.0000
  O  Te6       1.0  0.07713  0.01447  0.74489  1.0000
  O  Te7       1.0  0.65969  0.12376  0.84187  1.0000
  O  Te8       1.0  0.50690  0.15231  0.73165  1.0000
  Mg  Mg3       1.0  0.66214  0.06098  0.82484  1.0000
  Mg  Mg4       1.0  0.42232  0.10584  0.65182  1.0000
  C  Sn9       1.0  0.51902  0.10386  0.31439  1.0000
  C   C101      1.0  0.56887  0.13510  0.30144  1.0000
  C  Sn10      1.0  0.58938  0.11266  0.24016  1.0000
  C  Sn11      1.0  0.55942  0.05784  0.19067  1.0000
  C   C102      1.0  0.50959  0.02663  0.20360  1.0000
  C  Sn12      1.0  0.48905  0.04904  0.26490  1.0000
  O  Te9       1.0  0.49929  0.12714  0.37599  1.0000
  O  Te10      1.0  0.63932  0.14470  0.22843  1.0000
  O  Te11      1.0  0.57919  0.03458  0.12904  1.0000
  O  Te12      1.0  0.43914  0.01704  0.27660  1.0000
  Mg  Mg5       1.0  0.64914  0.09464  0.13663  1.0000
  Mg  Mg6       1.0  0.42926  0.06705  0.36829  1.0000
  C  Sn13      1.0  0.55826  0.49828  0.67240  1.0000
  C   C103      1.0  0.50866  0.48022  0.68510  1.0000
  C  Sn14      1.0  0.48894  0.43589  0.75821  1.0000
  C  Sn15      1.0  0.51945  0.40905  0.82003  1.0000
  C   C104      1.0  0.56902  0.42711  0.80735  1.0000
  C  Sn16      1.0  0.58877  0.47144  0.73423  1.0000
  O  Te13      1.0  0.57720  0.54268  0.59886  1.0000
  O  Te14      1.0  0.43923  0.41858  0.76944  1.0000
  O  Te15      1.0  0.50046  0.36462  0.89362  1.0000
  O  Te16      1.0  0.63845  0.48876  0.72302  1.0000
  Mg  Mg7       1.0  0.43055  0.35624  0.88019  1.0000
  Mg  Mg8       1.0  0.64719  0.55110  0.61239  1.0000
  C  Sn17      1.0  0.52531  0.58116  0.34561  1.0000
  C   C105      1.0  0.49969  0.52759  0.30227  1.0000
  C  Sn18      1.0  0.43781  0.49351  0.21209  1.0000
  C  Sn19      1.0  0.40075  0.51340  0.16410  1.0000
  C   C106      1.0  0.42637  0.56694  0.20740  1.0000
  C  Sn20      1.0  0.48825  0.60105  0.29761  1.0000
  O  Te17      1.0  0.58728  0.61451  0.43579  1.0000
  O  Te18      1.0  0.41323  0.44010  0.17028  1.0000
  O  Te19      1.0  0.33874  0.48000  0.07386  1.0000
  O  Te20      1.0  0.51283  0.65443  0.33939  1.0000
  Mg  Mg9       1.0  0.32639  0.41035  0.04635  1.0000
  Mg  Mg10      1.0  0.59965  0.68421  0.46321  1.0000
  C  Sn21      1.0  0.39433  0.90028  0.17298  1.0000
  C   C107      1.0  0.41575  0.86783  0.19476  1.0000
  C  Sn22      1.0  0.47578  0.88887  0.26163  1.0000
  C  Sn23      1.0  0.51524  0.94349  0.30782  1.0000
  C   C108      1.0  0.49382  0.97591  0.28606  1.0000
  C  Sn24      1.0  0.43379  0.95490  0.21916  1.0000
  O  Te21      1.0  0.33415  0.87840  0.10590  1.0000
  O  Te22      1.0  0.49616  0.85564  0.28217  1.0000
  O  Te23      1.0  0.57547  0.96536  0.37493  1.0000
  O  Te24      1.0  0.41342  0.98810  0.19865  1.0000
  Mg  Mg11      1.0  0.58198  0.90402  0.37884  1.0000
  Mg  Mg12      1.0  0.32762  0.93977  0.10210  1.0000
