data_image0
_chemical_formula_structural       H48C96N12C2Sn2C2HTe2HMgC2Sn2C2HTe2HMgC2Sn2C2HTe2HMgC2Sn2C2HTe2HMgC2Sn2C2HTe2HMgC2Sn2C2HTe2HMg
_chemical_formula_sum              "H60 C120 N12 Sn12 Te12 Mg6"
_cell_length_a       30.7915
_cell_length_b       30.5704
_cell_length_c       8.15736
_cell_angle_alpha    84.3748
_cell_angle_beta     121.342
_cell_angle_gamma    120.213

_symmetry_space_group_name_H-M    'P1'
_space_group_IT_number       1

loop_
  _space_group_symop_operation_xyz
  'x, y, z'

loop_
  _atom_site_type_symbol
  _atom_site_label
  _atom_site_symmetry_multiplicity
  _atom_site_fract_x
  _atom_site_fract_y
  _atom_site_fract_z
  _atom_site_occupancy
  H   H1        1.0  0.30983  0.73073  0.27984  1.0000
  H   H2        1.0  0.27651  0.57653  0.28651  1.0000
  H   H3        1.0  0.42427  0.69475  0.25211  1.0000
  H   H4        1.0  0.44938  0.64566  0.30476  1.0000
  H   H5        1.0  0.35695  0.79832  0.25580  1.0000
  H   H6        1.0  0.20330  0.55787  0.26124  1.0000
  H   H7        1.0  0.52124  0.64102  0.32173  1.0000
  H   H8        1.0  0.56544  0.59408  0.31435  1.0000
  H   H9        1.0  0.40301  0.44872  0.16796  1.0000
  H   H10       1.0  0.35966  0.49507  0.18088  1.0000
  H   H11       1.0  0.58207  0.03404  0.22646  1.0000
  H   H12       1.0  0.63189  0.12654  0.23699  1.0000
  H   H13       1.0  0.49791  0.13236  0.26024  1.0000
  H   H14       1.0  0.44979  0.04100  0.25888  1.0000
  H   H15       1.0  0.56890  0.36437  0.28468  1.0000
  H   H16       1.0  0.64210  0.20374  0.24976  1.0000
  H   H17       1.0  0.79820  0.44266  0.23121  1.0000
  H   H18       1.0  0.73106  0.42745  0.23618  1.0000
  H   H19       1.0  0.57786  0.30998  0.24745  1.0000
  H   H20       1.0  0.69547  0.27248  0.25295  1.0000
  H   H21       1.0  0.31106  0.72977  0.78428  1.0000
  H   H22       1.0  0.27350  0.57402  0.78544  1.0000
  H   H23       1.0  0.42056  0.68986  0.74204  1.0000
  H   H24       1.0  0.44524  0.64010  0.80168  1.0000
  H   H25       1.0  0.35752  0.79606  0.75166  1.0000
  H   H26       1.0  0.20151  0.55721  0.76437  1.0000
  H   H27       1.0  0.51628  0.63442  0.81639  1.0000
  H   H28       1.0  0.36112  0.87070  0.72830  1.0000
  H   H29       1.0  0.55988  0.58682  0.81239  1.0000
  H   H30       1.0  0.40849  0.96291  0.72443  1.0000
  H   H31       1.0  0.39653  0.44228  0.66314  1.0000
  H   H32       1.0  0.55442  0.96135  0.77685  1.0000
  H   H33       1.0  0.35348  0.48944  0.67201  1.0000
  H   H34       1.0  0.50707  0.86983  0.77879  1.0000
  H   H35       1.0  0.44886  0.41004  0.78064  1.0000
  H   H36       1.0  0.95418  0.54974  0.67225  1.0000
  H   H37       1.0  0.49642  0.36419  0.79069  1.0000
  H   H38       1.0  0.86274  0.50656  0.67455  1.0000
  H   H39       1.0  0.62703  0.50091  0.73053  1.0000
  H   H40       1.0  0.87379  0.37007  0.77894  1.0000
  H   H41       1.0  0.57786  0.54544  0.70894  1.0000
  H   H42       1.0  0.96582  0.41393  0.78622  1.0000
  H   H43       1.0  0.56349  0.35785  0.77698  1.0000
  H   H44       1.0  0.64323  0.20171  0.75048  1.0000
  H   H45       1.0  0.79508  0.44111  0.72942  1.0000
  H   H46       1.0  0.72839  0.42508  0.74109  1.0000
  H   H47       1.0  0.57464  0.30465  0.74344  1.0000
  H   H48       1.0  0.69557  0.27090  0.75508  1.0000
  C   C1        1.0  0.32262  0.70356  0.27920  1.0000
  C   C2        1.0  0.30283  0.61645  0.28141  1.0000
  C   C3        1.0  0.38707  0.68288  0.26718  1.0000
  C   C4        1.0  0.59382  0.40340  0.26736  1.0000
  C   C5        1.0  0.60300  0.19236  0.25384  1.0000
  C   C6        1.0  0.80957  0.41413  0.23233  1.0000
  C   C7        1.0  0.28739  0.65235  0.28484  1.0000
  C   C8        1.0  0.35228  0.63112  0.27152  1.0000
  C   C9        1.0  0.37257  0.71939  0.26980  1.0000
  C   C10       1.0  0.63972  0.41347  0.24926  1.0000
  C   C11       1.0  0.59327  0.23129  0.25651  1.0000
  C   C12       1.0  0.77151  0.36513  0.23562  1.0000
  C   C13       1.0  0.36522  0.59167  0.25582  1.0000
  C   C14       1.0  0.40873  0.77305  0.25677  1.0000
  C   C15       1.0  0.23418  0.63704  0.29000  1.0000
  C   C16       1.0  0.65365  0.37378  0.24520  1.0000
  C   C17       1.0  0.63184  0.28503  0.24996  1.0000
  C   C18       1.0  0.71868  0.35104  0.24071  1.0000
  C   C19       1.0  0.31910  0.53922  0.21724  1.0000
  C   C20       1.0  0.45734  0.78314  0.24475  1.0000
  C   C21       1.0  0.22700  0.67858  0.30756  1.0000
  C   C22       1.0  0.70380  0.38765  0.24054  1.0000
  C   C23       1.0  0.61743  0.32201  0.24621  1.0000
  C   C24       1.0  0.68284  0.30017  0.24803  1.0000
  C   C25       1.0  0.67799  0.46338  0.23435  1.0000
  C   C26       1.0  0.54433  0.22232  0.26397  1.0000
  C   C27       1.0  0.77886  0.32329  0.22547  1.0000
  C   C28       1.0  0.41696  0.60421  0.27199  1.0000
  C   C29       1.0  0.39649  0.81066  0.25346  1.0000
  C   C30       1.0  0.19400  0.58676  0.27629  1.0000
  C   C31       1.0  0.43735  0.57233  0.25577  1.0000
  C   C32       1.0  0.49537  0.59869  0.28915  1.0000
  C   C33       1.0  0.52020  0.57200  0.28348  1.0000
  C   C34       1.0  0.48838  0.51723  0.24327  1.0000
  C   C35       1.0  0.42992  0.49097  0.20538  1.0000
  C   C36       1.0  0.40488  0.51739  0.21164  1.0000
  C   C37       1.0  0.51160  0.02885  0.24423  1.0000
  C   C38       1.0  0.56350  0.05503  0.23747  1.0000
  C   C39       1.0  0.59191  0.10779  0.24242  1.0000
  C   C40       1.0  0.56989  0.13783  0.25144  1.0000
  C   C41       1.0  0.51719  0.11153  0.25428  1.0000
  C   C42       1.0  0.48933  0.05884  0.25155  1.0000
  C   C43       1.0  0.32232  0.70163  0.78029  1.0000
  C   C44       1.0  0.30032  0.61378  0.77967  1.0000
  C   C45       1.0  0.38424  0.67882  0.76096  1.0000
  C   C46       1.0  0.58881  0.39751  0.76510  1.0000
  C   C47       1.0  0.60381  0.18960  0.75353  1.0000
  C   C48       1.0  0.80729  0.41315  0.73181  1.0000
  C   C49       1.0  0.28630  0.65059  0.78578  1.0000
  C   C50       1.0  0.34888  0.62733  0.76600  1.0000
  C   C51       1.0  0.37152  0.71632  0.76794  1.0000
  C   C52       1.0  0.63590  0.40888  0.75167  1.0000
  C   C53       1.0  0.59270  0.22763  0.75569  1.0000
  C   C54       1.0  0.77005  0.36401  0.73684  1.0000
  C   C55       1.0  0.36035  0.58706  0.74701  1.0000
  C   C56       1.0  0.40894  0.76978  0.75661  1.0000
  C   C57       1.0  0.23356  0.63636  0.79223  1.0000
  C   C58       1.0  0.65059  0.36988  0.74586  1.0000
  C   C59       1.0  0.63044  0.28165  0.74968  1.0000
  C   C60       1.0  0.71699  0.34896  0.74211  1.0000
  C   C61       1.0  0.31279  0.53493  0.70208  1.0000
  C   C62       1.0  0.45798  0.77936  0.74808  1.0000
  C   C63       1.0  0.22746  0.67845  0.81108  1.0000
  C   C64       1.0  0.70127  0.38488  0.74277  1.0000
  C   C65       1.0  0.61478  0.31773  0.74465  1.0000
  C   C66       1.0  0.68186  0.29782  0.74903  1.0000
  C   C67       1.0  0.67518  0.45962  0.74480  1.0000
  C   C68       1.0  0.54322  0.21747  0.76243  1.0000
  C   C69       1.0  0.77859  0.32289  0.72868  1.0000
  C   C70       1.0  0.41205  0.59875  0.76520  1.0000
  C   C71       1.0  0.39752  0.80793  0.75288  1.0000
  C   C72       1.0  0.19271  0.58650  0.77887  1.0000
  C   C73       1.0  0.43173  0.56629  0.74858  1.0000
  C   C74       1.0  0.42950  0.86223  0.75156  1.0000
  C   C75       1.0  0.48986  0.59214  0.78344  1.0000
  C   C76       1.0  0.40349  0.89067  0.73778  1.0000
  C   C77       1.0  0.51446  0.56504  0.77974  1.0000
  C   C78       1.0  0.43061  0.94308  0.73605  1.0000
  C   C79       1.0  0.48225  0.51030  0.73967  1.0000
  C   C80       1.0  0.48553  0.97049  0.74828  1.0000
  C   C81       1.0  0.42369  0.48449  0.70019  1.0000
  C   C82       1.0  0.51180  0.94207  0.76483  1.0000
  C   C83       1.0  0.39882  0.51136  0.70418  1.0000
  C   C84       1.0  0.48484  0.88961  0.76608  1.0000
  C   C85       1.0  0.50925  0.48169  0.74241  1.0000
  C   C86       1.0  0.96878  0.48603  0.73303  1.0000
  C   C87       1.0  0.48675  0.42980  0.76393  1.0000
  C   C88       1.0  0.93765  0.51082  0.70001  1.0000
  C   C89       1.0  0.51411  0.40410  0.77252  1.0000
  C   C90       1.0  0.88529  0.48605  0.69840  1.0000
  C   C91       1.0  0.56528  0.42853  0.76125  1.0000
  C   C92       1.0  0.86056  0.43484  0.72798  1.0000
  C   C93       1.0  0.58798  0.48059  0.74069  1.0000
  C   C94       1.0  0.89074  0.40937  0.75540  1.0000
  C   C95       1.0  0.56017  0.50593  0.73036  1.0000
  C   C96       1.0  0.94329  0.43457  0.75848  1.0000
  N   N1        1.0  0.27906  0.49713  0.18385  1.0000
  N   N2        1.0  0.49562  0.78888  0.23004  1.0000
  N   N3        1.0  0.22407  0.71458  0.32303  1.0000
  N   N4        1.0  0.71156  0.50330  0.22316  1.0000
  N   N5        1.0  0.50555  0.21757  0.27355  1.0000
  N   N6        1.0  0.78157  0.28702  0.21257  1.0000
  N   N7        1.0  0.27141  0.49315  0.66225  1.0000
  N   N8        1.0  0.49650  0.78469  0.73572  1.0000
  N   N9        1.0  0.22538  0.71485  0.82820  1.0000
  N   N10       1.0  0.70980  0.50001  0.73991  1.0000
  N   N11       1.0  0.50395  0.21179  0.77116  1.0000
  N   N12       1.0  0.78240  0.28714  0.71786  1.0000
  C   C97       1.0  0.59552  0.09366  0.75185  1.0000
  C   C98       1.0  0.57707  0.12786  0.74138  1.0000
  C  Sn1       1.0  0.52551  0.11103  0.74052  1.0000
  C  Sn2       1.0  0.49191  0.05898  0.75040  1.0000
  C   C99       1.0  0.01037  0.02509  0.76098  1.0000
  C   C100      1.0  0.06202  0.04233  0.76168  1.0000
  H   H49       1.0  0.63550  0.10701  0.75250  1.0000
  O  Te1       1.0  0.50769  0.14569  0.72992  1.0000
  O  Te2       1.0  0.93982  0.04115  0.74986  1.0000
  H   H50       1.0  0.07632  0.01585  0.76991  1.0000
  Mg  Mg1       1.0  0.43409  0.10307  0.73344  1.0000
  C   C101      1.0  0.49216  0.42443  0.26571  1.0000
  C   C102      1.0  0.51063  0.47647  0.26219  1.0000
  C  Sn3       1.0  0.55979  0.50891  0.24685  1.0000
  C  Sn4       1.0  0.59093  0.48876  0.23479  1.0000
  C   C103      1.0  0.57208  0.43663  0.23830  1.0000
  C   C104      1.0  0.52284  0.40452  0.25375  1.0000
  H   H51       1.0  0.45405  0.39957  0.27756  1.0000
  O  Te3       1.0  0.57765  0.56082  0.24361  1.0000
  O  Te4       1.0  0.64019  0.52032  0.21929  1.0000
  H   H52       1.0  0.50853  0.36422  0.25635  1.0000
  Mg  Mg2       1.0  0.64742  0.58843  0.22075  1.0000
  C   C105      1.0  0.40109  0.90525  0.23626  1.0000
  C   C106      1.0  0.41843  0.87079  0.23744  1.0000
  C  Sn5       1.0  0.47220  0.88876  0.25178  1.0000
  C  Sn6       1.0  0.50920  0.94223  0.26522  1.0000
  C   C107      1.0  0.49148  0.97639  0.26406  1.0000
  C   C108      1.0  0.43758  0.95800  0.24959  1.0000
  H   H53       1.0  0.35941  0.89102  0.22517  1.0000
  O  Te5       1.0  0.48884  0.85381  0.25268  1.0000
  O  Te6       1.0  0.56318  0.96124  0.27977  1.0000
  H   H54       1.0  0.42418  0.98469  0.24880  1.0000
  Mg  Mg3       1.0  0.56649  0.89838  0.27504  1.0000
  C   C109      1.0  0.92723  0.51091  0.19231  1.0000
  C   C110      1.0  0.96538  0.49372  0.23216  1.0000
  C  Sn7       1.0  0.95062  0.44388  0.26548  1.0000
  C  Sn8       1.0  0.89663  0.41073  0.25862  1.0000
  C   C111      1.0  0.85874  0.42828  0.21850  1.0000
  C   C112      1.0  0.87395  0.47823  0.18545  1.0000
  H   H55       1.0  0.93898  0.54955  0.16663  1.0000
  O  Te7       1.0  0.98926  0.42733  0.30516  1.0000
  O  Te8       1.0  0.88077  0.36073  0.29129  1.0000
  H   H56       1.0  0.84438  0.49152  0.15447  1.0000
  Mg  Mg4       1.0  0.94809  0.35587  0.33977  1.0000
  C   C113      1.0  0.05997  0.48407  0.72210  1.0000
  C   C114      1.0  0.03236  0.50480  0.75036  1.0000
  C  Sn9       1.0  0.05784  0.55846  0.78657  1.0000
  C  Sn10      1.0  0.11198  0.59188  0.79450  1.0000
  C   C115      1.0  0.13923  0.57075  0.76590  1.0000
  C   C116      1.0  0.11335  0.51700  0.72982  1.0000
  H   H57       1.0  0.03994  0.44248  0.69408  1.0000
  O  Te9       1.0  0.02967  0.57853  0.81454  1.0000
  O  Te10      1.0  0.13840  0.64565  0.83038  1.0000
  H   H58       1.0  0.13473  0.50096  0.70783  1.0000
  Mg  Mg5       1.0  0.08305  0.65443  0.85912  1.0000
  C   C117      1.0  0.10464  0.59287  0.29152  1.0000
  C   C118      1.0  0.13602  0.57282  0.28646  1.0000
  C  Sn11      1.0  0.11120  0.51925  0.25233  1.0000
  C  Sn12      1.0  0.05389  0.48521  0.22271  1.0000
  C   C119      1.0  0.02284  0.50565  0.22791  1.0000
  C   C120      1.0  0.04810  0.55932  0.26225  1.0000
  H   H59       1.0  0.12417  0.63439  0.31798  1.0000
  O  Te11      1.0  0.14317  0.49989  0.24781  1.0000
  O  Te12      1.0  0.02803  0.43151  0.18823  1.0000
  H   H60       1.0  0.02378  0.57482  0.26603  1.0000
  Mg  Mg6       1.0  0.08911  0.42379  0.19572  1.0000
