data_image0
_chemical_formula_structural       H24C60N12SnCSn2CSnTe4Mg2SnCSn2CSnTe4Mg2SnCSn2CSnTe4Mg2SnCSn2CSnTe4Mg2SnCSn2CSnTe4Mg2SnCSn2CSnTe4Mg2SnCSn2CSnTe4Mg2SnCSn2CSnTe4Mg2SnCSn2CSnTe4Mg2SnCSn2CSnTe4Mg2SnCSn2CSnTe4Mg2SnCSn2CSnTe4Mg2
_chemical_formula_sum              "H24 C84 N12 Sn48 Te48 Mg24"
_cell_length_a       30.7915
_cell_length_b       30.5704
_cell_length_c       8.15736
_cell_angle_alpha    84.3748
_cell_angle_beta     121.342
_cell_angle_gamma    120.213

_symmetry_space_group_name_H-M    'P1'
_space_group_IT_number       1

loop_
  _space_group_symop_operation_xyz
  'x, y, z'

loop_
  _atom_site_type_symbol
  _atom_site_label
  _atom_site_symmetry_multiplicity
  _atom_site_fract_x
  _atom_site_fract_y
  _atom_site_fract_z
  _atom_site_occupancy
  H   H1        1.0  0.30983  0.73073  0.27984  1.0000
  H   H2        1.0  0.27651  0.57653  0.28651  1.0000
  H   H3        1.0  0.42427  0.69475  0.25211  1.0000
  H   H4        1.0  0.44938  0.64566  0.30476  1.0000
  H   H5        1.0  0.35695  0.79832  0.25580  1.0000
  H   H6        1.0  0.20330  0.55787  0.26124  1.0000
  H   H7        1.0  0.56890  0.36437  0.28468  1.0000
  H   H8        1.0  0.64210  0.20374  0.24976  1.0000
  H   H9        1.0  0.79820  0.44266  0.23121  1.0000
  H   H10       1.0  0.73106  0.42745  0.23618  1.0000
  H   H11       1.0  0.57786  0.30998  0.24745  1.0000
  H   H12       1.0  0.69547  0.27248  0.25295  1.0000
  H   H13       1.0  0.31106  0.72977  0.78428  1.0000
  H   H14       1.0  0.27350  0.57402  0.78544  1.0000
  H   H15       1.0  0.42056  0.68986  0.74204  1.0000
  H   H16       1.0  0.44524  0.64010  0.80168  1.0000
  H   H17       1.0  0.35752  0.79606  0.75166  1.0000
  H   H18       1.0  0.20151  0.55721  0.76437  1.0000
  H   H19       1.0  0.56349  0.35785  0.77698  1.0000
  H   H20       1.0  0.64323  0.20171  0.75048  1.0000
  H   H21       1.0  0.79508  0.44111  0.72942  1.0000
  H   H22       1.0  0.72839  0.42508  0.74109  1.0000
  H   H23       1.0  0.57464  0.30465  0.74344  1.0000
  H   H24       1.0  0.69557  0.27090  0.75508  1.0000
  C   C1        1.0  0.32262  0.70356  0.27920  1.0000
  C   C2        1.0  0.30283  0.61645  0.28141  1.0000
  C   C3        1.0  0.38707  0.68288  0.26718  1.0000
  C   C4        1.0  0.59382  0.40340  0.26736  1.0000
  C   C5        1.0  0.60300  0.19236  0.25384  1.0000
  C   C6        1.0  0.80957  0.41413  0.23233  1.0000
  C   C7        1.0  0.28739  0.65235  0.28484  1.0000
  C   C8        1.0  0.35228  0.63112  0.27152  1.0000
  C   C9        1.0  0.37257  0.71939  0.26980  1.0000
  C   C10       1.0  0.63972  0.41347  0.24926  1.0000
  C   C11       1.0  0.59327  0.23129  0.25651  1.0000
  C   C12       1.0  0.77151  0.36513  0.23562  1.0000
  C   C13       1.0  0.36522  0.59167  0.25582  1.0000
  C   C14       1.0  0.40873  0.77305  0.25677  1.0000
  C   C15       1.0  0.23418  0.63704  0.29000  1.0000
  C   C16       1.0  0.65365  0.37378  0.24520  1.0000
  C   C17       1.0  0.63184  0.28503  0.24996  1.0000
  C   C18       1.0  0.71868  0.35104  0.24071  1.0000
  C   C19       1.0  0.31910  0.53922  0.21724  1.0000
  C   C20       1.0  0.45734  0.78314  0.24475  1.0000
  C   C21       1.0  0.22700  0.67858  0.30756  1.0000
  C   C22       1.0  0.70380  0.38765  0.24054  1.0000
  C   C23       1.0  0.61743  0.32201  0.24621  1.0000
  C   C24       1.0  0.68284  0.30017  0.24803  1.0000
  C   C25       1.0  0.67799  0.46338  0.23435  1.0000
  C   C26       1.0  0.54433  0.22232  0.26397  1.0000
  C   C27       1.0  0.77886  0.32329  0.22547  1.0000
  C   C28       1.0  0.41696  0.60421  0.27199  1.0000
  C   C29       1.0  0.39649  0.81066  0.25346  1.0000
  C   C30       1.0  0.19400  0.58676  0.27629  1.0000
  C   C31       1.0  0.32232  0.70163  0.78029  1.0000
  C   C32       1.0  0.30032  0.61378  0.77967  1.0000
  C   C33       1.0  0.38424  0.67882  0.76096  1.0000
  C   C34       1.0  0.58881  0.39751  0.76510  1.0000
  C   C35       1.0  0.60381  0.18960  0.75353  1.0000
  C   C36       1.0  0.80729  0.41315  0.73181  1.0000
  C   C37       1.0  0.28630  0.65059  0.78578  1.0000
  C   C38       1.0  0.34888  0.62733  0.76600  1.0000
  C   C39       1.0  0.37152  0.71632  0.76794  1.0000
  C   C40       1.0  0.63590  0.40888  0.75167  1.0000
  C   C41       1.0  0.59270  0.22763  0.75569  1.0000
  C   C42       1.0  0.77005  0.36401  0.73684  1.0000
  C   C43       1.0  0.36035  0.58706  0.74701  1.0000
  C   C44       1.0  0.40894  0.76978  0.75661  1.0000
  C   C45       1.0  0.23356  0.63636  0.79223  1.0000
  C   C46       1.0  0.65059  0.36988  0.74586  1.0000
  C   C47       1.0  0.63044  0.28165  0.74968  1.0000
  C   C48       1.0  0.71699  0.34896  0.74211  1.0000
  C   C49       1.0  0.31279  0.53493  0.70208  1.0000
  C   C50       1.0  0.45798  0.77936  0.74808  1.0000
  C   C51       1.0  0.22746  0.67845  0.81108  1.0000
  C   C52       1.0  0.70127  0.38488  0.74277  1.0000
  C   C53       1.0  0.61478  0.31773  0.74465  1.0000
  C   C54       1.0  0.68186  0.29782  0.74903  1.0000
  C   C55       1.0  0.67518  0.45962  0.74480  1.0000
  C   C56       1.0  0.54322  0.21747  0.76243  1.0000
  C   C57       1.0  0.77859  0.32289  0.72868  1.0000
  C   C58       1.0  0.41205  0.59875  0.76520  1.0000
  C   C59       1.0  0.39752  0.80793  0.75288  1.0000
  C   C60       1.0  0.19271  0.58650  0.77887  1.0000
  N   N1        1.0  0.27906  0.49713  0.18385  1.0000
  N   N2        1.0  0.49562  0.78888  0.23004  1.0000
  N   N3        1.0  0.22407  0.71458  0.32303  1.0000
  N   N4        1.0  0.71156  0.50330  0.22316  1.0000
  N   N5        1.0  0.50555  0.21757  0.27355  1.0000
  N   N6        1.0  0.78157  0.28702  0.21257  1.0000
  N   N7        1.0  0.27141  0.49315  0.66225  1.0000
  N   N8        1.0  0.49650  0.78469  0.73572  1.0000
  N   N9        1.0  0.22538  0.71485  0.82820  1.0000
  N   N10       1.0  0.70980  0.50001  0.73991  1.0000
  N   N11       1.0  0.50395  0.21179  0.77116  1.0000
  N   N12       1.0  0.78240  0.28714  0.71786  1.0000
  C  Sn1       1.0  0.41352  0.50859  0.26486  1.0000
  C   C61       1.0  0.43834  0.56215  0.30143  1.0000
  C  Sn2       1.0  0.48832  0.59591  0.29179  1.0000
  C  Sn3       1.0  0.51401  0.57572  0.24448  1.0000
  C   C62       1.0  0.48920  0.52219  0.20791  1.0000
  C  Sn4       1.0  0.43922  0.48840  0.21755  1.0000
  O  Te1       1.0  0.36355  0.47556  0.27531  1.0000
  O  Te2       1.0  0.51235  0.64931  0.32900  1.0000
  O  Te3       1.0  0.56402  0.60880  0.23406  1.0000
  O  Te4       1.0  0.41519  0.43503  0.18034  1.0000
  Mg  Mg1       1.0  0.58057  0.67856  0.29676  1.0000
  Mg  Mg2       1.0  0.34695  0.40575  0.21243  1.0000
  C  Sn5       1.0  0.50049  0.90743  0.32412  1.0000
  C   C63       1.0  0.44550  0.87399  0.30526  1.0000
  C  Sn6       1.0  0.40354  0.88843  0.23680  1.0000
  C  Sn7       1.0  0.41679  0.93731  0.18600  1.0000
  C   C64       1.0  0.47174  0.97072  0.20483  1.0000
  C  Sn8       1.0  0.51374  0.95631  0.27332  1.0000
  O  Te5       1.0  0.54176  0.89219  0.39285  1.0000
  O  Te6       1.0  0.34889  0.85435  0.21925  1.0000
  O  Te7       1.0  0.37546  0.95253  0.11722  1.0000
  O  Te8       1.0  0.56836  0.99036  0.29083  1.0000
  Mg  Mg3       1.0  0.30721  0.89266  0.11871  1.0000
  Mg  Mg4       1.0  0.61005  0.95209  0.39126  1.0000
  C  Sn9       1.0  0.11483  0.59083  0.35317  1.0000
  C   C65       1.0  0.14230  0.56949  0.32732  1.0000
  C  Sn10      1.0  0.10997  0.51687  0.24185  1.0000
  C  Sn11      1.0  0.04889  0.48490  0.18081  1.0000
  C   C66       1.0  0.02144  0.50624  0.20663  1.0000
  C  Sn12      1.0  0.05375  0.55886  0.29213  1.0000
  O  Te9       1.0  0.14802  0.64354  0.43894  1.0000
  O  Te10      1.0  0.13841  0.49642  0.21760  1.0000
  O  Te11      1.0  0.01571  0.43215  0.09499  1.0000
  O  Te12      1.0  0.02534  0.57931  0.31635  1.0000
  Mg  Mg5       1.0  0.07431  0.42237  0.09317  1.0000
  Mg  Mg6       1.0  0.08938  0.65336  0.44067  1.0000
  C  Sn13      1.0  0.56427  0.50498  0.17407  1.0000
  C   C67       1.0  0.51483  0.48730  0.18734  1.0000
  C  Sn14      1.0  0.49498  0.44309  0.26086  1.0000
  C  Sn15      1.0  0.52519  0.41599  0.32253  1.0000
  C   C68       1.0  0.57460  0.43367  0.30928  1.0000
  C  Sn16      1.0  0.59448  0.47788  0.23574  1.0000
  O  Te13      1.0  0.58334  0.54927  0.10011  1.0000
  O  Te14      1.0  0.44544  0.42615  0.27266  1.0000
  O  Te15      1.0  0.50607  0.37167  0.39652  1.0000
  O  Te16      1.0  0.64399  0.49482  0.22397  1.0000
  Mg  Mg7       1.0  0.43648  0.36384  0.38381  1.0000
  Mg  Mg8       1.0  0.65301  0.55714  0.11293  1.0000
  C  Sn17      1.0  0.58267  0.06919  0.29784  1.0000
  C   C69       1.0  0.53000  0.03708  0.29462  1.0000
  C  Sn18      1.0  0.49138  0.05392  0.25196  1.0000
  C  Sn19      1.0  0.50567  0.10389  0.21156  1.0000
  C   C70       1.0  0.55831  0.13597  0.21476  1.0000
  C  Sn20      1.0  0.59697  0.11917  0.25744  1.0000
  O  Te17      1.0  0.62063  0.05155  0.34083  1.0000
  O  Te18      1.0  0.43899  0.02113  0.24968  1.0000
  O  Te19      1.0  0.46766  0.12152  0.16855  1.0000
  O  Te20      1.0  0.64932  0.15192  0.25970  1.0000
  Mg  Mg9       1.0  0.40156  0.06265  0.18307  1.0000
  Mg  Mg10      1.0  0.68676  0.11044  0.32618  1.0000
  C  Sn21      1.0  0.91361  0.41717  0.31792  1.0000
  C   C71       1.0  0.87692  0.43574  0.28197  1.0000
  C  Sn22      1.0  0.88331  0.47918  0.19982  1.0000
  C  Sn23      1.0  0.92727  0.50458  0.15248  1.0000
  C   C72       1.0  0.96393  0.48601  0.18839  1.0000
  C  Sn24      1.0  0.95758  0.44257  0.27058  1.0000
  O  Te21      1.0  0.90643  0.37368  0.40014  1.0000
  O  Te22      1.0  0.84611  0.49703  0.16530  1.0000
  O  Te23      1.0  0.93442  0.54811  0.07020  1.0000
  O  Te24      1.0  0.99473  0.42472  0.30506  1.0000
  Mg  Mg11      1.0  0.87307  0.55771  0.05078  1.0000
  Mg  Mg12      1.0  0.96779  0.36403  0.41947  1.0000
  C  Sn25      1.0  0.49206  0.58928  0.72820  1.0000
  C   C73       1.0  0.43582  0.56985  0.69712  1.0000
  C  Sn26      1.0  0.40190  0.51835  0.70256  1.0000
  C  Sn27      1.0  0.42466  0.48559  0.73998  1.0000
  C   C74       1.0  0.48087  0.50503  0.77106  1.0000
  C  Sn28      1.0  0.51482  0.55652  0.76561  1.0000
  O  Te25      1.0  0.52520  0.64090  0.72210  1.0000
  O  Te26      1.0  0.34579  0.49981  0.67098  1.0000
  O  Te27      1.0  0.39146  0.43395  0.74605  1.0000
  O  Te28      1.0  0.57090  0.57507  0.79720  1.0000
  Mg  Mg13      1.0  0.31751  0.42668  0.69402  1.0000
  Mg  Mg14      1.0  0.59922  0.64820  0.77431  1.0000
  C  Sn29      1.0  0.39713  0.89819  0.67673  1.0000
  C   C75       1.0  0.41788  0.86529  0.69662  1.0000
  C  Sn30      1.0  0.47775  0.88582  0.76270  1.0000
  C  Sn31      1.0  0.51773  0.94038  0.81001  1.0000
  C   C76       1.0  0.49698  0.97324  0.79015  1.0000
  C  Sn32      1.0  0.43711  0.95274  0.72404  1.0000
  O  Te29      1.0  0.33709  0.87681  0.61041  1.0000
  O  Te30      1.0  0.49745  0.85215  0.78134  1.0000
  O  Te31      1.0  0.57781  0.96174  0.87636  1.0000
  O  Te32      1.0  0.41741  0.98638  0.70543  1.0000
  Mg  Mg15      1.0  0.58333  0.89992  0.87761  1.0000
  Mg  Mg16      1.0  0.33156  0.93866  0.60927  1.0000
  C  Sn33      1.0  0.06400  0.57491  0.72553  1.0000
  C   C77       1.0  0.02570  0.52177  0.69929  1.0000
  C  Sn34      1.0  0.04565  0.48792  0.72633  1.0000
  C  Sn35      1.0  0.10515  0.50759  0.78085  1.0000
  C   C78       1.0  0.14342  0.56070  0.80709  1.0000
  C  Sn36      1.0  0.12350  0.59458  0.78005  1.0000
  O  Te33      1.0  0.04310  0.60803  0.69773  1.0000
  O  Te34      1.0  0.00652  0.43494  0.69919  1.0000
  O  Te35      1.0  0.12603  0.47441  0.80864  1.0000
  O  Te36      1.0  0.16259  0.64752  0.80719  1.0000
  Mg  Mg17      1.0  0.05586  0.40536  0.75440  1.0000
  Mg  Mg18      1.0  0.11331  0.67714  0.75213  1.0000
  C  Sn37      1.0  0.50052  0.42618  0.82585  1.0000
  C   C79       1.0  0.51590  0.47675  0.80172  1.0000
  C  Sn38      1.0  0.55385  0.50376  0.73469  1.0000
  C  Sn39      1.0  0.57688  0.47973  0.69074  1.0000
  C   C80       1.0  0.56150  0.42920  0.71485  1.0000
  C  Sn40      1.0  0.52356  0.40215  0.78190  1.0000
  O  Te37      1.0  0.46251  0.39990  0.89303  1.0000
  O  Te38      1.0  0.56860  0.55429  0.71179  1.0000
  O  Te39      1.0  0.61492  0.50606  0.62352  1.0000
  O  Te40      1.0  0.50880  0.35166  0.80477  1.0000
  Mg  Mg19      1.0  0.62197  0.57416  0.61595  1.0000
  Mg  Mg20      1.0  0.45540  0.33174  0.90050  1.0000
  C  Sn41      1.0  0.51919  0.10041  0.80783  1.0000
  C   C81       1.0  0.57014  0.13228  0.80120  1.0000
  C  Sn42      1.0  0.59258  0.11055  0.74700  1.0000
  C  Sn43      1.0  0.56346  0.05581  0.69829  1.0000
  C   C82       1.0  0.01213  0.02397  0.70489  1.0000
  C  Sn44      1.0  0.49007  0.04567  0.75911  1.0000
  O  Te41      1.0  0.49754  0.12298  0.86240  1.0000
  O  Te42      1.0  0.64359  0.14321  0.74151  1.0000
  O  Te43      1.0  0.08475  0.03326  0.64369  1.0000
  O  Te44      1.0  0.93868  0.01304  0.76458  1.0000
  Mg  Mg21      1.0  0.65597  0.09400  0.65809  1.0000
  Mg  Mg22      1.0  0.42665  0.06221  0.84788  1.0000
  C  Sn45      1.0  0.92265  0.42078  0.70097  1.0000
  C   C83       1.0  0.95408  0.47142  0.68264  1.0000
  C  Sn46      1.0  0.94146  0.50792  0.70139  1.0000
  C  Sn47      1.0  0.89651  0.49352  0.73937  1.0000
  C   C84       1.0  0.86512  0.44291  0.75772  1.0000
  C  Sn48      1.0  0.87770  0.40637  0.73896  1.0000
  O  Te45      1.0  0.93602  0.38493  0.68170  1.0000
  O  Te46      1.0  0.97347  0.55831  0.68240  1.0000
  O  Te47      1.0  0.88316  0.52942  0.75864  1.0000
  O  Te48      1.0  0.84574  0.35602  0.75796  1.0000
  Mg  Mg23      1.0  0.93899  0.59327  0.72078  1.0000
  Mg  Mg24      1.0  0.88019  0.32104  0.71970  1.0000
