data_image0
_chemical_formula_structural       Zn4H40C88N24C2Sn2C2HTe2HMgC2Sn2C2HTe2HMgC2Sn2C2HTe2HMgC2Sn2C2HTe2HMgC2Sn2C2HTe2HMgC2Sn2C2HTe2HMgC2Sn2C2HTe2HMgC2Sn2C2HTe2HMgC2Sn2C2HTe2HMgC2Sn2C2HTe2HMgC2Sn2C2HTe2HMgC2Sn2C2HTe2HMgC2Sn2C2HTe2HMgC2Sn2C2HTe2HMgC2Sn2C2HTe2HMgC2Sn2C2HTe2HMg
_chemical_formula_sum              "Zn4 H72 C152 N24 Sn32 Te32 Mg16"
_cell_length_a       27.2482
_cell_length_b       27.017
_cell_length_c       10.235
_cell_angle_alpha    94.0563
_cell_angle_beta     91.9237
_cell_angle_gamma    89.9879

_symmetry_space_group_name_H-M    'P1'
_space_group_IT_number       1

loop_
  _space_group_symop_operation_xyz
  'x, y, z'

loop_
  _atom_site_type_symbol
  _atom_site_label
  _atom_site_symmetry_multiplicity
  _atom_site_fract_x
  _atom_site_fract_y
  _atom_site_fract_z
  _atom_site_occupancy
  Zn  Zn1       1.0  0.49930  0.49912  0.21761  1.0000
  Zn  Zn2       1.0  0.99905  0.99944  0.22845  1.0000
  Zn  Zn3       1.0  0.49977  0.50072  0.71096  1.0000
  Zn  Zn4       1.0  0.99967  0.00121  0.73847  1.0000
  H   H1        1.0  0.71952  0.22476  0.37570  1.0000
  H   H2        1.0  0.27599  0.77566  0.37301  1.0000
  H   H3        1.0  0.77952  0.72118  0.35412  1.0000
  H   H4        1.0  0.21565  0.29162  0.34677  1.0000
  H   H5        1.0  0.30666  0.47199  0.20968  1.0000
  H   H6        1.0  0.69134  0.52655  0.21434  1.0000
  H   H7        1.0  0.52595  0.30575  0.23449  1.0000
  H   H8        1.0  0.47177  0.69344  0.23428  1.0000
  H   H9        1.0  0.31810  0.57077  0.21456  1.0000
  H   H10       1.0  0.68022  0.42890  0.23262  1.0000
  H   H11       1.0  0.42846  0.31789  0.24067  1.0000
  H   H12       1.0  0.56964  0.68212  0.23780  1.0000
  H   H13       1.0  0.94483  0.18784  0.26491  1.0000
  H   H14       1.0  0.05502  0.81234  0.22909  1.0000
  H   H15       1.0  0.81301  0.94368  0.20954  1.0000
  H   H16       1.0  0.18559  0.05559  0.22513  1.0000
  H   H17       1.0  0.04266  0.19117  0.24932  1.0000
  H   H18       1.0  0.95660  0.80842  0.21568  1.0000
  H   H19       1.0  0.81000  0.04278  0.20896  1.0000
  H   H20       1.0  0.18875  0.95623  0.21993  1.0000
  H   H21       1.0  0.71546  0.22153  0.86908  1.0000
  H   H22       1.0  0.28632  0.78633  0.85712  1.0000
  H   H23       1.0  0.77464  0.72817  0.86191  1.0000
  H   H24       1.0  0.22738  0.28324  0.86870  1.0000
  H   H25       1.0  0.30765  0.47258  0.72691  1.0000
  H   H26       1.0  0.69202  0.52852  0.73208  1.0000
  H   H27       1.0  0.52704  0.30619  0.69939  1.0000
  H   H28       1.0  0.47196  0.69426  0.71615  1.0000
  H   H29       1.0  0.31857  0.57133  0.73441  1.0000
  H   H30       1.0  0.68071  0.43051  0.74342  1.0000
  H   H31       1.0  0.42940  0.31776  0.70860  1.0000
  H   H32       1.0  0.56973  0.68308  0.72095  1.0000
  H   H33       1.0  0.94318  0.18838  0.74198  1.0000
  H   H34       1.0  0.05696  0.81348  0.71948  1.0000
  H   H35       1.0  0.81419  0.94373  0.74092  1.0000
  H   H36       1.0  0.18567  0.05883  0.74556  1.0000
  H   H37       1.0  0.04112  0.19248  0.73319  1.0000
  H   H38       1.0  0.95876  0.80895  0.71077  1.0000
  H   H39       1.0  0.81032  0.04249  0.73215  1.0000
  H   H40       1.0  0.18970  0.95935  0.73678  1.0000
  C   C1        1.0  0.72040  0.24223  0.28183  1.0000
  C   C2        1.0  0.27782  0.75852  0.27242  1.0000
  C   C3        1.0  0.75888  0.72038  0.25976  1.0000
  C   C4        1.0  0.23866  0.28297  0.26190  1.0000
  C   C5        1.0  0.08657  0.09363  0.22845  1.0000
  C   C6        1.0  0.91212  0.90565  0.21767  1.0000
  C   C7        1.0  0.90655  0.08784  0.23486  1.0000
  C   C8        1.0  0.09234  0.91201  0.22590  1.0000
  C   C9        1.0  0.41999  0.60035  0.22122  1.0000
  C   C10       1.0  0.57825  0.39875  0.22822  1.0000
  C   C11       1.0  0.39918  0.42004  0.22333  1.0000
  C   C12       1.0  0.59893  0.57911  0.21852  1.0000
  C   C13       1.0  0.39873  0.55265  0.21661  1.0000
  C   C14       1.0  0.59940  0.44631  0.22353  1.0000
  C   C15       1.0  0.44644  0.39870  0.22705  1.0000
  C   C16       1.0  0.55167  0.60051  0.22104  1.0000
  C   C17       1.0  0.38936  0.47113  0.21787  1.0000
  C   C18       1.0  0.60869  0.52779  0.21712  1.0000
  C   C19       1.0  0.52738  0.38894  0.22883  1.0000
  C   C20       1.0  0.47082  0.60999  0.22329  1.0000
  C   C21       1.0  0.34078  0.49258  0.21322  1.0000
  C   C22       1.0  0.65724  0.50629  0.21819  1.0000
  C   C23       1.0  0.50582  0.34024  0.23322  1.0000
  C   C24       1.0  0.49218  0.65904  0.23002  1.0000
  C   C25       1.0  0.34657  0.54286  0.21482  1.0000
  C   C26       1.0  0.65155  0.45634  0.22570  1.0000
  C   C27       1.0  0.45606  0.34637  0.23500  1.0000
  C   C28       1.0  0.54200  0.65325  0.23093  1.0000
  C   C29       1.0  0.89235  0.03738  0.22619  1.0000
  C   C30       1.0  0.10639  0.96227  0.22617  1.0000
  C   C31       1.0  0.96202  0.89169  0.22246  1.0000
  C   C32       1.0  0.03690  0.10777  0.23756  1.0000
  C   C33       1.0  0.95556  0.10504  0.24252  1.0000
  C   C34       1.0  0.04352  0.89476  0.22687  1.0000
  C   C35       1.0  0.89497  0.95502  0.21931  1.0000
  C   C36       1.0  0.10368  0.04429  0.22571  1.0000
  C   C37       1.0  0.96975  0.15676  0.25399  1.0000
  C   C38       1.0  0.02972  0.84313  0.22628  1.0000
  C   C39       1.0  0.84383  0.96906  0.21405  1.0000
  C   C40       1.0  0.15486  0.03019  0.22436  1.0000
  C   C41       1.0  0.01970  0.15845  0.24730  1.0000
  C   C42       1.0  0.97956  0.84117  0.22072  1.0000
  C   C43       1.0  0.84226  0.01965  0.21511  1.0000
  C   C44       1.0  0.15649  0.97959  0.22256  1.0000
  C   C45       1.0  0.71932  0.24155  0.77998  1.0000
  C   C46       1.0  0.28131  0.76238  0.76620  1.0000
  C   C47       1.0  0.75700  0.72398  0.76337  1.0000
  C   C48       1.0  0.24190  0.28185  0.76937  1.0000
  C   C49       1.0  0.08644  0.09584  0.73702  1.0000
  C   C50       1.0  0.91344  0.90600  0.72949  1.0000
  C   C51       1.0  0.90628  0.08791  0.73633  1.0000
  C   C52       1.0  0.09350  0.91412  0.73125  1.0000
  C   C53       1.0  0.42029  0.60108  0.72017  1.0000
  C   C54       1.0  0.57909  0.39966  0.71743  1.0000
  C   C55       1.0  0.40007  0.42054  0.71748  1.0000
  C   C56       1.0  0.59937  0.58032  0.71791  1.0000
  C   C57       1.0  0.39918  0.55341  0.72073  1.0000
  C   C58       1.0  0.60009  0.44754  0.72101  1.0000
  C   C59       1.0  0.44725  0.39915  0.71093  1.0000
  C   C60       1.0  0.55203  0.60158  0.71478  1.0000
  C   C61       1.0  0.39014  0.47179  0.71995  1.0000
  C   C62       1.0  0.60931  0.52915  0.71974  1.0000
  C   C63       1.0  0.52817  0.38974  0.71023  1.0000
  C   C64       1.0  0.47105  0.61091  0.71634  1.0000
  C   C65       1.0  0.34161  0.49325  0.72547  1.0000
  C   C66       1.0  0.65789  0.50795  0.72857  1.0000
  C   C67       1.0  0.50677  0.34067  0.70476  1.0000
  C   C68       1.0  0.49231  0.65987  0.71630  1.0000
  C   C69       1.0  0.34720  0.54358  0.72825  1.0000
  C   C70       1.0  0.65216  0.45789  0.73307  1.0000
  C   C71       1.0  0.45699  0.34651  0.70787  1.0000
  C   C72       1.0  0.54217  0.65420  0.71780  1.0000
  C   C73       1.0  0.89270  0.03753  0.73727  1.0000
  C   C74       1.0  0.10717  0.96462  0.73780  1.0000
  C   C75       1.0  0.96347  0.89243  0.72808  1.0000
  C   C76       1.0  0.03643  0.10944  0.73816  1.0000
  C   C77       1.0  0.95501  0.10578  0.73834  1.0000
  C   C78       1.0  0.04486  0.89619  0.72932  1.0000
  C   C79       1.0  0.89603  0.95532  0.73581  1.0000
  C   C80       1.0  0.10391  0.04674  0.74012  1.0000
  C   C81       1.0  0.96849  0.15755  0.73931  1.0000
  C   C82       1.0  0.03150  0.84427  0.72210  1.0000
  C   C83       1.0  0.84480  0.96909  0.73798  1.0000
  C   C84       1.0  0.15519  0.03306  0.74236  1.0000
  C   C85       1.0  0.01851  0.15970  0.73596  1.0000
  C   C86       1.0  0.98137  0.84197  0.71858  1.0000
  C   C87       1.0  0.84276  0.01953  0.73525  1.0000
  C   C88       1.0  0.15722  0.98244  0.73868  1.0000
  N   N1        1.0  0.24722  0.76889  0.17895  1.0000
  N   N2        1.0  0.75320  0.23185  0.19549  1.0000
  N   N3        1.0  0.23236  0.24391  0.18237  1.0000
  N   N4        1.0  0.76751  0.75037  0.16991  1.0000
  N   N5        1.0  0.42416  0.50834  0.21772  1.0000
  N   N6        1.0  0.57397  0.49048  0.21851  1.0000
  N   N7        1.0  0.49046  0.42400  0.22440  1.0000
  N   N8        1.0  0.50774  0.57481  0.21775  1.0000
  N   N9        1.0  0.99717  0.07578  0.23581  1.0000
  N   N10       1.0  0.00169  0.92375  0.22636  1.0000
  N   N11       1.0  0.92388  0.99729  0.22728  1.0000
  N   N12       1.0  0.07477  0.00231  0.22758  1.0000
  N   N13       1.0  0.24585  0.76804  0.68122  1.0000
  N   N14       1.0  0.75387  0.23269  0.69777  1.0000
  N   N15       1.0  0.22798  0.24901  0.67753  1.0000
  N   N16       1.0  0.76822  0.75147  0.67009  1.0000
  N   N17       1.0  0.42468  0.50912  0.71637  1.0000
  N   N18       1.0  0.57462  0.49163  0.71465  1.0000
  N   N19       1.0  0.49117  0.42486  0.71114  1.0000
  N   N20       1.0  0.50812  0.57589  0.71356  1.0000
  N   N21       1.0  0.99706  0.07715  0.73910  1.0000
  N   N22       1.0  0.00284  0.92490  0.73383  1.0000
  N   N23       1.0  0.92460  0.99773  0.73764  1.0000
  N   N24       1.0  0.07527  0.00447  0.73945  1.0000
  C   C89       1.0  0.81000  0.83410  0.08228  1.0000
  C   C90       1.0  0.80540  0.79429  0.16108  1.0000
  C  Sn1       1.0  0.83593  0.79106  0.27257  1.0000
  C  Sn2       1.0  0.87167  0.82845  0.30557  1.0000
  C   C91       1.0  0.87595  0.86816  0.22615  1.0000
  C   C92       1.0  0.84523  0.87101  0.11478  1.0000
  H   H41       1.0  0.79881  0.86313  0.99615  1.0000
  O  Te1       1.0  0.83086  0.75101  0.35019  1.0000
  O  Te2       1.0  0.90264  0.82615  0.41648  1.0000
  H   H42       1.0  0.84877  0.90186  0.05384  1.0000
  Mg  Mg1       1.0  0.88161  0.76429  0.49142  1.0000
  C   C93       1.0  0.18504  0.15745  0.09132  1.0000
  C   C94       1.0  0.19371  0.20021  0.17390  1.0000
  C  Sn3       1.0  0.16750  0.20857  0.28834  1.0000
  C  Sn4       1.0  0.13198  0.17341  0.32047  1.0000
  C   C95       1.0  0.12360  0.13074  0.23726  1.0000
  C   C96       1.0  0.15003  0.12274  0.12296  1.0000
  H   H43       1.0  0.20550  0.15125  0.00292  1.0000
  O  Te3       1.0  0.17660  0.25149  0.36972  1.0000
  O  Te4       1.0  0.10527  0.18084  0.43427  1.0000
  H   H44       1.0  0.14333  0.08962  0.05909  1.0000
  Mg  Mg2       1.0  0.13083  0.24505  0.51390  1.0000
  C   C97       1.0  0.18184  0.86943  0.33082  1.0000
  C   C98       1.0  0.14261  0.87639  0.24257  1.0000
  C  Sn5       1.0  0.13608  0.84449  0.12981  1.0000
  C  Sn6       1.0  0.16950  0.80490  0.10524  1.0000
  C   C99       1.0  0.20860  0.79822  0.19419  1.0000
  C   C100      1.0  0.21480  0.83038  0.30669  1.0000
  H   H45       1.0  0.18662  0.89429  0.41790  1.0000
  O  Te5       1.0  0.09671  0.85199  0.04264  1.0000
  O  Te6       1.0  0.17643  0.79924  0.99334  1.0000
  H   H46       1.0  0.24516  0.82495  0.37504  1.0000
  Mg  Mg3       1.0  0.11705  0.82472  0.90382  1.0000
  C   C101      1.0  0.84165  0.19162  0.11910  1.0000
  C   C102      1.0  0.79869  0.19578  0.18989  1.0000
  C  Sn7       1.0  0.79077  0.16459  0.29037  1.0000
  C  Sn8       1.0  0.82659  0.12861  0.32033  1.0000
  C   C103      1.0  0.86946  0.12476  0.24899  1.0000
  C   C104      1.0  0.87700  0.15616  0.14861  1.0000
  H   H47       1.0  0.84750  0.21592  0.04148  1.0000
  O  Te7       1.0  0.74765  0.16923  0.36010  1.0000
  O  Te8       1.0  0.81962  0.09697  0.42029  1.0000
  H   H48       1.0  0.91028  0.15295  0.09387  1.0000
  Mg  Mg4       1.0  0.75490  0.11761  0.48748  1.0000
  C   C105      1.0  0.29147  0.37006  0.35315  1.0000
  C   C106      1.0  0.27637  0.33068  0.26508  1.0000
  C  Sn9       1.0  0.30401  0.31733  0.15560  1.0000
  C  Sn10      1.0  0.34755  0.34396  0.13417  1.0000
  C   C107      1.0  0.36235  0.38327  0.22291  1.0000
  C   C108      1.0  0.33442  0.39632  0.33212  1.0000
  H   H49       1.0  0.26987  0.38015  0.43769  1.0000
  O  Te9       1.0  0.28839  0.27791  0.06856  1.0000
  O  Te10      1.0  0.37587  0.33138  0.02558  1.0000
  H   H50       1.0  0.34613  0.42679  0.40034  1.0000
  Mg  Mg5       1.0  0.35201  0.30164  0.93487  1.0000
  C   C109      1.0  0.70921  0.63711  0.34984  1.0000
  C   C110      1.0  0.72146  0.67270  0.26369  1.0000
  C  Sn11      1.0  0.69103  0.68029  0.15435  1.0000
  C  Sn12      1.0  0.64755  0.65168  0.13110  1.0000
  C   C111      1.0  0.63560  0.61620  0.21792  1.0000
  C   C112      1.0  0.66632  0.60889  0.32701  1.0000
  H   H51       1.0  0.73296  0.63147  0.43428  1.0000
  O  Te11      1.0  0.70383  0.71598  0.06925  1.0000
  O  Te12      1.0  0.61647  0.65852  0.02261  1.0000
  H   H52       1.0  0.65681  0.58136  0.39374  1.0000
  Mg  Mg6       1.0  0.66227  0.73843  0.93489  1.0000
  C   C113      1.0  0.63522  0.29486  0.36725  1.0000
  C   C114      1.0  0.67132  0.27821  0.28091  1.0000
  C  Sn13      1.0  0.67946  0.30305  0.16840  1.0000
  C  Sn14      1.0  0.65087  0.34533  0.14212  1.0000
  C   C115      1.0  0.61487  0.36171  0.22915  1.0000
  C   C116      1.0  0.60702  0.33657  0.34143  1.0000
  H   H53       1.0  0.62916  0.27543  0.45415  1.0000
  O  Te13      1.0  0.71567  0.28590  0.08315  1.0000
  O  Te14      1.0  0.65825  0.37086  0.03042  1.0000
  H   H54       1.0  0.57908  0.34949  0.40830  1.0000
  Mg  Mg7       1.0  0.72455  0.35998  0.94383  1.0000
  C   C117      1.0  0.33886  0.65587  0.11498  1.0000
  C   C118      1.0  0.37914  0.64627  0.19743  1.0000
  C  Sn15      1.0  0.38705  0.67471  0.31564  1.0000
  C  Sn16      1.0  0.35395  0.71347  0.35172  1.0000
  C   C119      1.0  0.31375  0.72276  0.26860  1.0000
  C   C120      1.0  0.30618  0.69408  0.15052  1.0000
  H   H55       1.0  0.33298  0.63367  0.02365  1.0000
  O  Te15      1.0  0.42749  0.66463  0.39684  1.0000
  O  Te16      1.0  0.36098  0.74246  0.46933  1.0000
  H   H56       1.0  0.27497  0.70151  0.08675  1.0000
  Mg  Mg8       1.0  0.42146  0.71439  0.54707  1.0000
  C   C121      1.0  0.87158  0.81553  0.81646  1.0000
  C   C122      1.0  0.87836  0.85481  0.73705  1.0000
  C  Sn17      1.0  0.84605  0.86138  0.63081  1.0000
  C  Sn18      1.0  0.80624  0.82797  0.60384  1.0000
  C   C123      1.0  0.79975  0.78881  0.68393  1.0000
  C   C124      1.0  0.83231  0.78257  0.78996  1.0000
  H   H57       1.0  0.89675  0.81071  0.89854  1.0000
  O  Te17      1.0  0.85337  0.90081  0.55243  1.0000
  O  Te18      1.0  0.77338  0.83369  0.49832  1.0000
  H   H58       1.0  0.82703  0.75217  0.85148  1.0000
  Mg  Mg9       1.0  0.79874  0.89313  0.41991  1.0000
  C   C125      1.0  0.18562  0.15843  0.59989  1.0000
  C   C126      1.0  0.19133  0.20365  0.67400  1.0000
  C  Sn19      1.0  0.16294  0.21432  0.78358  1.0000
  C  Sn20      1.0  0.12823  0.17900  0.81942  1.0000
  C   C127      1.0  0.12282  0.13385  0.74470  1.0000
  C   C128      1.0  0.15141  0.12356  0.63521  1.0000
  H   H59       1.0  0.20775  0.15045  0.51521  1.0000
  O  Te19      1.0  0.16909  0.25969  0.85650  1.0000
  O  Te20      1.0  0.09939  0.18870  0.92851  1.0000
  H   H60       1.0  0.14700  0.08853  0.57790  1.0000
  Mg  Mg10      1.0  0.12123  0.25578  0.99686  1.0000
  C   C129      1.0  0.20347  0.85185  0.82776  1.0000
  C   C130      1.0  0.20984  0.81255  0.73359  1.0000
  C  Sn21      1.0  0.17766  0.80638  0.62449  1.0000
  C  Sn22      1.0  0.13839  0.84025  0.60964  1.0000
  C   C131      1.0  0.13235  0.87946  0.70435  1.0000
  C   C132      1.0  0.16476  0.88528  0.81317  1.0000
  H   H61       1.0  0.22856  0.85637  0.91192  1.0000
  O  Te21      1.0  0.18455  0.76690  0.53136  1.0000
  O  Te22      1.0  0.10570  0.83496  0.50153  1.0000
  H   H62       1.0  0.15983  0.91573  0.88602  1.0000
  Mg  Mg11      1.0  0.13031  0.77525  0.40106  1.0000
  C   C133      1.0  0.79691  0.15204  0.83228  1.0000
  C   C134      1.0  0.78984  0.18927  0.74547  1.0000
  C  Sn23      1.0  0.82143  0.19323  0.64197  1.0000
  C  Sn24      1.0  0.86080  0.15923  0.62529  1.0000
  C   C135      1.0  0.86754  0.12210  0.71261  1.0000
  C   C136      1.0  0.83572  0.11848  0.81587  1.0000
  H   H63       1.0  0.77228  0.14922  0.91213  1.0000
  O  Te23      1.0  0.81385  0.23066  0.55617  1.0000
  O  Te24      1.0  0.89291  0.16233  0.52266  1.0000
  H   H64       1.0  0.84119  0.08963  0.88301  1.0000
  Mg  Mg12      1.0  0.86745  0.21974  0.43139  1.0000
  C   C137      1.0  0.29730  0.36715  0.86259  1.0000
  C   C138      1.0  0.27940  0.32978  0.77209  1.0000
  C  Sn25      1.0  0.30296  0.31938  0.65416  1.0000
  C  Sn26      1.0  0.34523  0.34697  0.62661  1.0000
  C   C139      1.0  0.36287  0.38426  0.71783  1.0000
  C   C140      1.0  0.33900  0.39436  0.83552  1.0000
  H   H65       1.0  0.27885  0.37496  0.95368  1.0000
  O  Te25      1.0  0.28458  0.28193  0.56481  1.0000
  O  Te26      1.0  0.36950  0.33733  0.50952  1.0000
  H   H66       1.0  0.35288  0.42328  0.90560  1.0000
  Mg  Mg13      1.0  0.33041  0.28264  0.41878  1.0000
  C   C141      1.0  0.70687  0.64161  0.85624  1.0000
  C   C142      1.0  0.72037  0.67564  0.76717  1.0000
  C  Sn27      1.0  0.69204  0.68056  0.65251  1.0000
  C  Sn28      1.0  0.64942  0.65082  0.62684  1.0000
  C   C143      1.0  0.63621  0.61691  0.71662  1.0000
  C   C144      1.0  0.66483  0.61228  0.83103  1.0000
  H   H67       1.0  0.72900  0.63803  0.94480  1.0000
  O  Te27      1.0  0.70606  0.71473  0.56454  1.0000
  O  Te28      1.0  0.62043  0.65500  0.51304  1.0000
  H   H68       1.0  0.65436  0.58595  0.90001  1.0000
  Mg  Mg14      1.0  0.65466  0.70685  0.42307  1.0000
  C   C145      1.0  0.68230  0.32255  0.63793  1.0000
  C   C146      1.0  0.68675  0.29011  0.73811  1.0000
  C  Sn29      1.0  0.65140  0.28987  0.83383  1.0000
  C  Sn30      1.0  0.61088  0.32275  0.82889  1.0000
  C   C147      1.0  0.60674  0.35503  0.72821  1.0000
  C   C148      1.0  0.64233  0.35497  0.63295  1.0000
  H   H69       1.0  0.70982  0.32249  0.56418  1.0000
  O  Te29      1.0  0.65642  0.25723  0.93327  1.0000
  O  Te30      1.0  0.57501  0.32327  0.92328  1.0000
  H   H70       1.0  0.63885  0.38007  0.55535  1.0000
  Mg  Mg15      1.0  0.58543  0.24505  0.03944  1.0000
  C   C149      1.0  0.36689  0.71297  0.85628  1.0000
  C   C150      1.0  0.32902  0.72495  0.76864  1.0000
  C  Sn31      1.0  0.31819  0.69373  0.65669  1.0000
  C  Sn32      1.0  0.34583  0.64973  0.63231  1.0000
  C   C151      1.0  0.38362  0.63806  0.72064  1.0000
  C   C152      1.0  0.39416  0.66957  0.83234  1.0000
  H   H71       1.0  0.37504  0.73733  0.94274  1.0000
  O  Te31      1.0  0.28024  0.70627  0.57011  1.0000
  O  Te32      1.0  0.33576  0.61786  0.52121  1.0000
  H   H72       1.0  0.42346  0.66027  0.90023  1.0000
  Mg  Mg16      1.0  0.28048  0.65098  0.43229  1.0000
