data_image0
_chemical_formula_structural       Zn4H72C136N24SnCSn2CSnTe4Mg2SnCSn2CSnTe4Mg2SnCSn2CSnTe4Mg2SnCSn2CSnTe4Mg2SnCSn2CSnTe4Mg2SnCSn2CSnTe4Mg2SnCSn2CSnTe4Mg2SnCSn2CSnTe4Mg2
_chemical_formula_sum              "Zn4 H72 C152 N24 Sn32 Te32 Mg16"
_cell_length_a       27.2482
_cell_length_b       27.017
_cell_length_c       10.235
_cell_angle_alpha    94.0563
_cell_angle_beta     91.9237
_cell_angle_gamma    89.9879

_symmetry_space_group_name_H-M    'P1'
_space_group_IT_number       1

loop_
  _space_group_symop_operation_xyz
  'x, y, z'

loop_
  _atom_site_type_symbol
  _atom_site_label
  _atom_site_symmetry_multiplicity
  _atom_site_fract_x
  _atom_site_fract_y
  _atom_site_fract_z
  _atom_site_occupancy
  Zn  Zn1       1.0  0.49930  0.49912  0.21761  1.0000
  Zn  Zn2       1.0  0.99905  0.99944  0.22845  1.0000
  Zn  Zn3       1.0  0.49977  0.50072  0.71096  1.0000
  Zn  Zn4       1.0  0.99967  0.00121  0.73847  1.0000
  H   H1        1.0  0.10697  0.17286  0.40336  1.0000
  H   H2        1.0  0.82748  0.09978  0.39202  1.0000
  H   H3        1.0  0.16827  0.23827  0.38920  1.0000
  H   H4        1.0  0.75969  0.15900  0.37619  1.0000
  H   H5        1.0  0.21410  0.16941  0.02158  1.0000
  H   H6        1.0  0.82904  0.22290  0.05623  1.0000
  H   H7        1.0  0.15101  0.10336  0.03500  1.0000
  H   H8        1.0  0.89622  0.16096  0.06768  1.0000
  H   H9        1.0  0.37474  0.34068  0.05494  1.0000
  H   H10       1.0  0.34985  0.62462  0.04075  1.0000
  H   H11       1.0  0.30641  0.28040  0.07264  1.0000
  H   H12       1.0  0.28841  0.69289  0.06212  1.0000
  H   H13       1.0  0.25865  0.36459  0.41718  1.0000
  H   H14       1.0  0.35331  0.74120  0.43813  1.0000
  H   H15       1.0  0.32800  0.42328  0.40328  1.0000
  H   H16       1.0  0.41474  0.67365  0.41651  1.0000
  H   H17       1.0  0.71952  0.22476  0.37570  1.0000
  H   H18       1.0  0.27599  0.77566  0.37301  1.0000
  H   H19       1.0  0.77952  0.72118  0.35412  1.0000
  H   H20       1.0  0.21565  0.29162  0.34677  1.0000
  H   H21       1.0  0.30666  0.47199  0.20968  1.0000
  H   H22       1.0  0.69134  0.52655  0.21434  1.0000
  H   H23       1.0  0.52595  0.30575  0.23449  1.0000
  H   H24       1.0  0.47177  0.69344  0.23428  1.0000
  H   H25       1.0  0.31810  0.57077  0.21456  1.0000
  H   H26       1.0  0.68022  0.42890  0.23262  1.0000
  H   H27       1.0  0.42846  0.31789  0.24067  1.0000
  H   H28       1.0  0.56964  0.68212  0.23780  1.0000
  H   H29       1.0  0.94483  0.18784  0.26491  1.0000
  H   H30       1.0  0.05502  0.81234  0.22909  1.0000
  H   H31       1.0  0.81301  0.94368  0.20954  1.0000
  H   H32       1.0  0.18559  0.05559  0.22513  1.0000
  H   H33       1.0  0.04266  0.19117  0.24932  1.0000
  H   H34       1.0  0.95660  0.80842  0.21568  1.0000
  H   H35       1.0  0.81000  0.04278  0.20896  1.0000
  H   H36       1.0  0.18875  0.95623  0.21993  1.0000
  H   H37       1.0  0.10148  0.18006  0.89885  1.0000
  H   H38       1.0  0.16962  0.90126  0.90566  1.0000
  H   H39       1.0  0.15968  0.24794  0.87434  1.0000
  H   H40       1.0  0.23613  0.84024  0.88978  1.0000
  H   H41       1.0  0.21497  0.16950  0.53002  1.0000
  H   H42       1.0  0.17444  0.78020  0.51933  1.0000
  H   H43       1.0  0.15427  0.10200  0.55089  1.0000
  H   H44       1.0  0.10731  0.84279  0.53524  1.0000
  H   H45       1.0  0.65663  0.37447  0.56354  1.0000
  H   H46       1.0  0.34445  0.61984  0.55107  1.0000
  H   H47       1.0  0.71802  0.30781  0.59398  1.0000
  H   H48       1.0  0.28346  0.68858  0.57179  1.0000
  H   H49       1.0  0.63956  0.26223  0.92269  1.0000
  H   H50       1.0  0.35972  0.74763  0.92313  1.0000
  H   H51       1.0  0.57931  0.32967  0.89555  1.0000
  H   H52       1.0  0.41946  0.67852  0.90478  1.0000
  H   H53       1.0  0.71546  0.22153  0.86908  1.0000
  H   H54       1.0  0.28632  0.78633  0.85712  1.0000
  H   H55       1.0  0.77464  0.72817  0.86191  1.0000
  H   H56       1.0  0.22738  0.28324  0.86870  1.0000
  H   H57       1.0  0.30765  0.47258  0.72691  1.0000
  H   H58       1.0  0.69202  0.52852  0.73208  1.0000
  H   H59       1.0  0.52704  0.30619  0.69939  1.0000
  H   H60       1.0  0.47196  0.69426  0.71615  1.0000
  H   H61       1.0  0.31857  0.57133  0.73441  1.0000
  H   H62       1.0  0.68071  0.43051  0.74342  1.0000
  H   H63       1.0  0.42940  0.31776  0.70860  1.0000
  H   H64       1.0  0.56973  0.68308  0.72095  1.0000
  H   H65       1.0  0.94318  0.18838  0.74198  1.0000
  H   H66       1.0  0.05696  0.81348  0.71948  1.0000
  H   H67       1.0  0.81419  0.94373  0.74092  1.0000
  H   H68       1.0  0.18567  0.05883  0.74556  1.0000
  H   H69       1.0  0.04112  0.19248  0.73319  1.0000
  H   H70       1.0  0.95876  0.80895  0.71077  1.0000
  H   H71       1.0  0.81032  0.04249  0.73215  1.0000
  H   H72       1.0  0.18970  0.95935  0.73678  1.0000
  C   C1        1.0  0.12385  0.13343  0.21972  1.0000
  C   C2        1.0  0.86701  0.12567  0.23093  1.0000
  C   C3        1.0  0.12952  0.17253  0.31768  1.0000
  C   C4        1.0  0.82767  0.12629  0.31694  1.0000
  C   C5        1.0  0.16441  0.20963  0.30931  1.0000
  C   C6        1.0  0.78956  0.16031  0.30869  1.0000
  C   C7        1.0  0.19545  0.20904  0.20163  1.0000
  C   C8        1.0  0.78974  0.19616  0.21504  1.0000
  C   C9        1.0  0.19020  0.16971  0.10455  1.0000
  C   C10       1.0  0.82929  0.19592  0.13008  1.0000
  C   C11       1.0  0.15503  0.13279  0.11285  1.0000
  C   C12       1.0  0.86695  0.16140  0.13738  1.0000
  C   C13       1.0  0.35660  0.38590  0.22884  1.0000
  C   C14       1.0  0.38597  0.64364  0.22842  1.0000
  C   C15       1.0  0.34973  0.34530  0.13550  1.0000
  C   C16       1.0  0.35042  0.65019  0.12781  1.0000
  C   C17       1.0  0.31149  0.31187  0.14423  1.0000
  C   C18       1.0  0.31618  0.68827  0.13910  1.0000
  C   C19       1.0  0.27807  0.31832  0.24614  1.0000
  C   C20       1.0  0.31612  0.72114  0.25226  1.0000
  C   C21       1.0  0.28396  0.35956  0.33719  1.0000
  C   C22       1.0  0.35284  0.71598  0.35024  1.0000
  C   C23       1.0  0.32273  0.39263  0.32925  1.0000
  C   C24       1.0  0.38740  0.67804  0.33822  1.0000
  C   C25       1.0  0.72040  0.24223  0.28183  1.0000
  C   C26       1.0  0.27782  0.75852  0.27242  1.0000
  C   C27       1.0  0.75888  0.72038  0.25976  1.0000
  C   C28       1.0  0.23866  0.28297  0.26190  1.0000
  C   C29       1.0  0.08657  0.09363  0.22845  1.0000
  C   C30       1.0  0.91212  0.90565  0.21767  1.0000
  C   C31       1.0  0.90655  0.08784  0.23486  1.0000
  C   C32       1.0  0.09234  0.91201  0.22590  1.0000
  C   C33       1.0  0.41999  0.60035  0.22122  1.0000
  C   C34       1.0  0.57825  0.39875  0.22822  1.0000
  C   C35       1.0  0.39918  0.42004  0.22333  1.0000
  C   C36       1.0  0.59893  0.57911  0.21852  1.0000
  C   C37       1.0  0.39873  0.55265  0.21661  1.0000
  C   C38       1.0  0.59940  0.44631  0.22353  1.0000
  C   C39       1.0  0.44644  0.39870  0.22705  1.0000
  C   C40       1.0  0.55167  0.60051  0.22104  1.0000
  C   C41       1.0  0.38936  0.47113  0.21787  1.0000
  C   C42       1.0  0.60869  0.52779  0.21712  1.0000
  C   C43       1.0  0.52738  0.38894  0.22883  1.0000
  C   C44       1.0  0.47082  0.60999  0.22329  1.0000
  C   C45       1.0  0.34078  0.49258  0.21322  1.0000
  C   C46       1.0  0.65724  0.50629  0.21819  1.0000
  C   C47       1.0  0.50582  0.34024  0.23322  1.0000
  C   C48       1.0  0.49218  0.65904  0.23002  1.0000
  C   C49       1.0  0.34657  0.54286  0.21482  1.0000
  C   C50       1.0  0.65155  0.45634  0.22570  1.0000
  C   C51       1.0  0.45606  0.34637  0.23500  1.0000
  C   C52       1.0  0.54200  0.65325  0.23093  1.0000
  C   C53       1.0  0.89235  0.03738  0.22619  1.0000
  C   C54       1.0  0.10639  0.96227  0.22617  1.0000
  C   C55       1.0  0.96202  0.89169  0.22246  1.0000
  C   C56       1.0  0.03690  0.10777  0.23756  1.0000
  C   C57       1.0  0.95556  0.10504  0.24252  1.0000
  C   C58       1.0  0.04352  0.89476  0.22687  1.0000
  C   C59       1.0  0.89497  0.95502  0.21931  1.0000
  C   C60       1.0  0.10368  0.04429  0.22571  1.0000
  C   C61       1.0  0.96975  0.15676  0.25399  1.0000
  C   C62       1.0  0.02972  0.84313  0.22628  1.0000
  C   C63       1.0  0.84383  0.96906  0.21405  1.0000
  C   C64       1.0  0.15486  0.03019  0.22436  1.0000
  C   C65       1.0  0.01970  0.15845  0.24730  1.0000
  C   C66       1.0  0.97956  0.84117  0.22072  1.0000
  C   C67       1.0  0.84226  0.01965  0.21511  1.0000
  C   C68       1.0  0.15649  0.97959  0.22256  1.0000
  C   C69       1.0  0.12331  0.13588  0.72676  1.0000
  C   C70       1.0  0.13355  0.87667  0.72171  1.0000
  C   C71       1.0  0.12584  0.17787  0.81662  1.0000
  C   C72       1.0  0.17090  0.87513  0.81995  1.0000
  C   C73       1.0  0.15926  0.21596  0.80348  1.0000
  C   C74       1.0  0.20856  0.84040  0.81046  1.0000
  C   C75       1.0  0.19246  0.21316  0.70047  1.0000
  C   C76       1.0  0.21026  0.80535  0.70173  1.0000
  C   C77       1.0  0.19010  0.17119  0.61100  1.0000
  C   C78       1.0  0.17285  0.80685  0.60385  1.0000
  C   C79       1.0  0.15629  0.13340  0.62356  1.0000
  C   C80       1.0  0.13532  0.84179  0.61335  1.0000
  C   C81       1.0  0.61355  0.35724  0.72803  1.0000
  C   C82       1.0  0.38604  0.64404  0.72723  1.0000
  C   C83       1.0  0.65315  0.35023  0.64316  1.0000
  C   C84       1.0  0.34738  0.64768  0.63313  1.0000
  C   C85       1.0  0.68735  0.31284  0.65899  1.0000
  C   C86       1.0  0.31353  0.68608  0.64365  1.0000
  C   C87       1.0  0.68303  0.28033  0.75974  1.0000
  C   C88       1.0  0.31737  0.72272  0.74856  1.0000
  C   C89       1.0  0.64307  0.28647  0.84293  1.0000
  C   C90       1.0  0.35660  0.71989  0.84071  1.0000
  C   C91       1.0  0.60903  0.32429  0.82752  1.0000
  C   C92       1.0  0.39029  0.68118  0.83041  1.0000
  C   C93       1.0  0.71932  0.24155  0.77998  1.0000
  C   C94       1.0  0.28131  0.76238  0.76620  1.0000
  C   C95       1.0  0.75700  0.72398  0.76337  1.0000
  C   C96       1.0  0.24190  0.28185  0.76937  1.0000
  C   C97       1.0  0.08644  0.09584  0.73702  1.0000
  C   C98       1.0  0.91344  0.90600  0.72949  1.0000
  C   C99       1.0  0.90628  0.08791  0.73633  1.0000
  C   C100      1.0  0.09350  0.91412  0.73125  1.0000
  C   C101      1.0  0.42029  0.60108  0.72017  1.0000
  C   C102      1.0  0.57909  0.39966  0.71743  1.0000
  C   C103      1.0  0.40007  0.42054  0.71748  1.0000
  C   C104      1.0  0.59937  0.58032  0.71791  1.0000
  C   C105      1.0  0.39918  0.55341  0.72073  1.0000
  C   C106      1.0  0.60009  0.44754  0.72101  1.0000
  C   C107      1.0  0.44725  0.39915  0.71093  1.0000
  C   C108      1.0  0.55203  0.60158  0.71478  1.0000
  C   C109      1.0  0.39014  0.47179  0.71995  1.0000
  C   C110      1.0  0.60931  0.52915  0.71974  1.0000
  C   C111      1.0  0.52817  0.38974  0.71023  1.0000
  C   C112      1.0  0.47105  0.61091  0.71634  1.0000
  C   C113      1.0  0.34161  0.49325  0.72547  1.0000
  C   C114      1.0  0.65789  0.50795  0.72857  1.0000
  C   C115      1.0  0.50677  0.34067  0.70476  1.0000
  C   C116      1.0  0.49231  0.65987  0.71630  1.0000
  C   C117      1.0  0.34720  0.54358  0.72825  1.0000
  C   C118      1.0  0.65216  0.45789  0.73307  1.0000
  C   C119      1.0  0.45699  0.34651  0.70787  1.0000
  C   C120      1.0  0.54217  0.65420  0.71780  1.0000
  C   C121      1.0  0.89270  0.03753  0.73727  1.0000
  C   C122      1.0  0.10717  0.96462  0.73780  1.0000
  C   C123      1.0  0.96347  0.89243  0.72808  1.0000
  C   C124      1.0  0.03643  0.10944  0.73816  1.0000
  C   C125      1.0  0.95501  0.10578  0.73834  1.0000
  C   C126      1.0  0.04486  0.89619  0.72932  1.0000
  C   C127      1.0  0.89603  0.95532  0.73581  1.0000
  C   C128      1.0  0.10391  0.04674  0.74012  1.0000
  C   C129      1.0  0.96849  0.15755  0.73931  1.0000
  C   C130      1.0  0.03150  0.84427  0.72210  1.0000
  C   C131      1.0  0.84480  0.96909  0.73798  1.0000
  C   C132      1.0  0.15519  0.03306  0.74236  1.0000
  C   C133      1.0  0.01851  0.15970  0.73596  1.0000
  C   C134      1.0  0.98137  0.84197  0.71858  1.0000
  C   C135      1.0  0.84276  0.01953  0.73525  1.0000
  C   C136      1.0  0.15722  0.98244  0.73868  1.0000
  N   N1        1.0  0.24722  0.76889  0.17895  1.0000
  N   N2        1.0  0.75320  0.23185  0.19549  1.0000
  N   N3        1.0  0.23236  0.24391  0.18237  1.0000
  N   N4        1.0  0.76751  0.75037  0.16991  1.0000
  N   N5        1.0  0.42416  0.50834  0.21772  1.0000
  N   N6        1.0  0.57397  0.49048  0.21851  1.0000
  N   N7        1.0  0.49046  0.42400  0.22440  1.0000
  N   N8        1.0  0.50774  0.57481  0.21775  1.0000
  N   N9        1.0  0.99717  0.07578  0.23581  1.0000
  N   N10       1.0  0.00169  0.92375  0.22636  1.0000
  N   N11       1.0  0.92388  0.99729  0.22728  1.0000
  N   N12       1.0  0.07477  0.00231  0.22758  1.0000
  N   N13       1.0  0.24585  0.76804  0.68122  1.0000
  N   N14       1.0  0.75387  0.23269  0.69777  1.0000
  N   N15       1.0  0.22798  0.24901  0.67753  1.0000
  N   N16       1.0  0.76822  0.75147  0.67009  1.0000
  N   N17       1.0  0.42468  0.50912  0.71637  1.0000
  N   N18       1.0  0.57462  0.49163  0.71465  1.0000
  N   N19       1.0  0.49117  0.42486  0.71114  1.0000
  N   N20       1.0  0.50812  0.57589  0.71356  1.0000
  N   N21       1.0  0.99706  0.07715  0.73910  1.0000
  N   N22       1.0  0.00284  0.92490  0.73383  1.0000
  N   N23       1.0  0.92460  0.99773  0.73764  1.0000
  N   N24       1.0  0.07527  0.00447  0.73945  1.0000
  C  Sn1       1.0  0.82191  0.86562  0.63179  1.0000
  C   C137      1.0  0.86190  0.87121  0.72076  1.0000
  C  Sn2       1.0  0.87735  0.83163  0.79257  1.0000
  C  Sn3       1.0  0.85234  0.78548  0.77505  1.0000
  C   C138      1.0  0.81238  0.77991  0.68612  1.0000
  C  Sn4       1.0  0.79690  0.81947  0.61428  1.0000
  O  Te1       1.0  0.80710  0.90569  0.56104  1.0000
  O  Te2       1.0  0.91741  0.83812  0.88097  1.0000
  O  Te3       1.0  0.86718  0.74540  0.84590  1.0000
  O  Te4       1.0  0.75687  0.81299  0.52591  1.0000
  Mg  Mg1       1.0  0.92374  0.77250  0.95456  1.0000
  Mg  Mg2       1.0  0.75053  0.87858  0.45222  1.0000
  C  Sn5       1.0  0.81179  0.12457  0.80709  1.0000
  C   C139      1.0  0.85162  0.11768  0.72527  1.0000
  C  Sn6       1.0  0.86358  0.15377  0.64034  1.0000
  C  Sn7       1.0  0.83516  0.19768  0.63719  1.0000
  C   C140      1.0  0.79536  0.20456  0.71899  1.0000
  C  Sn8       1.0  0.78336  0.16848  0.80393  1.0000
  O  Te5       1.0  0.80050  0.08801  0.89122  1.0000
  O  Te6       1.0  0.90357  0.14603  0.55944  1.0000
  O  Te7       1.0  0.84648  0.23425  0.55296  1.0000
  O  Te8       1.0  0.74341  0.17621  0.88482  1.0000
  Mg  Mg3       1.0  0.90440  0.20668  0.46169  1.0000
  Mg  Mg4       1.0  0.74256  0.11559  0.98264  1.0000
  C  Sn9       1.0  0.66062  0.64930  0.10363  1.0000
  C   C141      1.0  0.65067  0.61212  0.18731  1.0000
  C  Sn10      1.0  0.67340  0.61282  0.31181  1.0000
  C  Sn11      1.0  0.70674  0.65150  0.35360  1.0000
  C   C142      1.0  0.71667  0.68865  0.26996  1.0000
  C  Sn12      1.0  0.69396  0.68798  0.14542  1.0000
  O  Te9       1.0  0.65008  0.67465  0.97959  1.0000
  O  Te10      1.0  0.66288  0.57524  0.39370  1.0000
  O  Te11      1.0  0.72989  0.65291  0.47775  1.0000
  O  Te12      1.0  0.70446  0.72553  0.06357  1.0000
  Mg  Mg5       1.0  0.70361  0.59340  0.55374  1.0000
  Mg  Mg6       1.0  0.67633  0.73422  0.90355  1.0000
  C  Sn13      1.0  0.32723  0.31148  0.64548  1.0000
  C   C143      1.0  0.29403  0.31039  0.74639  1.0000
  C  Sn14      1.0  0.28902  0.35149  0.83566  1.0000
  C  Sn15      1.0  0.31777  0.39459  0.82380  1.0000
  C   C144      1.0  0.35095  0.39568  0.72294  1.0000
  C  Sn16      1.0  0.35599  0.35459  0.63362  1.0000
  O  Te13      1.0  0.33163  0.26997  0.55734  1.0000
  O  Te14      1.0  0.25559  0.34951  0.93575  1.0000
  O  Te15      1.0  0.31335  0.43612  0.91206  1.0000
  O  Te16      1.0  0.38938  0.35655  0.53358  1.0000
  Mg  Mg7       1.0  0.25019  0.38870  0.03170  1.0000
  Mg  Mg8       1.0  0.38219  0.29061  0.43754  1.0000
  C  Sn17      1.0  0.82202  0.86238  0.11546  1.0000
  C   C145      1.0  0.85988  0.87139  0.20965  1.0000
  C  Sn18      1.0  0.87403  0.83473  0.29280  1.0000
  C  Sn19      1.0  0.84985  0.78806  0.28152  1.0000
  C   C146      1.0  0.81202  0.77906  0.18736  1.0000
  C  Sn20      1.0  0.79784  0.81571  0.10419  1.0000
  O  Te17      1.0  0.80849  0.89958  0.03338  1.0000
  O  Te18      1.0  0.91197  0.84461  0.38623  1.0000
  O  Te19      1.0  0.86342  0.75085  0.36371  1.0000
  O  Te20      1.0  0.75993  0.80584  0.01078  1.0000
  Mg  Mg9       1.0  0.91719  0.78206  0.47548  1.0000
  Mg  Mg10      1.0  0.76731  0.89514  0.92145  1.0000
  C  Sn21      1.0  0.16940  0.81846  0.07910  1.0000
  C   C147      1.0  0.20906  0.81315  0.16713  1.0000
  C  Sn22      1.0  0.20852  0.83623  0.29358  1.0000
  C  Sn23      1.0  0.16746  0.86521  0.33290  1.0000
  C   C148      1.0  0.12783  0.87051  0.24491  1.0000
  C  Sn24      1.0  0.12835  0.84744  0.11842  1.0000
  O  Te21      1.0  0.18334  0.82185  0.95318  1.0000
  O  Te22      1.0  0.24860  0.83039  0.37984  1.0000
  O  Te23      1.0  0.16616  0.88863  0.45894  1.0000
  O  Te24      1.0  0.08829  0.85326  0.03220  1.0000
  Mg  Mg11      1.0  0.22956  0.86957  0.54097  1.0000
  Mg  Mg12      1.0  0.11989  0.84088  0.87108  1.0000
  C  Sn25      1.0  0.62556  0.32538  0.37206  1.0000
  C   C149      1.0  0.62096  0.35826  0.27294  1.0000
  C  Sn26      1.0  0.64493  0.34879  0.15527  1.0000
  C  Sn27      1.0  0.67406  0.30554  0.13624  1.0000
  C   C150      1.0  0.67863  0.27268  0.23531  1.0000
  C  Sn28      1.0  0.65469  0.28212  0.35303  1.0000
  O  Te25      1.0  0.60127  0.33559  0.48890  1.0000
  O  Te26      1.0  0.63980  0.38222  0.05763  1.0000
  O  Te27      1.0  0.69835  0.29535  0.01928  1.0000
  O  Te28      1.0  0.65980  0.24872  0.45062  1.0000
  Mg  Mg13      1.0  0.69264  0.37886  0.91556  1.0000
  Mg  Mg14      1.0  0.61956  0.27883  0.59270  1.0000
  C  Sn29      1.0  0.71594  0.63295  0.82630  1.0000
  C   C151      1.0  0.72566  0.67009  0.74232  1.0000
  C  Sn30      1.0  0.69018  0.68327  0.64945  1.0000
  C  Sn31      1.0  0.64399  0.65884  0.64037  1.0000
  C   C152      1.0  0.63429  0.62173  0.72433  1.0000
  C  Sn32      1.0  0.66976  0.60852  0.81722  1.0000
  O  Te29      1.0  0.75196  0.62039  0.91840  1.0000
  O  Te30      1.0  0.70075  0.72050  0.56654  1.0000
  O  Te31      1.0  0.60797  0.67144  0.54816  1.0000
  O  Te32      1.0  0.65920  0.57132  0.90011  1.0000
  Mg  Mg15      1.0  0.63976  0.72450  0.45713  1.0000
  Mg  Mg16      1.0  0.70755  0.54051  0.00959  1.0000
