data_image0
_chemical_formula_structural       Zn4H72C136N24C2Sn2C2HTe2HMgC2Sn2C2HTe2HMgC2Sn2C2HTe2HMgC2Sn2C2HTe2HMgC2Sn2C2HTe2HMgC2Sn2C2HTe2HMgC2Sn2C2HTe2HMgC2Sn2C2HTe2HMg
_chemical_formula_sum              "Zn4 H88 C168 N24 Sn16 Te16 Mg8"
_cell_length_a       27.2482
_cell_length_b       27.017
_cell_length_c       10.235
_cell_angle_alpha    94.0563
_cell_angle_beta     91.9237
_cell_angle_gamma    89.9879

_symmetry_space_group_name_H-M    'P1'
_space_group_IT_number       1

loop_
  _space_group_symop_operation_xyz
  'x, y, z'

loop_
  _atom_site_type_symbol
  _atom_site_label
  _atom_site_symmetry_multiplicity
  _atom_site_fract_x
  _atom_site_fract_y
  _atom_site_fract_z
  _atom_site_occupancy
  Zn  Zn1       1.0  0.49930  0.49912  0.21761  1.0000
  Zn  Zn2       1.0  0.99905  0.99944  0.22845  1.0000
  Zn  Zn3       1.0  0.49977  0.50072  0.71096  1.0000
  Zn  Zn4       1.0  0.99967  0.00121  0.73847  1.0000
  H   H1        1.0  0.89990  0.83290  0.38611  1.0000
  H   H2        1.0  0.17014  0.90246  0.39800  1.0000
  H   H3        1.0  0.84036  0.76458  0.36849  1.0000
  H   H4        1.0  0.23839  0.84309  0.38057  1.0000
  H   H5        1.0  0.77899  0.81865  0.01303  1.0000
  H   H6        1.0  0.17230  0.77562  0.02360  1.0000
  H   H7        1.0  0.84073  0.88682  0.02851  1.0000
  H   H8        1.0  0.10415  0.83702  0.03918  1.0000
  H   H9        1.0  0.61817  0.65067  0.05207  1.0000
  H   H10       1.0  0.34985  0.62462  0.04075  1.0000
  H   H11       1.0  0.68658  0.71208  0.07048  1.0000
  H   H12       1.0  0.28841  0.69289  0.06212  1.0000
  H   H13       1.0  0.74312  0.64636  0.41519  1.0000
  H   H14       1.0  0.35331  0.74120  0.43813  1.0000
  H   H15       1.0  0.67488  0.58567  0.39761  1.0000
  H   H16       1.0  0.41474  0.67365  0.41651  1.0000
  H   H17       1.0  0.71952  0.22476  0.37570  1.0000
  H   H18       1.0  0.27599  0.77566  0.37301  1.0000
  H   H19       1.0  0.77952  0.72118  0.35412  1.0000
  H   H20       1.0  0.21565  0.29162  0.34677  1.0000
  H   H21       1.0  0.30666  0.47199  0.20968  1.0000
  H   H22       1.0  0.69134  0.52655  0.21434  1.0000
  H   H23       1.0  0.52595  0.30575  0.23449  1.0000
  H   H24       1.0  0.47177  0.69344  0.23428  1.0000
  H   H25       1.0  0.31810  0.57077  0.21456  1.0000
  H   H26       1.0  0.68022  0.42890  0.23262  1.0000
  H   H27       1.0  0.42846  0.31789  0.24067  1.0000
  H   H28       1.0  0.56964  0.68212  0.23780  1.0000
  H   H29       1.0  0.94483  0.18784  0.26491  1.0000
  H   H30       1.0  0.05502  0.81234  0.22909  1.0000
  H   H31       1.0  0.81301  0.94368  0.20954  1.0000
  H   H32       1.0  0.18559  0.05559  0.22513  1.0000
  H   H33       1.0  0.04266  0.19117  0.24932  1.0000
  H   H34       1.0  0.95660  0.80842  0.21568  1.0000
  H   H35       1.0  0.81000  0.04278  0.20896  1.0000
  H   H36       1.0  0.18875  0.95623  0.21993  1.0000
  H   H37       1.0  0.16962  0.90126  0.90566  1.0000
  H   H38       1.0  0.83113  0.10428  0.90381  1.0000
  H   H39       1.0  0.23613  0.84024  0.88978  1.0000
  H   H40       1.0  0.76425  0.16459  0.89164  1.0000
  H   H41       1.0  0.17444  0.78020  0.51933  1.0000
  H   H42       1.0  0.82476  0.21810  0.54496  1.0000
  H   H43       1.0  0.10731  0.84279  0.53524  1.0000
  H   H44       1.0  0.89127  0.15498  0.55377  1.0000
  H   H45       1.0  0.36957  0.34581  0.54078  1.0000
  H   H46       1.0  0.65663  0.37447  0.56354  1.0000
  H   H47       1.0  0.30125  0.28569  0.56206  1.0000
  H   H48       1.0  0.71802  0.30781  0.59398  1.0000
  H   H49       1.0  0.26725  0.35970  0.93370  1.0000
  H   H50       1.0  0.63956  0.26223  0.92269  1.0000
  H   H51       1.0  0.33507  0.41940  0.91301  1.0000
  H   H52       1.0  0.57931  0.32967  0.89555  1.0000
  H   H53       1.0  0.71546  0.22153  0.86908  1.0000
  H   H54       1.0  0.28632  0.78633  0.85712  1.0000
  H   H55       1.0  0.77464  0.72817  0.86191  1.0000
  H   H56       1.0  0.22738  0.28324  0.86870  1.0000
  H   H57       1.0  0.30765  0.47258  0.72691  1.0000
  H   H58       1.0  0.69202  0.52852  0.73208  1.0000
  H   H59       1.0  0.52704  0.30619  0.69939  1.0000
  H   H60       1.0  0.47196  0.69426  0.71615  1.0000
  H   H61       1.0  0.31857  0.57133  0.73441  1.0000
  H   H62       1.0  0.68071  0.43051  0.74342  1.0000
  H   H63       1.0  0.42940  0.31776  0.70860  1.0000
  H   H64       1.0  0.56973  0.68308  0.72095  1.0000
  H   H65       1.0  0.94318  0.18838  0.74198  1.0000
  H   H66       1.0  0.05696  0.81348  0.71948  1.0000
  H   H67       1.0  0.81419  0.94373  0.74092  1.0000
  H   H68       1.0  0.18567  0.05883  0.74556  1.0000
  H   H69       1.0  0.04112  0.19248  0.73319  1.0000
  H   H70       1.0  0.95876  0.80895  0.71077  1.0000
  H   H71       1.0  0.81032  0.04249  0.73215  1.0000
  H   H72       1.0  0.18970  0.95935  0.73678  1.0000
  C   C1        1.0  0.87491  0.86511  0.20858  1.0000
  C   C2        1.0  0.13213  0.87423  0.21978  1.0000
  C   C3        1.0  0.87388  0.82958  0.30300  1.0000
  C   C4        1.0  0.17068  0.87491  0.31515  1.0000
  C   C5        1.0  0.83979  0.79104  0.29320  1.0000
  C   C6        1.0  0.20907  0.84097  0.30556  1.0000
  C   C7        1.0  0.80450  0.78683  0.18894  1.0000
  C   C8        1.0  0.20995  0.80429  0.20047  1.0000
  C   C9        1.0  0.80563  0.82221  0.09464  1.0000
  C   C10       1.0  0.17116  0.80330  0.10594  1.0000
  C   C11       1.0  0.84005  0.86049  0.10405  1.0000
  C   C12       1.0  0.13304  0.83751  0.11534  1.0000
  C   C13       1.0  0.64147  0.61379  0.22392  1.0000
  C   C14       1.0  0.38597  0.64364  0.22842  1.0000
  C   C15       1.0  0.64550  0.64994  0.13184  1.0000
  C   C16       1.0  0.35042  0.65019  0.12781  1.0000
  C   C17       1.0  0.68374  0.68415  0.14136  1.0000
  C   C18       1.0  0.31618  0.68827  0.13910  1.0000
  C   C19       1.0  0.71956  0.68353  0.24362  1.0000
  C   C20       1.0  0.31612  0.72114  0.25226  1.0000
  C   C21       1.0  0.71613  0.64703  0.33444  1.0000
  C   C22       1.0  0.35284  0.71598  0.35024  1.0000
  C   C23       1.0  0.67785  0.61271  0.32439  1.0000
  C   C24       1.0  0.38740  0.67804  0.33822  1.0000
  C   C25       1.0  0.72040  0.24223  0.28183  1.0000
  C   C26       1.0  0.27782  0.75852  0.27242  1.0000
  C   C27       1.0  0.75888  0.72038  0.25976  1.0000
  C   C28       1.0  0.23866  0.28297  0.26190  1.0000
  C   C29       1.0  0.08657  0.09363  0.22845  1.0000
  C   C30       1.0  0.91212  0.90565  0.21767  1.0000
  C   C31       1.0  0.90655  0.08784  0.23486  1.0000
  C   C32       1.0  0.09234  0.91201  0.22590  1.0000
  C   C33       1.0  0.41999  0.60035  0.22122  1.0000
  C   C34       1.0  0.57825  0.39875  0.22822  1.0000
  C   C35       1.0  0.39918  0.42004  0.22333  1.0000
  C   C36       1.0  0.59893  0.57911  0.21852  1.0000
  C   C37       1.0  0.39873  0.55265  0.21661  1.0000
  C   C38       1.0  0.59940  0.44631  0.22353  1.0000
  C   C39       1.0  0.44644  0.39870  0.22705  1.0000
  C   C40       1.0  0.55167  0.60051  0.22104  1.0000
  C   C41       1.0  0.38936  0.47113  0.21787  1.0000
  C   C42       1.0  0.60869  0.52779  0.21712  1.0000
  C   C43       1.0  0.52738  0.38894  0.22883  1.0000
  C   C44       1.0  0.47082  0.60999  0.22329  1.0000
  C   C45       1.0  0.34078  0.49258  0.21322  1.0000
  C   C46       1.0  0.65724  0.50629  0.21819  1.0000
  C   C47       1.0  0.50582  0.34024  0.23322  1.0000
  C   C48       1.0  0.49218  0.65904  0.23002  1.0000
  C   C49       1.0  0.34657  0.54286  0.21482  1.0000
  C   C50       1.0  0.65155  0.45634  0.22570  1.0000
  C   C51       1.0  0.45606  0.34637  0.23500  1.0000
  C   C52       1.0  0.54200  0.65325  0.23093  1.0000
  C   C53       1.0  0.89235  0.03738  0.22619  1.0000
  C   C54       1.0  0.10639  0.96227  0.22617  1.0000
  C   C55       1.0  0.96202  0.89169  0.22246  1.0000
  C   C56       1.0  0.03690  0.10777  0.23756  1.0000
  C   C57       1.0  0.95556  0.10504  0.24252  1.0000
  C   C58       1.0  0.04352  0.89476  0.22687  1.0000
  C   C59       1.0  0.89497  0.95502  0.21931  1.0000
  C   C60       1.0  0.10368  0.04429  0.22571  1.0000
  C   C61       1.0  0.96975  0.15676  0.25399  1.0000
  C   C62       1.0  0.02972  0.84313  0.22628  1.0000
  C   C63       1.0  0.84383  0.96906  0.21405  1.0000
  C   C64       1.0  0.15486  0.03019  0.22436  1.0000
  C   C65       1.0  0.01970  0.15845  0.24730  1.0000
  C   C66       1.0  0.97956  0.84117  0.22072  1.0000
  C   C67       1.0  0.84226  0.01965  0.21511  1.0000
  C   C68       1.0  0.15649  0.97959  0.22256  1.0000
  C   C69       1.0  0.13355  0.87667  0.72171  1.0000
  C   C70       1.0  0.86622  0.12508  0.72989  1.0000
  C   C71       1.0  0.17090  0.87513  0.81995  1.0000
  C   C72       1.0  0.82935  0.12855  0.82342  1.0000
  C   C73       1.0  0.20856  0.84040  0.81046  1.0000
  C   C74       1.0  0.79167  0.16309  0.81669  1.0000
  C   C75       1.0  0.21026  0.80535  0.70173  1.0000
  C   C76       1.0  0.78969  0.19617  0.71602  1.0000
  C   C77       1.0  0.17285  0.80685  0.60385  1.0000
  C   C78       1.0  0.82662  0.19281  0.62297  1.0000
  C   C79       1.0  0.13532  0.84179  0.61335  1.0000
  C   C80       1.0  0.86392  0.15779  0.62894  1.0000
  C   C81       1.0  0.35761  0.38636  0.72613  1.0000
  C   C82       1.0  0.61355  0.35724  0.72803  1.0000
  C   C83       1.0  0.34720  0.34850  0.62708  1.0000
  C   C84       1.0  0.65315  0.35023  0.64316  1.0000
  C   C85       1.0  0.30901  0.31515  0.63807  1.0000
  C   C86       1.0  0.68735  0.31284  0.65899  1.0000
  C   C87       1.0  0.27994  0.31838  0.74964  1.0000
  C   C88       1.0  0.68303  0.28033  0.75974  1.0000
  C   C89       1.0  0.28934  0.35697  0.84680  1.0000
  C   C90       1.0  0.64307  0.28647  0.84293  1.0000
  C   C91       1.0  0.32744  0.39055  0.83523  1.0000
  C   C92       1.0  0.60903  0.32429  0.82752  1.0000
  C   C93       1.0  0.71932  0.24155  0.77998  1.0000
  C   C94       1.0  0.28131  0.76238  0.76620  1.0000
  C   C95       1.0  0.75700  0.72398  0.76337  1.0000
  C   C96       1.0  0.24190  0.28185  0.76937  1.0000
  C   C97       1.0  0.08644  0.09584  0.73702  1.0000
  C   C98       1.0  0.91344  0.90600  0.72949  1.0000
  C   C99       1.0  0.90628  0.08791  0.73633  1.0000
  C   C100      1.0  0.09350  0.91412  0.73125  1.0000
  C   C101      1.0  0.42029  0.60108  0.72017  1.0000
  C   C102      1.0  0.57909  0.39966  0.71743  1.0000
  C   C103      1.0  0.40007  0.42054  0.71748  1.0000
  C   C104      1.0  0.59937  0.58032  0.71791  1.0000
  C   C105      1.0  0.39918  0.55341  0.72073  1.0000
  C   C106      1.0  0.60009  0.44754  0.72101  1.0000
  C   C107      1.0  0.44725  0.39915  0.71093  1.0000
  C   C108      1.0  0.55203  0.60158  0.71478  1.0000
  C   C109      1.0  0.39014  0.47179  0.71995  1.0000
  C   C110      1.0  0.60931  0.52915  0.71974  1.0000
  C   C111      1.0  0.52817  0.38974  0.71023  1.0000
  C   C112      1.0  0.47105  0.61091  0.71634  1.0000
  C   C113      1.0  0.34161  0.49325  0.72547  1.0000
  C   C114      1.0  0.65789  0.50795  0.72857  1.0000
  C   C115      1.0  0.50677  0.34067  0.70476  1.0000
  C   C116      1.0  0.49231  0.65987  0.71630  1.0000
  C   C117      1.0  0.34720  0.54358  0.72825  1.0000
  C   C118      1.0  0.65216  0.45789  0.73307  1.0000
  C   C119      1.0  0.45699  0.34651  0.70787  1.0000
  C   C120      1.0  0.54217  0.65420  0.71780  1.0000
  C   C121      1.0  0.89270  0.03753  0.73727  1.0000
  C   C122      1.0  0.10717  0.96462  0.73780  1.0000
  C   C123      1.0  0.96347  0.89243  0.72808  1.0000
  C   C124      1.0  0.03643  0.10944  0.73816  1.0000
  C   C125      1.0  0.95501  0.10578  0.73834  1.0000
  C   C126      1.0  0.04486  0.89619  0.72932  1.0000
  C   C127      1.0  0.89603  0.95532  0.73581  1.0000
  C   C128      1.0  0.10391  0.04674  0.74012  1.0000
  C   C129      1.0  0.96849  0.15755  0.73931  1.0000
  C   C130      1.0  0.03150  0.84427  0.72210  1.0000
  C   C131      1.0  0.84480  0.96909  0.73798  1.0000
  C   C132      1.0  0.15519  0.03306  0.74236  1.0000
  C   C133      1.0  0.01851  0.15970  0.73596  1.0000
  C   C134      1.0  0.98137  0.84197  0.71858  1.0000
  C   C135      1.0  0.84276  0.01953  0.73525  1.0000
  C   C136      1.0  0.15722  0.98244  0.73868  1.0000
  N   N1        1.0  0.24722  0.76889  0.17895  1.0000
  N   N2        1.0  0.75320  0.23185  0.19549  1.0000
  N   N3        1.0  0.23236  0.24391  0.18237  1.0000
  N   N4        1.0  0.76751  0.75037  0.16991  1.0000
  N   N5        1.0  0.42416  0.50834  0.21772  1.0000
  N   N6        1.0  0.57397  0.49048  0.21851  1.0000
  N   N7        1.0  0.49046  0.42400  0.22440  1.0000
  N   N8        1.0  0.50774  0.57481  0.21775  1.0000
  N   N9        1.0  0.99717  0.07578  0.23581  1.0000
  N   N10       1.0  0.00169  0.92375  0.22636  1.0000
  N   N11       1.0  0.92388  0.99729  0.22728  1.0000
  N   N12       1.0  0.07477  0.00231  0.22758  1.0000
  N   N13       1.0  0.24585  0.76804  0.68122  1.0000
  N   N14       1.0  0.75387  0.23269  0.69777  1.0000
  N   N15       1.0  0.22798  0.24901  0.67753  1.0000
  N   N16       1.0  0.76822  0.75147  0.67009  1.0000
  N   N17       1.0  0.42468  0.50912  0.71637  1.0000
  N   N18       1.0  0.57462  0.49163  0.71465  1.0000
  N   N19       1.0  0.49117  0.42486  0.71114  1.0000
  N   N20       1.0  0.50812  0.57589  0.71356  1.0000
  N   N21       1.0  0.99706  0.07715  0.73910  1.0000
  N   N22       1.0  0.00284  0.92490  0.73383  1.0000
  N   N23       1.0  0.92460  0.99773  0.73764  1.0000
  N   N24       1.0  0.07527  0.00447  0.73945  1.0000
  C   C137      1.0  0.68804  0.62076  0.84677  1.0000
  C   C138      1.0  0.64917  0.61559  0.75417  1.0000
  C  Sn1       1.0  0.64675  0.64566  0.64856  1.0000
  C  Sn2       1.0  0.68398  0.68152  0.63565  1.0000
  C   C139      1.0  0.72273  0.68638  0.72876  1.0000
  C   C140      1.0  0.72478  0.65611  0.83408  1.0000
  H   H73       1.0  0.68965  0.59733  0.92822  1.0000
  O  Te1       1.0  0.60766  0.64001  0.55697  1.0000
  O  Te2       1.0  0.68247  0.71204  0.53103  1.0000
  H   H74       1.0  0.75489  0.66010  0.90571  1.0000
  Mg  Mg1       1.0  0.62177  0.69030  0.43150  1.0000
  C   C141      1.0  0.63522  0.29486  0.36725  1.0000
  C   C142      1.0  0.67132  0.27821  0.28091  1.0000
  C  Sn3       1.0  0.67946  0.30305  0.16840  1.0000
  C  Sn4       1.0  0.65087  0.34533  0.14212  1.0000
  C   C143      1.0  0.61487  0.36171  0.22915  1.0000
  C   C144      1.0  0.60702  0.33657  0.34143  1.0000
  H   H75       1.0  0.62916  0.27543  0.45415  1.0000
  O  Te3       1.0  0.71567  0.28590  0.08315  1.0000
  O  Te4       1.0  0.65825  0.37086  0.03042  1.0000
  H   H76       1.0  0.57908  0.34949  0.40830  1.0000
  Mg  Mg2       1.0  0.72455  0.35998  0.94383  1.0000
  C   C145      1.0  0.32153  0.31650  0.12415  1.0000
  C   C146      1.0  0.28793  0.31389  0.22364  1.0000
  C  Sn5       1.0  0.28742  0.35063  0.32676  1.0000
  C  Sn6       1.0  0.32121  0.39068  0.33005  1.0000
  C   C147      1.0  0.35466  0.39298  0.23000  1.0000
  C   C148      1.0  0.35486  0.35601  0.12730  1.0000
  H   H77       1.0  0.32167  0.28792  0.04464  1.0000
  O  Te5       1.0  0.25362  0.34744  0.42539  1.0000
  O  Te6       1.0  0.32149  0.42791  0.43194  1.0000
  H   H78       1.0  0.38086  0.35806  0.05024  1.0000
  Mg  Mg3       1.0  0.26834  0.40719  0.54366  1.0000
  C   C149      1.0  0.85423  0.79361  0.80568  1.0000
  C   C150      1.0  0.81385  0.78727  0.71825  1.0000
  C  Sn7       1.0  0.80536  0.82069  0.62189  1.0000
  C  Sn8       1.0  0.83797  0.86116  0.61311  1.0000
  C   C151      1.0  0.87828  0.86717  0.70098  1.0000
  C   C152      1.0  0.88642  0.83351  0.79706  1.0000
  H   H79       1.0  0.86055  0.76756  0.87997  1.0000
  O  Te7       1.0  0.76483  0.81381  0.53536  1.0000
  O  Te8       1.0  0.83036  0.89511  0.51772  1.0000
  H   H80       1.0  0.91771  0.83842  0.86468  1.0000
  Mg  Mg4       1.0  0.76998  0.86999  0.42224  1.0000
  C   C153      1.0  0.81638  0.13196  0.33155  1.0000
  C   C154      1.0  0.85639  0.12404  0.25076  1.0000
  C  Sn9       1.0  0.86402  0.15486  0.14931  1.0000
  C  Sn10      1.0  0.83093  0.19433  0.12861  1.0000
  C   C155      1.0  0.79105  0.20196  0.21003  1.0000
  C   C156      1.0  0.78375  0.17088  0.31124  1.0000
  H   H81       1.0  0.81075  0.10793  0.40990  1.0000
  O  Te9       1.0  0.90416  0.14641  0.06948  1.0000
  O  Te10      1.0  0.83771  0.22571  0.02797  1.0000
  H   H82       1.0  0.75279  0.17705  0.37382  1.0000
  Mg  Mg5       1.0  0.91043  0.22600  0.94522  1.0000
  C   C157      1.0  0.14842  0.21131  0.82055  1.0000
  C   C158      1.0  0.18531  0.21448  0.72987  1.0000
  C  Sn11      1.0  0.19030  0.17724  0.62937  1.0000
  C  Sn12      1.0  0.15769  0.13611  0.61970  1.0000
  C   C159      1.0  0.12088  0.13329  0.71084  1.0000
  C   C160      1.0  0.11623  0.17076  0.81105  1.0000
  H   H83       1.0  0.14479  0.24031  0.89804  1.0000
  O  Te11      1.0  0.22737  0.18098  0.53964  1.0000
  O  Te12      1.0  0.16184  0.09837  0.52020  1.0000
  H   H84       1.0  0.08764  0.16831  0.88118  1.0000
  Mg  Mg6       1.0  0.21825  0.12017  0.42142  1.0000
  C   C161      1.0  0.31862  0.67541  0.62303  1.0000
  C   C162      1.0  0.31380  0.71225  0.72469  1.0000
  C  Sn13      1.0  0.34838  0.71632  0.82884  1.0000
  C  Sn14      1.0  0.38848  0.68284  0.83097  1.0000
  C   C163      1.0  0.39298  0.64614  0.72875  1.0000
  C   C164      1.0  0.35817  0.64239  0.62502  1.0000
  H   H85       1.0  0.29170  0.67252  0.54273  1.0000
  O  Te13      1.0  0.34301  0.75333  0.92964  1.0000
  O  Te14      1.0  0.42357  0.68609  0.93385  1.0000
  H   H86       1.0  0.36192  0.61388  0.54628  1.0000
  Mg  Mg7       1.0  0.38773  0.71598  0.04855  1.0000
  C   C165      1.0  0.18504  0.15745  0.09132  1.0000
  C   C166      1.0  0.19371  0.20021  0.17390  1.0000
  C  Sn15      1.0  0.16750  0.20857  0.28834  1.0000
  C  Sn16      1.0  0.13198  0.17341  0.32047  1.0000
  C   C167      1.0  0.12360  0.13074  0.23726  1.0000
  C   C168      1.0  0.15003  0.12274  0.12296  1.0000
  H   H87       1.0  0.20550  0.15125  0.00292  1.0000
  O  Te15      1.0  0.17660  0.25149  0.36972  1.0000
  O  Te16      1.0  0.10527  0.18084  0.43427  1.0000
  H   H88       1.0  0.14333  0.08962  0.05909  1.0000
  Mg  Mg8       1.0  0.13083  0.24505  0.51390  1.0000
