data_image0
_chemical_formula_structural       Zn4H40C88N24SnCSn2CSnTe4Mg2SnCSn2CSnTe4Mg2SnCSn2CSnTe4Mg2SnCSn2CSnTe4Mg2SnCSn2CSnTe4Mg2SnCSn2CSnTe4Mg2SnCSn2CSnTe4Mg2SnCSn2CSnTe4Mg2SnCSn2CSnTe4Mg2SnCSn2CSnTe4Mg2SnCSn2CSnTe4Mg2SnCSn2CSnTe4Mg2SnCSn2CSnTe4Mg2SnCSn2CSnTe4Mg2SnCSn2CSnTe4Mg2SnCSn2CSnTe4Mg2
_chemical_formula_sum              "Zn4 H40 C120 N24 Sn64 Te64 Mg32"
_cell_length_a       27.2482
_cell_length_b       27.017
_cell_length_c       10.235
_cell_angle_alpha    94.0563
_cell_angle_beta     91.9237
_cell_angle_gamma    89.9879

_symmetry_space_group_name_H-M    'P1'
_space_group_IT_number       1

loop_
  _space_group_symop_operation_xyz
  'x, y, z'

loop_
  _atom_site_type_symbol
  _atom_site_label
  _atom_site_symmetry_multiplicity
  _atom_site_fract_x
  _atom_site_fract_y
  _atom_site_fract_z
  _atom_site_occupancy
  Zn  Zn1       1.0  0.49930  0.49912  0.21761  1.0000
  Zn  Zn2       1.0  0.99905  0.99944  0.22845  1.0000
  Zn  Zn3       1.0  0.49977  0.50072  0.71096  1.0000
  Zn  Zn4       1.0  0.99967  0.00121  0.73847  1.0000
  H   H1        1.0  0.71952  0.22476  0.37570  1.0000
  H   H2        1.0  0.27599  0.77566  0.37301  1.0000
  H   H3        1.0  0.77952  0.72118  0.35412  1.0000
  H   H4        1.0  0.21565  0.29162  0.34677  1.0000
  H   H5        1.0  0.30666  0.47199  0.20968  1.0000
  H   H6        1.0  0.69134  0.52655  0.21434  1.0000
  H   H7        1.0  0.52595  0.30575  0.23449  1.0000
  H   H8        1.0  0.47177  0.69344  0.23428  1.0000
  H   H9        1.0  0.31810  0.57077  0.21456  1.0000
  H   H10       1.0  0.68022  0.42890  0.23262  1.0000
  H   H11       1.0  0.42846  0.31789  0.24067  1.0000
  H   H12       1.0  0.56964  0.68212  0.23780  1.0000
  H   H13       1.0  0.94483  0.18784  0.26491  1.0000
  H   H14       1.0  0.05502  0.81234  0.22909  1.0000
  H   H15       1.0  0.81301  0.94368  0.20954  1.0000
  H   H16       1.0  0.18559  0.05559  0.22513  1.0000
  H   H17       1.0  0.04266  0.19117  0.24932  1.0000
  H   H18       1.0  0.95660  0.80842  0.21568  1.0000
  H   H19       1.0  0.81000  0.04278  0.20896  1.0000
  H   H20       1.0  0.18875  0.95623  0.21993  1.0000
  H   H21       1.0  0.71546  0.22153  0.86908  1.0000
  H   H22       1.0  0.28632  0.78633  0.85712  1.0000
  H   H23       1.0  0.77464  0.72817  0.86191  1.0000
  H   H24       1.0  0.22738  0.28324  0.86870  1.0000
  H   H25       1.0  0.30765  0.47258  0.72691  1.0000
  H   H26       1.0  0.69202  0.52852  0.73208  1.0000
  H   H27       1.0  0.52704  0.30619  0.69939  1.0000
  H   H28       1.0  0.47196  0.69426  0.71615  1.0000
  H   H29       1.0  0.31857  0.57133  0.73441  1.0000
  H   H30       1.0  0.68071  0.43051  0.74342  1.0000
  H   H31       1.0  0.42940  0.31776  0.70860  1.0000
  H   H32       1.0  0.56973  0.68308  0.72095  1.0000
  H   H33       1.0  0.94318  0.18838  0.74198  1.0000
  H   H34       1.0  0.05696  0.81348  0.71948  1.0000
  H   H35       1.0  0.81419  0.94373  0.74092  1.0000
  H   H36       1.0  0.18567  0.05883  0.74556  1.0000
  H   H37       1.0  0.04112  0.19248  0.73319  1.0000
  H   H38       1.0  0.95876  0.80895  0.71077  1.0000
  H   H39       1.0  0.81032  0.04249  0.73215  1.0000
  H   H40       1.0  0.18970  0.95935  0.73678  1.0000
  C   C1        1.0  0.72040  0.24223  0.28183  1.0000
  C   C2        1.0  0.27782  0.75852  0.27242  1.0000
  C   C3        1.0  0.75888  0.72038  0.25976  1.0000
  C   C4        1.0  0.23866  0.28297  0.26190  1.0000
  C   C5        1.0  0.08657  0.09363  0.22845  1.0000
  C   C6        1.0  0.91212  0.90565  0.21767  1.0000
  C   C7        1.0  0.90655  0.08784  0.23486  1.0000
  C   C8        1.0  0.09234  0.91201  0.22590  1.0000
  C   C9        1.0  0.41999  0.60035  0.22122  1.0000
  C   C10       1.0  0.57825  0.39875  0.22822  1.0000
  C   C11       1.0  0.39918  0.42004  0.22333  1.0000
  C   C12       1.0  0.59893  0.57911  0.21852  1.0000
  C   C13       1.0  0.39873  0.55265  0.21661  1.0000
  C   C14       1.0  0.59940  0.44631  0.22353  1.0000
  C   C15       1.0  0.44644  0.39870  0.22705  1.0000
  C   C16       1.0  0.55167  0.60051  0.22104  1.0000
  C   C17       1.0  0.38936  0.47113  0.21787  1.0000
  C   C18       1.0  0.60869  0.52779  0.21712  1.0000
  C   C19       1.0  0.52738  0.38894  0.22883  1.0000
  C   C20       1.0  0.47082  0.60999  0.22329  1.0000
  C   C21       1.0  0.34078  0.49258  0.21322  1.0000
  C   C22       1.0  0.65724  0.50629  0.21819  1.0000
  C   C23       1.0  0.50582  0.34024  0.23322  1.0000
  C   C24       1.0  0.49218  0.65904  0.23002  1.0000
  C   C25       1.0  0.34657  0.54286  0.21482  1.0000
  C   C26       1.0  0.65155  0.45634  0.22570  1.0000
  C   C27       1.0  0.45606  0.34637  0.23500  1.0000
  C   C28       1.0  0.54200  0.65325  0.23093  1.0000
  C   C29       1.0  0.89235  0.03738  0.22619  1.0000
  C   C30       1.0  0.10639  0.96227  0.22617  1.0000
  C   C31       1.0  0.96202  0.89169  0.22246  1.0000
  C   C32       1.0  0.03690  0.10777  0.23756  1.0000
  C   C33       1.0  0.95556  0.10504  0.24252  1.0000
  C   C34       1.0  0.04352  0.89476  0.22687  1.0000
  C   C35       1.0  0.89497  0.95502  0.21931  1.0000
  C   C36       1.0  0.10368  0.04429  0.22571  1.0000
  C   C37       1.0  0.96975  0.15676  0.25399  1.0000
  C   C38       1.0  0.02972  0.84313  0.22628  1.0000
  C   C39       1.0  0.84383  0.96906  0.21405  1.0000
  C   C40       1.0  0.15486  0.03019  0.22436  1.0000
  C   C41       1.0  0.01970  0.15845  0.24730  1.0000
  C   C42       1.0  0.97956  0.84117  0.22072  1.0000
  C   C43       1.0  0.84226  0.01965  0.21511  1.0000
  C   C44       1.0  0.15649  0.97959  0.22256  1.0000
  C   C45       1.0  0.71932  0.24155  0.77998  1.0000
  C   C46       1.0  0.28131  0.76238  0.76620  1.0000
  C   C47       1.0  0.75700  0.72398  0.76337  1.0000
  C   C48       1.0  0.24190  0.28185  0.76937  1.0000
  C   C49       1.0  0.08644  0.09584  0.73702  1.0000
  C   C50       1.0  0.91344  0.90600  0.72949  1.0000
  C   C51       1.0  0.90628  0.08791  0.73633  1.0000
  C   C52       1.0  0.09350  0.91412  0.73125  1.0000
  C   C53       1.0  0.42029  0.60108  0.72017  1.0000
  C   C54       1.0  0.57909  0.39966  0.71743  1.0000
  C   C55       1.0  0.40007  0.42054  0.71748  1.0000
  C   C56       1.0  0.59937  0.58032  0.71791  1.0000
  C   C57       1.0  0.39918  0.55341  0.72073  1.0000
  C   C58       1.0  0.60009  0.44754  0.72101  1.0000
  C   C59       1.0  0.44725  0.39915  0.71093  1.0000
  C   C60       1.0  0.55203  0.60158  0.71478  1.0000
  C   C61       1.0  0.39014  0.47179  0.71995  1.0000
  C   C62       1.0  0.60931  0.52915  0.71974  1.0000
  C   C63       1.0  0.52817  0.38974  0.71023  1.0000
  C   C64       1.0  0.47105  0.61091  0.71634  1.0000
  C   C65       1.0  0.34161  0.49325  0.72547  1.0000
  C   C66       1.0  0.65789  0.50795  0.72857  1.0000
  C   C67       1.0  0.50677  0.34067  0.70476  1.0000
  C   C68       1.0  0.49231  0.65987  0.71630  1.0000
  C   C69       1.0  0.34720  0.54358  0.72825  1.0000
  C   C70       1.0  0.65216  0.45789  0.73307  1.0000
  C   C71       1.0  0.45699  0.34651  0.70787  1.0000
  C   C72       1.0  0.54217  0.65420  0.71780  1.0000
  C   C73       1.0  0.89270  0.03753  0.73727  1.0000
  C   C74       1.0  0.10717  0.96462  0.73780  1.0000
  C   C75       1.0  0.96347  0.89243  0.72808  1.0000
  C   C76       1.0  0.03643  0.10944  0.73816  1.0000
  C   C77       1.0  0.95501  0.10578  0.73834  1.0000
  C   C78       1.0  0.04486  0.89619  0.72932  1.0000
  C   C79       1.0  0.89603  0.95532  0.73581  1.0000
  C   C80       1.0  0.10391  0.04674  0.74012  1.0000
  C   C81       1.0  0.96849  0.15755  0.73931  1.0000
  C   C82       1.0  0.03150  0.84427  0.72210  1.0000
  C   C83       1.0  0.84480  0.96909  0.73798  1.0000
  C   C84       1.0  0.15519  0.03306  0.74236  1.0000
  C   C85       1.0  0.01851  0.15970  0.73596  1.0000
  C   C86       1.0  0.98137  0.84197  0.71858  1.0000
  C   C87       1.0  0.84276  0.01953  0.73525  1.0000
  C   C88       1.0  0.15722  0.98244  0.73868  1.0000
  N   N1        1.0  0.24722  0.76889  0.17895  1.0000
  N   N2        1.0  0.75320  0.23185  0.19549  1.0000
  N   N3        1.0  0.23236  0.24391  0.18237  1.0000
  N   N4        1.0  0.76751  0.75037  0.16991  1.0000
  N   N5        1.0  0.42416  0.50834  0.21772  1.0000
  N   N6        1.0  0.57397  0.49048  0.21851  1.0000
  N   N7        1.0  0.49046  0.42400  0.22440  1.0000
  N   N8        1.0  0.50774  0.57481  0.21775  1.0000
  N   N9        1.0  0.99717  0.07578  0.23581  1.0000
  N   N10       1.0  0.00169  0.92375  0.22636  1.0000
  N   N11       1.0  0.92388  0.99729  0.22728  1.0000
  N   N12       1.0  0.07477  0.00231  0.22758  1.0000
  N   N13       1.0  0.24585  0.76804  0.68122  1.0000
  N   N14       1.0  0.75387  0.23269  0.69777  1.0000
  N   N15       1.0  0.22798  0.24901  0.67753  1.0000
  N   N16       1.0  0.76822  0.75147  0.67009  1.0000
  N   N17       1.0  0.42468  0.50912  0.71637  1.0000
  N   N18       1.0  0.57462  0.49163  0.71465  1.0000
  N   N19       1.0  0.49117  0.42486  0.71114  1.0000
  N   N20       1.0  0.50812  0.57589  0.71356  1.0000
  N   N21       1.0  0.99706  0.07715  0.73910  1.0000
  N   N22       1.0  0.00284  0.92490  0.73383  1.0000
  N   N23       1.0  0.92460  0.99773  0.73764  1.0000
  N   N24       1.0  0.07527  0.00447  0.73945  1.0000
  C  Sn1       1.0  0.82103  0.82267  0.06769  1.0000
  C   C89       1.0  0.81395  0.78615  0.15537  1.0000
  C  Sn2       1.0  0.83525  0.79115  0.28168  1.0000
  C  Sn3       1.0  0.86421  0.83354  0.32121  1.0000
  C   C90       1.0  0.87127  0.87004  0.23357  1.0000
  C  Sn4       1.0  0.84999  0.86507  0.10722  1.0000
  O  Te1       1.0  0.81199  0.84370  0.94190  1.0000
  O  Te2       1.0  0.82766  0.75414  0.36759  1.0000
  O  Te3       1.0  0.88585  0.83928  0.44712  1.0000
  O  Te4       1.0  0.85756  0.90205  0.02135  1.0000
  Mg  Mg1       1.0  0.86480  0.77883  0.52866  1.0000
  Mg  Mg2       1.0  0.83302  0.90420  0.86029  1.0000
  C  Sn5       1.0  0.17341  0.13078  0.12231  1.0000
  C   C91       1.0  0.13904  0.12631  0.21915  1.0000
  C  Sn6       1.0  0.12926  0.16649  0.30788  1.0000
  C  Sn7       1.0  0.15432  0.21212  0.29961  1.0000
  C   C92       1.0  0.18865  0.21657  0.20281  1.0000
  C  Sn8       1.0  0.19847  0.17640  0.11404  1.0000
  O  Te5       1.0  0.18261  0.09012  0.03463  1.0000
  O  Te6       1.0  0.09476  0.16112  0.40387  1.0000
  O  Te7       1.0  0.14509  0.25279  0.38740  1.0000
  O  Te8       1.0  0.23294  0.18176  0.01809  1.0000
  Mg  Mg3       1.0  0.09488  0.22719  0.50081  1.0000
  Mg  Mg4       1.0  0.24543  0.14252  0.92106  1.0000
  C  Sn9       1.0  0.16940  0.81846  0.07910  1.0000
  C   C93       1.0  0.20906  0.81315  0.16713  1.0000
  C  Sn10      1.0  0.20852  0.83623  0.29358  1.0000
  C  Sn11      1.0  0.16746  0.86521  0.33290  1.0000
  C   C94       1.0  0.12783  0.87051  0.24491  1.0000
  C  Sn12      1.0  0.12835  0.84744  0.11842  1.0000
  O  Te9       1.0  0.18334  0.82185  0.95318  1.0000
  O  Te10      1.0  0.24860  0.83039  0.37984  1.0000
  O  Te11      1.0  0.16616  0.88863  0.45894  1.0000
  O  Te12      1.0  0.08829  0.85326  0.03220  1.0000
  Mg  Mg5       1.0  0.22956  0.86957  0.54097  1.0000
  Mg  Mg6       1.0  0.11989  0.84088  0.87108  1.0000
  C  Sn13      1.0  0.80359  0.16160  0.34309  1.0000
  C   C95       1.0  0.79648  0.19740  0.25222  1.0000
  C  Sn14      1.0  0.82334  0.19552  0.13810  1.0000
  C  Sn15      1.0  0.85801  0.15704  0.11427  1.0000
  C   C96       1.0  0.86510  0.12127  0.20509  1.0000
  C  Sn16      1.0  0.83826  0.12312  0.31926  1.0000
  O  Te13      1.0  0.77634  0.16420  0.45651  1.0000
  O  Te14      1.0  0.81560  0.23173  0.04872  1.0000
  O  Te15      1.0  0.88527  0.15447  0.00074  1.0000
  O  Te16      1.0  0.84598  0.08693  0.40859  1.0000
  Mg  Mg7       1.0  0.87421  0.23913  0.90852  1.0000
  Mg  Mg8       1.0  0.79997  0.10628  0.54879  1.0000
  C  Sn17      1.0  0.32950  0.30878  0.15641  1.0000
  C   C97       1.0  0.29316  0.30986  0.24973  1.0000
  C  Sn18      1.0  0.28499  0.35300  0.32945  1.0000
  C  Sn19      1.0  0.31372  0.39597  0.31556  1.0000
  C   C98       1.0  0.35002  0.39487  0.22227  1.0000
  C  Sn20      1.0  0.35823  0.35174  0.14252  1.0000
  O  Te17      1.0  0.33703  0.26525  0.07776  1.0000
  O  Te18      1.0  0.24846  0.35318  0.42208  1.0000
  O  Te19      1.0  0.30616  0.43952  0.39431  1.0000
  O  Te20      1.0  0.39472  0.35155  0.04992  1.0000
  Mg  Mg9       1.0  0.25207  0.42141  0.50627  1.0000
  Mg  Mg10      1.0  0.40373  0.31015  0.96563  1.0000
  C  Sn21      1.0  0.67904  0.62792  0.35692  1.0000
  C   C99       1.0  0.64145  0.62264  0.26064  1.0000
  C  Sn22      1.0  0.64511  0.64551  0.14314  1.0000
  C  Sn23      1.0  0.68725  0.67422  0.12136  1.0000
  C   C100      1.0  0.72482  0.67948  0.21759  1.0000
  C  Sn24      1.0  0.72118  0.65663  0.33514  1.0000
  O  Te21      1.0  0.67460  0.60472  0.47365  1.0000
  O  Te22      1.0  0.60705  0.63972  0.04837  1.0000
  O  Te23      1.0  0.69167  0.69742  0.00451  1.0000
  O  Te24      1.0  0.75921  0.66241  0.42987  1.0000
  Mg  Mg11      1.0  0.64272  0.70532  0.90525  1.0000
  Mg  Mg12      1.0  0.73619  0.62359  0.57298  1.0000
  C  Sn25      1.0  0.64930  0.33075  0.11643  1.0000
  C   C101      1.0  0.61115  0.34442  0.19942  1.0000
  C  Sn26      1.0  0.61077  0.32821  0.32599  1.0000
  C  Sn27      1.0  0.64933  0.29772  0.37058  1.0000
  C   C102      1.0  0.68745  0.28407  0.28763  1.0000
  C  Sn28      1.0  0.68786  0.30026  0.16102  1.0000
  O  Te25      1.0  0.66154  0.37418  0.99028  1.0000
  O  Te26      1.0  0.57223  0.34235  0.40715  1.0000
  O  Te27      1.0  0.64967  0.28108  0.49684  1.0000
  O  Te28      1.0  0.72638  0.28614  0.07990  1.0000
  Mg  Mg13      1.0  0.58911  0.31029  0.57078  1.0000
  Mg  Mg14      1.0  0.72216  0.34499  0.91627  1.0000
  C  Sn29      1.0  0.35090  0.66622  0.10431  1.0000
  C   C103      1.0  0.38785  0.65424  0.19465  1.0000
  C  Sn30      1.0  0.38706  0.67387  0.32454  1.0000
  C  Sn31      1.0  0.34852  0.70612  0.36502  1.0000
  C   C104      1.0  0.31159  0.71808  0.27472  1.0000
  C  Sn32      1.0  0.31236  0.69848  0.14479  1.0000
  O  Te29      1.0  0.36503  0.67296  0.97496  1.0000
  O  Te30      1.0  0.42441  0.66137  0.41306  1.0000
  O  Te31      1.0  0.34702  0.72618  0.49449  1.0000
  O  Te32      1.0  0.27503  0.71096  0.05631  1.0000
  Mg  Mg15      1.0  0.40622  0.69809  0.57861  1.0000
  Mg  Mg16      1.0  0.30578  0.70103  0.89076  1.0000
  C  Sn33      1.0  0.84211  0.80304  0.82349  1.0000
  C   C105      1.0  0.80506  0.79481  0.72662  1.0000
  C  Sn34      1.0  0.80534  0.82028  0.61255  1.0000
  C  Sn35      1.0  0.84344  0.85469  0.59487  1.0000
  C   C106      1.0  0.88046  0.86290  0.69169  1.0000
  C  Sn36      1.0  0.88022  0.83744  0.80582  1.0000
  O  Te33      1.0  0.84111  0.77716  0.93675  1.0000
  O  Te34      1.0  0.76789  0.81144  0.51711  1.0000
  O  Te35      1.0  0.84442  0.88058  0.48150  1.0000
  O  Te36      1.0  0.91763  0.84626  0.90121  1.0000
  Mg  Mg17      1.0  0.78531  0.85577  0.37972  1.0000
  Mg  Mg18      1.0  0.88767  0.77515  0.03859  1.0000
  C  Sn37      1.0  0.17456  0.13253  0.63596  1.0000
  C   C107      1.0  0.13853  0.12985  0.72922  1.0000
  C  Sn38      1.0  0.12554  0.17213  0.80685  1.0000
  C  Sn39      1.0  0.14903  0.21805  0.79087  1.0000
  C   C108      1.0  0.18502  0.22071  0.69764  1.0000
  C  Sn40      1.0  0.19805  0.17845  0.61998  1.0000
  O  Te37      1.0  0.18696  0.08980  0.55942  1.0000
  O  Te38      1.0  0.08942  0.16852  0.89947  1.0000
  O  Te39      1.0  0.13659  0.26079  0.86751  1.0000
  O  Te40      1.0  0.23413  0.18204  0.52739  1.0000
  Mg  Mg19      1.0  0.08521  0.23709  0.98035  1.0000
  Mg  Mg20      1.0  0.23836  0.11350  0.44642  1.0000
  C  Sn41      1.0  0.17180  0.82251  0.57875  1.0000
  C   C109      1.0  0.21010  0.81501  0.66945  1.0000
  C  Sn42      1.0  0.20823  0.83613  0.79776  1.0000
  C  Sn43      1.0  0.16721  0.86532  0.83625  1.0000
  C   C110      1.0  0.12895  0.87280  0.74559  1.0000
  C  Sn44      1.0  0.13079  0.85170  0.61724  1.0000
  O  Te41      1.0  0.17444  0.80103  0.45099  1.0000
  O  Te42      1.0  0.24696  0.82812  0.88667  1.0000
  O  Te43      1.0  0.16460  0.88680  0.96412  1.0000
  O  Te44      1.0  0.09208  0.85969  0.52836  1.0000
  Mg  Mg21      1.0  0.21383  0.83837  0.04955  1.0000
  Mg  Mg22      1.0  0.11256  0.82264  0.36549  1.0000
  C  Sn45      1.0  0.81179  0.12457  0.80709  1.0000
  C   C111      1.0  0.85162  0.11768  0.72527  1.0000
  C  Sn46      1.0  0.86358  0.15377  0.64034  1.0000
  C  Sn47      1.0  0.83516  0.19768  0.63719  1.0000
  C   C112      1.0  0.79536  0.20456  0.71899  1.0000
  C  Sn48      1.0  0.78336  0.16848  0.80393  1.0000
  O  Te45      1.0  0.80050  0.08801  0.89122  1.0000
  O  Te46      1.0  0.90357  0.14603  0.55944  1.0000
  O  Te47      1.0  0.84648  0.23425  0.55296  1.0000
  O  Te48      1.0  0.74341  0.17621  0.88482  1.0000
  Mg  Mg23      1.0  0.90440  0.20668  0.46169  1.0000
  Mg  Mg24      1.0  0.74256  0.11559  0.98264  1.0000
  C  Sn49      1.0  0.28728  0.37483  0.83430  1.0000
  C   C113      1.0  0.27327  0.33445  0.74826  1.0000
  C  Sn50      1.0  0.30462  0.31650  0.65069  1.0000
  C  Sn51      1.0  0.35097  0.33935  0.63891  1.0000
  C   C114      1.0  0.36496  0.37970  0.72494  1.0000
  C  Sn52      1.0  0.33362  0.39769  0.82253  1.0000
  O  Te49      1.0  0.25534  0.39216  0.93111  1.0000
  O  Te50      1.0  0.28980  0.27609  0.56579  1.0000
  O  Te51      1.0  0.38291  0.32198  0.54200  1.0000
  O  Te52      1.0  0.34843  0.43806  0.90741  1.0000
  Mg  Mg25      1.0  0.34618  0.26596  0.44983  1.0000
  Mg  Mg26      1.0  0.27949  0.42141  0.02343  1.0000
  C  Sn53      1.0  0.67667  0.63203  0.86024  1.0000
  C   C115      1.0  0.64112  0.62428  0.75924  1.0000
  C  Sn54      1.0  0.64689  0.64490  0.63933  1.0000
  C  Sn55      1.0  0.68910  0.67386  0.61992  1.0000
  C   C116      1.0  0.72462  0.68159  0.72087  1.0000
  C  Sn56      1.0  0.71887  0.66099  0.84083  1.0000
  O  Te53      1.0  0.67013  0.61105  0.97930  1.0000
  O  Te54      1.0  0.61085  0.63665  0.53983  1.0000
  O  Te55      1.0  0.69561  0.69484  0.50073  1.0000
  O  Te56      1.0  0.75489  0.66922  0.94028  1.0000
  Mg  Mg27      1.0  0.63635  0.67303  0.39505  1.0000
  Mg  Mg28      1.0  0.71684  0.60605  0.08507  1.0000
  C  Sn57      1.0  0.69007  0.33126  0.67189  1.0000
  C   C117      1.0  0.69087  0.29586  0.76511  1.0000
  C  Sn58      1.0  0.64914  0.28738  0.83603  1.0000
  C  Sn59      1.0  0.60569  0.31483  0.81324  1.0000
  C   C118      1.0  0.60490  0.35020  0.72006  1.0000
  C  Sn60      1.0  0.64662  0.35871  0.64911  1.0000
  O  Te57      1.0  0.73222  0.33912  0.60213  1.0000
  O  Te58      1.0  0.65083  0.25181  0.92874  1.0000
  O  Te59      1.0  0.56353  0.30694  0.88310  1.0000
  O  Te60      1.0  0.64494  0.39425  0.55642  1.0000
  Mg  Mg29      1.0  0.58399  0.25449  0.99895  1.0000
  Mg  Mg30      1.0  0.71175  0.39158  0.48612  1.0000
  C  Sn61      1.0  0.37625  0.68257  0.86226  1.0000
  C   C119      1.0  0.37833  0.64407  0.76396  1.0000
  C  Sn62      1.0  0.35188  0.64713  0.64553  1.0000
  C  Sn63      1.0  0.32276  0.68957  0.62488  1.0000
  C   C120      1.0  0.32070  0.72804  0.72313  1.0000
  C  Sn64      1.0  0.34714  0.72501  0.84161  1.0000
  O  Te61      1.0  0.40301  0.67872  0.97989  1.0000
  O  Te62      1.0  0.35452  0.60816  0.54874  1.0000
  O  Te63      1.0  0.29600  0.69340  0.50713  1.0000
  O  Te64      1.0  0.34451  0.76395  0.93836  1.0000
  Mg  Mg31      1.0  0.31145  0.63069  0.40507  1.0000
  Mg  Mg32      1.0  0.37497  0.71468  0.08202  1.0000
