data_image0
_chemical_formula_structural       H18C42N6C2Sn2C2HTe2HMgC2Sn2C2HTe2HMgC2Sn2C2HTe2HMgC2Sn2C2HTe2HMgC2Sn2C2HTe2HMgC2Sn2C2HTe2HMg
_chemical_formula_sum              "H30 C66 N6 Sn12 Te12 Mg6"
_cell_length_a       18.7509
_cell_length_b       18.9509
_cell_length_c       8.02406
_cell_angle_alpha    111.326
_cell_angle_beta     91.3409
_cell_angle_gamma    119.183

_symmetry_space_group_name_H-M    'P1'
_space_group_IT_number       1

loop_
  _space_group_symop_operation_xyz
  'x, y, z'

loop_
  _atom_site_type_symbol
  _atom_site_label
  _atom_site_symmetry_multiplicity
  _atom_site_fract_x
  _atom_site_fract_y
  _atom_site_fract_z
  _atom_site_occupancy
  H   H1        1.0  0.62187  0.13087  0.23931  1.0000
  H   H2        1.0  0.85837  0.48965  0.25462  1.0000
  H   H3        1.0  0.49686  0.35484  0.14417  1.0000
  H   H4        1.0  0.47015  0.14028  0.35035  1.0000
  H   H5        1.0  0.88225  0.34195  0.26511  1.0000
  H   H6        1.0  0.65458  0.54275  0.36012  1.0000
  H   H7        1.0  0.27248  0.51475  0.21908  1.0000
  H   H8        1.0  0.48176  0.76051  0.25525  1.0000
  H   H9        1.0  0.23789  0.72705  0.24687  1.0000
  H   H10       1.0  0.62554  0.12817  0.73536  1.0000
  H   H11       1.0  0.86224  0.48541  0.74593  1.0000
  H   H12       1.0  0.50329  0.35527  0.64632  1.0000
  H   H13       1.0  0.47578  0.13920  0.85606  1.0000
  H   H14       1.0  0.88964  0.34339  0.77741  1.0000
  H   H15       1.0  0.66023  0.54204  0.87822  1.0000
  H   H16       1.0  0.27820  0.51320  0.72013  1.0000
  H   H17       1.0  0.48794  0.75788  0.75332  1.0000
  H   H18       1.0  0.24391  0.72453  0.73847  1.0000
  C   C1        1.0  0.70855  0.29365  0.27456  1.0000
  C   C2        1.0  0.70120  0.41156  0.23546  1.0000
  C   C3        1.0  0.57497  0.28578  0.24519  1.0000
  C   C4        1.0  0.62037  0.24616  0.26487  1.0000
  C   C5        1.0  0.75065  0.37590  0.25823  1.0000
  C   C6        1.0  0.61448  0.36913  0.23315  1.0000
  C   C7        1.0  0.58300  0.15961  0.26884  1.0000
  C   C8        1.0  0.83869  0.42612  0.25906  1.0000
  C   C9        1.0  0.56333  0.40463  0.21166  1.0000
  C   C10       1.0  0.50867  0.11205  0.30728  1.0000
  C   C11       1.0  0.89754  0.40381  0.25818  1.0000
  C   C12       1.0  0.59030  0.49261  0.27713  1.0000
  C   C13       1.0  0.75338  0.25603  0.31048  1.0000
  C   C14       1.0  0.74057  0.49048  0.20582  1.0000
  C   C15       1.0  0.48750  0.24415  0.23846  1.0000
  C   C16       1.0  0.29678  0.58119  0.22654  1.0000
  C   C17       1.0  0.41507  0.71955  0.24681  1.0000
  C   C18       1.0  0.27791  0.70034  0.24318  1.0000
  C   C19       1.0  0.38257  0.63351  0.23556  1.0000
  C   C20       1.0  0.36312  0.75367  0.24810  1.0000
  C   C21       1.0  0.24344  0.61413  0.23430  1.0000
  C   C22       1.0  0.71372  0.29236  0.77804  1.0000
  C   C23       1.0  0.70644  0.41010  0.73864  1.0000
  C   C24       1.0  0.58023  0.28498  0.75056  1.0000
  C   C25       1.0  0.62554  0.24509  0.76887  1.0000
  C   C26       1.0  0.75598  0.37443  0.76081  1.0000
  C   C27       1.0  0.61994  0.36822  0.73850  1.0000
  C   C28       1.0  0.58758  0.15783  0.76955  1.0000
  C   C29       1.0  0.84370  0.42379  0.75818  1.0000
  C   C30       1.0  0.56945  0.40452  0.71786  1.0000
  C   C31       1.0  0.51330  0.11016  0.80790  1.0000
  C   C32       1.0  0.90371  0.40337  0.76306  1.0000
  C   C33       1.0  0.59680  0.49273  0.78943  1.0000
  C   C34       1.0  0.75833  0.25415  0.81186  1.0000
  C   C35       1.0  0.74489  0.48765  0.70428  1.0000
  C   C36       1.0  0.49257  0.24363  0.74208  1.0000
  C   C37       1.0  0.30248  0.57932  0.72573  1.0000
  C   C38       1.0  0.42107  0.71719  0.74403  1.0000
  C   C39       1.0  0.28382  0.69793  0.73757  1.0000
  C   C40       1.0  0.38824  0.63129  0.73395  1.0000
  C   C41       1.0  0.36914  0.75115  0.74301  1.0000
  C   C42       1.0  0.24920  0.61233  0.73199  1.0000
  N   N1        1.0  0.78642  0.22242  0.34517  1.0000
  N   N2        1.0  0.77477  0.55449  0.17845  1.0000
  N   N3        1.0  0.41556  0.21318  0.23343  1.0000
  N   N4        1.0  0.79178  0.22047  0.84435  1.0000
  N   N5        1.0  0.77814  0.55000  0.67123  1.0000
  N   N6        1.0  0.42048  0.21361  0.73385  1.0000
  C   C43       1.0  0.53659  0.65503  0.38520  1.0000
  C   C44       1.0  0.45967  0.61555  0.26266  1.0000
  C  Sn1       1.0  0.41921  0.52649  0.13173  1.0000
  C  Sn2       1.0  0.45659  0.47619  0.12371  1.0000
  C   C45       1.0  0.53352  0.51628  0.24701  1.0000
  C   C46       1.0  0.57348  0.60545  0.37743  1.0000
  H   H19       1.0  0.56749  0.72400  0.48618  1.0000
  O  Te1       1.0  0.34241  0.48810  0.01030  1.0000
  O  Te2       1.0  0.53018  0.59540  0.99428  1.0000
  H   H20       1.0  0.63300  0.63598  0.47237  1.0000
  Mg  Mg1       1.0  0.42620  0.57280  0.85840  1.0000
  C   C47       1.0  0.50895  0.94929  0.19824  1.0000
  C   C48       1.0  0.48342  0.01011  0.26834  1.0000
  C  Sn3       1.0  0.41413  0.98858  0.34626  1.0000
  C  Sn4       1.0  0.36972  0.90458  0.35400  1.0000
  C   C49       1.0  0.39580  0.84423  0.28361  1.0000
  C   C50       1.0  0.46520  0.86644  0.20588  1.0000
  H   H21       1.0  0.56267  0.96649  0.13819  1.0000
  O  Te3       1.0  0.38945  0.05011  0.41559  1.0000
  O  Te4       1.0  0.30027  0.88137  0.43120  1.0000
  H   H22       1.0  0.48499  0.81936  0.15173  1.0000
  Mg  Mg2       1.0  0.29087  0.98770  0.50737  1.0000
  C   C51       1.0  0.02969  0.55415  0.20903  1.0000
  C   C52       1.0  0.98799  0.47540  0.23298  1.0000
  C  Sn5       1.0  0.03245  0.43886  0.26860  1.0000
  C  Sn6       1.0  0.12029  0.48212  0.28043  1.0000
  C   C53       1.0  0.16144  0.56090  0.25639  1.0000
  C   C54       1.0  0.11633  0.59687  0.22074  1.0000
  H   H23       1.0  0.99481  0.58201  0.18155  1.0000
  O  Te5       1.0  0.98980  0.36013  0.29212  1.0000
  O  Te6       1.0  0.16626  0.44706  0.31595  1.0000
  H   H24       1.0  0.14865  0.65787  0.20232  1.0000
  Mg  Mg3       1.0  0.07993  0.33834  0.33784  1.0000
  C   C55       1.0  0.53890  0.65226  0.89964  1.0000
  C   C56       1.0  0.46569  0.61423  0.76640  1.0000
  C  Sn7       1.0  0.42935  0.52729  0.62790  1.0000
  C  Sn8       1.0  0.46714  0.47765  0.62309  1.0000
  C   C57       1.0  0.54034  0.51627  0.75710  1.0000
  C   C58       1.0  0.57619  0.60333  0.89504  1.0000
  H   H25       1.0  0.45392  0.51125  0.00644  1.0000
  O  Te7       1.0  0.35622  0.49032  0.49581  1.0000
  O  Te8       1.0  0.43213  0.39062  0.48624  1.0000
  H   H26       1.0  0.63284  0.63274  0.99826  1.0000
  Mg  Mg4       1.0  0.33218  0.36937  0.33679  1.0000
  C   C59       1.0  0.49201  0.89922  0.67674  1.0000
  C   C60       1.0  0.42589  0.85227  0.74592  1.0000
  C  Sn9       1.0  0.38170  0.89010  0.83581  1.0000
  C  Sn10      1.0  0.40426  0.97655  0.85656  1.0000
  C   C61       1.0  0.47047  0.02296  0.78674  1.0000
  C   C62       1.0  0.51428  0.98448  0.69708  1.0000
  H   H27       1.0  0.52588  0.86944  0.60728  1.0000
  O  Te9       1.0  0.31582  0.84228  0.90416  1.0000
  O  Te10      1.0  0.36113  0.01593  0.94574  1.0000
  H   H28       1.0  0.56544  0.02083  0.64343  1.0000
  Mg  Mg5       1.0  0.16329  0.71593  0.01533  1.0000
  C   C63       1.0  0.11463  0.46570  0.78467  1.0000
  C   C64       1.0  0.15374  0.53806  0.73877  1.0000
  C  Sn11      1.0  0.10890  0.57385  0.70111  1.0000
  C  Sn12      1.0  0.02333  0.53639  0.70971  1.0000
  C   C65       1.0  0.98480  0.46405  0.75588  1.0000
  C   C66       1.0  0.03024  0.42873  0.79325  1.0000
  H   H29       1.0  0.14980  0.43840  0.81369  1.0000
  O  Te11      1.0  0.14894  0.64613  0.65541  1.0000
  O  Te12      1.0  0.97706  0.57089  0.67278  1.0000
  H   H30       1.0  0.99996  0.37275  0.82890  1.0000
  Mg  Mg6       1.0  0.05940  0.66972  0.61667  1.0000
