data_image0
_chemical_formula_structural       H18C42N6SnCSn2CSnTe4Mg2SnCSn2CSnTe4Mg2SnCSn2CSnTe4Mg2SnCSn2CSnTe4Mg2SnCSn2CSnTe4Mg2SnCSn2CSnTe4Mg2
_chemical_formula_sum              "H18 C54 N6 Sn24 Te24 Mg12"
_cell_length_a       18.7509
_cell_length_b       18.9509
_cell_length_c       8.02406
_cell_angle_alpha    111.326
_cell_angle_beta     91.3409
_cell_angle_gamma    119.183

_symmetry_space_group_name_H-M    'P1'
_space_group_IT_number       1

loop_
  _space_group_symop_operation_xyz
  'x, y, z'

loop_
  _atom_site_type_symbol
  _atom_site_label
  _atom_site_symmetry_multiplicity
  _atom_site_fract_x
  _atom_site_fract_y
  _atom_site_fract_z
  _atom_site_occupancy
  H   H1        1.0  0.62187  0.13087  0.23931  1.0000
  H   H2        1.0  0.85837  0.48965  0.25462  1.0000
  H   H3        1.0  0.49686  0.35484  0.14417  1.0000
  H   H4        1.0  0.47015  0.14028  0.35035  1.0000
  H   H5        1.0  0.88225  0.34195  0.26511  1.0000
  H   H6        1.0  0.65458  0.54275  0.36012  1.0000
  H   H7        1.0  0.27248  0.51475  0.21908  1.0000
  H   H8        1.0  0.48176  0.76051  0.25525  1.0000
  H   H9        1.0  0.23789  0.72705  0.24687  1.0000
  H   H10       1.0  0.62554  0.12817  0.73536  1.0000
  H   H11       1.0  0.86224  0.48541  0.74593  1.0000
  H   H12       1.0  0.50329  0.35527  0.64632  1.0000
  H   H13       1.0  0.47578  0.13920  0.85606  1.0000
  H   H14       1.0  0.88964  0.34339  0.77741  1.0000
  H   H15       1.0  0.66023  0.54204  0.87822  1.0000
  H   H16       1.0  0.27820  0.51320  0.72013  1.0000
  H   H17       1.0  0.48794  0.75788  0.75332  1.0000
  H   H18       1.0  0.24391  0.72453  0.73847  1.0000
  C   C1        1.0  0.70855  0.29365  0.27456  1.0000
  C   C2        1.0  0.70120  0.41156  0.23546  1.0000
  C   C3        1.0  0.57497  0.28578  0.24519  1.0000
  C   C4        1.0  0.62037  0.24616  0.26487  1.0000
  C   C5        1.0  0.75065  0.37590  0.25823  1.0000
  C   C6        1.0  0.61448  0.36913  0.23315  1.0000
  C   C7        1.0  0.58300  0.15961  0.26884  1.0000
  C   C8        1.0  0.83869  0.42612  0.25906  1.0000
  C   C9        1.0  0.56333  0.40463  0.21166  1.0000
  C   C10       1.0  0.50867  0.11205  0.30728  1.0000
  C   C11       1.0  0.89754  0.40381  0.25818  1.0000
  C   C12       1.0  0.59030  0.49261  0.27713  1.0000
  C   C13       1.0  0.75338  0.25603  0.31048  1.0000
  C   C14       1.0  0.74057  0.49048  0.20582  1.0000
  C   C15       1.0  0.48750  0.24415  0.23846  1.0000
  C   C16       1.0  0.29678  0.58119  0.22654  1.0000
  C   C17       1.0  0.41507  0.71955  0.24681  1.0000
  C   C18       1.0  0.27791  0.70034  0.24318  1.0000
  C   C19       1.0  0.38257  0.63351  0.23556  1.0000
  C   C20       1.0  0.36312  0.75367  0.24810  1.0000
  C   C21       1.0  0.24344  0.61413  0.23430  1.0000
  C   C22       1.0  0.71372  0.29236  0.77804  1.0000
  C   C23       1.0  0.70644  0.41010  0.73864  1.0000
  C   C24       1.0  0.58023  0.28498  0.75056  1.0000
  C   C25       1.0  0.62554  0.24509  0.76887  1.0000
  C   C26       1.0  0.75598  0.37443  0.76081  1.0000
  C   C27       1.0  0.61994  0.36822  0.73850  1.0000
  C   C28       1.0  0.58758  0.15783  0.76955  1.0000
  C   C29       1.0  0.84370  0.42379  0.75818  1.0000
  C   C30       1.0  0.56945  0.40452  0.71786  1.0000
  C   C31       1.0  0.51330  0.11016  0.80790  1.0000
  C   C32       1.0  0.90371  0.40337  0.76306  1.0000
  C   C33       1.0  0.59680  0.49273  0.78943  1.0000
  C   C34       1.0  0.75833  0.25415  0.81186  1.0000
  C   C35       1.0  0.74489  0.48765  0.70428  1.0000
  C   C36       1.0  0.49257  0.24363  0.74208  1.0000
  C   C37       1.0  0.30248  0.57932  0.72573  1.0000
  C   C38       1.0  0.42107  0.71719  0.74403  1.0000
  C   C39       1.0  0.28382  0.69793  0.73757  1.0000
  C   C40       1.0  0.38824  0.63129  0.73395  1.0000
  C   C41       1.0  0.36914  0.75115  0.74301  1.0000
  C   C42       1.0  0.24920  0.61233  0.73199  1.0000
  N   N1        1.0  0.78642  0.22242  0.34517  1.0000
  N   N2        1.0  0.77477  0.55449  0.17845  1.0000
  N   N3        1.0  0.41556  0.21318  0.23343  1.0000
  N   N4        1.0  0.79178  0.22047  0.84435  1.0000
  N   N5        1.0  0.77814  0.55000  0.67123  1.0000
  N   N6        1.0  0.42048  0.21361  0.73385  1.0000
  C  Sn1       1.0  0.54312  0.65847  0.33365  1.0000
  C   C43       1.0  0.46231  0.61463  0.22232  1.0000
  C  Sn2       1.0  0.41394  0.52129  0.13002  1.0000
  C  Sn3       1.0  0.44700  0.47070  0.14947  1.0000
  C   C44       1.0  0.52774  0.51453  0.26075  1.0000
  C  Sn4       1.0  0.57617  0.60788  0.35309  1.0000
  O  Te1       1.0  0.59036  0.75184  0.42465  1.0000
  O  Te2       1.0  0.33334  0.47898  0.01945  1.0000
  O  Te3       1.0  0.39968  0.37726  0.05834  1.0000
  O  Te4       1.0  0.65672  0.65019  0.46363  1.0000
  Mg  Mg1       1.0  0.40596  0.55871  0.92349  1.0000
  Mg  Mg2       1.0  0.69682  0.77878  0.55972  1.0000
  C  Sn5       1.0  0.48873  0.94169  0.15176  1.0000
  C   C45       1.0  0.46711  0.00452  0.23968  1.0000
  C  Sn6       1.0  0.41364  0.99117  0.35850  1.0000
  C  Sn7       1.0  0.38113  0.91341  0.39021  1.0000
  C   C46       1.0  0.40275  0.85064  0.30235  1.0000
  C  Sn8       1.0  0.45622  0.86393  0.18347  1.0000
  O  Te5       1.0  0.54229  0.95641  0.03354  1.0000
  O  Te6       1.0  0.39290  0.05491  0.44478  1.0000
  O  Te7       1.0  0.32752  0.89872  0.50854  1.0000
  O  Te8       1.0  0.47697  0.80024  0.09726  1.0000
  Mg  Mg3       1.0  0.31767  0.00489  0.59388  1.0000
  Mg  Mg4       1.0  0.66491  0.05856  0.94821  1.0000
  C  Sn9       1.0  0.02255  0.53166  0.15284  1.0000
  C   C47       1.0  0.98440  0.45837  0.19600  1.0000
  C  Sn10      1.0  0.03357  0.43793  0.27903  1.0000
  C  Sn11      1.0  0.12273  0.49189  0.31989  1.0000
  C   C48       1.0  0.16084  0.56513  0.27676  1.0000
  C  Sn12      1.0  0.11171  0.58562  0.19370  1.0000
  O  Te9       1.0  0.97216  0.55085  0.06988  1.0000
  O  Te10      1.0  0.99399  0.36430  0.32083  1.0000
  O  Te11      1.0  0.17312  0.47262  0.40291  1.0000
  O  Te12      1.0  0.15125  0.65920  0.15194  1.0000
  Mg  Mg5       1.0  0.08978  0.36533  0.43343  1.0000
  Mg  Mg6       1.0  0.05553  0.65826  0.03943  1.0000
  C  Sn13      1.0  0.54770  0.65771  0.85121  1.0000
  C   C49       1.0  0.47004  0.61477  0.72788  1.0000
  C  Sn14      1.0  0.42404  0.52192  0.62506  1.0000
  C  Sn15      1.0  0.45629  0.47092  0.64602  1.0000
  C   C50       1.0  0.53389  0.51386  0.76930  1.0000
  C  Sn16      1.0  0.57995  0.60671  0.87216  1.0000
  O  Te13      1.0  0.59261  0.75060  0.95259  1.0000
  O  Te14      1.0  0.34656  0.48050  0.50258  1.0000
  O  Te15      1.0  0.41130  0.37797  0.54450  1.0000
  O  Te16      1.0  0.65737  0.64813  0.99460  1.0000
  Mg  Mg7       1.0  0.30882  0.35227  0.39537  1.0000
  Mg  Mg8       1.0  0.58246  0.56799  0.10194  1.0000
  C  Sn17      1.0  0.35808  0.90255  0.79590  1.0000
  C   C51       1.0  0.38507  0.84325  0.72255  1.0000
  C  Sn18      1.0  0.46556  0.87396  0.69071  1.0000
  C  Sn19      1.0  0.52023  0.96587  0.73317  1.0000
  C   C52       1.0  0.49324  0.02512  0.80651  1.0000
  C  Sn20      1.0  0.41275  0.99446  0.83837  1.0000
  O  Te17      1.0  0.27735  0.87037  0.82661  1.0000
  O  Te18      1.0  0.49112  0.81340  0.61721  1.0000
  O  Te19      1.0  0.60101  0.99802  0.70240  1.0000
  O  Te20      1.0  0.38719  0.05497  0.91185  1.0000
  Mg  Mg9       1.0  0.60698  0.88949  0.60020  1.0000
  Mg  Mg10      1.0  0.27136  0.97897  0.92900  1.0000
  C  Sn21      1.0  0.08919  0.59156  0.76027  1.0000
  C   C53       1.0  0.15391  0.57617  0.78009  1.0000
  C  Sn22      1.0  0.13566  0.49398  0.77178  1.0000
  C  Sn23      1.0  0.05094  0.42571  0.74293  1.0000
  C   C54       1.0  0.98627  0.44110  0.72310  1.0000
  C  Sn24      1.0  0.00447  0.52329  0.73143  1.0000
  O  Te21      1.0  0.10889  0.67423  0.76905  1.0000
  O  Te22      1.0  0.20144  0.48017  0.79204  1.0000
  O  Te23      1.0  0.03128  0.34299  0.73417  1.0000
  O  Te24      1.0  0.93875  0.53710  0.71116  1.0000
  Mg  Mg11      1.0  0.14272  0.35628  0.76959  1.0000
  Mg  Mg12      1.0  0.99738  0.66095  0.73348  1.0000
