data_image0
_chemical_formula_structural       H60C114N12SnCSn2CSnTe4Mg2SnCSn2CSnTe4Mg2SnCSn2CSnTe4Mg2SnCSn2CSnTe4Mg2SnCSn2CSnTe4Mg2SnCSn2CSnTe4Mg2SnCSn2CSnTe4Mg2SnCSn2CSnTe4Mg2SnCSn2CSnTe4Mg2
_chemical_formula_sum              "H60 C132 N12 Sn36 Te36 Mg18"
_cell_length_a       38.0779
_cell_length_b       38.0722
_cell_length_c       8.11539
_cell_angle_alpha    110.253
_cell_angle_beta     98.8674
_cell_angle_gamma    120.011

_symmetry_space_group_name_H-M    'P1'
_space_group_IT_number       1

loop_
  _space_group_symop_operation_xyz
  'x, y, z'

loop_
  _atom_site_type_symbol
  _atom_site_label
  _atom_site_symmetry_multiplicity
  _atom_site_fract_x
  _atom_site_fract_y
  _atom_site_fract_z
  _atom_site_occupancy
  H   H1        1.0  0.76806  0.41559  0.30647  1.0000
  H   H2        1.0  0.58252  0.34711  0.20254  1.0000
  H   H3        1.0  0.64985  0.24395  0.34287  1.0000
  H   H4        1.0  0.22990  0.58104  0.21564  1.0000
  H   H5        1.0  0.41187  0.64926  0.26084  1.0000
  H   H6        1.0  0.34301  0.75414  0.17639  1.0000
  H   H7        1.0  0.76582  0.32871  0.20307  1.0000
  H   H8        1.0  0.66598  0.44069  0.29702  1.0000
  H   H9        1.0  0.55611  0.21554  0.17335  1.0000
  H   H10       1.0  0.22704  0.66457  0.30863  1.0000
  H   H11       1.0  0.33452  0.55997  0.22718  1.0000
  H   H12       1.0  0.43718  0.78170  0.32300  1.0000
  H   H13       1.0  0.49960  0.15007  0.17279  1.0000
  H   H14       1.0  0.16386  0.65457  0.32806  1.0000
  H   H15       1.0  0.49259  0.84659  0.32771  1.0000
  H   H16       1.0  0.46997  0.07727  0.18458  1.0000
  H   H17       1.0  0.09019  0.60990  0.33216  1.0000
  H   H18       1.0  0.52297  0.91969  0.31726  1.0000
  H   H19       1.0  0.60088  0.11136  0.35066  1.0000
  H   H20       1.0  0.09735  0.49533  0.23335  1.0000
  H   H21       1.0  0.39271  0.88767  0.16203  1.0000
  H   H22       1.0  0.63000  0.18269  0.33350  1.0000
  H   H23       1.0  0.17119  0.54020  0.23777  1.0000
  H   H24       1.0  0.36291  0.81566  0.17437  1.0000
  H   H25       1.0  0.56606  0.03785  0.20683  1.0000
  H   H26       1.0  0.42745  0.96068  0.30394  1.0000
  H   H27       1.0  0.53501  0.96259  0.19087  1.0000
  H   H28       1.0  0.45831  0.03576  0.31841  1.0000
  H   H29       1.0  0.77074  0.42028  0.80053  1.0000
  H   H30       1.0  0.58441  0.34563  0.68823  1.0000
  H   H31       1.0  0.65729  0.24802  0.84490  1.0000
  H   H32       1.0  0.23679  0.58858  0.74502  1.0000
  H   H33       1.0  0.40736  0.63946  0.68663  1.0000
  H   H34       1.0  0.35001  0.75709  0.67096  1.0000
  H   H35       1.0  0.77195  0.33530  0.70066  1.0000
  H   H36       1.0  0.66796  0.44301  0.81881  1.0000
  H   H37       1.0  0.56284  0.21871  0.68293  1.0000
  H   H38       1.0  0.22982  0.66690  0.76856  1.0000
  H   H39       1.0  0.34497  0.57145  0.80104  1.0000
  H   H40       1.0  0.44354  0.78357  0.82451  1.0000
  H   H41       1.0  0.65640  0.49503  0.79058  1.0000
  H   H42       1.0  0.50624  0.15281  0.67077  1.0000
  H   H43       1.0  0.50027  0.85073  0.83437  1.0000
  H   H44       1.0  0.61195  0.52409  0.77268  1.0000
  H   H45       1.0  0.47579  0.07984  0.68260  1.0000
  H   H46       1.0  0.52936  0.92341  0.82192  1.0000
  H   H47       1.0  0.49981  0.39630  0.69863  1.0000
  H   H48       1.0  0.60630  0.11361  0.85960  1.0000
  H   H49       1.0  0.39846  0.88963  0.66450  1.0000
  H   H50       1.0  0.54412  0.36781  0.71673  1.0000
  H   H51       1.0  0.63672  0.18592  0.84704  1.0000
  H   H52       1.0  0.36991  0.81856  0.68414  1.0000
  H   H53       1.0  0.95269  0.52512  0.67050  1.0000
  H   H54       1.0  0.46705  0.42239  0.71796  1.0000
  H   H55       1.0  0.05250  0.48482  0.84600  1.0000
  H   H56       1.0  0.53263  0.57499  0.74736  1.0000
  H   H57       1.0  0.02833  0.57069  0.69362  1.0000
  H   H58       1.0  0.42363  0.45144  0.71222  1.0000
  H   H59       1.0  0.97658  0.43890  0.82084  1.0000
  H   H60       1.0  0.57502  0.54439  0.74055  1.0000
  C   C1        1.0  0.68621  0.37433  0.25446  1.0000
  C   C2        1.0  0.62230  0.31133  0.25920  1.0000
  C   C3        1.0  0.68765  0.31296  0.27783  1.0000
  C   C4        1.0  0.30916  0.62142  0.24024  1.0000
  C   C5        1.0  0.37205  0.68589  0.23802  1.0000
  C   C6        1.0  0.30725  0.68429  0.23780  1.0000
  C   C7        1.0  0.70976  0.35511  0.27030  1.0000
  C   C8        1.0  0.64272  0.35359  0.25025  1.0000
  C   C9        1.0  0.64380  0.29019  0.27172  1.0000
  C   C10       1.0  0.28589  0.64145  0.24006  1.0000
  C   C11       1.0  0.35246  0.64308  0.24198  1.0000
  C   C12       1.0  0.35035  0.70720  0.23565  1.0000
  C   C13       1.0  0.75429  0.38013  0.27698  1.0000
  C   C14       1.0  0.61741  0.37168  0.23590  1.0000
  C   C15       1.0  0.62523  0.24821  0.28697  1.0000
  C   C16       1.0  0.24226  0.61598  0.24178  1.0000
  C   C17       1.0  0.37857  0.62568  0.24834  1.0000
  C   C18       1.0  0.36800  0.74955  0.22398  1.0000
  C   C19       1.0  0.77905  0.36451  0.24119  1.0000
  C   C20       1.0  0.63146  0.41459  0.26218  1.0000
  C   C21       1.0  0.58213  0.21362  0.23459  1.0000
  C   C22       1.0  0.21626  0.62977  0.27807  1.0000
  C   C23       1.0  0.36731  0.58494  0.24001  1.0000
  C   C24       1.0  0.41077  0.78386  0.26926  1.0000
  C   C25       1.0  0.52172  0.14137  0.21135  1.0000
  C   C26       1.0  0.14913  0.61958  0.30741  1.0000
  C   C27       1.0  0.47083  0.85587  0.29177  1.0000
  C   C28       1.0  0.50517  0.10047  0.21951  1.0000
  C   C29       1.0  0.10738  0.59410  0.30719  1.0000
  C   C30       1.0  0.48780  0.89696  0.28486  1.0000
  C   C31       1.0  0.53286  0.08800  0.26662  1.0000
  C   C32       1.0  0.08722  0.54860  0.27877  1.0000
  C   C33       1.0  0.46052  0.91023  0.24223  1.0000
  C   C34       1.0  0.57821  0.11913  0.30868  1.0000
  C   C35       1.0  0.11176  0.53038  0.25558  1.0000
  C   C36       1.0  0.41515  0.87942  0.20154  1.0000
  C   C37       1.0  0.59486  0.16001  0.30126  1.0000
  C   C38       1.0  0.15363  0.55580  0.25628  1.0000
  C   C39       1.0  0.39808  0.83819  0.20682  1.0000
  C   C40       1.0  0.56690  0.17201  0.25043  1.0000
  C   C41       1.0  0.17318  0.60100  0.27986  1.0000
  C   C42       1.0  0.42568  0.82556  0.25457  1.0000
  C   C43       1.0  0.53613  0.02177  0.23251  1.0000
  C   C44       1.0  0.45746  0.97681  0.27879  1.0000
  C   C45       1.0  0.51845  0.97885  0.22352  1.0000
  C   C46       1.0  0.47511  0.01970  0.28748  1.0000
  C   C47       1.0  0.47870  0.95512  0.24659  1.0000
  C   C48       1.0  0.51496  0.04350  0.26514  1.0000
  C   C49       1.0  0.70783  0.41477  0.23418  1.0000
  C   C50       1.0  0.58044  0.29270  0.27143  1.0000
  C   C51       1.0  0.70854  0.29123  0.29121  1.0000
  C   C52       1.0  0.28709  0.57867  0.24382  1.0000
  C   C53       1.0  0.41381  0.70551  0.22402  1.0000
  C   C54       1.0  0.28639  0.70660  0.23803  1.0000
  C   C55       1.0  0.68965  0.37745  0.75361  1.0000
  C   C56       1.0  0.62666  0.31314  0.75724  1.0000
  C   C57       1.0  0.69299  0.31693  0.77615  1.0000
  C   C58       1.0  0.31328  0.62401  0.73778  1.0000
  C   C59       1.0  0.37631  0.68657  0.72616  1.0000
  C   C60       1.0  0.31329  0.68791  0.73744  1.0000
  C   C61       1.0  0.71411  0.35919  0.76882  1.0000
  C   C62       1.0  0.64604  0.35522  0.74770  1.0000
  C   C63       1.0  0.64926  0.29314  0.77193  1.0000
  C   C64       1.0  0.29093  0.64509  0.74017  1.0000
  C   C65       1.0  0.35581  0.64387  0.73174  1.0000
  C   C66       1.0  0.35579  0.70919  0.72914  1.0000
  C   C67       1.0  0.75839  0.38526  0.77373  1.0000
  C   C68       1.0  0.61955  0.37199  0.73314  1.0000
  C   C69       1.0  0.63195  0.25147  0.78938  1.0000
  C   C70       1.0  0.24780  0.62129  0.74763  1.0000
  C   C71       1.0  0.37933  0.62342  0.72414  1.0000
  C   C72       1.0  0.37451  0.75207  0.72051  1.0000
  C   C73       1.0  0.78401  0.37083  0.73829  1.0000
  C   C74       1.0  0.63307  0.41544  0.77106  1.0000
  C   C75       1.0  0.58909  0.21680  0.74133  1.0000
  C   C76       1.0  0.22047  0.63428  0.76234  1.0000
  C   C77       1.0  0.37212  0.58875  0.76112  1.0000
  C   C78       1.0  0.41758  0.78638  0.77076  1.0000
  C   C79       1.0  0.62197  0.47363  0.77115  1.0000
  C   C80       1.0  0.52822  0.14426  0.71339  1.0000
  C   C81       1.0  0.47791  0.85926  0.79694  1.0000
  C   C82       1.0  0.59659  0.48981  0.76030  1.0000
  C   C83       1.0  0.51113  0.10315  0.72022  1.0000
  C   C84       1.0  0.49425  0.90025  0.78940  1.0000
  C   C85       1.0  0.55190  0.46281  0.73489  1.0000
  C   C86       1.0  0.53839  0.09028  0.76776  1.0000
  C   C87       1.0  0.46646  0.91281  0.74477  1.0000
  C   C88       1.0  0.53410  0.41842  0.71827  1.0000
  C   C89       1.0  0.58408  0.12173  0.81572  1.0000
  C   C90       1.0  0.42124  0.88183  0.70511  1.0000
  C   C91       1.0  0.55927  0.40200  0.72782  1.0000
  C   C92       1.0  0.60137  0.16302  0.81071  1.0000
  C   C93       1.0  0.40486  0.84096  0.71268  1.0000
  C   C94       1.0  0.60413  0.42945  0.75531  1.0000
  C   C95       1.0  0.57371  0.17511  0.75671  1.0000
  C   C96       1.0  0.43280  0.82857  0.75924  1.0000
  C   C97       1.0  0.97450  0.51638  0.71214  1.0000
  C   C98       1.0  0.48179  0.45551  0.72031  1.0000
  C   C99       1.0  0.03062  0.49330  0.80236  1.0000
  C   C100      1.0  0.51753  0.54120  0.73954  1.0000
  C   C101      1.0  0.01771  0.54249  0.72610  1.0000
  C   C102      1.0  0.45697  0.47253  0.71995  1.0000
  C   C103      1.0  0.98738  0.46704  0.78757  1.0000
  C   C104      1.0  0.54204  0.52374  0.73682  1.0000
  C   C105      1.0  0.04706  0.53174  0.77150  1.0000
  C   C106      1.0  0.47418  0.51617  0.73149  1.0000
  C   C107      1.0  0.95805  0.47779  0.74182  1.0000
  C   C108      1.0  0.52520  0.48048  0.72911  1.0000
  C   C109      1.0  0.71027  0.41832  0.73573  1.0000
  C   C110      1.0  0.58440  0.29358  0.76659  1.0000
  C   C111      1.0  0.71463  0.29578  0.78627  1.0000
  C   C112      1.0  0.29060  0.58121  0.74073  1.0000
  C   C113      1.0  0.41796  0.70533  0.71115  1.0000
  C   C114      1.0  0.29507  0.71307  0.75202  1.0000
  N   N1        1.0  0.72685  0.44759  0.21538  1.0000
  N   N2        1.0  0.54638  0.27897  0.28525  1.0000
  N   N3        1.0  0.72374  0.27145  0.30098  1.0000
  N   N4        1.0  0.26757  0.54359  0.24592  1.0000
  N   N5        1.0  0.44771  0.72010  0.20945  1.0000
  N   N6        1.0  0.27101  0.72667  0.24009  1.0000
  N   N7        1.0  0.72855  0.45174  0.72034  1.0000
  N   N8        1.0  0.55000  0.27875  0.77639  1.0000
  N   N9        1.0  0.73016  0.27613  0.79216  1.0000
  N   N10       1.0  0.27102  0.54666  0.74730  1.0000
  N   N11       1.0  0.45218  0.71973  0.69873  1.0000
  N   N12       1.0  0.28236  0.73595  0.76806  1.0000
  C  Sn1       1.0  0.01283  0.46649  0.24406  1.0000
  C   C115      1.0  0.03414  0.50553  0.21976  1.0000
  C  Sn2       1.0  0.01596  0.52954  0.21894  1.0000
  C  Sn3       1.0  0.97563  0.51422  0.24302  1.0000
  C   C116      1.0  0.95434  0.47520  0.26733  1.0000
  C  Sn4       1.0  0.97250  0.45116  0.26814  1.0000
  O  Te1       1.0  0.03161  0.44302  0.24442  1.0000
  O  Te2       1.0  0.03787  0.56848  0.19435  1.0000
  O  Te3       1.0  0.95685  0.53773  0.24264  1.0000
  O  Te4       1.0  0.95061  0.41226  0.29274  1.0000
  Mg  Mg1       1.0  0.99915  0.58886  0.20429  1.0000
  Mg  Mg2       1.0  0.98931  0.39187  0.28293  1.0000
  C  Sn5       1.0  0.54271  0.42209  0.29114  1.0000
  C   C117      1.0  0.55369  0.46229  0.28372  1.0000
  C  Sn6       1.0  0.58973  0.48623  0.24077  1.0000
  C  Sn7       1.0  0.61531  0.46962  0.20436  1.0000
  C   C118      1.0  0.60432  0.42943  0.21176  1.0000
  C  Sn8       1.0  0.56829  0.40547  0.25473  1.0000
  O  Te5       1.0  0.50654  0.39871  0.33434  1.0000
  O  Te6       1.0  0.60007  0.52636  0.23424  1.0000
  O  Te7       1.0  0.65150  0.49303  0.16114  1.0000
  O  Te8       1.0  0.55793  0.36537  0.26123  1.0000
  Mg  Mg3       1.0  0.65243  0.54605  0.16911  1.0000
  Mg  Mg4       1.0  0.50558  0.34563  0.32625  1.0000
  C  Sn9       1.0  0.43812  0.58254  0.66190  1.0000
  C   C119      1.0  0.39990  0.56798  0.69845  1.0000
  C  Sn10      1.0  0.38614  0.53755  0.77258  1.0000
  C  Sn11      1.0  0.41112  0.52135  0.81110  1.0000
  C   C120      1.0  0.44932  0.53591  0.77459  1.0000
  C  Sn12      1.0  0.46310  0.56633  0.70043  1.0000
  O  Te9       1.0  0.45125  0.61298  0.58779  1.0000
  O  Te10      1.0  0.34781  0.52347  0.80787  1.0000
  O  Te11      1.0  0.39795  0.49088  0.88526  1.0000
  O  Te12      1.0  0.50140  0.58041  0.66516  1.0000
  Mg  Mg5       1.0  0.34342  0.48169  0.90933  1.0000
  Mg  Mg6       1.0  0.50584  0.62222  0.56381  1.0000
  C  Sn13      1.0  0.11628  0.60544  0.74530  1.0000
  C   C121      1.0  0.09170  0.56164  0.73216  1.0000
  C  Sn14      1.0  0.11187  0.54057  0.75643  1.0000
  C  Sn15      1.0  0.15758  0.56377  0.79475  1.0000
  C   C122      1.0  0.18215  0.60755  0.80790  1.0000
  C  Sn16      1.0  0.16200  0.62864  0.78362  1.0000
  O  Te13      1.0  0.09543  0.62584  0.72055  1.0000
  O  Te14      1.0  0.08660  0.49676  0.74258  1.0000
  O  Te15      1.0  0.17842  0.54333  0.81950  1.0000
  O  Te16      1.0  0.18724  0.67243  0.79749  1.0000
  Mg  Mg7       1.0  0.13000  0.48327  0.78738  1.0000
  Mg  Mg8       1.0  0.14389  0.68596  0.75281  1.0000
  C  Sn17      1.0  0.85769  0.37612  0.24006  1.0000
  C   C123      1.0  0.83238  0.39204  0.28164  1.0000
  C  Sn18      1.0  0.84303  0.43307  0.28364  1.0000
  C  Sn19      1.0  0.87971  0.45870  0.24312  1.0000
  C   C124      1.0  0.90498  0.44276  0.20153  1.0000
  C  Sn20      1.0  0.89437  0.40174  0.19953  1.0000
  O  Te17      1.0  0.84645  0.33501  0.23885  1.0000
  O  Te18      1.0  0.81725  0.44830  0.32567  1.0000
  O  Te19      1.0  0.89094  0.49983  0.24436  1.0000
  O  Te20      1.0  0.92012  0.38650  0.15750  1.0000
  Mg  Mg9       1.0  0.84576  0.50634  0.30969  1.0000
  Mg  Mg10      1.0  0.89162  0.32846  0.17334  1.0000
  C  Sn21      1.0  0.51416  0.52842  0.14734  1.0000
  C   C125      1.0  0.47537  0.51334  0.17945  1.0000
  C  Sn22      1.0  0.46207  0.48419  0.25963  1.0000
  C  Sn23      1.0  0.48809  0.46983  0.30887  1.0000
  C   C126      1.0  0.52686  0.48491  0.27679  1.0000
  C  Sn24      1.0  0.54018  0.51406  0.19657  1.0000
  O  Te21      1.0  0.52682  0.55756  0.06703  1.0000
  O  Te22      1.0  0.42315  0.46955  0.29032  1.0000
  O  Te23      1.0  0.47539  0.44066  0.38923  1.0000
  O  Te24      1.0  0.57908  0.52870  0.16592  1.0000
  Mg  Mg11      1.0  0.41974  0.43004  0.40346  1.0000
  Mg  Mg12      1.0  0.58253  0.56822  0.05288  1.0000
  C  Sn25      1.0  0.87621  0.39162  0.62890  1.0000
  C   C127      1.0  0.90324  0.43854  0.67760  1.0000
  C  Sn26      1.0  0.89443  0.46916  0.77772  1.0000
  C  Sn27      1.0  0.85785  0.45255  0.83038  1.0000
  C   C128      1.0  0.83085  0.40566  0.78172  1.0000
  C  Sn28      1.0  0.83963  0.37501  0.68156  1.0000
  O  Te25      1.0  0.88564  0.36163  0.52878  1.0000
  O  Te26      1.0  0.92191  0.51591  0.82475  1.0000
  O  Te27      1.0  0.84844  0.48259  0.93057  1.0000
  O  Te28      1.0  0.81218  0.32829  0.63456  1.0000
  Mg  Mg13      1.0  0.89552  0.54321  0.96205  1.0000
  Mg  Mg14      1.0  0.83855  0.30097  0.49736  1.0000
  C  Sn29      1.0  0.46670  0.59293  0.32700  1.0000
  C   C129      1.0  0.45374  0.54911  0.29823  1.0000
  C  Sn30      1.0  0.40887  0.51206  0.22220  1.0000
  C  Sn31      1.0  0.37626  0.51895  0.17379  1.0000
  C   C130      1.0  0.38922  0.56275  0.20253  1.0000
  C  Sn32      1.0  0.43409  0.59982  0.27860  1.0000
  O  Te29      1.0  0.51175  0.62947  0.40319  1.0000
  O  Te30      1.0  0.39673  0.46857  0.19479  1.0000
  O  Te31      1.0  0.33119  0.48237  0.09756  1.0000
  O  Te32      1.0  0.44624  0.64329  0.30597  1.0000
  Mg  Mg15      1.0  0.33118  0.42963  0.08674  1.0000
  Mg  Mg16      1.0  0.51177  0.68225  0.41392  1.0000
  C  Sn33      1.0  0.45682  0.98123  0.72664  1.0000
  C   C131      1.0  0.47366  0.95538  0.69641  1.0000
  C  Sn34      1.0  0.51717  0.97589  0.71080  1.0000
  C  Sn35      1.0  0.54442  0.02324  0.75647  1.0000
  C   C132      1.0  0.52759  0.04907  0.78670  1.0000
  C  Sn36      1.0  0.48407  0.02858  0.77231  1.0000
  O  Te33      1.0  0.41322  0.96002  0.71153  1.0000
  O  Te34      1.0  0.53326  0.94933  0.67990  1.0000
  O  Te35      1.0  0.58805  0.04445  0.77156  1.0000
  O  Te36      1.0  0.46798  0.05512  0.80322  1.0000
  Mg  Mg17      1.0  0.59486  0.99385  0.71678  1.0000
  Mg  Mg18      1.0  0.40640  0.01064  0.76647  1.0000
