data_image0
_chemical_formula_structural       H60C114N12C2Sn2C2HTe2HMgC2Sn2C2HTe2HMgC2Sn2C2HTe2HMgC2Sn2C2HTe2HMgC2Sn2C2HTe2HMgC2Sn2C2HTe2HMgC2Sn2C2HTe2HMgC2Sn2C2HTe2HMgC2Sn2C2HTe2HMg
_chemical_formula_sum              "H78 C150 N12 Sn18 Te18 Mg9"
_cell_length_a       38.0779
_cell_length_b       38.0722
_cell_length_c       8.11539
_cell_angle_alpha    110.253
_cell_angle_beta     98.8674
_cell_angle_gamma    120.011

_symmetry_space_group_name_H-M    'P1'
_space_group_IT_number       1

loop_
  _space_group_symop_operation_xyz
  'x, y, z'

loop_
  _atom_site_type_symbol
  _atom_site_label
  _atom_site_symmetry_multiplicity
  _atom_site_fract_x
  _atom_site_fract_y
  _atom_site_fract_z
  _atom_site_occupancy
  H   H1        1.0  0.76806  0.41559  0.30647  1.0000
  H   H2        1.0  0.58252  0.34711  0.20254  1.0000
  H   H3        1.0  0.64985  0.24395  0.34287  1.0000
  H   H4        1.0  0.22990  0.58104  0.21564  1.0000
  H   H5        1.0  0.41187  0.64926  0.26084  1.0000
  H   H6        1.0  0.34301  0.75414  0.17639  1.0000
  H   H7        1.0  0.76582  0.32871  0.20307  1.0000
  H   H8        1.0  0.66598  0.44069  0.29702  1.0000
  H   H9        1.0  0.55611  0.21554  0.17335  1.0000
  H   H10       1.0  0.22704  0.66457  0.30863  1.0000
  H   H11       1.0  0.33452  0.55997  0.22718  1.0000
  H   H12       1.0  0.43718  0.78170  0.32300  1.0000
  H   H13       1.0  0.49960  0.15007  0.17279  1.0000
  H   H14       1.0  0.34386  0.50364  0.20116  1.0000
  H   H15       1.0  0.46997  0.07727  0.18458  1.0000
  H   H16       1.0  0.38733  0.47334  0.19185  1.0000
  H   H17       1.0  0.60088  0.11136  0.35066  1.0000
  H   H18       1.0  0.50009  0.60403  0.28993  1.0000
  H   H19       1.0  0.63000  0.18269  0.33350  1.0000
  H   H20       1.0  0.45592  0.63327  0.29179  1.0000
  H   H21       1.0  0.94740  0.51417  0.16616  1.0000
  H   H22       1.0  0.04743  0.47409  0.34297  1.0000
  H   H23       1.0  0.02292  0.55931  0.18572  1.0000
  H   H24       1.0  0.97141  0.42814  0.31720  1.0000
  H   H25       1.0  0.77074  0.42028  0.80053  1.0000
  H   H26       1.0  0.58441  0.34563  0.68823  1.0000
  H   H27       1.0  0.65729  0.24802  0.84490  1.0000
  H   H28       1.0  0.23679  0.58858  0.74502  1.0000
  H   H29       1.0  0.40736  0.63946  0.68663  1.0000
  H   H30       1.0  0.35001  0.75709  0.67096  1.0000
  H   H31       1.0  0.77195  0.33530  0.70066  1.0000
  H   H32       1.0  0.66796  0.44301  0.81881  1.0000
  H   H33       1.0  0.56284  0.21871  0.68293  1.0000
  H   H34       1.0  0.22982  0.66690  0.76856  1.0000
  H   H35       1.0  0.34497  0.57145  0.80104  1.0000
  H   H36       1.0  0.44354  0.78357  0.82451  1.0000
  H   H37       1.0  0.83219  0.34187  0.65002  1.0000
  H   H38       1.0  0.50624  0.15281  0.67077  1.0000
  H   H39       1.0  0.17039  0.66223  0.81627  1.0000
  H   H40       1.0  0.50027  0.85073  0.83437  1.0000
  H   H41       1.0  0.90629  0.38644  0.64790  1.0000
  H   H42       1.0  0.47579  0.07984  0.68260  1.0000
  H   H43       1.0  0.09690  0.62031  0.82361  1.0000
  H   H44       1.0  0.52936  0.92341  0.82192  1.0000
  H   H45       1.0  0.90751  0.50770  0.82237  1.0000
  H   H46       1.0  0.60630  0.11361  0.85960  1.0000
  H   H47       1.0  0.10096  0.50436  0.73838  1.0000
  H   H48       1.0  0.39846  0.88963  0.66450  1.0000
  H   H49       1.0  0.83423  0.46369  0.82527  1.0000
  H   H50       1.0  0.63672  0.18592  0.84704  1.0000
  H   H51       1.0  0.17394  0.54616  0.73414  1.0000
  H   H52       1.0  0.36991  0.81856  0.68414  1.0000
  H   H53       1.0  0.46705  0.42239  0.71796  1.0000
  H   H54       1.0  0.56977  0.03865  0.69395  1.0000
  H   H55       1.0  0.53263  0.57499  0.74736  1.0000
  H   H56       1.0  0.43348  0.96316  0.80870  1.0000
  H   H57       1.0  0.42363  0.45144  0.71222  1.0000
  H   H58       1.0  0.53902  0.96351  0.68085  1.0000
  H   H59       1.0  0.57502  0.54439  0.74055  1.0000
  H   H60       1.0  0.46365  0.03793  0.81881  1.0000
  C   C1        1.0  0.68621  0.37433  0.25446  1.0000
  C   C2        1.0  0.62230  0.31133  0.25920  1.0000
  C   C3        1.0  0.68765  0.31296  0.27783  1.0000
  C   C4        1.0  0.30916  0.62142  0.24024  1.0000
  C   C5        1.0  0.37205  0.68589  0.23802  1.0000
  C   C6        1.0  0.30725  0.68429  0.23780  1.0000
  C   C7        1.0  0.70976  0.35511  0.27030  1.0000
  C   C8        1.0  0.64272  0.35359  0.25025  1.0000
  C   C9        1.0  0.64380  0.29019  0.27172  1.0000
  C   C10       1.0  0.28589  0.64145  0.24006  1.0000
  C   C11       1.0  0.35246  0.64308  0.24198  1.0000
  C   C12       1.0  0.35035  0.70720  0.23565  1.0000
  C   C13       1.0  0.75429  0.38013  0.27698  1.0000
  C   C14       1.0  0.61741  0.37168  0.23590  1.0000
  C   C15       1.0  0.62523  0.24821  0.28697  1.0000
  C   C16       1.0  0.24226  0.61598  0.24178  1.0000
  C   C17       1.0  0.37857  0.62568  0.24834  1.0000
  C   C18       1.0  0.36800  0.74955  0.22398  1.0000
  C   C19       1.0  0.77905  0.36451  0.24119  1.0000
  C   C20       1.0  0.63146  0.41459  0.26218  1.0000
  C   C21       1.0  0.58213  0.21362  0.23459  1.0000
  C   C22       1.0  0.21626  0.62977  0.27807  1.0000
  C   C23       1.0  0.36731  0.58494  0.24001  1.0000
  C   C24       1.0  0.41077  0.78386  0.26926  1.0000
  C   C25       1.0  0.52172  0.14137  0.21135  1.0000
  C   C26       1.0  0.37812  0.52548  0.21913  1.0000
  C   C27       1.0  0.50517  0.10047  0.21951  1.0000
  C   C28       1.0  0.40309  0.50857  0.21491  1.0000
  C   C29       1.0  0.53286  0.08800  0.26662  1.0000
  C   C30       1.0  0.44761  0.53588  0.23848  1.0000
  C   C31       1.0  0.57821  0.11913  0.30868  1.0000
  C   C32       1.0  0.46565  0.58129  0.26725  1.0000
  C   C33       1.0  0.59486  0.16001  0.30126  1.0000
  C   C34       1.0  0.44064  0.59813  0.26963  1.0000
  C   C35       1.0  0.56690  0.17201  0.25043  1.0000
  C   C36       1.0  0.39602  0.57050  0.24466  1.0000
  C   C37       1.0  0.96948  0.50585  0.20914  1.0000
  C   C38       1.0  0.02556  0.48267  0.30005  1.0000
  C   C39       1.0  0.01254  0.53166  0.22168  1.0000
  C   C40       1.0  0.98225  0.45642  0.28493  1.0000
  C   C41       1.0  0.04198  0.52113  0.26941  1.0000
  C   C42       1.0  0.95316  0.46752  0.24041  1.0000
  C   C43       1.0  0.70783  0.41477  0.23418  1.0000
  C   C44       1.0  0.58044  0.29270  0.27143  1.0000
  C   C45       1.0  0.70854  0.29123  0.29121  1.0000
  C   C46       1.0  0.28709  0.57867  0.24382  1.0000
  C   C47       1.0  0.41381  0.70551  0.22402  1.0000
  C   C48       1.0  0.28639  0.70660  0.23803  1.0000
  C   C49       1.0  0.68965  0.37745  0.75361  1.0000
  C   C50       1.0  0.62666  0.31314  0.75724  1.0000
  C   C51       1.0  0.69299  0.31693  0.77615  1.0000
  C   C52       1.0  0.31328  0.62401  0.73778  1.0000
  C   C53       1.0  0.37631  0.68657  0.72616  1.0000
  C   C54       1.0  0.31329  0.68791  0.73744  1.0000
  C   C55       1.0  0.71411  0.35919  0.76882  1.0000
  C   C56       1.0  0.64604  0.35522  0.74770  1.0000
  C   C57       1.0  0.64926  0.29314  0.77193  1.0000
  C   C58       1.0  0.29093  0.64509  0.74017  1.0000
  C   C59       1.0  0.35581  0.64387  0.73174  1.0000
  C   C60       1.0  0.35579  0.70919  0.72914  1.0000
  C   C61       1.0  0.75839  0.38526  0.77373  1.0000
  C   C62       1.0  0.61955  0.37199  0.73314  1.0000
  C   C63       1.0  0.63195  0.25147  0.78938  1.0000
  C   C64       1.0  0.24780  0.62129  0.74763  1.0000
  C   C65       1.0  0.37933  0.62342  0.72414  1.0000
  C   C66       1.0  0.37451  0.75207  0.72051  1.0000
  C   C67       1.0  0.78401  0.37083  0.73829  1.0000
  C   C68       1.0  0.63307  0.41544  0.77106  1.0000
  C   C69       1.0  0.58909  0.21680  0.74133  1.0000
  C   C70       1.0  0.22047  0.63428  0.76234  1.0000
  C   C71       1.0  0.37212  0.58875  0.76112  1.0000
  C   C72       1.0  0.41758  0.78638  0.77076  1.0000
  C   C73       1.0  0.84904  0.37840  0.68895  1.0000
  C   C74       1.0  0.52822  0.14426  0.71339  1.0000
  C   C75       1.0  0.15489  0.62743  0.79860  1.0000
  C   C76       1.0  0.47791  0.85926  0.79694  1.0000
  C   C77       1.0  0.89079  0.40361  0.68829  1.0000
  C   C78       1.0  0.51113  0.10315  0.72022  1.0000
  C   C79       1.0  0.11328  0.60357  0.80200  1.0000
  C   C80       1.0  0.49425  0.90025  0.78940  1.0000
  C   C81       1.0  0.91299  0.45065  0.73486  1.0000
  C   C82       1.0  0.53839  0.09028  0.76776  1.0000
  C   C83       1.0  0.09225  0.55843  0.77887  1.0000
  C   C84       1.0  0.46646  0.91281  0.74477  1.0000
  C   C85       1.0  0.89109  0.47119  0.78239  1.0000
  C   C86       1.0  0.58408  0.12173  0.81572  1.0000
  C   C87       1.0  0.11594  0.53920  0.75760  1.0000
  C   C88       1.0  0.42124  0.88183  0.70511  1.0000
  C   C89       1.0  0.84955  0.44624  0.78494  1.0000
  C   C90       1.0  0.60137  0.16302  0.81071  1.0000
  C   C91       1.0  0.15754  0.56296  0.75430  1.0000
  C   C92       1.0  0.40486  0.84096  0.71268  1.0000
  C   C93       1.0  0.82743  0.39909  0.73837  1.0000
  C   C94       1.0  0.57371  0.17511  0.75671  1.0000
  C   C95       1.0  0.17793  0.60765  0.77188  1.0000
  C   C96       1.0  0.43280  0.82857  0.75924  1.0000
  C   C97       1.0  0.48179  0.45551  0.72031  1.0000
  C   C98       1.0  0.54055  0.02307  0.72482  1.0000
  C   C99       1.0  0.51753  0.54120  0.73954  1.0000
  C   C100      1.0  0.46294  0.97900  0.77961  1.0000
  C   C101      1.0  0.45697  0.47253  0.71995  1.0000
  C   C102      1.0  0.52303  0.98028  0.71674  1.0000
  C   C103      1.0  0.54204  0.52374  0.73682  1.0000
  C   C104      1.0  0.48028  0.02171  0.78666  1.0000
  C   C105      1.0  0.47418  0.51617  0.73149  1.0000
  C   C106      1.0  0.48400  0.95720  0.74542  1.0000
  C   C107      1.0  0.52520  0.48048  0.72911  1.0000
  C   C108      1.0  0.51985  0.04522  0.76190  1.0000
  C   C109      1.0  0.71027  0.41832  0.73573  1.0000
  C   C110      1.0  0.58440  0.29358  0.76659  1.0000
  C   C111      1.0  0.71463  0.29578  0.78627  1.0000
  C   C112      1.0  0.29060  0.58121  0.74073  1.0000
  C   C113      1.0  0.41796  0.70533  0.71115  1.0000
  C   C114      1.0  0.29507  0.71307  0.75202  1.0000
  N   N1        1.0  0.72685  0.44759  0.21538  1.0000
  N   N2        1.0  0.54638  0.27897  0.28525  1.0000
  N   N3        1.0  0.72374  0.27145  0.30098  1.0000
  N   N4        1.0  0.26757  0.54359  0.24592  1.0000
  N   N5        1.0  0.44771  0.72010  0.20945  1.0000
  N   N6        1.0  0.27101  0.72667  0.24009  1.0000
  N   N7        1.0  0.72855  0.45174  0.72034  1.0000
  N   N8        1.0  0.55000  0.27875  0.77639  1.0000
  N   N9        1.0  0.73016  0.27613  0.79216  1.0000
  N   N10       1.0  0.27102  0.54666  0.74730  1.0000
  N   N11       1.0  0.45218  0.71973  0.69873  1.0000
  N   N12       1.0  0.28236  0.73595  0.76806  1.0000
  C   C115      1.0  0.47658  0.46204  0.26797  1.0000
  C   C116      1.0  0.51391  0.47474  0.22548  1.0000
  C  Sn1       1.0  0.53392  0.51238  0.19182  1.0000
  C  Sn2       1.0  0.51614  0.53772  0.20101  1.0000
  C   C117      1.0  0.47879  0.52475  0.24376  1.0000
  C   C118      1.0  0.45903  0.48702  0.27714  1.0000
  H   H61       1.0  0.46130  0.43286  0.29391  1.0000
  O  Te1       1.0  0.57119  0.52460  0.14948  1.0000
  O  Te2       1.0  0.53548  0.57550  0.16804  1.0000
  H   H62       1.0  0.43014  0.47721  0.31016  1.0000
  Mg  Mg1       1.0  0.58580  0.57871  0.11554  1.0000
  C   C119      1.0  0.39948  0.51413  0.77551  1.0000
  C   C120      1.0  0.43705  0.52727  0.73459  1.0000
  C  Sn3       1.0  0.45788  0.56603  0.70827  1.0000
  C  Sn4       1.0  0.44070  0.59206  0.72333  1.0000
  C   C121      1.0  0.40311  0.57864  0.76445  1.0000
  C   C122      1.0  0.38252  0.53979  0.79047  1.0000
  H   H63       1.0  0.38356  0.48408  0.79575  1.0000
  O  Te3       1.0  0.49538  0.57868  0.66740  1.0000
  O  Te4       1.0  0.46088  0.63095  0.69775  1.0000
  H   H64       1.0  0.35345  0.52964  0.82227  1.0000
  Mg  Mg2       1.0  0.51119  0.63436  0.64443  1.0000
  C   C123      1.0  0.12128  0.53069  0.24709  1.0000
  C   C124      1.0  0.09384  0.54402  0.28249  1.0000
  C  Sn5       1.0  0.10619  0.58774  0.31253  1.0000
  C  Sn6       1.0  0.14676  0.61861  0.30687  1.0000
  C   C125      1.0  0.17396  0.60493  0.27121  1.0000
  C   C126      1.0  0.16129  0.56111  0.24141  1.0000
  H   H65       1.0  0.11147  0.49678  0.22393  1.0000
  O  Te5       1.0  0.07840  0.60050  0.34778  1.0000
  O  Te6       1.0  0.15990  0.66250  0.33633  1.0000
  H   H66       1.0  0.18253  0.55079  0.21388  1.0000
  Mg  Mg3       1.0  0.11075  0.66400  0.37921  1.0000
  C   C127      1.0  0.98367  0.52697  0.71326  1.0000
  C   C128      1.0  0.96104  0.48668  0.72853  1.0000
  C  Sn7       1.0  0.98308  0.46915  0.77786  1.0000
  C  Sn8       1.0  0.02865  0.49248  0.81251  1.0000
  C   C129      1.0  0.05101  0.53278  0.79700  1.0000
  C   C130      1.0  0.02862  0.55000  0.74749  1.0000
  H   H67       1.0  0.96636  0.54031  0.67506  1.0000
  O  Te7       1.0  0.95996  0.42885  0.79242  1.0000
  O  Te8       1.0  0.05150  0.47573  0.86211  1.0000
  H   H68       1.0  0.04616  0.58121  0.73580  1.0000
  Mg  Mg4       1.0  0.00557  0.41957  0.86401  1.0000
  C   C131      1.0  0.53458  0.40849  0.71229  1.0000
  C   C132      1.0  0.54717  0.45204  0.73866  1.0000
  C  Sn9       1.0  0.59016  0.48542  0.76640  1.0000
  C  Sn10      1.0  0.62103  0.47489  0.76764  1.0000
  C   C133      1.0  0.60809  0.43120  0.74100  1.0000
  C   C134      1.0  0.56500  0.39807  0.71342  1.0000
  H   H69       1.0  0.50124  0.38284  0.69085  1.0000
  O  Te9       1.0  0.60219  0.52877  0.79260  1.0000
  O  Te10      1.0  0.66419  0.50760  0.79499  1.0000
  H   H70       1.0  0.55526  0.36433  0.69288  1.0000
  Mg  Mg5       1.0  0.66485  0.56180  0.82455  1.0000
  C   C135      1.0  0.48994  0.88950  0.29806  1.0000
  C   C136      1.0  0.46785  0.90636  0.24171  1.0000
  C  Sn11      1.0  0.42240  0.88245  0.19547  1.0000
  C  Sn12      1.0  0.39871  0.84091  0.20603  1.0000
  C   C137      1.0  0.42112  0.82434  0.26269  1.0000
  C   C138      1.0  0.46660  0.84854  0.30858  1.0000
  H   H71       1.0  0.52513  0.90823  0.33367  1.0000
  O  Te11      1.0  0.40085  0.89977  0.13938  1.0000
  O  Te12      1.0  0.35328  0.81633  0.16068  1.0000
  H   H72       1.0  0.48369  0.83549  0.35232  1.0000
  Mg  Mg6       1.0  0.33865  0.85388  0.09181  1.0000
  C   C139      1.0  0.87717  0.46232  0.28452  1.0000
  C   C140      1.0  0.90394  0.44788  0.25205  1.0000
  C  Sn13      1.0  0.88822  0.40208  0.20152  1.0000
  C  Sn14      1.0  0.84489  0.37023  0.18322  1.0000
  C   C141      1.0  0.81837  0.38500  0.21588  1.0000
  C   C142      1.0  0.83443  0.43092  0.26643  1.0000
  H   H73       1.0  0.88959  0.49783  0.32353  1.0000
  O  Te13      1.0  0.91540  0.38824  0.16966  1.0000
  O  Te14      1.0  0.82835  0.32425  0.13282  1.0000
  H   H74       1.0  0.81369  0.44208  0.29144  1.0000
  Mg  Mg7       1.0  0.87798  0.32194  0.10412  1.0000
  C   C143      1.0  0.96572  0.00919  0.28562  1.0000
  C   C144      1.0  0.50551  0.03881  0.27730  1.0000
  C  Sn15      1.0  0.03259  0.02488  0.24165  1.0000
  C  Sn16      1.0  0.01932  0.98045  0.21380  1.0000
  C   C145      1.0  0.97935  0.95106  0.22226  1.0000
  C   C146      1.0  0.95260  0.96536  0.25810  1.0000
  H   H75       1.0  0.94501  0.02024  0.31324  1.0000
  O  Te15      1.0  0.57224  0.05491  0.23389  1.0000
  O  Te16      1.0  0.04565  0.96564  0.17787  1.0000
  H   H76       1.0  0.92172  0.94241  0.26440  1.0000
  Mg  Mg8       1.0  0.09688  0.01900  0.18087  1.0000
  C   C147      1.0  0.54954  0.40348  0.24127  1.0000
  C   C148      1.0  0.59136  0.42116  0.23675  1.0000
  C  Sn17      1.0  0.61559  0.46344  0.23717  1.0000
  C  Sn18      1.0  0.59753  0.48841  0.24227  1.0000
  C   C149      1.0  0.55568  0.47044  0.24690  1.0000
  C   C150      1.0  0.53172  0.42809  0.24637  1.0000
  H   H77       1.0  0.53101  0.37073  0.24097  1.0000
  O  Te17      1.0  0.65731  0.48060  0.23255  1.0000
  O  Te18      1.0  0.62104  0.53076  0.24287  1.0000
  H   H78       1.0  0.49935  0.41442  0.25000  1.0000
  Mg  Mg9       1.0  0.67658  0.53980  0.23535  1.0000
