data_image0
_chemical_formula_structural       H48C96N12C2Sn2C2HTe2HMgC2Sn2C2HTe2HMgC2Sn2C2HTe2HMgC2Sn2C2HTe2HMgC2Sn2C2HTe2HMgC2Sn2C2HTe2HMg
_chemical_formula_sum              "H60 C120 N12 Sn12 Te12 Mg6"
_cell_length_a       30.709
_cell_length_b       30.4272
_cell_length_c       8.15418
_cell_angle_alpha    93.612
_cell_angle_beta     119.103
_cell_angle_gamma    119.568

_symmetry_space_group_name_H-M    'P1'
_space_group_IT_number       1

loop_
  _space_group_symop_operation_xyz
  'x, y, z'

loop_
  _atom_site_type_symbol
  _atom_site_label
  _atom_site_symmetry_multiplicity
  _atom_site_fract_x
  _atom_site_fract_y
  _atom_site_fract_z
  _atom_site_occupancy
  H   H1        1.0  0.80065  0.43888  0.25060  1.0000
  H   H2        1.0  0.56681  0.35502  0.16526  1.0000
  H   H3        1.0  0.65100  0.21428  0.22646  1.0000
  H   H4        1.0  0.23413  0.57642  0.31360  1.0000
  H   H5        1.0  0.46090  0.66127  0.35710  1.0000
  H   H6        1.0  0.36542  0.79556  0.28912  1.0000
  H   H7        1.0  0.80308  0.33981  0.18215  1.0000
  H   H8        1.0  0.67000  0.46793  0.23374  1.0000
  H   H9        1.0  0.55400  0.20939  0.26461  1.0000
  H   H10       1.0  0.20533  0.65941  0.24097  1.0000
  H   H11       1.0  0.34584  0.54289  0.18378  1.0000
  H   H12       1.0  0.47125  0.81191  0.27846  1.0000
  H   H13       1.0  0.88040  0.35342  0.15797  1.0000
  H   H14       1.0  0.48163  0.12568  0.24346  1.0000
  H   H15       1.0  0.35025  0.47287  0.09400  1.0000
  H   H16       1.0  0.97542  0.41181  0.18010  1.0000
  H   H17       1.0  0.44432  0.03395  0.24422  1.0000
  H   H18       1.0  0.40634  0.43725  0.08855  1.0000
  H   H19       1.0  0.97285  0.55038  0.29596  1.0000
  H   H20       1.0  0.59942  0.05463  0.28596  1.0000
  H   H21       1.0  0.57505  0.60305  0.40459  1.0000
  H   H22       1.0  0.87721  0.49207  0.26396  1.0000
  H   H23       1.0  0.63819  0.14653  0.29616  1.0000
  H   H24       1.0  0.51950  0.63871  0.40832  1.0000
  H   H25       1.0  0.77694  0.42831  0.74720  1.0000
  H   H26       1.0  0.54566  0.33930  0.69220  1.0000
  H   H27       1.0  0.63262  0.20142  0.70783  1.0000
  H   H28       1.0  0.20422  0.56192  0.78437  1.0000
  H   H29       1.0  0.43721  0.64745  0.86231  1.0000
  H   H30       1.0  0.34323  0.78249  0.76960  1.0000
  H   H31       1.0  0.78095  0.33002  0.68084  1.0000
  H   H32       1.0  0.64387  0.45068  0.73356  1.0000
  H   H33       1.0  0.54248  0.19612  0.78717  1.0000
  H   H34       1.0  0.18850  0.65402  0.77075  1.0000
  H   H35       1.0  0.31956  0.52867  0.64877  1.0000
  H   H36       1.0  0.45491  0.79881  0.80314  1.0000
  H   H37       1.0  0.47774  0.11644  0.79236  1.0000
  H   H38       1.0  0.10179  0.63656  0.74076  1.0000
  H   H39       1.0  0.52443  0.87950  0.82003  1.0000
  H   H40       1.0  0.44123  0.02460  0.79208  1.0000
  H   H41       1.0  0.00646  0.57808  0.71393  1.0000
  H   H42       1.0  0.56255  0.97118  0.81489  1.0000
  H   H43       1.0  0.57939  0.03681  0.73716  1.0000
  H   H44       1.0  0.04508  0.45998  0.81451  1.0000
  H   H45       1.0  0.39678  0.94485  0.69729  1.0000
  H   H46       1.0  0.61629  0.12856  0.74165  1.0000
  H   H47       1.0  0.13889  0.51769  0.83686  1.0000
  H   H48       1.0  0.35836  0.85347  0.69888  1.0000
  C   C1        1.0  0.69856  0.38923  0.20792  1.0000
  C   C2        1.0  0.61942  0.30911  0.20521  1.0000
  C   C3        1.0  0.70311  0.31191  0.23027  1.0000
  C   C4        1.0  0.32451  0.62182  0.28385  1.0000
  C   C5        1.0  0.40469  0.70582  0.30689  1.0000
  C   C6        1.0  0.32045  0.69991  0.29040  1.0000
  C   C7        1.0  0.72914  0.36473  0.22171  1.0000
  C   C8        1.0  0.64354  0.36242  0.19801  1.0000
  C   C9        1.0  0.64821  0.28292  0.22322  1.0000
  C   C10       1.0  0.29495  0.64593  0.28845  1.0000
  C   C11       1.0  0.37987  0.65093  0.29711  1.0000
  C   C12       1.0  0.37483  0.73062  0.29617  1.0000
  C   C13       1.0  0.78481  0.39675  0.22996  1.0000
  C   C14       1.0  0.61030  0.38462  0.18679  1.0000
  C   C15       1.0  0.62639  0.22954  0.23545  1.0000
  C   C16       1.0  0.24212  0.61392  0.29275  1.0000
  C   C17       1.0  0.41369  0.62950  0.30476  1.0000
  C   C18       1.0  0.39437  0.78450  0.29016  1.0000
  C   C19       1.0  0.81734  0.38165  0.20825  1.0000
  C   C20       1.0  0.62769  0.43674  0.21527  1.0000
  C   C21       1.0  0.58065  0.19682  0.25646  1.0000
  C   C22       1.0  0.20114  0.62370  0.26975  1.0000
  C   C23       1.0  0.39347  0.57641  0.24638  1.0000
  C   C24       1.0  0.44113  0.82078  0.28000  1.0000
  C   C25       1.0  0.90142  0.39693  0.19097  1.0000
  C   C26       1.0  0.50751  0.11000  0.25217  1.0000
  C   C27       1.0  0.39977  0.50151  0.16381  1.0000
  C   C28       1.0  0.95546  0.43024  0.20537  1.0000
  C   C29       1.0  0.48602  0.05751  0.25056  1.0000
  C   C30       1.0  0.43147  0.48137  0.16118  1.0000
  C   C31       1.0  0.98322  0.48650  0.24478  1.0000
  C   C32       1.0  0.51784  0.03534  0.26128  1.0000
  C   C33       1.0  0.49512  0.51724  0.24478  1.0000
  C   C34       1.0  0.95265  0.50704  0.26303  1.0000
  C   C35       1.0  0.57294  0.06946  0.27680  1.0000
  C   C36       1.0  0.52551  0.57432  0.33391  1.0000
  C   C37       1.0  0.89854  0.47391  0.24748  1.0000
  C   C38       1.0  0.59500  0.12199  0.28085  1.0000
  C   C39       1.0  0.49397  0.59447  0.33737  1.0000
  C   C40       1.0  0.87213  0.41803  0.21578  1.0000
  C   C41       1.0  0.56221  0.14352  0.26485  1.0000
  C   C42       1.0  0.42994  0.55850  0.25104  1.0000
  C   C43       1.0  0.72444  0.44162  0.19617  1.0000
  C   C44       1.0  0.56526  0.28336  0.20008  1.0000
  C   C45       1.0  0.73364  0.28709  0.25916  1.0000
  C   C46       1.0  0.29469  0.56611  0.26174  1.0000
  C   C47       1.0  0.46038  0.73474  0.32190  1.0000
  C   C48       1.0  0.29100  0.72499  0.27886  1.0000
  C   C49       1.0  0.67530  0.37623  0.71459  1.0000
  C   C50       1.0  0.59804  0.29370  0.70878  1.0000
  C   C51       1.0  0.68321  0.30038  0.73003  1.0000
  C   C52       1.0  0.29970  0.60847  0.77884  1.0000
  C   C53       1.0  0.38013  0.69110  0.79684  1.0000
  C   C54       1.0  0.29783  0.68759  0.78595  1.0000
  C   C55       1.0  0.70703  0.35332  0.72265  1.0000
  C   C56       1.0  0.62112  0.34771  0.70892  1.0000
  C   C57       1.0  0.62877  0.26965  0.72324  1.0000
  C   C58       1.0  0.27069  0.63340  0.78163  1.0000
  C   C59       1.0  0.35496  0.63659  0.79018  1.0000
  C   C60       1.0  0.35211  0.71740  0.79006  1.0000
  C   C61       1.0  0.76152  0.38626  0.72720  1.0000
  C   C62       1.0  0.58748  0.36888  0.70477  1.0000
  C   C63       1.0  0.60903  0.21599  0.72952  1.0000
  C   C64       1.0  0.21647  0.60197  0.78172  1.0000
  C   C65       1.0  0.38897  0.61522  0.79855  1.0000
  C   C66       1.0  0.37301  0.77111  0.78202  1.0000
  C   C67       1.0  0.79459  0.37162  0.70664  1.0000
  C   C68       1.0  0.60259  0.42003  0.72095  1.0000
  C   C69       1.0  0.56679  0.18317  0.76254  1.0000
  C   C70       1.0  0.17982  0.61532  0.77878  1.0000
  C   C71       1.0  0.36827  0.56246  0.72520  1.0000
  C   C72       1.0  0.42283  0.80739  0.78437  1.0000
  C   C73       1.0  0.49953  0.09853  0.77811  1.0000
  C   C74       1.0  0.08857  0.59718  0.75312  1.0000
  C   C75       1.0  0.49673  0.89421  0.79482  1.0000
  C   C76       1.0  0.47850  0.04619  0.77560  1.0000
  C   C77       1.0  0.03468  0.56395  0.73930  1.0000
  C   C78       1.0  0.51825  0.94621  0.79216  1.0000
  C   C79       1.0  0.50638  0.02213  0.76170  1.0000
  C   C80       1.0  0.01590  0.51263  0.75431  1.0000
  C   C81       1.0  0.48386  0.96677  0.76206  1.0000
  C   C82       1.0  0.55677  0.05369  0.75090  1.0000
  C   C83       1.0  0.05544  0.49750  0.79005  1.0000
  C   C84       1.0  0.42585  0.93141  0.72832  1.0000
  C   C85       1.0  0.57772  0.10597  0.75209  1.0000
  C   C86       1.0  0.10896  0.53031  0.80259  1.0000
  C   C87       1.0  0.40392  0.87928  0.72981  1.0000
  C   C88       1.0  0.54919  0.12958  0.76467  1.0000
  C   C89       1.0  0.12628  0.58054  0.77880  1.0000
  C   C90       1.0  0.43972  0.85968  0.76782  1.0000
  C   C91       1.0  0.70032  0.42902  0.70566  1.0000
  C   C92       1.0  0.54221  0.26420  0.69338  1.0000
  C   C93       1.0  0.71550  0.27731  0.75690  1.0000
  C   C94       1.0  0.27253  0.55389  0.76951  1.0000
  C   C95       1.0  0.43366  0.71713  0.79901  1.0000
  C   C96       1.0  0.27150  0.71508  0.78516  1.0000
  N   N1        1.0  0.74787  0.48477  0.18667  1.0000
  N   N2        1.0  0.52169  0.26410  0.20145  1.0000
  N   N3        1.0  0.75847  0.26590  0.28879  1.0000
  N   N4        1.0  0.26683  0.51976  0.23725  1.0000
  N   N5        1.0  0.50628  0.75732  0.33384  1.0000
  N   N6        1.0  0.26747  0.74686  0.26539  1.0000
  N   N7        1.0  0.72347  0.47224  0.69685  1.0000
  N   N8        1.0  0.49605  0.24055  0.68089  1.0000
  N   N9        1.0  0.74181  0.25777  0.78231  1.0000
  N   N10       1.0  0.24909  0.50863  0.75883  1.0000
  N   N11       1.0  0.47722  0.73626  0.79805  1.0000
  N   N12       1.0  0.25176  0.73984  0.78388  1.0000
  C   C97       1.0  0.50057  0.57371  0.81618  1.0000
  C   C98       1.0  0.48014  0.51933  0.75180  1.0000
  C  Sn1       1.0  0.41806  0.47561  0.66092  1.0000
  C  Sn2       1.0  0.37575  0.48666  0.63415  1.0000
  C   C99       1.0  0.39664  0.54121  0.69894  1.0000
  C   C100      1.0  0.45887  0.58466  0.78976  1.0000
  H   H49       1.0  0.54871  0.60733  0.88634  1.0000
  O  Te1       1.0  0.39843  0.42152  0.59755  1.0000
  O  Te2       1.0  0.31345  0.44374  0.54370  1.0000
  H   H50       1.0  0.47467  0.62676  0.83946  1.0000
  Mg  Mg1       1.0  0.30895  0.37700  0.48247  1.0000
  C   C101      1.0  0.56994  0.51538  0.72314  1.0000
  C   C102      1.0  0.51646  0.49101  0.71623  1.0000
  C  Sn3       1.0  0.48966  0.43957  0.72708  1.0000
  C  Sn4       1.0  0.51703  0.41212  0.74523  1.0000
  C   C103      1.0  0.57055  0.43686  0.75215  1.0000
  C   C104      1.0  0.59697  0.48834  0.74111  1.0000
  H   H51       1.0  0.59040  0.55522  0.71471  1.0000
  O  Te3       1.0  0.43622  0.41581  0.71989  1.0000
  O  Te4       1.0  0.49122  0.36069  0.75644  1.0000
  H   H52       1.0  0.63840  0.50721  0.74660  1.0000
  Mg  Mg2       1.0  0.41827  0.34512  0.74042  1.0000
  C   C105      1.0  0.12422  0.52832  0.31708  1.0000
  C   C106      1.0  0.14392  0.57469  0.27026  1.0000
  C  Sn5       1.0  0.11234  0.59808  0.22753  1.0000
  C  Sn6       1.0  0.06010  0.57452  0.23192  1.0000
  C   C107      1.0  0.04078  0.52815  0.27907  1.0000
  C   C108      1.0  0.07271  0.50507  0.32152  1.0000
  H   H53       1.0  0.14894  0.51047  0.35003  1.0000
  O  Te5       1.0  0.13263  0.64440  0.18097  1.0000
  O  Te6       1.0  0.02770  0.59708  0.18989  1.0000
  H   H54       1.0  0.05747  0.46918  0.35789  1.0000
  Mg  Mg3       1.0  0.07321  0.66023  0.13458  1.0000
  C   C109      1.0  0.53309  0.94913  0.28401  1.0000
  C   C110      1.0  0.50477  0.97515  0.25936  1.0000
  C  Sn7       1.0  0.45090  0.95046  0.25012  1.0000
  C  Sn8       1.0  0.42501  0.89878  0.26595  1.0000
  C   C111      1.0  0.45372  0.87311  0.29073  1.0000
  C   C112      1.0  0.50761  0.89816  0.29971  1.0000
  H   H55       1.0  0.57480  0.96853  0.29108  1.0000
  O  Te7       1.0  0.42318  0.97701  0.22538  1.0000
  O  Te8       1.0  0.37122  0.87320  0.25727  1.0000
  H   H56       1.0  0.52954  0.87803  0.31893  1.0000
  Mg  Mg4       1.0  0.35045  0.92566  0.22211  1.0000
  C   C113      1.0  0.53195  0.42280  0.24768  1.0000
  C   C114      1.0  0.57775  0.44447  0.21516  1.0000
  C  Sn9       1.0  0.60230  0.49584  0.20282  1.0000
  C  Sn10      1.0  0.58051  0.52598  0.22354  1.0000
  C   C115      1.0  0.53471  0.50396  0.25619  1.0000
  C   C116      1.0  0.51045  0.45252  0.26821  1.0000
  H   H57       1.0  0.51320  0.38301  0.25710  1.0000
  O  Te9       1.0  0.64802  0.51688  0.17019  1.0000
  O  Te10      1.0  0.60427  0.57743  0.21192  1.0000
  H   H58       1.0  0.47502  0.43576  0.29353  1.0000
  Mg  Mg5       1.0  0.66597  0.58871  0.16563  1.0000
  C   C117      1.0  0.89089  0.38873  0.68695  1.0000
  C   C118      1.0  0.85780  0.40254  0.71980  1.0000
  C  Sn11      1.0  0.87423  0.45572  0.75363  1.0000
  C  Sn12      1.0  0.92473  0.49573  0.75444  1.0000
  C   C119      1.0  0.95751  0.48150  0.72127  1.0000
  C   C120      1.0  0.94069  0.42816  0.68764  1.0000
  H   H59       1.0  0.87786  0.34746  0.66081  1.0000
  O  Te11      1.0  0.84068  0.46883  0.78627  1.0000
  O  Te12      1.0  0.94212  0.54918  0.78779  1.0000
  H   H60       1.0  0.96630  0.41747  0.66208  1.0000
  Mg  Mg6       1.0  0.88216  0.54718  0.82492  1.0000
