data_image0
_chemical_formula_structural       H24C60N12SnCSn2CSnTe4Mg2SnCSn2CSnTe4Mg2SnCSn2CSnTe4Mg2SnCSn2CSnTe4Mg2SnCSn2CSnTe4Mg2SnCSn2CSnTe4Mg2SnCSn2CSnTe4Mg2SnCSn2CSnTe4Mg2SnCSn2CSnTe4Mg2SnCSn2CSnTe4Mg2SnCSn2CSnTe4Mg2SnCSn2CSnTe4Mg2SnCSn2CSnTe4Mg2SnCSn2CSnTe4Mg2SnCSn2CSnTe4Mg2SnCSn2CSnTe4Mg2SnCSn2CSnTe4Mg2SnCSn2CSnTe4Mg2
_chemical_formula_sum              "H24 C96 N12 Sn72 Te72 Mg36"
_cell_length_a       38.0779
_cell_length_b       38.0722
_cell_length_c       8.11539
_cell_angle_alpha    110.253
_cell_angle_beta     98.8674
_cell_angle_gamma    120.011

_symmetry_space_group_name_H-M    'P1'
_space_group_IT_number       1

loop_
  _space_group_symop_operation_xyz
  'x, y, z'

loop_
  _atom_site_type_symbol
  _atom_site_label
  _atom_site_symmetry_multiplicity
  _atom_site_fract_x
  _atom_site_fract_y
  _atom_site_fract_z
  _atom_site_occupancy
  H   H1        1.0  0.76806  0.41559  0.30647  1.0000
  H   H2        1.0  0.58252  0.34711  0.20254  1.0000
  H   H3        1.0  0.64985  0.24395  0.34287  1.0000
  H   H4        1.0  0.22990  0.58104  0.21564  1.0000
  H   H5        1.0  0.41187  0.64926  0.26084  1.0000
  H   H6        1.0  0.34301  0.75414  0.17639  1.0000
  H   H7        1.0  0.76582  0.32871  0.20307  1.0000
  H   H8        1.0  0.66598  0.44069  0.29702  1.0000
  H   H9        1.0  0.55611  0.21554  0.17335  1.0000
  H   H10       1.0  0.22704  0.66457  0.30863  1.0000
  H   H11       1.0  0.33452  0.55997  0.22718  1.0000
  H   H12       1.0  0.43718  0.78170  0.32300  1.0000
  H   H13       1.0  0.77074  0.42028  0.80053  1.0000
  H   H14       1.0  0.58441  0.34563  0.68823  1.0000
  H   H15       1.0  0.65729  0.24802  0.84490  1.0000
  H   H16       1.0  0.23679  0.58858  0.74502  1.0000
  H   H17       1.0  0.40736  0.63946  0.68663  1.0000
  H   H18       1.0  0.35001  0.75709  0.67096  1.0000
  H   H19       1.0  0.77195  0.33530  0.70066  1.0000
  H   H20       1.0  0.66796  0.44301  0.81881  1.0000
  H   H21       1.0  0.56284  0.21871  0.68293  1.0000
  H   H22       1.0  0.22982  0.66690  0.76856  1.0000
  H   H23       1.0  0.34497  0.57145  0.80104  1.0000
  H   H24       1.0  0.44354  0.78357  0.82451  1.0000
  C   C1        1.0  0.68621  0.37433  0.25446  1.0000
  C   C2        1.0  0.62230  0.31133  0.25920  1.0000
  C   C3        1.0  0.68765  0.31296  0.27783  1.0000
  C   C4        1.0  0.30916  0.62142  0.24024  1.0000
  C   C5        1.0  0.37205  0.68589  0.23802  1.0000
  C   C6        1.0  0.30725  0.68429  0.23780  1.0000
  C   C7        1.0  0.70976  0.35511  0.27030  1.0000
  C   C8        1.0  0.64272  0.35359  0.25025  1.0000
  C   C9        1.0  0.64380  0.29019  0.27172  1.0000
  C   C10       1.0  0.28589  0.64145  0.24006  1.0000
  C   C11       1.0  0.35246  0.64308  0.24198  1.0000
  C   C12       1.0  0.35035  0.70720  0.23565  1.0000
  C   C13       1.0  0.75429  0.38013  0.27698  1.0000
  C   C14       1.0  0.61741  0.37168  0.23590  1.0000
  C   C15       1.0  0.62523  0.24821  0.28697  1.0000
  C   C16       1.0  0.24226  0.61598  0.24178  1.0000
  C   C17       1.0  0.37857  0.62568  0.24834  1.0000
  C   C18       1.0  0.36800  0.74955  0.22398  1.0000
  C   C19       1.0  0.77905  0.36451  0.24119  1.0000
  C   C20       1.0  0.63146  0.41459  0.26218  1.0000
  C   C21       1.0  0.58213  0.21362  0.23459  1.0000
  C   C22       1.0  0.21626  0.62977  0.27807  1.0000
  C   C23       1.0  0.36731  0.58494  0.24001  1.0000
  C   C24       1.0  0.41077  0.78386  0.26926  1.0000
  C   C25       1.0  0.70783  0.41477  0.23418  1.0000
  C   C26       1.0  0.58044  0.29270  0.27143  1.0000
  C   C27       1.0  0.70854  0.29123  0.29121  1.0000
  C   C28       1.0  0.28709  0.57867  0.24382  1.0000
  C   C29       1.0  0.41381  0.70551  0.22402  1.0000
  C   C30       1.0  0.28639  0.70660  0.23803  1.0000
  C   C31       1.0  0.68965  0.37745  0.75361  1.0000
  C   C32       1.0  0.62666  0.31314  0.75724  1.0000
  C   C33       1.0  0.69299  0.31693  0.77615  1.0000
  C   C34       1.0  0.31328  0.62401  0.73778  1.0000
  C   C35       1.0  0.37631  0.68657  0.72616  1.0000
  C   C36       1.0  0.31329  0.68791  0.73744  1.0000
  C   C37       1.0  0.71411  0.35919  0.76882  1.0000
  C   C38       1.0  0.64604  0.35522  0.74770  1.0000
  C   C39       1.0  0.64926  0.29314  0.77193  1.0000
  C   C40       1.0  0.29093  0.64509  0.74017  1.0000
  C   C41       1.0  0.35581  0.64387  0.73174  1.0000
  C   C42       1.0  0.35579  0.70919  0.72914  1.0000
  C   C43       1.0  0.75839  0.38526  0.77373  1.0000
  C   C44       1.0  0.61955  0.37199  0.73314  1.0000
  C   C45       1.0  0.63195  0.25147  0.78938  1.0000
  C   C46       1.0  0.24780  0.62129  0.74763  1.0000
  C   C47       1.0  0.37933  0.62342  0.72414  1.0000
  C   C48       1.0  0.37451  0.75207  0.72051  1.0000
  C   C49       1.0  0.78401  0.37083  0.73829  1.0000
  C   C50       1.0  0.63307  0.41544  0.77106  1.0000
  C   C51       1.0  0.58909  0.21680  0.74133  1.0000
  C   C52       1.0  0.22047  0.63428  0.76234  1.0000
  C   C53       1.0  0.37212  0.58875  0.76112  1.0000
  C   C54       1.0  0.41758  0.78638  0.77076  1.0000
  C   C55       1.0  0.71027  0.41832  0.73573  1.0000
  C   C56       1.0  0.58440  0.29358  0.76659  1.0000
  C   C57       1.0  0.71463  0.29578  0.78627  1.0000
  C   C58       1.0  0.29060  0.58121  0.74073  1.0000
  C   C59       1.0  0.41796  0.70533  0.71115  1.0000
  C   C60       1.0  0.29507  0.71307  0.75202  1.0000
  N   N1        1.0  0.72685  0.44759  0.21538  1.0000
  N   N2        1.0  0.54638  0.27897  0.28525  1.0000
  N   N3        1.0  0.72374  0.27145  0.30098  1.0000
  N   N4        1.0  0.26757  0.54359  0.24592  1.0000
  N   N5        1.0  0.44771  0.72010  0.20945  1.0000
  N   N6        1.0  0.27101  0.72667  0.24009  1.0000
  N   N7        1.0  0.72855  0.45174  0.72034  1.0000
  N   N8        1.0  0.55000  0.27875  0.77639  1.0000
  N   N9        1.0  0.73016  0.27613  0.79216  1.0000
  N   N10       1.0  0.27102  0.54666  0.74730  1.0000
  N   N11       1.0  0.45218  0.71973  0.69873  1.0000
  N   N12       1.0  0.28236  0.73595  0.76806  1.0000
  C  Sn1       1.0  0.87026  0.38211  0.12757  1.0000
  C   C61       1.0  0.89805  0.42888  0.17510  1.0000
  C  Sn2       1.0  0.89029  0.46043  0.27626  1.0000
  C  Sn3       1.0  0.85401  0.44492  0.33116  1.0000
  C   C62       1.0  0.82624  0.39818  0.28366  1.0000
  C  Sn4       1.0  0.83397  0.36660  0.18248  1.0000
  O  Te1       1.0  0.87864  0.35118  0.02639  1.0000
  O  Te2       1.0  0.91852  0.50701  0.32209  1.0000
  O  Te3       1.0  0.84564  0.47590  0.43241  1.0000
  O  Te4       1.0  0.80577  0.32004  0.13668  1.0000
  Mg  Mg1       1.0  0.89345  0.53586  0.46156  1.0000
  Mg  Mg2       1.0  0.92385  0.41150  0.99731  1.0000
  C  Sn5       1.0  0.62205  0.48521  0.30593  1.0000
  C   C63       1.0  0.61004  0.44353  0.30104  1.0000
  C  Sn6       1.0  0.56558  0.40760  0.24324  1.0000
  C  Sn7       1.0  0.53244  0.41342  0.18907  1.0000
  C   C64       1.0  0.54445  0.45507  0.19394  1.0000
  C  Sn8       1.0  0.58890  0.49103  0.25176  1.0000
  O  Te5       1.0  0.66669  0.52067  0.36418  1.0000
  O  Te6       1.0  0.55439  0.36626  0.23958  1.0000
  O  Te7       1.0  0.48777  0.37792  0.13079  1.0000
  O  Te8       1.0  0.60010  0.53234  0.25540  1.0000
  Mg  Mg3       1.0  0.48908  0.32809  0.14962  1.0000
  Mg  Mg4       1.0  0.66539  0.57053  0.34523  1.0000
  C  Sn9       1.0  0.51766  0.13869  0.26512  1.0000
  C   C65       1.0  0.56105  0.17238  0.29805  1.0000
  C  Sn10      1.0  0.59177  0.16246  0.30076  1.0000
  C  Sn11      1.0  0.57885  0.11794  0.26978  1.0000
  C   C66       1.0  0.53548  0.08427  0.23684  1.0000
  C  Sn12      1.0  0.50474  0.09416  0.23414  1.0000
  O  Te9       1.0  0.48749  0.14936  0.26302  1.0000
  O  Te10      1.0  0.63496  0.19671  0.33404  1.0000
  O  Te11      1.0  0.60906  0.10728  0.27191  1.0000
  O  Te12      1.0  0.46157  0.05994  0.20086  1.0000
  Mg  Mg5       1.0  0.66403  0.16548  0.32314  1.0000
  Mg  Mg6       1.0  0.43247  0.09112  0.21162  1.0000
  C  Sn13      1.0  0.12629  0.53873  0.31169  1.0000
  C   C67       1.0  0.09753  0.55107  0.32779  1.0000
  C  Sn14      1.0  0.10489  0.58864  0.30544  1.0000
  C  Sn15      1.0  0.14174  0.61439  0.26606  1.0000
  C   C68       1.0  0.17047  0.60204  0.24994  1.0000
  C  Sn16      1.0  0.16314  0.56449  0.27230  1.0000
  O  Te13      1.0  0.11829  0.50105  0.33456  1.0000
  O  Te14      1.0  0.07569  0.60032  0.32224  1.0000
  O  Te15      1.0  0.14972  0.65210  0.24319  1.0000
  O  Te16      1.0  0.19231  0.55279  0.25549  1.0000
  Mg  Mg7       1.0  0.10056  0.65449  0.27914  1.0000
  Mg  Mg8       1.0  0.16746  0.49862  0.29846  1.0000
  C  Sn17      1.0  0.44462  0.59232  0.21410  1.0000
  C   C69       1.0  0.40069  0.57028  0.19513  1.0000
  C  Sn18      1.0  0.37935  0.53067  0.21560  1.0000
  C  Sn19      1.0  0.40241  0.51272  0.25598  1.0000
  C   C70       1.0  0.44631  0.53476  0.27496  1.0000
  C  Sn20      1.0  0.46768  0.57437  0.25449  1.0000
  O  Te17      1.0  0.46530  0.63188  0.19308  1.0000
  O  Te18      1.0  0.33542  0.50924  0.19594  1.0000
  O  Te19      1.0  0.38169  0.47313  0.27699  1.0000
  O  Te20      1.0  0.51159  0.59580  0.27416  1.0000
  Mg  Mg9       1.0  0.32155  0.45625  0.23735  1.0000
  Mg  Mg10      1.0  0.52549  0.64880  0.23288  1.0000
  C  Sn21      1.0  0.48441  0.88203  0.23319  1.0000
  C   C71       1.0  0.46241  0.90054  0.19556  1.0000
  C  Sn22      1.0  0.42075  0.88330  0.20123  1.0000
  C  Sn23      1.0  0.40067  0.84682  0.24556  1.0000
  C   C72       1.0  0.42267  0.82833  0.28319  1.0000
  C  Sn24      1.0  0.46433  0.84554  0.27752  1.0000
  O  Te21      1.0  0.52604  0.89979  0.22674  1.0000
  O  Te22      1.0  0.39939  0.90236  0.16303  1.0000
  O  Te23      1.0  0.35901  0.82906  0.25198  1.0000
  O  Te24      1.0  0.48569  0.82651  0.31572  1.0000
  Mg  Mg11      1.0  0.34312  0.86645  0.18942  1.0000
  Mg  Mg12      1.0  0.54197  0.86241  0.28947  1.0000
  C  Sn25      1.0  0.97380  0.50426  0.15189  1.0000
  C   C73       1.0  0.95349  0.46735  0.18981  1.0000
  C  Sn26      1.0  0.97895  0.45868  0.28838  1.0000
  C  Sn27      1.0  0.02567  0.48753  0.35046  1.0000
  C   C74       1.0  0.04596  0.52442  0.31257  1.0000
  C  Sn28      1.0  0.02053  0.53310  0.21397  1.0000
  O  Te25      1.0  0.94770  0.51227  0.05313  1.0000
  O  Te26      1.0  0.95789  0.42157  0.32456  1.0000
  O  Te27      1.0  0.05177  0.47948  0.44929  1.0000
  O  Te28      1.0  0.04156  0.57020  0.17782  1.0000
  Mg  Mg13      1.0  0.00774  0.42469  0.46432  1.0000
  Mg  Mg14      1.0  0.99175  0.56712  0.03817  1.0000
  C  Sn29      1.0  0.47139  0.45457  0.20319  1.0000
  C   C75       1.0  0.51127  0.47101  0.17990  1.0000
  C  Sn30      1.0  0.53678  0.51532  0.19853  1.0000
  C  Sn31      1.0  0.52215  0.54381  0.24147  1.0000
  C   C76       1.0  0.48230  0.52738  0.26477  1.0000
  C  Sn32      1.0  0.45676  0.48307  0.24612  1.0000
  O  Te29      1.0  0.44641  0.41016  0.18392  1.0000
  O  Te30      1.0  0.57653  0.53098  0.17455  1.0000
  O  Te31      1.0  0.54717  0.58825  0.26072  1.0000
  O  Te32      1.0  0.41704  0.46741  0.27012  1.0000
  Mg  Mg15      1.0  0.59893  0.59405  0.21503  1.0000
  Mg  Mg16      1.0  0.39463  0.40436  0.22977  1.0000
  C  Sn33      1.0  0.97628  0.01717  0.34532  1.0000
  C   C77       1.0  0.51386  0.04394  0.31677  1.0000
  C  Sn34      1.0  0.03349  0.02430  0.23128  1.0000
  C  Sn35      1.0  0.01499  0.97689  0.17299  1.0000
  C   C78       1.0  0.97734  0.95014  0.20151  1.0000
  C  Sn36      1.0  0.95778  0.96977  0.28703  1.0000
  O  Te33      1.0  0.95729  0.03753  0.43106  1.0000
  O  Te34      1.0  0.57105  0.05176  0.20430  1.0000
  O  Te35      1.0  0.03401  0.95654  0.08720  1.0000
  O  Te36      1.0  0.92015  0.94232  0.31398  1.0000
  Mg  Mg17      1.0  0.08500  0.00820  0.08108  1.0000
  Mg  Mg18      1.0  0.90625  0.98584  0.43709  1.0000
  C  Sn37      1.0  0.88796  0.47252  0.84237  1.0000
  C   C79       1.0  0.91309  0.45698  0.79194  1.0000
  C  Sn38      1.0  0.89348  0.40926  0.69276  1.0000
  C  Sn39      1.0  0.84778  0.37638  0.64284  1.0000
  C   C80       1.0  0.82267  0.39193  0.69324  1.0000
  C  Sn40      1.0  0.84226  0.43964  0.79245  1.0000
  O  Te37      1.0  0.90826  0.52039  0.94150  1.0000
  O  Te38      1.0  0.91929  0.39457  0.64395  1.0000
  O  Te39      1.0  0.82749  0.32848  0.54364  1.0000
  O  Te40      1.0  0.81647  0.45434  0.84122  1.0000
  Mg  Mg19      1.0  0.87653  0.32568  0.50896  1.0000
  Mg  Mg20      1.0  0.85919  0.52322  0.97612  1.0000
  C  Sn41      1.0  0.62283  0.48574  0.82825  1.0000
  C   C81       1.0  0.61000  0.44278  0.81083  1.0000
  C  Sn42      1.0  0.56515  0.40575  0.73575  1.0000
  C  Sn43      1.0  0.53244  0.41177  0.67674  1.0000
  C   C82       1.0  0.54527  0.45470  0.69414  1.0000
  C  Sn44      1.0  0.59011  0.49176  0.76924  1.0000
  O  Te41      1.0  0.66785  0.52227  0.90370  1.0000
  O  Te42      1.0  0.55314  0.36313  0.71979  1.0000
  O  Te43      1.0  0.48738  0.37519  0.60126  1.0000
  O  Te44      1.0  0.60213  0.53435  0.78518  1.0000
  Mg  Mg21      1.0  0.48758  0.32381  0.60806  1.0000
  Mg  Mg22      1.0  0.66768  0.57368  0.89679  1.0000
  C  Sn45      1.0  0.50973  0.10438  0.65920  1.0000
  C   C83       1.0  0.53227  0.08769  0.71299  1.0000
  C  Sn46      1.0  0.57835  0.11735  0.81064  1.0000
  C  Sn47      1.0  0.60240  0.16470  0.85559  1.0000
  C   C84       1.0  0.57986  0.18137  0.80184  1.0000
  C  Sn48      1.0  0.53379  0.15173  0.70415  1.0000
  O  Te45      1.0  0.46366  0.07410  0.56168  1.0000
  O  Te46      1.0  0.10024  0.09986  0.86286  1.0000
  O  Te47      1.0  0.64851  0.19498  0.95318  1.0000
  O  Te48      1.0  0.51199  0.16920  0.65197  1.0000
  Mg  Mg23      1.0  0.66322  0.15476  0.99389  1.0000
  Mg  Mg24      1.0  0.44892  0.11433  0.52103  1.0000
  C  Sn49      1.0  0.14308  0.54968  0.69533  1.0000
  C   C85       1.0  0.16887  0.59467  0.72055  1.0000
  C  Sn50      1.0  0.15859  0.62560  0.79619  1.0000
  C  Sn51      1.0  0.12178  0.61127  0.84782  1.0000
  C   C86       1.0  0.09603  0.56631  0.82263  1.0000
  C  Sn52      1.0  0.10628  0.53535  0.74696  1.0000
  O  Te49      1.0  0.15397  0.51934  0.61947  1.0000
  O  Te50      1.0  0.18485  0.67039  0.82001  1.0000
  O  Te51      1.0  0.11091  0.64166  0.92373  1.0000
  O  Te52      1.0  0.08005  0.49058  0.72317  1.0000
  Mg  Mg25      1.0  0.15668  0.69907  0.92907  1.0000
  Mg  Mg26      1.0  0.10819  0.46189  0.61422  1.0000
  C  Sn53      1.0  0.46627  0.58881  0.77309  1.0000
  C   C87       1.0  0.45617  0.54912  0.78323  1.0000
  C  Sn54      1.0  0.41376  0.51649  0.76335  1.0000
  C  Sn55      1.0  0.38075  0.52367  0.73259  1.0000
  C   C88       1.0  0.39085  0.56334  0.72244  1.0000
  C  Sn56      1.0  0.43326  0.59599  0.74233  1.0000
  O  Te53      1.0  0.50889  0.62097  0.79335  1.0000
  O  Te54      1.0  0.40446  0.47708  0.77408  1.0000
  O  Te55      1.0  0.33811  0.49147  0.71234  1.0000
  O  Te56      1.0  0.44257  0.63537  0.73159  1.0000
  Mg  Mg27      1.0  0.34152  0.44327  0.73765  1.0000
  Mg  Mg28      1.0  0.50548  0.66919  0.76789  1.0000
  C  Sn57      1.0  0.49092  0.88534  0.73779  1.0000
  C   C89       1.0  0.46845  0.90345  0.70043  1.0000
  C  Sn58      1.0  0.42689  0.88594  0.70745  1.0000
  C  Sn59      1.0  0.40738  0.84960  0.75288  1.0000
  C   C90       1.0  0.42984  0.83152  0.79024  1.0000
  C  Sn60      1.0  0.47140  0.84900  0.78322  1.0000
  O  Te57      1.0  0.53244  0.90338  0.72997  1.0000
  O  Te58      1.0  0.40506  0.90459  0.66949  1.0000
  O  Te59      1.0  0.36582  0.83157  0.76067  1.0000
  O  Te60      1.0  0.49323  0.83038  0.82117  1.0000
  Mg  Mg29      1.0  0.34916  0.86843  0.69792  1.0000
  Mg  Mg30      1.0  0.54914  0.86652  0.79289  1.0000
  C  Sn61      1.0  0.01219  0.54762  0.77628  1.0000
  C   C91       1.0  0.04489  0.54123  0.81769  1.0000
  C  Sn62      1.0  0.03373  0.49945  0.80889  1.0000
  C  Sn63      1.0  0.98895  0.46330  0.75751  1.0000
  C   C92       1.0  0.95628  0.46969  0.71611  1.0000
  C  Sn64      1.0  0.96741  0.51146  0.72490  1.0000
  O  Te61      1.0  0.02410  0.58967  0.78597  1.0000
  O  Te62      1.0  0.06700  0.49388  0.85097  1.0000
  O  Te63      1.0  0.97706  0.42123  0.74786  1.0000
  O  Te64      1.0  0.93416  0.51704  0.68282  1.0000
  Mg  Mg31      1.0  0.03425  0.43026  0.81787  1.0000
  Mg  Mg32      1.0  0.96687  0.58064  0.71578  1.0000
  C  Sn65      1.0  0.51987  0.53359  0.68108  1.0000
  C   C93       1.0  0.47772  0.51452  0.68302  1.0000
  C  Sn66      1.0  0.45853  0.47828  0.72528  1.0000
  C  Sn67      1.0  0.48196  0.46076  0.76658  1.0000
  C   C94       1.0  0.52408  0.47983  0.76466  1.0000
  C  Sn68      1.0  0.54330  0.51606  0.72238  1.0000
  O  Te65      1.0  0.53841  0.56980  0.63846  1.0000
  O  Te66      1.0  0.41635  0.45976  0.72629  1.0000
  O  Te67      1.0  0.46338  0.42452  0.80922  1.0000
  O  Te68      1.0  0.58546  0.53458  0.72139  1.0000
  Mg  Mg33      1.0  0.40509  0.41080  0.79284  1.0000
  Mg  Mg34      1.0  0.59675  0.58356  0.65496  1.0000
  C  Sn69      1.0  0.03181  0.00730  0.66354  1.0000
  C   C95       1.0  0.01655  0.03458  0.70583  1.0000
  C  Sn70      1.0  0.98596  0.02576  0.79012  1.0000
  C  Sn71      1.0  0.97031  0.98892  0.83316  1.0000
  C   C96       1.0  0.98557  0.96167  0.79091  1.0000
  C  Sn72      1.0  0.01617  0.97046  0.70658  1.0000
  O  Te69      1.0  0.06240  0.01675  0.57928  1.0000
  O  Te70      1.0  0.97117  0.05350  0.83101  1.0000
  O  Te71      1.0  0.93969  0.97950  0.91748  1.0000
  O  Te72      1.0  0.03095  0.94275  0.66573  1.0000
  Mg  Mg35      1.0  0.92945  0.02698  0.94603  1.0000
  Mg  Mg36      1.0  0.07269  0.96926  0.55081  1.0000
