data_image0
_chemical_formula_structural       H24C60N12SnCSn2CSnTe4Mg2SnCSn2CSnTe4Mg2SnCSn2CSnTe4Mg2SnCSn2CSnTe4Mg2SnCSn2CSnTe4Mg2SnCSn2CSnTe4Mg2SnCSn2CSnTe4Mg2SnCSn2CSnTe4Mg2SnCSn2CSnTe4Mg2SnCSn2CSnTe4Mg2SnCSn2CSnTe4Mg2SnCSn2CSnTe4Mg2
_chemical_formula_sum              "H24 C84 N12 Sn48 Te48 Mg24"
_cell_length_a       30.709
_cell_length_b       30.4272
_cell_length_c       8.15418
_cell_angle_alpha    93.612
_cell_angle_beta     119.103
_cell_angle_gamma    119.568

_symmetry_space_group_name_H-M    'P1'
_space_group_IT_number       1

loop_
  _space_group_symop_operation_xyz
  'x, y, z'

loop_
  _atom_site_type_symbol
  _atom_site_label
  _atom_site_symmetry_multiplicity
  _atom_site_fract_x
  _atom_site_fract_y
  _atom_site_fract_z
  _atom_site_occupancy
  H   H1        1.0  0.80065  0.43888  0.25060  1.0000
  H   H2        1.0  0.56681  0.35502  0.16526  1.0000
  H   H3        1.0  0.65100  0.21428  0.22646  1.0000
  H   H4        1.0  0.23413  0.57642  0.31360  1.0000
  H   H5        1.0  0.46090  0.66127  0.35710  1.0000
  H   H6        1.0  0.36542  0.79556  0.28912  1.0000
  H   H7        1.0  0.80308  0.33981  0.18215  1.0000
  H   H8        1.0  0.67000  0.46793  0.23374  1.0000
  H   H9        1.0  0.55400  0.20939  0.26461  1.0000
  H   H10       1.0  0.20533  0.65941  0.24097  1.0000
  H   H11       1.0  0.34584  0.54289  0.18378  1.0000
  H   H12       1.0  0.47125  0.81191  0.27846  1.0000
  H   H13       1.0  0.77694  0.42831  0.74720  1.0000
  H   H14       1.0  0.54566  0.33930  0.69220  1.0000
  H   H15       1.0  0.63262  0.20142  0.70783  1.0000
  H   H16       1.0  0.20422  0.56192  0.78437  1.0000
  H   H17       1.0  0.43721  0.64745  0.86231  1.0000
  H   H18       1.0  0.34323  0.78249  0.76960  1.0000
  H   H19       1.0  0.78095  0.33002  0.68084  1.0000
  H   H20       1.0  0.64387  0.45068  0.73356  1.0000
  H   H21       1.0  0.54248  0.19612  0.78717  1.0000
  H   H22       1.0  0.18850  0.65402  0.77075  1.0000
  H   H23       1.0  0.31956  0.52867  0.64877  1.0000
  H   H24       1.0  0.45491  0.79881  0.80314  1.0000
  C   C1        1.0  0.69856  0.38923  0.20792  1.0000
  C   C2        1.0  0.61942  0.30911  0.20521  1.0000
  C   C3        1.0  0.70311  0.31191  0.23027  1.0000
  C   C4        1.0  0.32451  0.62182  0.28385  1.0000
  C   C5        1.0  0.40469  0.70582  0.30689  1.0000
  C   C6        1.0  0.32045  0.69991  0.29040  1.0000
  C   C7        1.0  0.72914  0.36473  0.22171  1.0000
  C   C8        1.0  0.64354  0.36242  0.19801  1.0000
  C   C9        1.0  0.64821  0.28292  0.22322  1.0000
  C   C10       1.0  0.29495  0.64593  0.28845  1.0000
  C   C11       1.0  0.37987  0.65093  0.29711  1.0000
  C   C12       1.0  0.37483  0.73062  0.29617  1.0000
  C   C13       1.0  0.78481  0.39675  0.22996  1.0000
  C   C14       1.0  0.61030  0.38462  0.18679  1.0000
  C   C15       1.0  0.62639  0.22954  0.23545  1.0000
  C   C16       1.0  0.24212  0.61392  0.29275  1.0000
  C   C17       1.0  0.41369  0.62950  0.30476  1.0000
  C   C18       1.0  0.39437  0.78450  0.29016  1.0000
  C   C19       1.0  0.81734  0.38165  0.20825  1.0000
  C   C20       1.0  0.62769  0.43674  0.21527  1.0000
  C   C21       1.0  0.58065  0.19682  0.25646  1.0000
  C   C22       1.0  0.20114  0.62370  0.26975  1.0000
  C   C23       1.0  0.39347  0.57641  0.24638  1.0000
  C   C24       1.0  0.44113  0.82078  0.28000  1.0000
  C   C25       1.0  0.72444  0.44162  0.19617  1.0000
  C   C26       1.0  0.56526  0.28336  0.20008  1.0000
  C   C27       1.0  0.73364  0.28709  0.25916  1.0000
  C   C28       1.0  0.29469  0.56611  0.26174  1.0000
  C   C29       1.0  0.46038  0.73474  0.32190  1.0000
  C   C30       1.0  0.29100  0.72499  0.27886  1.0000
  C   C31       1.0  0.67530  0.37623  0.71459  1.0000
  C   C32       1.0  0.59804  0.29370  0.70878  1.0000
  C   C33       1.0  0.68321  0.30038  0.73003  1.0000
  C   C34       1.0  0.29970  0.60847  0.77884  1.0000
  C   C35       1.0  0.38013  0.69110  0.79684  1.0000
  C   C36       1.0  0.29783  0.68759  0.78595  1.0000
  C   C37       1.0  0.70703  0.35332  0.72265  1.0000
  C   C38       1.0  0.62112  0.34771  0.70892  1.0000
  C   C39       1.0  0.62877  0.26965  0.72324  1.0000
  C   C40       1.0  0.27069  0.63340  0.78163  1.0000
  C   C41       1.0  0.35496  0.63659  0.79018  1.0000
  C   C42       1.0  0.35211  0.71740  0.79006  1.0000
  C   C43       1.0  0.76152  0.38626  0.72720  1.0000
  C   C44       1.0  0.58748  0.36888  0.70477  1.0000
  C   C45       1.0  0.60903  0.21599  0.72952  1.0000
  C   C46       1.0  0.21647  0.60197  0.78172  1.0000
  C   C47       1.0  0.38897  0.61522  0.79855  1.0000
  C   C48       1.0  0.37301  0.77111  0.78202  1.0000
  C   C49       1.0  0.79459  0.37162  0.70664  1.0000
  C   C50       1.0  0.60259  0.42003  0.72095  1.0000
  C   C51       1.0  0.56679  0.18317  0.76254  1.0000
  C   C52       1.0  0.17982  0.61532  0.77878  1.0000
  C   C53       1.0  0.36827  0.56246  0.72520  1.0000
  C   C54       1.0  0.42283  0.80739  0.78437  1.0000
  C   C55       1.0  0.70032  0.42902  0.70566  1.0000
  C   C56       1.0  0.54221  0.26420  0.69338  1.0000
  C   C57       1.0  0.71550  0.27731  0.75690  1.0000
  C   C58       1.0  0.27253  0.55389  0.76951  1.0000
  C   C59       1.0  0.43366  0.71713  0.79901  1.0000
  C   C60       1.0  0.27150  0.71508  0.78516  1.0000
  N   N1        1.0  0.74787  0.48477  0.18667  1.0000
  N   N2        1.0  0.52169  0.26410  0.20145  1.0000
  N   N3        1.0  0.75847  0.26590  0.28879  1.0000
  N   N4        1.0  0.26683  0.51976  0.23725  1.0000
  N   N5        1.0  0.50628  0.75732  0.33384  1.0000
  N   N6        1.0  0.26747  0.74686  0.26539  1.0000
  N   N7        1.0  0.72347  0.47224  0.69685  1.0000
  N   N8        1.0  0.49605  0.24055  0.68089  1.0000
  N   N9        1.0  0.74181  0.25777  0.78231  1.0000
  N   N10       1.0  0.24909  0.50863  0.75883  1.0000
  N   N11       1.0  0.47722  0.73626  0.79805  1.0000
  N   N12       1.0  0.25176  0.73984  0.78388  1.0000
  C  Sn1       1.0  0.95103  0.50674  0.32243  1.0000
  C   C61       1.0  0.98538  0.49234  0.30173  1.0000
  C  Sn2       1.0  0.95920  0.43705  0.21166  1.0000
  C  Sn3       1.0  0.89738  0.39527  0.14069  1.0000
  C   C62       1.0  0.86306  0.40968  0.16137  1.0000
  C  Sn4       1.0  0.88922  0.46497  0.25145  1.0000
  O  Te1       1.0  0.97815  0.56228  0.41294  1.0000
  O  Te2       1.0  0.99446  0.42366  0.19271  1.0000
  O  Te3       1.0  0.87028  0.33970  0.05013  1.0000
  O  Te4       1.0  0.85399  0.47836  0.27038  1.0000
  Mg  Mg1       1.0  0.93701  0.34218  0.05861  1.0000
  Mg  Mg2       1.0  0.91138  0.55982  0.40436  1.0000
  C  Sn5       1.0  0.57693  0.51922  0.16761  1.0000
  C   C63       1.0  0.52728  0.49440  0.18168  1.0000
  C  Sn6       1.0  0.51339  0.45059  0.24394  1.0000
  C  Sn7       1.0  0.54992  0.43121  0.29330  1.0000
  C   C64       1.0  0.59954  0.45603  0.27926  1.0000
  C  Sn8       1.0  0.61346  0.49984  0.21697  1.0000
  O  Te5       1.0  0.58998  0.56296  0.10503  1.0000
  O  Te6       1.0  0.46351  0.42643  0.25677  1.0000
  O  Te7       1.0  0.53683  0.38743  0.35591  1.0000
  O  Te8       1.0  0.66331  0.52400  0.20416  1.0000
  Mg  Mg3       1.0  0.46415  0.36804  0.34964  1.0000
  Mg  Mg4       1.0  0.66273  0.58241  0.11141  1.0000
  C  Sn9       1.0  0.58343  0.10503  0.21863  1.0000
  C   C65       1.0  0.55924  0.13380  0.21729  1.0000
  C  Sn10      1.0  0.51508  0.11546  0.25656  1.0000
  C  Sn11      1.0  0.49470  0.06740  0.29818  1.0000
  C   C66       1.0  0.51889  0.03867  0.29954  1.0000
  C  Sn12      1.0  0.56305  0.05697  0.26024  1.0000
  O  Te9       1.0  0.62754  0.12411  0.17896  1.0000
  O  Te10      1.0  0.49155  0.14490  0.25431  1.0000
  O  Te11      1.0  0.45055  0.04833  0.33786  1.0000
  O  Te12      1.0  0.07551  0.02757  0.26251  1.0000
  Mg  Mg5       1.0  0.43232  0.10254  0.31762  1.0000
  Mg  Mg6       1.0  0.64584  0.06990  0.19933  1.0000
  C  Sn13      1.0  0.11268  0.52179  0.24799  1.0000
  C   C67       1.0  0.13508  0.57130  0.22141  1.0000
  C  Sn14      1.0  0.11361  0.60160  0.23439  1.0000
  C  Sn15      1.0  0.06886  0.58204  0.27491  1.0000
  C   C68       1.0  0.04649  0.53256  0.30151  1.0000
  C  Sn16      1.0  0.06792  0.50222  0.28852  1.0000
  O  Te13      1.0  0.13479  0.49217  0.23438  1.0000
  O  Te14      1.0  0.13668  0.65097  0.20718  1.0000
  O  Te15      1.0  0.04675  0.61170  0.28851  1.0000
  O  Te16      1.0  0.04489  0.45289  0.31573  1.0000
  Mg  Mg7       1.0  0.09227  0.67659  0.24017  1.0000
  Mg  Mg8       1.0  0.08929  0.42725  0.28289  1.0000
  C  Sn17      1.0  0.52676  0.58132  0.39576  1.0000
  C   C69       1.0  0.50336  0.52670  0.31002  1.0000
  C  Sn18      1.0  0.43914  0.48558  0.17109  1.0000
  C  Sn19      1.0  0.39743  0.49933  0.11661  1.0000
  C   C70       1.0  0.42084  0.55392  0.20230  1.0000
  C  Sn20      1.0  0.48506  0.59507  0.34128  1.0000
  O  Te17      1.0  0.59114  0.62176  0.53432  1.0000
  O  Te18      1.0  0.41684  0.43126  0.08745  1.0000
  O  Te19      1.0  0.51464  0.56617  0.97794  1.0000
  O  Te20      1.0  0.50735  0.64936  0.42487  1.0000
  Mg  Mg9       1.0  0.50689  0.49811  0.90532  1.0000
  Mg  Mg10      1.0  0.59892  0.68988  0.60692  1.0000
  C  Sn21      1.0  0.44677  0.94161  0.32132  1.0000
  C   C71       1.0  0.49686  0.97915  0.32008  1.0000
  C  Sn22      1.0  0.52631  0.96243  0.27617  1.0000
  C  Sn23      1.0  0.50524  0.90701  0.23247  1.0000
  C   C72       1.0  0.45518  0.86951  0.23370  1.0000
  C  Sn24      1.0  0.42571  0.88620  0.27762  1.0000
  O  Te21      1.0  0.41803  0.95924  0.36561  1.0000
  O  Te22      1.0  0.57630  0.00071  0.27591  1.0000
  O  Te23      1.0  0.53404  0.88941  0.18817  1.0000
  O  Te24      1.0  0.37574  0.84795  0.27787  1.0000
  Mg  Mg11      1.0  0.60025  0.95687  0.20641  1.0000
  Mg  Mg12      1.0  0.35174  0.89174  0.34723  1.0000
  C  Sn25      1.0  0.90156  0.39611  0.75565  1.0000
  C   C73       1.0  0.86545  0.40946  0.76801  1.0000
  C  Sn26      1.0  0.87203  0.45708  0.74599  1.0000
  C  Sn27      1.0  0.91558  0.49206  0.71074  1.0000
  C   C74       1.0  0.95165  0.47869  0.69836  1.0000
  C  Sn28      1.0  0.94511  0.43109  0.72040  1.0000
  O  Te25      1.0  0.89420  0.34830  0.77812  1.0000
  O  Te26      1.0  0.83543  0.46958  0.75901  1.0000
  O  Te27      1.0  0.92292  0.53990  0.68827  1.0000
  O  Te28      1.0  0.98167  0.41858  0.70736  1.0000
  Mg  Mg13      1.0  0.86242  0.53929  0.71813  1.0000
  Mg  Mg14      1.0  0.95470  0.34887  0.74811  1.0000
  C  Sn29      1.0  0.55367  0.50424  0.65666  1.0000
  C   C75       1.0  0.50415  0.48152  0.67121  1.0000
  C  Sn30      1.0  0.48910  0.43844  0.73698  1.0000
  C  Sn31      1.0  0.52432  0.41765  0.78942  1.0000
  C   C76       1.0  0.57381  0.44037  0.77490  1.0000
  C  Sn32      1.0  0.58888  0.48345  0.70911  1.0000
  O  Te29      1.0  0.56788  0.54729  0.59056  1.0000
  O  Te30      1.0  0.43938  0.41638  0.75022  1.0000
  O  Te31      1.0  0.51006  0.37456  0.85556  1.0000
  O  Te32      1.0  0.63858  0.50551  0.69589  1.0000
  Mg  Mg15      1.0  0.43812  0.35819  0.84845  1.0000
  Mg  Mg16      1.0  0.63990  0.56372  0.59779  1.0000
  C  Sn33      1.0  0.95649  0.05029  0.71490  1.0000
  C   C77       1.0  0.97969  0.02119  0.70744  1.0000
  C  Sn34      1.0  0.03805  0.04824  0.74605  1.0000
  C  Sn35      1.0  0.58507  0.10557  0.79323  1.0000
  C   C78       1.0  0.56188  0.13464  0.80071  1.0000
  C  Sn36      1.0  0.50351  0.10762  0.76208  1.0000
  O  Te33      1.0  0.89803  0.02241  0.67579  1.0000
  O  Te34      1.0  0.06026  0.01827  0.73763  1.0000
  O  Te35      1.0  0.64358  0.13344  0.83235  1.0000
  O  Te36      1.0  0.48132  0.13756  0.77052  1.0000
  Mg  Mg17      1.0  0.14261  0.07468  0.80268  1.0000
  Mg  Mg18      1.0  0.39899  0.08120  0.70561  1.0000
  C  Sn37      1.0  0.03564  0.56595  0.67922  1.0000
  C   C79       1.0  0.01194  0.51560  0.69950  1.0000
  C  Sn38      1.0  0.04963  0.49854  0.78583  1.0000
  C  Sn39      1.0  0.11234  0.53253  0.85344  1.0000
  C   C80       1.0  0.13601  0.58286  0.83318  1.0000
  C  Sn40      1.0  0.09834  0.59995  0.74682  1.0000
  O  Te37      1.0  0.99712  0.58219  0.59246  1.0000
  O  Te38      1.0  0.02489  0.44802  0.80444  1.0000
  O  Te39      1.0  0.15086  0.51625  0.94023  1.0000
  O  Te40      1.0  0.12306  0.65044  0.72824  1.0000
  Mg  Mg19      1.0  0.09579  0.44392  0.93280  1.0000
  Mg  Mg20      1.0  0.05221  0.65459  0.60000  1.0000
  C  Sn41      1.0  0.50221  0.56873  0.86884  1.0000
  C   C81       1.0  0.47902  0.51413  0.78426  1.0000
  C  Sn42      1.0  0.41481  0.47274  0.64751  1.0000
  C  Sn43      1.0  0.37289  0.48620  0.59406  1.0000
  C   C82       1.0  0.39608  0.54077  0.67858  1.0000
  C  Sn44      1.0  0.46029  0.58219  0.81539  1.0000
  O  Te41      1.0  0.38495  0.50211  0.00523  1.0000
  O  Te42      1.0  0.39273  0.41845  0.56500  1.0000
  O  Te43      1.0  0.30847  0.44543  0.45756  1.0000
  O  Te44      1.0  0.48237  0.63646  0.89784  1.0000
  Mg  Mg21      1.0  0.30107  0.37752  0.38579  1.0000
  Mg  Mg22      1.0  0.39239  0.57008  0.07697  1.0000
  C  Sn45      1.0  0.51363  0.91239  0.85777  1.0000
  C   C83       1.0  0.45752  0.87264  0.82451  1.0000
  C  Sn46      1.0  0.40854  0.87695  0.73613  1.0000
  C  Sn47      1.0  0.41577  0.92191  0.67970  1.0000
  C   C84       1.0  0.47185  0.96163  0.71294  1.0000
  C  Sn48      1.0  0.52087  0.95736  0.80134  1.0000
  O  Te45      1.0  0.56198  0.90726  0.94632  1.0000
  O  Te46      1.0  0.35289  0.83670  0.70446  1.0000
  O  Te47      1.0  0.36736  0.92702  0.59109  1.0000
  O  Te48      1.0  0.57649  0.99756  0.83299  1.0000
  Mg  Mg23      1.0  0.30054  0.86175  0.57880  1.0000
  Mg  Mg24      1.0  0.62885  0.97254  0.95853  1.0000
