data_image0
_chemical_formula_structural       H30C60N6SnCSn2CSnTe4Mg2SnCSn2CSnTe4Mg2SnCSn2CSnTe4Mg2
_chemical_formula_sum              "H30 C66 N6 Sn12 Te12 Mg6"
_cell_length_a       18.7509
_cell_length_b       18.9509
_cell_length_c       8.02406
_cell_angle_alpha    111.326
_cell_angle_beta     91.3409
_cell_angle_gamma    119.183

_symmetry_space_group_name_H-M    'P1'
_space_group_IT_number       1

loop_
  _space_group_symop_operation_xyz
  'x, y, z'

loop_
  _atom_site_type_symbol
  _atom_site_label
  _atom_site_symmetry_multiplicity
  _atom_site_fract_x
  _atom_site_fract_y
  _atom_site_fract_z
  _atom_site_occupancy
  H   H1        1.0  0.62187  0.13087  0.23931  1.0000
  H   H2        1.0  0.85837  0.48965  0.25462  1.0000
  H   H3        1.0  0.49686  0.35484  0.14417  1.0000
  H   H4        1.0  0.47015  0.14028  0.35035  1.0000
  H   H5        1.0  0.88225  0.34195  0.26511  1.0000
  H   H6        1.0  0.65458  0.54275  0.36012  1.0000
  H   H7        1.0  0.37569  0.02403  0.42538  1.0000
  H   H8        1.0  0.02024  0.37558  0.30358  1.0000
  H   H9        1.0  0.31185  0.87105  0.40232  1.0000
  H   H10       1.0  0.16805  0.46507  0.30014  1.0000
  H   H11       1.0  0.49539  0.84249  0.12033  1.0000
  H   H12       1.0  0.11437  0.63842  0.16881  1.0000
  H   H13       1.0  0.56200  0.99604  0.15331  1.0000
  H   H14       1.0  0.96904  0.55272  0.18288  1.0000
  H   H15       1.0  0.27248  0.51475  0.21908  1.0000
  H   H16       1.0  0.48176  0.76051  0.25525  1.0000
  H   H17       1.0  0.23789  0.72705  0.24687  1.0000
  H   H18       1.0  0.62554  0.12817  0.73536  1.0000
  H   H19       1.0  0.86224  0.48541  0.74593  1.0000
  H   H20       1.0  0.50329  0.35527  0.64632  1.0000
  H   H21       1.0  0.47578  0.13920  0.85606  1.0000
  H   H22       1.0  0.88964  0.34339  0.77741  1.0000
  H   H23       1.0  0.66023  0.54204  0.87822  1.0000
  H   H24       1.0  0.37923  0.01986  0.92043  1.0000
  H   H25       1.0  0.31656  0.86666  0.89495  1.0000
  H   H26       1.0  0.50289  0.84191  0.61945  1.0000
  H   H27       1.0  0.56692  0.99480  0.64934  1.0000
  H   H28       1.0  0.27820  0.51320  0.72013  1.0000
  H   H29       1.0  0.48794  0.75788  0.75332  1.0000
  H   H30       1.0  0.24391  0.72453  0.73847  1.0000
  C   C1        1.0  0.70855  0.29365  0.27456  1.0000
  C   C2        1.0  0.70120  0.41156  0.23546  1.0000
  C   C3        1.0  0.57497  0.28578  0.24519  1.0000
  C   C4        1.0  0.62037  0.24616  0.26487  1.0000
  C   C5        1.0  0.75065  0.37590  0.25823  1.0000
  C   C6        1.0  0.61448  0.36913  0.23315  1.0000
  C   C7        1.0  0.58300  0.15961  0.26884  1.0000
  C   C8        1.0  0.83869  0.42612  0.25906  1.0000
  C   C9        1.0  0.56333  0.40463  0.21166  1.0000
  C   C10       1.0  0.50867  0.11205  0.30728  1.0000
  C   C11       1.0  0.89754  0.40381  0.25818  1.0000
  C   C12       1.0  0.59030  0.49261  0.27713  1.0000
  C   C13       1.0  0.75338  0.25603  0.31048  1.0000
  C   C14       1.0  0.74057  0.49048  0.20582  1.0000
  C   C15       1.0  0.48750  0.24415  0.23846  1.0000
  C   C16       1.0  0.40191  0.98392  0.35869  1.0000
  C   C17       1.0  0.04127  0.43369  0.27485  1.0000
  C   C18       1.0  0.36524  0.89708  0.34301  1.0000
  C   C19       1.0  0.12486  0.48431  0.27176  1.0000
  C   C20       1.0  0.39889  0.84456  0.25999  1.0000
  C   C21       1.0  0.15445  0.56043  0.23743  1.0000
  C   C22       1.0  0.47059  0.88297  0.19332  1.0000
  C   C23       1.0  0.09556  0.58303  0.20556  1.0000
  C   C24       1.0  0.50801  0.96984  0.21098  1.0000
  C   C25       1.0  0.01242  0.53370  0.21196  1.0000
  C   C26       1.0  0.47441  0.02257  0.29441  1.0000
  C   C27       1.0  0.98322  0.45783  0.24771  1.0000
  C   C28       1.0  0.29678  0.58119  0.22654  1.0000
  C   C29       1.0  0.41507  0.71955  0.24681  1.0000
  C   C30       1.0  0.27791  0.70034  0.24318  1.0000
  C   C31       1.0  0.38257  0.63351  0.23556  1.0000
  C   C32       1.0  0.36312  0.75367  0.24810  1.0000
  C   C33       1.0  0.24344  0.61413  0.23430  1.0000
  C   C34       1.0  0.71372  0.29236  0.77804  1.0000
  C   C35       1.0  0.70644  0.41010  0.73864  1.0000
  C   C36       1.0  0.58023  0.28498  0.75056  1.0000
  C   C37       1.0  0.62554  0.24509  0.76887  1.0000
  C   C38       1.0  0.75598  0.37443  0.76081  1.0000
  C   C39       1.0  0.61994  0.36822  0.73850  1.0000
  C   C40       1.0  0.58758  0.15783  0.76955  1.0000
  C   C41       1.0  0.84370  0.42379  0.75818  1.0000
  C   C42       1.0  0.56945  0.40452  0.71786  1.0000
  C   C43       1.0  0.51330  0.11016  0.80790  1.0000
  C   C44       1.0  0.90371  0.40337  0.76306  1.0000
  C   C45       1.0  0.59680  0.49273  0.78943  1.0000
  C   C46       1.0  0.75833  0.25415  0.81186  1.0000
  C   C47       1.0  0.74489  0.48765  0.70428  1.0000
  C   C48       1.0  0.49257  0.24363  0.74208  1.0000
  C   C49       1.0  0.40604  0.98042  0.85343  1.0000
  C   C50       1.0  0.37003  0.89349  0.83650  1.0000
  C   C51       1.0  0.40459  0.84189  0.75427  1.0000
  C   C52       1.0  0.47660  0.88124  0.68932  1.0000
  C   C53       1.0  0.51290  0.96790  0.70644  1.0000
  C   C54       1.0  0.47863  0.01989  0.79026  1.0000
  C   C55       1.0  0.30248  0.57932  0.72573  1.0000
  C   C56       1.0  0.42107  0.71719  0.74403  1.0000
  C   C57       1.0  0.28382  0.69793  0.73757  1.0000
  C   C58       1.0  0.38824  0.63129  0.73395  1.0000
  C   C59       1.0  0.36914  0.75115  0.74301  1.0000
  C   C60       1.0  0.24920  0.61233  0.73199  1.0000
  N   N1        1.0  0.78642  0.22242  0.34517  1.0000
  N   N2        1.0  0.77477  0.55449  0.17845  1.0000
  N   N3        1.0  0.41556  0.21318  0.23343  1.0000
  N   N4        1.0  0.79178  0.22047  0.84435  1.0000
  N   N5        1.0  0.77814  0.55000  0.67123  1.0000
  N   N6        1.0  0.42048  0.21361  0.73385  1.0000
  C  Sn1       1.0  0.46738  0.48692  0.57926  1.0000
  C   C61       1.0  0.54278  0.52813  0.70876  1.0000
  C  Sn2       1.0  0.56702  0.60419  0.87131  1.0000
  C  Sn3       1.0  0.51478  0.63977  0.90520  1.0000
  C   C62       1.0  0.43942  0.59856  0.77577  1.0000
  C  Sn4       1.0  0.41513  0.52251  0.61315  1.0000
  O  Te1       1.0  0.44439  0.41095  0.41771  1.0000
  O  Te2       1.0  0.64271  0.64424  0.99868  1.0000
  O  Te3       1.0  0.42515  0.50746  0.06691  1.0000
  O  Te4       1.0  0.33949  0.48246  0.48584  1.0000
  Mg  Mg1       1.0  0.53407  0.53813  0.19836  1.0000
  Mg  Mg2       1.0  0.33536  0.38019  0.28618  1.0000
  C  Sn5       1.0  0.10856  0.45362  0.72227  1.0000
  C   C63       1.0  0.14829  0.53144  0.69466  1.0000
  C  Sn6       1.0  0.10961  0.57960  0.70720  1.0000
  C  Sn7       1.0  0.02957  0.54938  0.74832  1.0000
  C   C64       1.0  0.98989  0.47162  0.77594  1.0000
  C  Sn8       1.0  0.02853  0.42340  0.76339  1.0000
  O  Te5       1.0  0.14840  0.40654  0.70907  1.0000
  O  Te6       1.0  0.15055  0.65719  0.67898  1.0000
  O  Te7       1.0  0.98975  0.59654  0.76150  1.0000
  O  Te8       1.0  0.98764  0.34587  0.79162  1.0000
  Mg  Mg3       1.0  0.07077  0.69830  0.71173  1.0000
  Mg  Mg4       1.0  0.06738  0.30474  0.75900  1.0000
  C  Sn9       1.0  0.45548  0.48383  0.07785  1.0000
  C   C65       1.0  0.53387  0.52591  0.19754  1.0000
  C  Sn10      1.0  0.56330  0.60537  0.35585  1.0000
  C  Sn11      1.0  0.51330  0.64355  0.39542  1.0000
  C   C66       1.0  0.43495  0.60148  0.27579  1.0000
  C  Sn12      1.0  0.40548  0.52202  0.11742  1.0000
  O  Te9       1.0  0.54000  0.61279  0.92039  1.0000
  O  Te10      1.0  0.64189  0.64622  0.47341  1.0000
  O  Te11      1.0  0.54153  0.72301  0.55303  1.0000
  O  Te12      1.0  0.43962  0.68952  0.99992  1.0000
  Mg  Mg5       1.0  0.65283  0.75349  0.67082  1.0000
  Mg  Mg6       1.0  0.42859  0.58222  0.80253  1.0000
