data_image0
_chemical_formula_structural       H48C96N12SnCSn2CSnTe4Mg2SnCSn2CSnTe4Mg2SnCSn2CSnTe4Mg2SnCSn2CSnTe4Mg2SnCSn2CSnTe4Mg2SnCSn2CSnTe4Mg2
_chemical_formula_sum              "H48 C108 N12 Sn24 Te24 Mg12"
_cell_length_a       30.709
_cell_length_b       30.4272
_cell_length_c       8.15418
_cell_angle_alpha    93.612
_cell_angle_beta     119.103
_cell_angle_gamma    119.568

_symmetry_space_group_name_H-M    'P1'
_space_group_IT_number       1

loop_
  _space_group_symop_operation_xyz
  'x, y, z'

loop_
  _atom_site_type_symbol
  _atom_site_label
  _atom_site_symmetry_multiplicity
  _atom_site_fract_x
  _atom_site_fract_y
  _atom_site_fract_z
  _atom_site_occupancy
  H   H1        1.0  0.80065  0.43888  0.25060  1.0000
  H   H2        1.0  0.56681  0.35502  0.16526  1.0000
  H   H3        1.0  0.65100  0.21428  0.22646  1.0000
  H   H4        1.0  0.23413  0.57642  0.31360  1.0000
  H   H5        1.0  0.46090  0.66127  0.35710  1.0000
  H   H6        1.0  0.36542  0.79556  0.28912  1.0000
  H   H7        1.0  0.80308  0.33981  0.18215  1.0000
  H   H8        1.0  0.67000  0.46793  0.23374  1.0000
  H   H9        1.0  0.55400  0.20939  0.26461  1.0000
  H   H10       1.0  0.20533  0.65941  0.24097  1.0000
  H   H11       1.0  0.34584  0.54289  0.18378  1.0000
  H   H12       1.0  0.47125  0.81191  0.27846  1.0000
  H   H13       1.0  0.88040  0.35342  0.15797  1.0000
  H   H14       1.0  0.48163  0.12568  0.24346  1.0000
  H   H15       1.0  0.53667  0.89275  0.28898  1.0000
  H   H16       1.0  0.97542  0.41181  0.18010  1.0000
  H   H17       1.0  0.44432  0.03395  0.24422  1.0000
  H   H18       1.0  0.57149  0.98359  0.28365  1.0000
  H   H19       1.0  0.97285  0.55038  0.29596  1.0000
  H   H20       1.0  0.59942  0.05463  0.28596  1.0000
  H   H21       1.0  0.41684  0.96055  0.25358  1.0000
  H   H22       1.0  0.87721  0.49207  0.26396  1.0000
  H   H23       1.0  0.63819  0.14653  0.29616  1.0000
  H   H24       1.0  0.38299  0.87045  0.26121  1.0000
  H   H25       1.0  0.77694  0.42831  0.74720  1.0000
  H   H26       1.0  0.54566  0.33930  0.69220  1.0000
  H   H27       1.0  0.63262  0.20142  0.70783  1.0000
  H   H28       1.0  0.20422  0.56192  0.78437  1.0000
  H   H29       1.0  0.43721  0.64745  0.86231  1.0000
  H   H30       1.0  0.34323  0.78249  0.76960  1.0000
  H   H31       1.0  0.78095  0.33002  0.68084  1.0000
  H   H32       1.0  0.64387  0.45068  0.73356  1.0000
  H   H33       1.0  0.54248  0.19612  0.78717  1.0000
  H   H34       1.0  0.18850  0.65402  0.77075  1.0000
  H   H35       1.0  0.31956  0.52867  0.64877  1.0000
  H   H36       1.0  0.45491  0.79881  0.80314  1.0000
  H   H37       1.0  0.85994  0.34458  0.66808  1.0000
  H   H38       1.0  0.62590  0.51494  0.70972  1.0000
  H   H39       1.0  0.32583  0.45977  0.57109  1.0000
  H   H40       1.0  0.95366  0.40307  0.68500  1.0000
  H   H41       1.0  0.57063  0.55252  0.70674  1.0000
  H   H42       1.0  0.38220  0.42435  0.56702  1.0000
  H   H43       1.0  0.94631  0.53976  0.77932  1.0000
  H   H44       1.0  0.44914  0.40855  0.74882  1.0000
  H   H45       1.0  0.54990  0.59054  0.87268  1.0000
  H   H46       1.0  0.85256  0.48149  0.75829  1.0000
  H   H47       1.0  0.50332  0.37062  0.74950  1.0000
  H   H48       1.0  0.49431  0.62586  0.87816  1.0000
  C   C1        1.0  0.69856  0.38923  0.20792  1.0000
  C   C2        1.0  0.61942  0.30911  0.20521  1.0000
  C   C3        1.0  0.70311  0.31191  0.23027  1.0000
  C   C4        1.0  0.32451  0.62182  0.28385  1.0000
  C   C5        1.0  0.40469  0.70582  0.30689  1.0000
  C   C6        1.0  0.32045  0.69991  0.29040  1.0000
  C   C7        1.0  0.72914  0.36473  0.22171  1.0000
  C   C8        1.0  0.64354  0.36242  0.19801  1.0000
  C   C9        1.0  0.64821  0.28292  0.22322  1.0000
  C   C10       1.0  0.29495  0.64593  0.28845  1.0000
  C   C11       1.0  0.37987  0.65093  0.29711  1.0000
  C   C12       1.0  0.37483  0.73062  0.29617  1.0000
  C   C13       1.0  0.78481  0.39675  0.22996  1.0000
  C   C14       1.0  0.61030  0.38462  0.18679  1.0000
  C   C15       1.0  0.62639  0.22954  0.23545  1.0000
  C   C16       1.0  0.24212  0.61392  0.29275  1.0000
  C   C17       1.0  0.41369  0.62950  0.30476  1.0000
  C   C18       1.0  0.39437  0.78450  0.29016  1.0000
  C   C19       1.0  0.81734  0.38165  0.20825  1.0000
  C   C20       1.0  0.62769  0.43674  0.21527  1.0000
  C   C21       1.0  0.58065  0.19682  0.25646  1.0000
  C   C22       1.0  0.20114  0.62370  0.26975  1.0000
  C   C23       1.0  0.39347  0.57641  0.24638  1.0000
  C   C24       1.0  0.44113  0.82078  0.28000  1.0000
  C   C25       1.0  0.90142  0.39693  0.19097  1.0000
  C   C26       1.0  0.50751  0.11000  0.25217  1.0000
  C   C27       1.0  0.51026  0.90777  0.27972  1.0000
  C   C28       1.0  0.95546  0.43024  0.20537  1.0000
  C   C29       1.0  0.48602  0.05751  0.25056  1.0000
  C   C30       1.0  0.52980  0.95945  0.27662  1.0000
  C   C31       1.0  0.98322  0.48650  0.24478  1.0000
  C   C32       1.0  0.51784  0.03534  0.26128  1.0000
  C   C33       1.0  0.49670  0.98028  0.26455  1.0000
  C   C34       1.0  0.95265  0.50704  0.26303  1.0000
  C   C35       1.0  0.57294  0.06946  0.27680  1.0000
  C   C36       1.0  0.44345  0.94621  0.25903  1.0000
  C   C37       1.0  0.89854  0.47391  0.24748  1.0000
  C   C38       1.0  0.59500  0.12199  0.28085  1.0000
  C   C39       1.0  0.42402  0.89460  0.26382  1.0000
  C   C40       1.0  0.87213  0.41803  0.21578  1.0000
  C   C41       1.0  0.56221  0.14352  0.26485  1.0000
  C   C42       1.0  0.45698  0.87381  0.27300  1.0000
  C   C43       1.0  0.72444  0.44162  0.19617  1.0000
  C   C44       1.0  0.56526  0.28336  0.20008  1.0000
  C   C45       1.0  0.73364  0.28709  0.25916  1.0000
  C   C46       1.0  0.29469  0.56611  0.26174  1.0000
  C   C47       1.0  0.46038  0.73474  0.32190  1.0000
  C   C48       1.0  0.29100  0.72499  0.27886  1.0000
  C   C49       1.0  0.67530  0.37623  0.71459  1.0000
  C   C50       1.0  0.59804  0.29370  0.70878  1.0000
  C   C51       1.0  0.68321  0.30038  0.73003  1.0000
  C   C52       1.0  0.29970  0.60847  0.77884  1.0000
  C   C53       1.0  0.38013  0.69110  0.79684  1.0000
  C   C54       1.0  0.29783  0.68759  0.78595  1.0000
  C   C55       1.0  0.70703  0.35332  0.72265  1.0000
  C   C56       1.0  0.62112  0.34771  0.70892  1.0000
  C   C57       1.0  0.62877  0.26965  0.72324  1.0000
  C   C58       1.0  0.27069  0.63340  0.78163  1.0000
  C   C59       1.0  0.35496  0.63659  0.79018  1.0000
  C   C60       1.0  0.35211  0.71740  0.79006  1.0000
  C   C61       1.0  0.76152  0.38626  0.72720  1.0000
  C   C62       1.0  0.58748  0.36888  0.70477  1.0000
  C   C63       1.0  0.60903  0.21599  0.72952  1.0000
  C   C64       1.0  0.21647  0.60197  0.78172  1.0000
  C   C65       1.0  0.38897  0.61522  0.79855  1.0000
  C   C66       1.0  0.37301  0.77111  0.78202  1.0000
  C   C67       1.0  0.79459  0.37162  0.70664  1.0000
  C   C68       1.0  0.60259  0.42003  0.72095  1.0000
  C   C69       1.0  0.56679  0.18317  0.76254  1.0000
  C   C70       1.0  0.17982  0.61532  0.77878  1.0000
  C   C71       1.0  0.36827  0.56246  0.72520  1.0000
  C   C72       1.0  0.42283  0.80739  0.78437  1.0000
  C   C73       1.0  0.87931  0.38759  0.69433  1.0000
  C   C74       1.0  0.58725  0.49180  0.71958  1.0000
  C   C75       1.0  0.37527  0.48844  0.64004  1.0000
  C   C76       1.0  0.93258  0.42091  0.70557  1.0000
  C   C77       1.0  0.55624  0.51309  0.71910  1.0000
  C   C78       1.0  0.40721  0.46852  0.63845  1.0000
  C   C79       1.0  0.95863  0.47670  0.73746  1.0000
  C   C80       1.0  0.50465  0.48302  0.72356  1.0000
  C   C81       1.0  0.47092  0.50458  0.72258  1.0000
  C   C82       1.0  0.92745  0.49684  0.75287  1.0000
  C   C83       1.0  0.48645  0.43114  0.73289  1.0000
  C   C84       1.0  0.50072  0.56161  0.80657  1.0000
  C   C85       1.0  0.87419  0.46368  0.74180  1.0000
  C   C86       1.0  0.51738  0.40979  0.73409  1.0000
  C   C87       1.0  0.46901  0.58158  0.81024  1.0000
  C   C88       1.0  0.84906  0.40815  0.71463  1.0000
  C   C89       1.0  0.56838  0.43949  0.72551  1.0000
  C   C90       1.0  0.40531  0.54539  0.72820  1.0000
  C   C91       1.0  0.70032  0.42902  0.70566  1.0000
  C   C92       1.0  0.54221  0.26420  0.69338  1.0000
  C   C93       1.0  0.71550  0.27731  0.75690  1.0000
  C   C94       1.0  0.27253  0.55389  0.76951  1.0000
  C   C95       1.0  0.43366  0.71713  0.79901  1.0000
  C   C96       1.0  0.27150  0.71508  0.78516  1.0000
  N   N1        1.0  0.74787  0.48477  0.18667  1.0000
  N   N2        1.0  0.52169  0.26410  0.20145  1.0000
  N   N3        1.0  0.75847  0.26590  0.28879  1.0000
  N   N4        1.0  0.26683  0.51976  0.23725  1.0000
  N   N5        1.0  0.50628  0.75732  0.33384  1.0000
  N   N6        1.0  0.26747  0.74686  0.26539  1.0000
  N   N7        1.0  0.72347  0.47224  0.69685  1.0000
  N   N8        1.0  0.49605  0.24055  0.68089  1.0000
  N   N9        1.0  0.74181  0.25777  0.78231  1.0000
  N   N10       1.0  0.24909  0.50863  0.75883  1.0000
  N   N11       1.0  0.47722  0.73626  0.79805  1.0000
  N   N12       1.0  0.25176  0.73984  0.78388  1.0000
  C  Sn1       1.0  0.10754  0.60862  0.29722  1.0000
  C   C97       1.0  0.15114  0.59970  0.33069  1.0000
  C  Sn2       1.0  0.13753  0.54783  0.31403  1.0000
  C  Sn3       1.0  0.07912  0.50394  0.26273  1.0000
  C   C98       1.0  0.03556  0.51287  0.22926  1.0000
  C  Sn4       1.0  0.04913  0.56473  0.24592  1.0000
  O  Te1       1.0  0.12213  0.66082  0.31469  1.0000
  O  Te2       1.0  0.18188  0.53992  0.34826  1.0000
  O  Te3       1.0  0.06456  0.45172  0.24528  1.0000
  O  Te4       1.0  0.00482  0.57265  0.21169  1.0000
  Mg  Mg1       1.0  0.14023  0.46137  0.30626  1.0000
  Mg  Mg2       1.0  0.04640  0.65117  0.25353  1.0000
  C  Sn5       1.0  0.40706  0.49254  0.21059  1.0000
  C   C99       1.0  0.42981  0.54730  0.28799  1.0000
  C  Sn6       1.0  0.48664  0.59014  0.33298  1.0000
  C  Sn7       1.0  0.52145  0.57798  0.29979  1.0000
  C   C100      1.0  0.49870  0.52324  0.22241  1.0000
  C  Sn8       1.0  0.44187  0.48038  0.17741  1.0000
  O  Te5       1.0  0.35013  0.45037  0.16669  1.0000
  O  Te6       1.0  0.50844  0.64457  0.41029  1.0000
  O  Te7       1.0  0.57842  0.62020  0.34377  1.0000
  O  Te8       1.0  0.42007  0.42598  0.10011  1.0000
  Mg  Mg3       1.0  0.58853  0.68771  0.44637  1.0000
  Mg  Mg4       1.0  0.33998  0.38280  0.06388  1.0000
  C  Sn9       1.0  0.51363  0.91239  0.85777  1.0000
  C   C101      1.0  0.45752  0.87264  0.82451  1.0000
  C  Sn10      1.0  0.40854  0.87695  0.73613  1.0000
  C  Sn11      1.0  0.41577  0.92191  0.67970  1.0000
  C   C102      1.0  0.47185  0.96163  0.71294  1.0000
  C  Sn12      1.0  0.52087  0.95736  0.80134  1.0000
  O  Te9       1.0  0.56198  0.90726  0.94632  1.0000
  O  Te10      1.0  0.35289  0.83670  0.70446  1.0000
  O  Te11      1.0  0.36736  0.92702  0.59109  1.0000
  O  Te12      1.0  0.57649  0.99756  0.83299  1.0000
  Mg  Mg5       1.0  0.30054  0.86175  0.57880  1.0000
  Mg  Mg6       1.0  0.62885  0.97254  0.95853  1.0000
  C  Sn13      1.0  0.03564  0.56595  0.67922  1.0000
  C   C103      1.0  0.01194  0.51560  0.69950  1.0000
  C  Sn14      1.0  0.04963  0.49854  0.78583  1.0000
  C  Sn15      1.0  0.11234  0.53253  0.85344  1.0000
  C   C104      1.0  0.13601  0.58286  0.83318  1.0000
  C  Sn16      1.0  0.09834  0.59995  0.74682  1.0000
  O  Te13      1.0  0.99712  0.58219  0.59246  1.0000
  O  Te14      1.0  0.02489  0.44802  0.80444  1.0000
  O  Te15      1.0  0.15086  0.51625  0.94023  1.0000
  O  Te16      1.0  0.12306  0.65044  0.72824  1.0000
  Mg  Mg7       1.0  0.09579  0.44392  0.93280  1.0000
  Mg  Mg8       1.0  0.05221  0.65459  0.60000  1.0000
  C  Sn17      1.0  0.52809  0.44370  0.30607  1.0000
  C   C105      1.0  0.53799  0.49331  0.29828  1.0000
  C  Sn18      1.0  0.57318  0.52384  0.23268  1.0000
  C  Sn19      1.0  0.59899  0.50436  0.17349  1.0000
  C   C106      1.0  0.58907  0.45477  0.18126  1.0000
  C  Sn20      1.0  0.55389  0.42422  0.24688  1.0000
  O  Te17      1.0  0.49275  0.41385  0.37214  1.0000
  O  Te18      1.0  0.58246  0.57332  0.22626  1.0000
  O  Te19      1.0  0.63434  0.53425  0.10739  1.0000
  O  Te20      1.0  0.54460  0.37476  0.25328  1.0000
  Mg  Mg9       1.0  0.63395  0.59922  0.12519  1.0000
  Mg  Mg10      1.0  0.49310  0.34882  0.35422  1.0000
  C  Sn21      1.0  0.50451  0.09391  0.84108  1.0000
  C   C107      1.0  0.55122  0.12911  0.82185  1.0000
  C  Sn22      1.0  0.57412  0.10916  0.75221  1.0000
  C  Sn23      1.0  0.03871  0.05284  0.70059  1.0000
  C   C108      1.0  0.99202  0.01767  0.71979  1.0000
  C  Sn24      1.0  0.96911  0.03759  0.78946  1.0000
  O  Te21      1.0  0.48232  0.11475  0.91099  1.0000
  O  Te22      1.0  0.62084  0.14515  0.73432  1.0000
  O  Te23      1.0  0.06095  0.03202  0.63064  1.0000
  O  Te24      1.0  0.92241  0.00164  0.80732  1.0000
  Mg  Mg11      1.0  0.63589  0.09724  0.63208  1.0000
  Mg  Mg12      1.0  0.90731  0.04950  0.90944  1.0000
