data_image0
_chemical_formula_structural       H24C60N12C2Sn2C2HTe2HMgC2Sn2C2HTe2HMgC2Sn2C2HTe2HMgC2Sn2C2HTe2HMgC2Sn2C2HTe2HMgC2Sn2C2HTe2HMgC2Sn2C2HTe2HMgC2Sn2C2HTe2HMgC2Sn2C2HTe2HMgC2Sn2C2HTe2HMgC2Sn2C2HTe2HMgC2Sn2C2HTe2HMgC2Sn2C2HTe2HMgC2Sn2C2HTe2HMgC2Sn2C2HTe2HMgC2Sn2C2HTe2HMgC2Sn2C2HTe2HMgC2Sn2C2HTe2HMg
_chemical_formula_sum              "H60 C132 N12 Sn36 Te36 Mg18"
_cell_length_a       38.0779
_cell_length_b       38.0722
_cell_length_c       8.11539
_cell_angle_alpha    110.253
_cell_angle_beta     98.8674
_cell_angle_gamma    120.011

_symmetry_space_group_name_H-M    'P1'
_space_group_IT_number       1

loop_
  _space_group_symop_operation_xyz
  'x, y, z'

loop_
  _atom_site_type_symbol
  _atom_site_label
  _atom_site_symmetry_multiplicity
  _atom_site_fract_x
  _atom_site_fract_y
  _atom_site_fract_z
  _atom_site_occupancy
  H   H1        1.0  0.76806  0.41559  0.30647  1.0000
  H   H2        1.0  0.58252  0.34711  0.20254  1.0000
  H   H3        1.0  0.64985  0.24395  0.34287  1.0000
  H   H4        1.0  0.22990  0.58104  0.21564  1.0000
  H   H5        1.0  0.41187  0.64926  0.26084  1.0000
  H   H6        1.0  0.34301  0.75414  0.17639  1.0000
  H   H7        1.0  0.76582  0.32871  0.20307  1.0000
  H   H8        1.0  0.66598  0.44069  0.29702  1.0000
  H   H9        1.0  0.55611  0.21554  0.17335  1.0000
  H   H10       1.0  0.22704  0.66457  0.30863  1.0000
  H   H11       1.0  0.33452  0.55997  0.22718  1.0000
  H   H12       1.0  0.43718  0.78170  0.32300  1.0000
  H   H13       1.0  0.77074  0.42028  0.80053  1.0000
  H   H14       1.0  0.58441  0.34563  0.68823  1.0000
  H   H15       1.0  0.65729  0.24802  0.84490  1.0000
  H   H16       1.0  0.23679  0.58858  0.74502  1.0000
  H   H17       1.0  0.40736  0.63946  0.68663  1.0000
  H   H18       1.0  0.35001  0.75709  0.67096  1.0000
  H   H19       1.0  0.77195  0.33530  0.70066  1.0000
  H   H20       1.0  0.66796  0.44301  0.81881  1.0000
  H   H21       1.0  0.56284  0.21871  0.68293  1.0000
  H   H22       1.0  0.22982  0.66690  0.76856  1.0000
  H   H23       1.0  0.34497  0.57145  0.80104  1.0000
  H   H24       1.0  0.44354  0.78357  0.82451  1.0000
  C   C1        1.0  0.68621  0.37433  0.25446  1.0000
  C   C2        1.0  0.62230  0.31133  0.25920  1.0000
  C   C3        1.0  0.68765  0.31296  0.27783  1.0000
  C   C4        1.0  0.30916  0.62142  0.24024  1.0000
  C   C5        1.0  0.37205  0.68589  0.23802  1.0000
  C   C6        1.0  0.30725  0.68429  0.23780  1.0000
  C   C7        1.0  0.70976  0.35511  0.27030  1.0000
  C   C8        1.0  0.64272  0.35359  0.25025  1.0000
  C   C9        1.0  0.64380  0.29019  0.27172  1.0000
  C   C10       1.0  0.28589  0.64145  0.24006  1.0000
  C   C11       1.0  0.35246  0.64308  0.24198  1.0000
  C   C12       1.0  0.35035  0.70720  0.23565  1.0000
  C   C13       1.0  0.75429  0.38013  0.27698  1.0000
  C   C14       1.0  0.61741  0.37168  0.23590  1.0000
  C   C15       1.0  0.62523  0.24821  0.28697  1.0000
  C   C16       1.0  0.24226  0.61598  0.24178  1.0000
  C   C17       1.0  0.37857  0.62568  0.24834  1.0000
  C   C18       1.0  0.36800  0.74955  0.22398  1.0000
  C   C19       1.0  0.77905  0.36451  0.24119  1.0000
  C   C20       1.0  0.63146  0.41459  0.26218  1.0000
  C   C21       1.0  0.58213  0.21362  0.23459  1.0000
  C   C22       1.0  0.21626  0.62977  0.27807  1.0000
  C   C23       1.0  0.36731  0.58494  0.24001  1.0000
  C   C24       1.0  0.41077  0.78386  0.26926  1.0000
  C   C25       1.0  0.70783  0.41477  0.23418  1.0000
  C   C26       1.0  0.58044  0.29270  0.27143  1.0000
  C   C27       1.0  0.70854  0.29123  0.29121  1.0000
  C   C28       1.0  0.28709  0.57867  0.24382  1.0000
  C   C29       1.0  0.41381  0.70551  0.22402  1.0000
  C   C30       1.0  0.28639  0.70660  0.23803  1.0000
  C   C31       1.0  0.68965  0.37745  0.75361  1.0000
  C   C32       1.0  0.62666  0.31314  0.75724  1.0000
  C   C33       1.0  0.69299  0.31693  0.77615  1.0000
  C   C34       1.0  0.31328  0.62401  0.73778  1.0000
  C   C35       1.0  0.37631  0.68657  0.72616  1.0000
  C   C36       1.0  0.31329  0.68791  0.73744  1.0000
  C   C37       1.0  0.71411  0.35919  0.76882  1.0000
  C   C38       1.0  0.64604  0.35522  0.74770  1.0000
  C   C39       1.0  0.64926  0.29314  0.77193  1.0000
  C   C40       1.0  0.29093  0.64509  0.74017  1.0000
  C   C41       1.0  0.35581  0.64387  0.73174  1.0000
  C   C42       1.0  0.35579  0.70919  0.72914  1.0000
  C   C43       1.0  0.75839  0.38526  0.77373  1.0000
  C   C44       1.0  0.61955  0.37199  0.73314  1.0000
  C   C45       1.0  0.63195  0.25147  0.78938  1.0000
  C   C46       1.0  0.24780  0.62129  0.74763  1.0000
  C   C47       1.0  0.37933  0.62342  0.72414  1.0000
  C   C48       1.0  0.37451  0.75207  0.72051  1.0000
  C   C49       1.0  0.78401  0.37083  0.73829  1.0000
  C   C50       1.0  0.63307  0.41544  0.77106  1.0000
  C   C51       1.0  0.58909  0.21680  0.74133  1.0000
  C   C52       1.0  0.22047  0.63428  0.76234  1.0000
  C   C53       1.0  0.37212  0.58875  0.76112  1.0000
  C   C54       1.0  0.41758  0.78638  0.77076  1.0000
  C   C55       1.0  0.71027  0.41832  0.73573  1.0000
  C   C56       1.0  0.58440  0.29358  0.76659  1.0000
  C   C57       1.0  0.71463  0.29578  0.78627  1.0000
  C   C58       1.0  0.29060  0.58121  0.74073  1.0000
  C   C59       1.0  0.41796  0.70533  0.71115  1.0000
  C   C60       1.0  0.29507  0.71307  0.75202  1.0000
  N   N1        1.0  0.72685  0.44759  0.21538  1.0000
  N   N2        1.0  0.54638  0.27897  0.28525  1.0000
  N   N3        1.0  0.72374  0.27145  0.30098  1.0000
  N   N4        1.0  0.26757  0.54359  0.24592  1.0000
  N   N5        1.0  0.44771  0.72010  0.20945  1.0000
  N   N6        1.0  0.27101  0.72667  0.24009  1.0000
  N   N7        1.0  0.72855  0.45174  0.72034  1.0000
  N   N8        1.0  0.55000  0.27875  0.77639  1.0000
  N   N9        1.0  0.73016  0.27613  0.79216  1.0000
  N   N10       1.0  0.27102  0.54666  0.74730  1.0000
  N   N11       1.0  0.45218  0.71973  0.69873  1.0000
  N   N12       1.0  0.28236  0.73595  0.76806  1.0000
  C   C61       1.0  0.85204  0.36935  0.17533  1.0000
  C   C62       1.0  0.82812  0.38576  0.23531  1.0000
  C  Sn1       1.0  0.84416  0.43178  0.28898  1.0000
  C  Sn2       1.0  0.88491  0.46184  0.28227  1.0000
  C   C63       1.0  0.90857  0.44508  0.22192  1.0000
  C   C64       1.0  0.89223  0.39897  0.16860  1.0000
  H   H25       1.0  0.83939  0.33366  0.13397  1.0000
  O  Te1       1.0  0.81984  0.44762  0.34862  1.0000
  O  Te2       1.0  0.90169  0.50799  0.33504  1.0000
  H   H26       1.0  0.91074  0.38626  0.12205  1.0000
  Mg  Mg1       1.0  0.85646  0.51336  0.40633  1.0000
  C   C65       1.0  0.61880  0.48078  0.24300  1.0000
  C   C66       1.0  0.60929  0.44179  0.25823  1.0000
  C  Sn3       1.0  0.56791  0.41081  0.25213  1.0000
  C  Sn4       1.0  0.53553  0.41911  0.23032  1.0000
  C   C67       1.0  0.54536  0.45820  0.21507  1.0000
  C   C68       1.0  0.58687  0.48898  0.22140  1.0000
  H   H27       1.0  0.65091  0.50458  0.24779  1.0000
  O  Te3       1.0  0.55897  0.37204  0.26763  1.0000
  O  Te4       1.0  0.49391  0.38871  0.22372  1.0000
  H   H28       1.0  0.59421  0.51915  0.20948  1.0000
  Mg  Mg2       1.0  0.49744  0.34072  0.25082  1.0000
  C   C69       1.0  0.58763  0.12933  0.30867  1.0000
  C   C70       1.0  0.54520  0.09685  0.28931  1.0000
  C  Sn5       1.0  0.51126  0.10104  0.23870  1.0000
  C  Sn6       1.0  0.52006  0.13847  0.20693  1.0000
  C   C71       1.0  0.56261  0.17077  0.22653  1.0000
  C   C72       1.0  0.59633  0.16626  0.27729  1.0000
  H   H29       1.0  0.61372  0.12583  0.34784  1.0000
  O  Te5       1.0  0.46906  0.06829  0.22003  1.0000
  O  Te6       1.0  0.48675  0.14348  0.15613  1.0000
  H   H30       1.0  0.62918  0.19139  0.29215  1.0000
  Mg  Mg3       1.0  0.43461  0.08998  0.14830  1.0000
  C   C73       1.0  0.14476  0.54523  0.25630  1.0000
  C   C74       1.0  0.16861  0.58891  0.26797  1.0000
  C  Sn7       1.0  0.15189  0.61486  0.29547  1.0000
  C  Sn8       1.0  0.11052  0.59666  0.31159  1.0000
  C   C75       1.0  0.08693  0.55295  0.29985  1.0000
  C   C76       1.0  0.10396  0.52726  0.27225  1.0000
  H   H31       1.0  0.15794  0.52536  0.23505  1.0000
  O  Te7       1.0  0.17615  0.65844  0.30675  1.0000
  O  Te8       1.0  0.09305  0.62188  0.33919  1.0000
  H   H32       1.0  0.08549  0.49346  0.26334  1.0000
  Mg  Mg4       1.0  0.13848  0.67959  0.34521  1.0000
  C   C77       1.0  0.39274  0.50716  0.21711  1.0000
  C   C78       1.0  0.43549  0.52713  0.22168  1.0000
  C  Sn9       1.0  0.46100  0.57237  0.24941  1.0000
  C  Sn10      1.0  0.44330  0.59802  0.27300  1.0000
  C   C79       1.0  0.40051  0.57775  0.26833  1.0000
  C   C80       1.0  0.37526  0.53244  0.24044  1.0000
  H   H33       1.0  0.37321  0.47212  0.19564  1.0000
  O  Te9       1.0  0.50364  0.59179  0.25353  1.0000
  O  Te10      1.0  0.46808  0.64331  0.30100  1.0000
  H   H34       1.0  0.34218  0.51700  0.23703  1.0000
  Mg  Mg5       1.0  0.52452  0.65465  0.29563  1.0000
  C   C81       1.0  0.48994  0.88950  0.29806  1.0000
  C   C82       1.0  0.46785  0.90636  0.24171  1.0000
  C  Sn11      1.0  0.42240  0.88245  0.19547  1.0000
  C  Sn12      1.0  0.39871  0.84091  0.20603  1.0000
  C   C83       1.0  0.42112  0.82434  0.26269  1.0000
  C   C84       1.0  0.46660  0.84854  0.30858  1.0000
  H   H35       1.0  0.52513  0.90823  0.33367  1.0000
  O  Te11      1.0  0.40085  0.89977  0.13938  1.0000
  O  Te12      1.0  0.35328  0.81633  0.16068  1.0000
  H   H36       1.0  0.48369  0.83549  0.35232  1.0000
  Mg  Mg6       1.0  0.33865  0.85388  0.09181  1.0000
  C   C85       1.0  0.00124  0.52886  0.20740  1.0000
  C   C86       1.0  0.03578  0.52605  0.26653  1.0000
  C  Sn13      1.0  0.02841  0.49120  0.31044  1.0000
  C  Sn14      1.0  0.98564  0.45860  0.29469  1.0000
  C   C87       1.0  0.95130  0.46169  0.23529  1.0000
  C   C88       1.0  0.95904  0.49671  0.19176  1.0000
  H   H37       1.0  0.00721  0.55594  0.17362  1.0000
  O  Te13      1.0  0.06329  0.48891  0.36937  1.0000
  O  Te14      1.0  0.97736  0.42341  0.33762  1.0000
  H   H38       1.0  0.93228  0.49886  0.14587  1.0000
  Mg  Mg7       1.0  0.03558  0.43467  0.41195  1.0000
  C   C89       1.0  0.46194  0.46963  0.25848  1.0000
  C   C90       1.0  0.47102  0.50906  0.24848  1.0000
  C  Sn15      1.0  0.50826  0.53570  0.21741  1.0000
  C  Sn16      1.0  0.53688  0.52254  0.19595  1.0000
  C   C91       1.0  0.52749  0.48303  0.20606  1.0000
  C   C92       1.0  0.49015  0.45662  0.23726  1.0000
  H   H39       1.0  0.43303  0.44918  0.28252  1.0000
  O  Te15      1.0  0.51684  0.57500  0.20787  1.0000
  O  Te16      1.0  0.57432  0.54854  0.16469  1.0000
  H   H40       1.0  0.48311  0.42608  0.24488  1.0000
  Mg  Mg8       1.0  0.57198  0.59921  0.16294  1.0000
  C   C93       1.0  0.52670  0.98823  0.21561  1.0000
  C   C94       1.0  0.49036  0.96186  0.25207  1.0000
  C  Sn17      1.0  0.46377  0.97616  0.29093  1.0000
  C  Sn18      1.0  0.47383  0.01764  0.29318  1.0000
  C   C95       1.0  0.01016  0.04375  0.25639  1.0000
  C   C96       1.0  0.03655  0.02913  0.21773  1.0000
  H   H41       1.0  0.54711  0.97690  0.18559  1.0000
  O  Te17      1.0  0.42759  0.94942  0.32712  1.0000
  O  Te18      1.0  0.44780  0.03273  0.33155  1.0000
  H   H42       1.0  0.06468  0.04953  0.18938  1.0000
  Mg  Mg9       1.0  0.40203  0.98440  0.37213  1.0000
  C   C97       1.0  0.88111  0.47055  0.78572  1.0000
  C   C98       1.0  0.90877  0.45727  0.75520  1.0000
  C  Sn19      1.0  0.89400  0.41170  0.70406  1.0000
  C  Sn20      1.0  0.85071  0.37889  0.68314  1.0000
  C   C99       1.0  0.82328  0.39251  0.71386  1.0000
  C   C100      1.0  0.83840  0.43821  0.76505  1.0000
  H   H43       1.0  0.89279  0.50590  0.82523  1.0000
  O  Te19      1.0  0.92207  0.39902  0.67417  1.0000
  O  Te20      1.0  0.83511  0.33312  0.63207  1.0000
  H   H44       1.0  0.81697  0.44847  0.78854  1.0000
  Mg  Mg10      1.0  0.88574  0.33255  0.60675  1.0000
  C   C101      1.0  0.62082  0.48254  0.76704  1.0000
  C   C102      1.0  0.61016  0.44195  0.76988  1.0000
  C  Sn21      1.0  0.56740  0.40892  0.74552  1.0000
  C  Sn22      1.0  0.53478  0.41675  0.71777  1.0000
  C   C103      1.0  0.54577  0.45745  0.71502  1.0000
  C   C104      1.0  0.58867  0.49028  0.73960  1.0000
  H   H45       1.0  0.65400  0.50793  0.78595  1.0000
  O  Te21      1.0  0.55730  0.36856  0.74882  1.0000
  O  Te22      1.0  0.49178  0.38431  0.69299  1.0000
  H   H46       1.0  0.59691  0.52169  0.73727  1.0000
  Mg  Mg11      1.0  0.49410  0.33470  0.70864  1.0000
  C   C105      1.0  0.51823  0.13272  0.70207  1.0000
  C   C106      1.0  0.56229  0.16909  0.75616  1.0000
  C  Sn23      1.0  0.59613  0.16525  0.81404  1.0000
  C  Sn24      1.0  0.58556  0.12419  0.81765  1.0000
  C   C107      1.0  0.04147  0.08798  0.76314  1.0000
  C   C108      1.0  0.50778  0.09220  0.70552  1.0000
  H   H47       1.0  0.49223  0.13597  0.65739  1.0000
  O  Te23      1.0  0.63997  0.20193  0.86768  1.0000
  O  Te24      1.0  0.61873  0.11942  0.87483  1.0000
  H   H48       1.0  0.97376  0.06402  0.66353  1.0000
  Mg  Mg12      1.0  0.67351  0.17897  0.93485  1.0000
  C   C109      1.0  0.12316  0.61473  0.80980  1.0000
  C   C110      1.0  0.09601  0.56916  0.77731  1.0000
  C  Sn25      1.0  0.11131  0.54188  0.74918  1.0000
  C  Sn26      1.0  0.15460  0.56066  0.75380  1.0000
  C   C111      1.0  0.18151  0.60630  0.78655  1.0000
  C   C112      1.0  0.16587  0.63329  0.81445  1.0000
  H   H49       1.0  0.11107  0.63562  0.83150  1.0000
  O  Te25      1.0  0.08375  0.49642  0.71683  1.0000
  O  Te26      1.0  0.17072  0.53416  0.72621  1.0000
  H   H50       1.0  0.18690  0.66858  0.83973  1.0000
  Mg  Mg13      1.0  0.12067  0.47402  0.68709  1.0000
  C   C113      1.0  0.38542  0.52254  0.77087  1.0000
  C   C114      1.0  0.39533  0.56271  0.76592  1.0000
  C  Sn27      1.0  0.43277  0.58937  0.73597  1.0000
  C  Sn28      1.0  0.46074  0.57546  0.71048  1.0000
  C   C115      1.0  0.45051  0.53520  0.71554  1.0000
  C   C116      1.0  0.41297  0.50878  0.74567  1.0000
  H   H51       1.0  0.35636  0.50209  0.79408  1.0000
  O  Te27      1.0  0.44220  0.62942  0.73151  1.0000
  O  Te28      1.0  0.49836  0.60146  0.68023  1.0000
  H   H52       1.0  0.40529  0.47767  0.74937  1.0000
  Mg  Mg14      1.0  0.49727  0.65331  0.68601  1.0000
  C   C117      1.0  0.48731  0.86957  0.79744  1.0000
  C   C118      1.0  0.44491  0.83673  0.77705  1.0000
  C  Sn29      1.0  0.41087  0.84089  0.72840  1.0000
  C  Sn30      1.0  0.41954  0.87867  0.69966  1.0000
  C   C119      1.0  0.46207  0.91133  0.72026  1.0000
  C   C120      1.0  0.49589  0.90684  0.76905  1.0000
  H   H53       1.0  0.51348  0.86609  0.83508  1.0000
  O  Te29      1.0  0.36870  0.80777  0.70868  1.0000
  O  Te30      1.0  0.38613  0.88366  0.65086  1.0000
  H   H54       1.0  0.52871  0.93226  0.78470  1.0000
  Mg  Mg15      1.0  0.33407  0.82959  0.64053  1.0000
  C   C121      1.0  0.00638  0.53962  0.71140  1.0000
  C   C122      1.0  0.04099  0.53698  0.77162  1.0000
  C  Sn31      1.0  0.03357  0.50200  0.81462  1.0000
  C  Sn32      1.0  0.99068  0.46908  0.79683  1.0000
  C   C123      1.0  0.95628  0.47200  0.73635  1.0000
  C   C124      1.0  0.96407  0.50716  0.69374  1.0000
  H   H55       1.0  0.01240  0.56681  0.67833  1.0000
  O  Te31      1.0  0.06852  0.49987  0.87466  1.0000
  O  Te32      1.0  0.98235  0.43375  0.83882  1.0000
  H   H56       1.0  0.93726  0.50918  0.64700  1.0000
  Mg  Mg16      1.0  0.04069  0.44534  0.91529  1.0000
  C   C125      1.0  0.54081  0.53271  0.73418  1.0000
  C   C126      1.0  0.53083  0.49239  0.73773  1.0000
  C  Sn33      1.0  0.48947  0.46086  0.73005  1.0000
  C  Sn34      1.0  0.45757  0.46997  0.71856  1.0000
  C   C127      1.0  0.46786  0.51040  0.71496  1.0000
  C   C128      1.0  0.50936  0.54171  0.72278  1.0000
  H   H57       1.0  0.57290  0.55694  0.74012  1.0000
  O  Te33      1.0  0.48005  0.42075  0.73381  1.0000
  O  Te34      1.0  0.41597  0.43904  0.71064  1.0000
  H   H58       1.0  0.51706  0.57292  0.71990  1.0000
  Mg  Mg17      1.0  0.41876  0.38917  0.71989  1.0000
  C   C129      1.0  0.53114  0.98953  0.70787  1.0000
  C   C130      1.0  0.49541  0.96371  0.74866  1.0000
  C  Sn35      1.0  0.46928  0.97843  0.79101  1.0000
  C  Sn36      1.0  0.47918  0.01978  0.79238  1.0000
  C   C131      1.0  0.51497  0.04534  0.75125  1.0000
  C   C132      1.0  0.54091  0.03031  0.70912  1.0000
  H   H59       1.0  0.55119  0.97789  0.67517  1.0000
  O  Te35      1.0  0.43372  0.95223  0.83151  1.0000
  O  Te36      1.0  0.45359  0.03527  0.83417  1.0000
  H   H60       1.0  0.56855  0.05029  0.67742  1.0000
  Mg  Mg18      1.0  0.40861  0.98762  0.88007  1.0000
