data_image0
_chemical_formula_structural       H96C112N16C2Sn2C2HTe2HMgC2Sn2C2HTe2HMgC2Sn2C2HTe2HMgC2Sn2C2HTe2HMgC2Sn2C2HTe2HMgC2Sn2C2HTe2HMgC2Sn2C2HTe2HMgC2Sn2C2HTe2HMg
_chemical_formula_sum              "H112 C144 N16 Sn16 Te16 Mg8"
_cell_length_a       22.8841
_cell_length_b       21.6611
_cell_length_c       23.9347
_cell_angle_alpha    90.3156
_cell_angle_beta     89.7907
_cell_angle_gamma    89.7639

_symmetry_space_group_name_H-M    'P1'
_space_group_IT_number       1

loop_
  _space_group_symop_operation_xyz
  'x, y, z'

loop_
  _atom_site_type_symbol
  _atom_site_label
  _atom_site_symmetry_multiplicity
  _atom_site_fract_x
  _atom_site_fract_y
  _atom_site_fract_z
  _atom_site_occupancy
  H   H1        1.0  0.10187  0.53392  0.46060  1.0000
  H   H2        1.0  0.89702  0.53418  0.53646  1.0000
  H   H3        1.0  0.59963  0.03628  0.46204  1.0000
  H   H4        1.0  0.39549  0.03310  0.53960  1.0000
  H   H5        1.0  0.10836  0.47653  0.51279  1.0000
  H   H6        1.0  0.89178  0.47469  0.48582  1.0000
  H   H7        1.0  0.60671  0.97787  0.51319  1.0000
  H   H8        1.0  0.39030  0.97407  0.48827  1.0000
  H   H9        1.0  0.01453  0.53266  0.39487  1.0000
  H   H10       1.0  0.98518  0.53705  0.60282  1.0000
  H   H11       1.0  0.51037  0.03468  0.39604  1.0000
  H   H12       1.0  0.48385  0.03552  0.60499  1.0000
  H   H13       1.0  0.96064  0.47527  0.40096  1.0000
  H   H14       1.0  0.03960  0.47967  0.59750  1.0000
  H   H15       1.0  0.45756  0.97644  0.40320  1.0000
  H   H16       1.0  0.53918  0.97912  0.59873  1.0000
  H   H17       1.0  0.44643  0.12973  0.09665  1.0000
  H   H18       1.0  0.55794  0.13479  0.91128  1.0000
  H   H19       1.0  0.94266  0.63832  0.09223  1.0000
  H   H20       1.0  0.05788  0.63714  0.90727  1.0000
  H   H21       1.0  0.52821  0.98652  0.89607  1.0000
  H   H22       1.0  0.47091  0.97675  0.09851  1.0000
  H   H23       1.0  0.03054  0.48582  0.89882  1.0000
  H   H24       1.0  0.97028  0.48815  0.10018  1.0000
  H   H25       1.0  0.47480  0.04606  0.89866  1.0000
  H   H26       1.0  0.52703  0.03208  0.10267  1.0000
  H   H27       1.0  0.97546  0.54358  0.89685  1.0000
  H   H28       1.0  0.02516  0.54581  0.10122  1.0000
  H   H29       1.0  0.60759  0.03395  0.02633  1.0000
  H   H30       1.0  0.39489  0.04375  0.97406  1.0000
  H   H31       1.0  0.10579  0.54470  0.02697  1.0000
  H   H32       1.0  0.89506  0.54510  0.97101  1.0000
  H   H33       1.0  0.60594  0.97958  0.97135  1.0000
  H   H34       1.0  0.39338  0.98376  0.02335  1.0000
  H   H35       1.0  0.10715  0.48697  0.97477  1.0000
  H   H36       1.0  0.89304  0.48847  0.02356  1.0000
  H   H37       1.0  0.11660  0.46234  0.09020  1.0000
  H   H38       1.0  0.88677  0.46388  0.90498  1.0000
  H   H39       1.0  0.60152  0.88977  0.03921  1.0000
  H   H40       1.0  0.38282  0.96282  0.90514  1.0000
  H   H41       1.0  0.06219  0.43258  0.37262  1.0000
  H   H42       1.0  0.95746  0.41696  0.62300  1.0000
  H   H43       1.0  0.55798  0.93262  0.37266  1.0000
  H   H44       1.0  0.43762  0.93367  0.62826  1.0000
  H   H45       1.0  0.16006  0.20232  0.13373  1.0000
  H   H46       1.0  0.83423  0.20320  0.86732  1.0000
  H   H47       1.0  0.65105  0.72205  0.13860  1.0000
  H   H48       1.0  0.34250  0.69997  0.86136  1.0000
  H   H49       1.0  0.08923  0.26453  0.07904  1.0000
  H   H50       1.0  0.90421  0.26455  0.92394  1.0000
  H   H51       1.0  0.58532  0.79872  0.09386  1.0000
  H   H52       1.0  0.41179  0.76432  0.91679  1.0000
  H   H53       1.0  0.20109  0.36226  0.23317  1.0000
  H   H54       1.0  0.80161  0.36201  0.76455  1.0000
  H   H55       1.0  0.71933  0.86434  0.24549  1.0000
  H   H56       1.0  0.29743  0.85895  0.76338  1.0000
  H   H57       1.0  0.13214  0.42475  0.17715  1.0000
  H   H58       1.0  0.87045  0.42277  0.82121  1.0000
  H   H59       1.0  0.65421  0.94132  0.19996  1.0000
  H   H60       1.0  0.36447  0.92312  0.81991  1.0000
  H   H61       1.0  0.22869  0.79921  0.63267  1.0000
  H   H62       1.0  0.28552  0.86199  0.56502  1.0000
  H   H63       1.0  0.38733  0.75241  0.71866  1.0000
  H   H64       1.0  0.44389  0.81541  0.65121  1.0000
  H   H65       1.0  0.23995  0.11236  0.22705  1.0000
  H   H66       1.0  0.74040  0.61406  0.22697  1.0000
  H   H67       1.0  0.30251  0.04358  0.16796  1.0000
  H   H68       1.0  0.80150  0.54800  0.16434  1.0000
  H   H69       1.0  0.29224  0.26838  0.12901  1.0000
  H   H70       1.0  0.78685  0.77335  0.13069  1.0000
  H   H71       1.0  0.35778  0.20038  0.07255  1.0000
  H   H72       1.0  0.85157  0.70822  0.07073  1.0000
  H   H73       1.0  0.38073  0.11416  0.46629  1.0000
  H   H74       1.0  0.61034  0.11891  0.53509  1.0000
  H   H75       1.0  0.88382  0.61349  0.46322  1.0000
  H   H76       1.0  0.11378  0.61674  0.53256  1.0000
  H   H77       1.0  0.64590  0.23088  0.75050  1.0000
  H   H78       1.0  0.57111  0.16640  0.70345  1.0000
  H   H79       1.0  0.77442  0.17015  0.63072  1.0000
  H   H80       1.0  0.70024  0.10460  0.58447  1.0000
  H   H81       1.0  0.53140  0.89445  0.52231  1.0000
  H   H82       1.0  0.46914  0.89320  0.47876  1.0000
  H   H83       1.0  0.03181  0.39384  0.52265  1.0000
  H   H84       1.0  0.96991  0.39277  0.47835  1.0000
  H   H85       1.0  0.97287  0.40310  0.02507  1.0000
  H   H86       1.0  0.02810  0.40269  0.97399  1.0000
  H   H87       1.0  0.46993  0.89768  0.01841  1.0000
  H   H88       1.0  0.52520  0.89897  0.96700  1.0000
  H   H89       1.0  0.02705  0.62834  0.02596  1.0000
  H   H90       1.0  0.97393  0.62846  0.97225  1.0000
  H   H91       1.0  0.53022  0.12004  0.03108  1.0000
  H   H92       1.0  0.47645  0.12497  0.97817  1.0000
  H   H93       1.0  0.97498  0.61808  0.52682  1.0000
  H   H94       1.0  0.02274  0.61715  0.46836  1.0000
  H   H95       1.0  0.47170  0.11739  0.53070  1.0000
  H   H96       1.0  0.51907  0.11889  0.47194  1.0000
  C   C1        1.0  0.95623  0.54550  0.46555  1.0000
  C   C2        1.0  0.04279  0.54754  0.53155  1.0000
  C   C3        1.0  0.45349  0.04621  0.46798  1.0000
  C   C4        1.0  0.54079  0.04803  0.53363  1.0000
  C   C5        1.0  0.03409  0.46343  0.45783  1.0000
  C   C6        1.0  0.96593  0.46506  0.54155  1.0000
  C   C7        1.0  0.53228  0.96513  0.45842  1.0000
  C   C8        1.0  0.46534  0.96423  0.54282  1.0000
  C   C9        1.0  0.07694  0.50554  0.49022  1.0000
  C   C10       1.0  0.92269  0.50481  0.50780  1.0000
  C   C11       1.0  0.57499  0.00713  0.49125  1.0000
  C   C12       1.0  0.42102  0.00453  0.51016  1.0000
  C   C13       1.0  0.99092  0.50405  0.42523  1.0000
  C   C14       1.0  0.00878  0.50739  0.57288  1.0000
  C   C15       1.0  0.48809  0.00554  0.42687  1.0000
  C   C16       1.0  0.50771  0.00659  0.57463  1.0000
  C   C17       1.0  0.54134  0.05242  0.96397  1.0000
  C   C18       1.0  0.46159  0.05079  0.03786  1.0000
  C   C19       1.0  0.04059  0.55676  0.96277  1.0000
  C   C20       1.0  0.95976  0.55788  0.03555  1.0000
  C   C21       1.0  0.46074  0.97226  0.95932  1.0000
  C   C22       1.0  0.53777  0.96610  0.03456  1.0000
  C   C23       1.0  0.96214  0.47387  0.96156  1.0000
  C   C24       1.0  0.03843  0.47439  0.03721  1.0000
  C   C25       1.0  0.42464  0.09035  0.07623  1.0000
  C   C26       1.0  0.57911  0.09304  0.92807  1.0000
  C   C27       1.0  0.92156  0.59819  0.07233  1.0000
  C   C28       1.0  0.07844  0.59576  0.92542  1.0000
  C   C29       1.0  0.50112  0.01466  0.92447  1.0000
  C   C30       1.0  0.49949  0.00626  0.07326  1.0000
  C   C31       1.0  0.00210  0.51507  0.92499  1.0000
  C   C32       1.0  0.99842  0.51669  0.07359  1.0000
  C   C33       1.0  0.57808  0.00771  0.99905  1.0000
  C   C34       1.0  0.42288  0.01264  0.99850  1.0000
  C   C35       1.0  0.07777  0.51548  0.00063  1.0000
  C   C36       1.0  0.92275  0.51613  0.99779  1.0000
  C   C37       1.0  0.07765  0.43752  0.07516  1.0000
  C   C38       1.0  0.92299  0.43720  0.92346  1.0000
  C   C39       1.0  0.57586  0.92168  0.06582  1.0000
  C   C40       1.0  0.42097  0.93704  0.92079  1.0000
  C   C41       1.0  0.06825  0.42340  0.41745  1.0000
  C   C42       1.0  0.93494  0.42408  0.58290  1.0000
  C   C43       1.0  0.56606  0.92517  0.41748  1.0000
  C   C44       1.0  0.43223  0.92393  0.58332  1.0000
  C   C45       1.0  0.15366  0.25101  0.14354  1.0000
  C   C46       1.0  0.84212  0.25134  0.85714  1.0000
  C   C47       1.0  0.65201  0.77017  0.15188  1.0000
  C   C48       1.0  0.34755  0.74881  0.85220  1.0000
  C   C49       1.0  0.11405  0.28560  0.11271  1.0000
  C   C50       1.0  0.88126  0.28538  0.88905  1.0000
  C   C51       1.0  0.61547  0.81320  0.12641  1.0000
  C   C52       1.0  0.38605  0.78436  0.88335  1.0000
  C   C53       1.0  0.18572  0.27749  0.18777  1.0000
  C   C54       1.0  0.81246  0.27774  0.81146  1.0000
  C   C55       1.0  0.68971  0.78746  0.19550  1.0000
  C   C56       1.0  0.31504  0.77482  0.80826  1.0000
  C   C57       1.0  0.17715  0.34080  0.19904  1.0000
  C   C58       1.0  0.82358  0.34033  0.79959  1.0000
  C   C59       1.0  0.69019  0.84999  0.21212  1.0000
  C   C60       1.0  0.32196  0.83821  0.79735  1.0000
  C   C61       1.0  0.13842  0.37603  0.16747  1.0000
  C   C62       1.0  0.86231  0.37478  0.83185  1.0000
  C   C63       1.0  0.65368  0.89310  0.18707  1.0000
  C   C64       1.0  0.35960  0.87430  0.82925  1.0000
  C   C65       1.0  0.10670  0.34911  0.12325  1.0000
  C   C66       1.0  0.89123  0.34807  0.87776  1.0000
  C   C67       1.0  0.61615  0.87546  0.14347  1.0000
  C   C68       1.0  0.39178  0.84787  0.87321  1.0000
  C   C69       1.0  0.30357  0.77206  0.68133  1.0000
  C   C70       1.0  0.27585  0.80305  0.63694  1.0000
  C   C71       1.0  0.30731  0.83822  0.59904  1.0000
  C   C72       1.0  0.36808  0.84469  0.60481  1.0000
  C   C73       1.0  0.36470  0.77683  0.68549  1.0000
  C   C74       1.0  0.39655  0.81277  0.64806  1.0000
  C   C75       1.0  0.23469  0.23862  0.27579  1.0000
  C   C76       1.0  0.76263  0.24100  0.72284  1.0000
  C   C77       1.0  0.73367  0.73688  0.27947  1.0000
  C   C78       1.0  0.26708  0.73542  0.72017  1.0000
  C   C79       1.0  0.22734  0.23790  0.21887  1.0000
  C   C80       1.0  0.77061  0.23902  0.77970  1.0000
  C   C81       1.0  0.72740  0.74053  0.22250  1.0000
  C   C82       1.0  0.27396  0.73494  0.77707  1.0000
  C   C83       1.0  0.26273  0.19548  0.18313  1.0000
  C   C84       1.0  0.76048  0.69894  0.18425  1.0000
  C   C85       1.0  0.26565  0.13158  0.19309  1.0000
  C   C86       1.0  0.76456  0.63470  0.19264  1.0000
  C   C87       1.0  0.30088  0.09304  0.16056  1.0000
  C   C88       1.0  0.79907  0.59764  0.15804  1.0000
  C   C89       1.0  0.33607  0.11790  0.11802  1.0000
  C   C90       1.0  0.83280  0.62405  0.11510  1.0000
  C   C91       1.0  0.29533  0.21936  0.13835  1.0000
  C   C92       1.0  0.79105  0.72416  0.13876  1.0000
  C   C93       1.0  0.33234  0.18148  0.10685  1.0000
  C   C94       1.0  0.82756  0.68780  0.10525  1.0000
  C   C95       1.0  0.40985  0.08686  0.43877  1.0000
  C   C96       1.0  0.58305  0.09033  0.56275  1.0000
  C   C97       1.0  0.91321  0.58620  0.43597  1.0000
  C   C98       1.0  0.08553  0.58926  0.56031  1.0000
  C   C99       1.0  0.71602  0.20466  0.69468  1.0000
  C   C100      1.0  0.65781  0.20355  0.71397  1.0000
  C   C101      1.0  0.61578  0.16734  0.68779  1.0000
  C   C102      1.0  0.63020  0.13175  0.64029  1.0000
  C   C103      1.0  0.72989  0.16947  0.64678  1.0000
  C   C104      1.0  0.68810  0.13317  0.62026  1.0000
  C   C105      1.0  0.99918  0.58755  0.49799  1.0000
  C   C106      1.0  0.49619  0.08808  0.50103  1.0000
  C   C107      1.0  0.00060  0.42329  0.50026  1.0000
  C   C108      1.0  0.49966  0.92389  0.50060  1.0000
  C   C109      1.0  0.49852  0.92855  0.99451  1.0000
  C   C110      1.0  0.00031  0.43333  0.99945  1.0000
  C   C111      1.0  0.00032  0.59825  0.99913  1.0000
  C   C112      1.0  0.50253  0.09241  0.00305  1.0000
  N   N1        1.0  0.06770  0.38114  0.08817  1.0000
  N   N2        1.0  0.93005  0.37934  0.91370  1.0000
  N   N3        1.0  0.58002  0.92080  0.11923  1.0000
  N   N4        1.0  0.43023  0.88011  0.90855  1.0000
  N   N5        1.0  0.10411  0.38195  0.43435  1.0000
  N   N6        1.0  0.88597  0.39833  0.57144  1.0000
  N   N7        1.0  0.60309  0.88492  0.43457  1.0000
  N   N8        1.0  0.39785  0.88149  0.56588  1.0000
  N   N9        1.0  0.37066  0.07807  0.08519  1.0000
  N   N10       1.0  0.63209  0.07881  0.91578  1.0000
  N   N11       1.0  0.86780  0.58512  0.08160  1.0000
  N   N12       1.0  0.13134  0.58048  0.91391  1.0000
  N   N13       1.0  0.40750  0.09067  0.38533  1.0000
  N   N14       1.0  0.58696  0.09406  0.61615  1.0000
  N   N15       1.0  0.91109  0.59023  0.38257  1.0000
  N   N16       1.0  0.08886  0.59311  0.61370  1.0000
  C   C113      1.0  0.37635  0.17200  0.30043  1.0000
  C   C114      1.0  0.37013  0.13779  0.34942  1.0000
  C  Sn1       1.0  0.31558  0.13313  0.37543  1.0000
  C  Sn2       1.0  0.26644  0.16331  0.35186  1.0000
  C   C115      1.0  0.27311  0.19738  0.30282  1.0000
  C   C116      1.0  0.32790  0.20176  0.27715  1.0000
  H   H97       1.0  0.41873  0.17536  0.28055  1.0000
  O  Te1       1.0  0.31014  0.09879  0.42436  1.0000
  O  Te2       1.0  0.21141  0.15939  0.37698  1.0000
  H   H98       1.0  0.33270  0.22821  0.23920  1.0000
  Mg  Mg1       1.0  0.22610  0.10717  0.44314  1.0000
  C   C117      1.0  0.62208  0.78652  0.31820  1.0000
  C   C118      1.0  0.68238  0.77637  0.31583  1.0000
  C  Sn3       1.0  0.71866  0.80023  0.35744  1.0000
  C  Sn4       1.0  0.69397  0.83485  0.40221  1.0000
  C   C119      1.0  0.63359  0.84471  0.40422  1.0000
  C   C120      1.0  0.59769  0.82065  0.36235  1.0000
  H   H99       1.0  0.59430  0.76788  0.28582  1.0000
  O  Te3       1.0  0.77882  0.78967  0.35442  1.0000
  O  Te4       1.0  0.72922  0.85920  0.44437  1.0000
  H   H100      1.0  0.55100  0.82848  0.36422  1.0000
  Mg  Mg2       1.0  0.80873  0.83236  0.42183  1.0000
  C   C121      1.0  0.20636  0.63409  0.61832  1.0000
  C   C122      1.0  0.14809  0.62513  0.63380  1.0000
  C  Sn5       1.0  0.12422  0.65759  0.67909  1.0000
  C  Sn6       1.0  0.15945  0.69979  0.70936  1.0000
  C   C123      1.0  0.21769  0.70846  0.69351  1.0000
  C   C124      1.0  0.24114  0.67572  0.64813  1.0000
  H   H101      1.0  0.22450  0.60879  0.58319  1.0000
  O  Te5       1.0  0.06592  0.64806  0.69402  1.0000
  O  Te6       1.0  0.13670  0.73285  0.75478  1.0000
  H   H102      1.0  0.28625  0.68270  0.63613  1.0000
  Mg  Mg3       1.0  0.05484  0.70395  0.75901  1.0000
  C   C125      1.0  0.79301  0.62955  0.37637  1.0000
  C   C126      1.0  0.85181  0.62199  0.36179  1.0000
  C  Sn7       1.0  0.87619  0.65697  0.31880  1.0000
  C  Sn8       1.0  0.84094  0.70031  0.28996  1.0000
  C   C127      1.0  0.78218  0.70756  0.30488  1.0000
  C   C128      1.0  0.75823  0.67230  0.34795  1.0000
  H   H103      1.0  0.77448  0.60230  0.40971  1.0000
  O  Te7       1.0  0.93500  0.64882  0.30476  1.0000
  O  Te8       1.0  0.86420  0.73589  0.24684  1.0000
  H   H104      1.0  0.71272  0.67820  0.35925  1.0000
  Mg  Mg4       1.0  0.94665  0.70807  0.24302  1.0000
  C   C129      1.0  0.20933  0.33282  0.39529  1.0000
  C   C130      1.0  0.14964  0.34673  0.39604  1.0000
  C  Sn9       1.0  0.11258  0.32137  0.35581  1.0000
  C  Sn10      1.0  0.13583  0.28135  0.31413  1.0000
  C   C131      1.0  0.19559  0.26768  0.31376  1.0000
  C   C132      1.0  0.23229  0.29333  0.35420  1.0000
  H   H105      1.0  0.23772  0.35264  0.42660  1.0000
  O  Te9       1.0  0.05306  0.33578  0.35716  1.0000
  O  Te10      1.0  0.09977  0.25534  0.27343  1.0000
  H   H106      1.0  0.27849  0.28251  0.35363  1.0000
  Mg  Mg5       1.0  0.02162  0.28892  0.29273  1.0000
  C   C133      1.0  0.76766  0.32699  0.63275  1.0000
  C   C134      1.0  0.78944  0.28463  0.67136  1.0000
  C  Sn11      1.0  0.84952  0.28013  0.68077  1.0000
  C  Sn12      1.0  0.88841  0.31883  0.65092  1.0000
  C   C135      1.0  0.86618  0.36109  0.61242  1.0000
  C   C136      1.0  0.80599  0.36519  0.60331  1.0000
  H   H107      1.0  0.72108  0.33019  0.62573  1.0000
  O  Te11      1.0  0.87054  0.23755  0.71947  1.0000
  O  Te12      1.0  0.94865  0.31531  0.65953  1.0000
  H   H108      1.0  0.78914  0.39802  0.57345  1.0000
  Mg  Mg6       1.0  0.95620  0.24998  0.71662  1.0000
  C   C137      1.0  0.70802  0.09605  0.82572  1.0000
  C   C138      1.0  0.67819  0.11059  0.87515  1.0000
  C  Sn13      1.0  0.67509  0.17168  0.89398  1.0000
  C  Sn14      1.0  0.70239  0.21900  0.86266  1.0000
  C   C139      1.0  0.73210  0.20398  0.81325  1.0000
  C   C140      1.0  0.73495  0.14269  0.79479  1.0000
  H   H109      1.0  0.71020  0.04863  0.81142  1.0000
  O  Te13      1.0  0.64512  0.18540  0.94346  1.0000
  O  Te14      1.0  0.69996  0.28044  0.88052  1.0000
  H   H110      1.0  0.75802  0.13145  0.75651  1.0000
  Mg  Mg7       1.0  0.65397  0.27603  0.95061  1.0000
  C   C141      1.0  0.20924  0.59400  0.82474  1.0000
  C   C142      1.0  0.17872  0.61002  0.87342  1.0000
  C  Sn15      1.0  0.17608  0.67154  0.89113  1.0000
  C  Sn16      1.0  0.20454  0.71777  0.85943  1.0000
  C   C143      1.0  0.23492  0.70128  0.81077  1.0000
  C   C144      1.0  0.23731  0.63957  0.79344  1.0000
  H   H111      1.0  0.21106  0.54627  0.81131  1.0000
  O  Te15      1.0  0.14542  0.68674  0.93987  1.0000
  O  Te16      1.0  0.20258  0.77962  0.87616  1.0000
  H   H112      1.0  0.26090  0.62719  0.75573  1.0000
  Mg  Mg8       1.0  0.15531  0.77736  0.94557  1.0000
