data_image0
_chemical_formula_structural       H96C112N16SnCSn2CSnTe4Mg2SnCSn2CSnTe4Mg2SnCSn2CSnTe4Mg2SnCSn2CSnTe4Mg2SnCSn2CSnTe4Mg2SnCSn2CSnTe4Mg2SnCSn2CSnTe4Mg2SnCSn2CSnTe4Mg2
_chemical_formula_sum              "H96 C128 N16 Sn32 Te32 Mg16"
_cell_length_a       22.8841
_cell_length_b       21.6611
_cell_length_c       23.9347
_cell_angle_alpha    90.3156
_cell_angle_beta     89.7907
_cell_angle_gamma    89.7639

_symmetry_space_group_name_H-M    'P1'
_space_group_IT_number       1

loop_
  _space_group_symop_operation_xyz
  'x, y, z'

loop_
  _atom_site_type_symbol
  _atom_site_label
  _atom_site_symmetry_multiplicity
  _atom_site_fract_x
  _atom_site_fract_y
  _atom_site_fract_z
  _atom_site_occupancy
  H   H1        1.0  0.10187  0.53392  0.46060  1.0000
  H   H2        1.0  0.89702  0.53418  0.53646  1.0000
  H   H3        1.0  0.59963  0.03628  0.46204  1.0000
  H   H4        1.0  0.39549  0.03310  0.53960  1.0000
  H   H5        1.0  0.10836  0.47653  0.51279  1.0000
  H   H6        1.0  0.89178  0.47469  0.48582  1.0000
  H   H7        1.0  0.60671  0.97787  0.51319  1.0000
  H   H8        1.0  0.39030  0.97407  0.48827  1.0000
  H   H9        1.0  0.01453  0.53266  0.39487  1.0000
  H   H10       1.0  0.98518  0.53705  0.60282  1.0000
  H   H11       1.0  0.51037  0.03468  0.39604  1.0000
  H   H12       1.0  0.48385  0.03552  0.60499  1.0000
  H   H13       1.0  0.96064  0.47527  0.40096  1.0000
  H   H14       1.0  0.03960  0.47967  0.59750  1.0000
  H   H15       1.0  0.45756  0.97644  0.40320  1.0000
  H   H16       1.0  0.53918  0.97912  0.59873  1.0000
  H   H17       1.0  0.44643  0.12973  0.09665  1.0000
  H   H18       1.0  0.55794  0.13479  0.91128  1.0000
  H   H19       1.0  0.94266  0.63832  0.09223  1.0000
  H   H20       1.0  0.05788  0.63714  0.90727  1.0000
  H   H21       1.0  0.52821  0.98652  0.89607  1.0000
  H   H22       1.0  0.47091  0.97675  0.09851  1.0000
  H   H23       1.0  0.03054  0.48582  0.89882  1.0000
  H   H24       1.0  0.97028  0.48815  0.10018  1.0000
  H   H25       1.0  0.47480  0.04606  0.89866  1.0000
  H   H26       1.0  0.52703  0.03208  0.10267  1.0000
  H   H27       1.0  0.97546  0.54358  0.89685  1.0000
  H   H28       1.0  0.02516  0.54581  0.10122  1.0000
  H   H29       1.0  0.60759  0.03395  0.02633  1.0000
  H   H30       1.0  0.39489  0.04375  0.97406  1.0000
  H   H31       1.0  0.10579  0.54470  0.02697  1.0000
  H   H32       1.0  0.89506  0.54510  0.97101  1.0000
  H   H33       1.0  0.60594  0.97958  0.97135  1.0000
  H   H34       1.0  0.39338  0.98376  0.02335  1.0000
  H   H35       1.0  0.10715  0.48697  0.97477  1.0000
  H   H36       1.0  0.89304  0.48847  0.02356  1.0000
  H   H37       1.0  0.11660  0.46234  0.09020  1.0000
  H   H38       1.0  0.88677  0.46388  0.90498  1.0000
  H   H39       1.0  0.60152  0.88977  0.03921  1.0000
  H   H40       1.0  0.38282  0.96282  0.90514  1.0000
  H   H41       1.0  0.06219  0.43258  0.37262  1.0000
  H   H42       1.0  0.95746  0.41696  0.62300  1.0000
  H   H43       1.0  0.55798  0.93262  0.37266  1.0000
  H   H44       1.0  0.43762  0.93367  0.62826  1.0000
  H   H45       1.0  0.16006  0.20232  0.13373  1.0000
  H   H46       1.0  0.83423  0.20320  0.86732  1.0000
  H   H47       1.0  0.65105  0.72205  0.13860  1.0000
  H   H48       1.0  0.34250  0.69997  0.86136  1.0000
  H   H49       1.0  0.08923  0.26453  0.07904  1.0000
  H   H50       1.0  0.90421  0.26455  0.92394  1.0000
  H   H51       1.0  0.58532  0.79872  0.09386  1.0000
  H   H52       1.0  0.41179  0.76432  0.91679  1.0000
  H   H53       1.0  0.20109  0.36226  0.23317  1.0000
  H   H54       1.0  0.80161  0.36201  0.76455  1.0000
  H   H55       1.0  0.71933  0.86434  0.24549  1.0000
  H   H56       1.0  0.29743  0.85895  0.76338  1.0000
  H   H57       1.0  0.13214  0.42475  0.17715  1.0000
  H   H58       1.0  0.87045  0.42277  0.82121  1.0000
  H   H59       1.0  0.65421  0.94132  0.19996  1.0000
  H   H60       1.0  0.36447  0.92312  0.81991  1.0000
  H   H61       1.0  0.72090  0.31100  0.64071  1.0000
  H   H62       1.0  0.77095  0.79405  0.37227  1.0000
  H   H63       1.0  0.77527  0.37980  0.57577  1.0000
  H   H64       1.0  0.71341  0.85828  0.43967  1.0000
  H   H65       1.0  0.88319  0.25555  0.71558  1.0000
  H   H66       1.0  0.61484  0.75859  0.27844  1.0000
  H   H67       1.0  0.93707  0.32181  0.64982  1.0000
  H   H68       1.0  0.55770  0.82298  0.34525  1.0000
  H   H69       1.0  0.38073  0.11416  0.46629  1.0000
  H   H70       1.0  0.61034  0.11891  0.53509  1.0000
  H   H71       1.0  0.88382  0.61349  0.46322  1.0000
  H   H72       1.0  0.11378  0.61674  0.53256  1.0000
  H   H73       1.0  0.35196  0.22573  0.24959  1.0000
  H   H74       1.0  0.15074  0.72845  0.74770  1.0000
  H   H75       1.0  0.42514  0.16056  0.29837  1.0000
  H   H76       1.0  0.07422  0.66617  0.70019  1.0000
  H   H77       1.0  0.21987  0.16688  0.36554  1.0000
  H   H78       1.0  0.27880  0.66106  0.63029  1.0000
  H   H79       1.0  0.29258  0.10067  0.41344  1.0000
  H   H80       1.0  0.20253  0.59821  0.58331  1.0000
  H   H81       1.0  0.53140  0.89445  0.52231  1.0000
  H   H82       1.0  0.46914  0.89320  0.47876  1.0000
  H   H83       1.0  0.03181  0.39384  0.52265  1.0000
  H   H84       1.0  0.96991  0.39277  0.47835  1.0000
  H   H85       1.0  0.97287  0.40310  0.02507  1.0000
  H   H86       1.0  0.02810  0.40269  0.97399  1.0000
  H   H87       1.0  0.46993  0.89768  0.01841  1.0000
  H   H88       1.0  0.52520  0.89897  0.96700  1.0000
  H   H89       1.0  0.02705  0.62834  0.02596  1.0000
  H   H90       1.0  0.97393  0.62846  0.97225  1.0000
  H   H91       1.0  0.53022  0.12004  0.03108  1.0000
  H   H92       1.0  0.47645  0.12497  0.97817  1.0000
  H   H93       1.0  0.97498  0.61808  0.52682  1.0000
  H   H94       1.0  0.02274  0.61715  0.46836  1.0000
  H   H95       1.0  0.47170  0.11739  0.53070  1.0000
  H   H96       1.0  0.51907  0.11889  0.47194  1.0000
  C   C1        1.0  0.95623  0.54550  0.46555  1.0000
  C   C2        1.0  0.04279  0.54754  0.53155  1.0000
  C   C3        1.0  0.45349  0.04621  0.46798  1.0000
  C   C4        1.0  0.54079  0.04803  0.53363  1.0000
  C   C5        1.0  0.03409  0.46343  0.45783  1.0000
  C   C6        1.0  0.96593  0.46506  0.54155  1.0000
  C   C7        1.0  0.53228  0.96513  0.45842  1.0000
  C   C8        1.0  0.46534  0.96423  0.54282  1.0000
  C   C9        1.0  0.07694  0.50554  0.49022  1.0000
  C   C10       1.0  0.92269  0.50481  0.50780  1.0000
  C   C11       1.0  0.57499  0.00713  0.49125  1.0000
  C   C12       1.0  0.42102  0.00453  0.51016  1.0000
  C   C13       1.0  0.99092  0.50405  0.42523  1.0000
  C   C14       1.0  0.00878  0.50739  0.57288  1.0000
  C   C15       1.0  0.48809  0.00554  0.42687  1.0000
  C   C16       1.0  0.50771  0.00659  0.57463  1.0000
  C   C17       1.0  0.54134  0.05242  0.96397  1.0000
  C   C18       1.0  0.46159  0.05079  0.03786  1.0000
  C   C19       1.0  0.04059  0.55676  0.96277  1.0000
  C   C20       1.0  0.95976  0.55788  0.03555  1.0000
  C   C21       1.0  0.46074  0.97226  0.95932  1.0000
  C   C22       1.0  0.53777  0.96610  0.03456  1.0000
  C   C23       1.0  0.96214  0.47387  0.96156  1.0000
  C   C24       1.0  0.03843  0.47439  0.03721  1.0000
  C   C25       1.0  0.42464  0.09035  0.07623  1.0000
  C   C26       1.0  0.57911  0.09304  0.92807  1.0000
  C   C27       1.0  0.92156  0.59819  0.07233  1.0000
  C   C28       1.0  0.07844  0.59576  0.92542  1.0000
  C   C29       1.0  0.50112  0.01466  0.92447  1.0000
  C   C30       1.0  0.49949  0.00626  0.07326  1.0000
  C   C31       1.0  0.00210  0.51507  0.92499  1.0000
  C   C32       1.0  0.99842  0.51669  0.07359  1.0000
  C   C33       1.0  0.57808  0.00771  0.99905  1.0000
  C   C34       1.0  0.42288  0.01264  0.99850  1.0000
  C   C35       1.0  0.07777  0.51548  0.00063  1.0000
  C   C36       1.0  0.92275  0.51613  0.99779  1.0000
  C   C37       1.0  0.07765  0.43752  0.07516  1.0000
  C   C38       1.0  0.92299  0.43720  0.92346  1.0000
  C   C39       1.0  0.57586  0.92168  0.06582  1.0000
  C   C40       1.0  0.42097  0.93704  0.92079  1.0000
  C   C41       1.0  0.06825  0.42340  0.41745  1.0000
  C   C42       1.0  0.93494  0.42408  0.58290  1.0000
  C   C43       1.0  0.56606  0.92517  0.41748  1.0000
  C   C44       1.0  0.43223  0.92393  0.58332  1.0000
  C   C45       1.0  0.15366  0.25101  0.14354  1.0000
  C   C46       1.0  0.84212  0.25134  0.85714  1.0000
  C   C47       1.0  0.65201  0.77017  0.15188  1.0000
  C   C48       1.0  0.34755  0.74881  0.85220  1.0000
  C   C49       1.0  0.11405  0.28560  0.11271  1.0000
  C   C50       1.0  0.88126  0.28538  0.88905  1.0000
  C   C51       1.0  0.61547  0.81320  0.12641  1.0000
  C   C52       1.0  0.38605  0.78436  0.88335  1.0000
  C   C53       1.0  0.18572  0.27749  0.18777  1.0000
  C   C54       1.0  0.81246  0.27774  0.81146  1.0000
  C   C55       1.0  0.68971  0.78746  0.19550  1.0000
  C   C56       1.0  0.31504  0.77482  0.80826  1.0000
  C   C57       1.0  0.17715  0.34080  0.19904  1.0000
  C   C58       1.0  0.82358  0.34033  0.79959  1.0000
  C   C59       1.0  0.69019  0.84999  0.21212  1.0000
  C   C60       1.0  0.32196  0.83821  0.79735  1.0000
  C   C61       1.0  0.13842  0.37603  0.16747  1.0000
  C   C62       1.0  0.86231  0.37478  0.83185  1.0000
  C   C63       1.0  0.65368  0.89310  0.18707  1.0000
  C   C64       1.0  0.35960  0.87430  0.82925  1.0000
  C   C65       1.0  0.10670  0.34911  0.12325  1.0000
  C   C66       1.0  0.89123  0.34807  0.87776  1.0000
  C   C67       1.0  0.61615  0.87546  0.14347  1.0000
  C   C68       1.0  0.39178  0.84787  0.87321  1.0000
  C   C69       1.0  0.79770  0.27979  0.68436  1.0000
  C   C70       1.0  0.69747  0.77310  0.31941  1.0000
  C   C71       1.0  0.76820  0.31438  0.64338  1.0000
  C   C72       1.0  0.72428  0.80066  0.36623  1.0000
  C   C73       1.0  0.79830  0.35267  0.60690  1.0000
  C   C74       1.0  0.69247  0.83649  0.40397  1.0000
  C   C75       1.0  0.85941  0.35787  0.60975  1.0000
  C   C76       1.0  0.63251  0.84708  0.39568  1.0000
  C   C77       1.0  0.85915  0.28318  0.68555  1.0000
  C   C78       1.0  0.63677  0.78122  0.31313  1.0000
  C   C79       1.0  0.88954  0.32122  0.64884  1.0000
  C   C80       1.0  0.60472  0.81783  0.35031  1.0000
  C   C81       1.0  0.23469  0.23862  0.27579  1.0000
  C   C82       1.0  0.76263  0.24100  0.72284  1.0000
  C   C83       1.0  0.73367  0.73688  0.27947  1.0000
  C   C84       1.0  0.26708  0.73542  0.72017  1.0000
  C   C85       1.0  0.22734  0.23790  0.21887  1.0000
  C   C86       1.0  0.77061  0.23902  0.77970  1.0000
  C   C87       1.0  0.72740  0.74053  0.22250  1.0000
  C   C88       1.0  0.27396  0.73494  0.77707  1.0000
  C   C89       1.0  0.40985  0.08686  0.43877  1.0000
  C   C90       1.0  0.58305  0.09033  0.56275  1.0000
  C   C91       1.0  0.91321  0.58620  0.43597  1.0000
  C   C92       1.0  0.08553  0.58926  0.56031  1.0000
  C   C93       1.0  0.28035  0.20078  0.30375  1.0000
  C   C94       1.0  0.22031  0.69912  0.69251  1.0000
  C   C95       1.0  0.33894  0.19873  0.28566  1.0000
  C   C96       1.0  0.16199  0.70033  0.71145  1.0000
  C   C97       1.0  0.38005  0.16227  0.31282  1.0000
  C   C98       1.0  0.11912  0.66551  0.68514  1.0000
  C   C99       1.0  0.36436  0.12746  0.35999  1.0000
  C   C100      1.0  0.13299  0.62919  0.63801  1.0000
  C   C101      1.0  0.26492  0.16559  0.35081  1.0000
  C   C102      1.0  0.23387  0.66262  0.64536  1.0000
  C   C103      1.0  0.30586  0.12912  0.37832  1.0000
  C   C104      1.0  0.19112  0.62788  0.61857  1.0000
  C   C105      1.0  0.99918  0.58755  0.49799  1.0000
  C   C106      1.0  0.49619  0.08808  0.50103  1.0000
  C   C107      1.0  0.00060  0.42329  0.50026  1.0000
  C   C108      1.0  0.49966  0.92389  0.50060  1.0000
  C   C109      1.0  0.49852  0.92855  0.99451  1.0000
  C   C110      1.0  0.00031  0.43333  0.99945  1.0000
  C   C111      1.0  0.00032  0.59825  0.99913  1.0000
  C   C112      1.0  0.50253  0.09241  0.00305  1.0000
  N   N1        1.0  0.06770  0.38114  0.08817  1.0000
  N   N2        1.0  0.93005  0.37934  0.91370  1.0000
  N   N3        1.0  0.58002  0.92080  0.11923  1.0000
  N   N4        1.0  0.43023  0.88011  0.90855  1.0000
  N   N5        1.0  0.10411  0.38195  0.43435  1.0000
  N   N6        1.0  0.88597  0.39833  0.57144  1.0000
  N   N7        1.0  0.60309  0.88492  0.43457  1.0000
  N   N8        1.0  0.39785  0.88149  0.56588  1.0000
  N   N9        1.0  0.37066  0.07807  0.08519  1.0000
  N   N10       1.0  0.63209  0.07881  0.91578  1.0000
  N   N11       1.0  0.86780  0.58512  0.08160  1.0000
  N   N12       1.0  0.13134  0.58048  0.91391  1.0000
  N   N13       1.0  0.40750  0.09067  0.38533  1.0000
  N   N14       1.0  0.58696  0.09406  0.61615  1.0000
  N   N15       1.0  0.91109  0.59023  0.38257  1.0000
  N   N16       1.0  0.08886  0.59311  0.61370  1.0000
  C  Sn1       1.0  0.22152  0.29881  0.37987  1.0000
  C   C113      1.0  0.20084  0.26780  0.33260  1.0000
  C  Sn2       1.0  0.14472  0.27976  0.31249  1.0000
  C  Sn3       1.0  0.10852  0.32364  0.34017  1.0000
  C   C114      1.0  0.12920  0.35462  0.38740  1.0000
  C  Sn4       1.0  0.18531  0.34269  0.40756  1.0000
  O  Te1       1.0  0.27777  0.28613  0.39925  1.0000
  O  Te2       1.0  0.12502  0.24817  0.26516  1.0000
  O  Te3       1.0  0.05223  0.33629  0.32075  1.0000
  O  Te4       1.0  0.20503  0.37426  0.45484  1.0000
  Mg  Mg1       1.0  0.04511  0.28143  0.25474  1.0000
  Mg  Mg2       1.0  0.28493  0.34106  0.46528  1.0000
  C  Sn5       1.0  0.71968  0.17447  0.62841  1.0000
  C   C115      1.0  0.71295  0.21182  0.67581  1.0000
  C  Sn6       1.0  0.66432  0.20505  0.71065  1.0000
  C  Sn7       1.0  0.62155  0.15997  0.69789  1.0000
  C   C116      1.0  0.62830  0.12264  0.65052  1.0000
  C  Sn8       1.0  0.67691  0.12939  0.61564  1.0000
  O  Te5       1.0  0.76864  0.18204  0.59417  1.0000
  O  Te6       1.0  0.65853  0.24295  0.75779  1.0000
  O  Te7       1.0  0.57256  0.15243  0.73218  1.0000
  O  Te8       1.0  0.68272  0.09151  0.56854  1.0000
  Mg  Mg3       1.0  0.58418  0.21503  0.79162  1.0000
  Mg  Mg4       1.0  0.75706  0.11937  0.53470  1.0000
  C  Sn9       1.0  0.66149  0.19758  0.87912  1.0000
  C   C117      1.0  0.65393  0.13376  0.87465  1.0000
  C  Sn10      1.0  0.69252  0.09807  0.84253  1.0000
  C  Sn11      1.0  0.73968  0.12676  0.81433  1.0000
  C   C118      1.0  0.74724  0.19054  0.81882  1.0000
  C  Sn12      1.0  0.70866  0.22627  0.85092  1.0000
  O  Te9       1.0  0.62238  0.23235  0.91146  1.0000
  O  Te10      1.0  0.68405  0.03435  0.83867  1.0000
  O  Te11      1.0  0.77880  0.09193  0.78197  1.0000
  O  Te12      1.0  0.71711  0.28995  0.85480  1.0000
  Mg  Mg5       1.0  0.74901  0.00672  0.78959  1.0000
  Mg  Mg6       1.0  0.65220  0.31761  0.90388  1.0000
  C  Sn13      1.0  0.29497  0.84687  0.61510  1.0000
  C   C119      1.0  0.35544  0.85532  0.61277  1.0000
  C  Sn14      1.0  0.39279  0.81643  0.64249  1.0000
  C  Sn15      1.0  0.36922  0.76806  0.67519  1.0000
  C   C120      1.0  0.30879  0.75963  0.67750  1.0000
  C  Sn16      1.0  0.27140  0.79851  0.64780  1.0000
  O  Te13      1.0  0.25845  0.88630  0.58505  1.0000
  O  Te14      1.0  0.45310  0.82579  0.63953  1.0000
  O  Te15      1.0  0.40580  0.72863  0.70525  1.0000
  O  Te16      1.0  0.21113  0.78916  0.65074  1.0000
  Mg  Mg7       1.0  0.48491  0.75996  0.68790  1.0000
  Mg  Mg8       1.0  0.17928  0.85494  0.60237  1.0000
  C  Sn17      1.0  0.79328  0.61567  0.36218  1.0000
  C   C121      1.0  0.85315  0.61367  0.35057  1.0000
  C  Sn18      1.0  0.87921  0.66000  0.31879  1.0000
  C  Sn19      1.0  0.84471  0.70939  0.29822  1.0000
  C   C122      1.0  0.78488  0.71138  0.30984  1.0000
  C  Sn20      1.0  0.75878  0.66505  0.34161  1.0000
  O  Te17      1.0  0.76816  0.56886  0.39404  1.0000
  O  Te18      1.0  0.93914  0.65700  0.30770  1.0000
  O  Te19      1.0  0.86989  0.75622  0.26634  1.0000
  O  Te20      1.0  0.69889  0.66805  0.35270  1.0000
  Mg  Mg9       1.0  0.95323  0.73173  0.26243  1.0000
  Mg  Mg10      1.0  0.68475  0.59336  0.39799  1.0000
  C  Sn21      1.0  0.27866  0.09471  0.15934  1.0000
  C   C123      1.0  0.31486  0.11122  0.11475  1.0000
  C  Sn22      1.0  0.32990  0.17293  0.10640  1.0000
  C  Sn23      1.0  0.30833  0.21911  0.14341  1.0000
  C   C124      1.0  0.27216  0.20259  0.18797  1.0000
  C  Sn24      1.0  0.25710  0.14089  0.19634  1.0000
  O  Te21      1.0  0.26420  0.03274  0.16689  1.0000
  O  Te22      1.0  0.36613  0.18830  0.06152  1.0000
  O  Te23      1.0  0.32282  0.28112  0.13582  1.0000
  O  Te24      1.0  0.22089  0.12551  0.24120  1.0000
  Mg  Mg11      1.0  0.37353  0.27904  0.06866  1.0000
  Mg  Mg12      1.0  0.21349  0.03479  0.23411  1.0000
  C  Sn25      1.0  0.78454  0.62573  0.19758  1.0000
  C   C125      1.0  0.77498  0.68937  0.19438  1.0000
  C  Sn26      1.0  0.78953  0.72153  0.14589  1.0000
  C  Sn27      1.0  0.81413  0.68940  0.09961  1.0000
  C   C126      1.0  0.82367  0.62580  0.10282  1.0000
  C  Sn28      1.0  0.80913  0.59360  0.15130  1.0000
  O  Te25      1.0  0.76965  0.59451  0.24647  1.0000
  O  Te26      1.0  0.77959  0.78516  0.14369  1.0000
  O  Te27      1.0  0.82902  0.72068  0.05070  1.0000
  O  Te28      1.0  0.81905  0.53002  0.15351  1.0000
  Mg  Mg13      1.0  0.80712  0.80723  0.06790  1.0000
  Mg  Mg14      1.0  0.79151  0.50789  0.22927  1.0000
  C  Sn29      1.0  0.21513  0.62058  0.79867  1.0000
  C   C127      1.0  0.22383  0.68429  0.80243  1.0000
  C  Sn30      1.0  0.20823  0.71654  0.85097  1.0000
  C  Sn31      1.0  0.18344  0.68444  0.89673  1.0000
  C   C128      1.0  0.17476  0.62077  0.89296  1.0000
  C  Sn32      1.0  0.19034  0.58848  0.84442  1.0000
  O  Te29      1.0  0.23106  0.58928  0.74973  1.0000
  O  Te30      1.0  0.21733  0.78022  0.85374  1.0000
  O  Te31      1.0  0.16751  0.71580  0.94568  1.0000
  O  Te32      1.0  0.18126  0.52484  0.84164  1.0000
  Mg  Mg15      1.0  0.18853  0.80241  0.92935  1.0000
  Mg  Mg16      1.0  0.21007  0.50260  0.76607  1.0000
