data_image0
_chemical_formula_structural       H64C64N16SnCSn2CSnTe4Mg2SnCSn2CSnTe4Mg2SnCSn2CSnTe4Mg2SnCSn2CSnTe4Mg2SnCSn2CSnTe4Mg2SnCSn2CSnTe4Mg2SnCSn2CSnTe4Mg2SnCSn2CSnTe4Mg2SnCSn2CSnTe4Mg2SnCSn2CSnTe4Mg2SnCSn2CSnTe4Mg2SnCSn2CSnTe4Mg2SnCSn2CSnTe4Mg2SnCSn2CSnTe4Mg2SnCSn2CSnTe4Mg2SnCSn2CSnTe4Mg2
_chemical_formula_sum              "H64 C96 N16 Sn64 Te64 Mg32"
_cell_length_a       22.8841
_cell_length_b       21.6611
_cell_length_c       23.9347
_cell_angle_alpha    90.3156
_cell_angle_beta     89.7907
_cell_angle_gamma    89.7639

_symmetry_space_group_name_H-M    'P1'
_space_group_IT_number       1

loop_
  _space_group_symop_operation_xyz
  'x, y, z'

loop_
  _atom_site_type_symbol
  _atom_site_label
  _atom_site_symmetry_multiplicity
  _atom_site_fract_x
  _atom_site_fract_y
  _atom_site_fract_z
  _atom_site_occupancy
  H   H1        1.0  0.10187  0.53392  0.46060  1.0000
  H   H2        1.0  0.89702  0.53418  0.53646  1.0000
  H   H3        1.0  0.59963  0.03628  0.46204  1.0000
  H   H4        1.0  0.39549  0.03310  0.53960  1.0000
  H   H5        1.0  0.10836  0.47653  0.51279  1.0000
  H   H6        1.0  0.89178  0.47469  0.48582  1.0000
  H   H7        1.0  0.60671  0.97787  0.51319  1.0000
  H   H8        1.0  0.39030  0.97407  0.48827  1.0000
  H   H9        1.0  0.01453  0.53266  0.39487  1.0000
  H   H10       1.0  0.98518  0.53705  0.60282  1.0000
  H   H11       1.0  0.51037  0.03468  0.39604  1.0000
  H   H12       1.0  0.48385  0.03552  0.60499  1.0000
  H   H13       1.0  0.96064  0.47527  0.40096  1.0000
  H   H14       1.0  0.03960  0.47967  0.59750  1.0000
  H   H15       1.0  0.45756  0.97644  0.40320  1.0000
  H   H16       1.0  0.53918  0.97912  0.59873  1.0000
  H   H17       1.0  0.44643  0.12973  0.09665  1.0000
  H   H18       1.0  0.55794  0.13479  0.91128  1.0000
  H   H19       1.0  0.94266  0.63832  0.09223  1.0000
  H   H20       1.0  0.05788  0.63714  0.90727  1.0000
  H   H21       1.0  0.52821  0.98652  0.89607  1.0000
  H   H22       1.0  0.47091  0.97675  0.09851  1.0000
  H   H23       1.0  0.03054  0.48582  0.89882  1.0000
  H   H24       1.0  0.97028  0.48815  0.10018  1.0000
  H   H25       1.0  0.47480  0.04606  0.89866  1.0000
  H   H26       1.0  0.52703  0.03208  0.10267  1.0000
  H   H27       1.0  0.97546  0.54358  0.89685  1.0000
  H   H28       1.0  0.02516  0.54581  0.10122  1.0000
  H   H29       1.0  0.60759  0.03395  0.02633  1.0000
  H   H30       1.0  0.39489  0.04375  0.97406  1.0000
  H   H31       1.0  0.10579  0.54470  0.02697  1.0000
  H   H32       1.0  0.89506  0.54510  0.97101  1.0000
  H   H33       1.0  0.60594  0.97958  0.97135  1.0000
  H   H34       1.0  0.39338  0.98376  0.02335  1.0000
  H   H35       1.0  0.10715  0.48697  0.97477  1.0000
  H   H36       1.0  0.89304  0.48847  0.02356  1.0000
  H   H37       1.0  0.11660  0.46234  0.09020  1.0000
  H   H38       1.0  0.88677  0.46388  0.90498  1.0000
  H   H39       1.0  0.60152  0.88977  0.03921  1.0000
  H   H40       1.0  0.38282  0.96282  0.90514  1.0000
  H   H41       1.0  0.06219  0.43258  0.37262  1.0000
  H   H42       1.0  0.95746  0.41696  0.62300  1.0000
  H   H43       1.0  0.55798  0.93262  0.37266  1.0000
  H   H44       1.0  0.43762  0.93367  0.62826  1.0000
  H   H45       1.0  0.38073  0.11416  0.46629  1.0000
  H   H46       1.0  0.61034  0.11891  0.53509  1.0000
  H   H47       1.0  0.88382  0.61349  0.46322  1.0000
  H   H48       1.0  0.11378  0.61674  0.53256  1.0000
  H   H49       1.0  0.53140  0.89445  0.52231  1.0000
  H   H50       1.0  0.46914  0.89320  0.47876  1.0000
  H   H51       1.0  0.03181  0.39384  0.52265  1.0000
  H   H52       1.0  0.96991  0.39277  0.47835  1.0000
  H   H53       1.0  0.97287  0.40310  0.02507  1.0000
  H   H54       1.0  0.02810  0.40269  0.97399  1.0000
  H   H55       1.0  0.46993  0.89768  0.01841  1.0000
  H   H56       1.0  0.52520  0.89897  0.96700  1.0000
  H   H57       1.0  0.02705  0.62834  0.02596  1.0000
  H   H58       1.0  0.97393  0.62846  0.97225  1.0000
  H   H59       1.0  0.53022  0.12004  0.03108  1.0000
  H   H60       1.0  0.47645  0.12497  0.97817  1.0000
  H   H61       1.0  0.97498  0.61808  0.52682  1.0000
  H   H62       1.0  0.02274  0.61715  0.46836  1.0000
  H   H63       1.0  0.47170  0.11739  0.53070  1.0000
  H   H64       1.0  0.51907  0.11889  0.47194  1.0000
  C   C1        1.0  0.95623  0.54550  0.46555  1.0000
  C   C2        1.0  0.04279  0.54754  0.53155  1.0000
  C   C3        1.0  0.45349  0.04621  0.46798  1.0000
  C   C4        1.0  0.54079  0.04803  0.53363  1.0000
  C   C5        1.0  0.03409  0.46343  0.45783  1.0000
  C   C6        1.0  0.96593  0.46506  0.54155  1.0000
  C   C7        1.0  0.53228  0.96513  0.45842  1.0000
  C   C8        1.0  0.46534  0.96423  0.54282  1.0000
  C   C9        1.0  0.07694  0.50554  0.49022  1.0000
  C   C10       1.0  0.92269  0.50481  0.50780  1.0000
  C   C11       1.0  0.57499  0.00713  0.49125  1.0000
  C   C12       1.0  0.42102  0.00453  0.51016  1.0000
  C   C13       1.0  0.99092  0.50405  0.42523  1.0000
  C   C14       1.0  0.00878  0.50739  0.57288  1.0000
  C   C15       1.0  0.48809  0.00554  0.42687  1.0000
  C   C16       1.0  0.50771  0.00659  0.57463  1.0000
  C   C17       1.0  0.54134  0.05242  0.96397  1.0000
  C   C18       1.0  0.46159  0.05079  0.03786  1.0000
  C   C19       1.0  0.04059  0.55676  0.96277  1.0000
  C   C20       1.0  0.95976  0.55788  0.03555  1.0000
  C   C21       1.0  0.46074  0.97226  0.95932  1.0000
  C   C22       1.0  0.53777  0.96610  0.03456  1.0000
  C   C23       1.0  0.96214  0.47387  0.96156  1.0000
  C   C24       1.0  0.03843  0.47439  0.03721  1.0000
  C   C25       1.0  0.42464  0.09035  0.07623  1.0000
  C   C26       1.0  0.57911  0.09304  0.92807  1.0000
  C   C27       1.0  0.92156  0.59819  0.07233  1.0000
  C   C28       1.0  0.07844  0.59576  0.92542  1.0000
  C   C29       1.0  0.50112  0.01466  0.92447  1.0000
  C   C30       1.0  0.49949  0.00626  0.07326  1.0000
  C   C31       1.0  0.00210  0.51507  0.92499  1.0000
  C   C32       1.0  0.99842  0.51669  0.07359  1.0000
  C   C33       1.0  0.57808  0.00771  0.99905  1.0000
  C   C34       1.0  0.42288  0.01264  0.99850  1.0000
  C   C35       1.0  0.07777  0.51548  0.00063  1.0000
  C   C36       1.0  0.92275  0.51613  0.99779  1.0000
  C   C37       1.0  0.07765  0.43752  0.07516  1.0000
  C   C38       1.0  0.92299  0.43720  0.92346  1.0000
  C   C39       1.0  0.57586  0.92168  0.06582  1.0000
  C   C40       1.0  0.42097  0.93704  0.92079  1.0000
  C   C41       1.0  0.06825  0.42340  0.41745  1.0000
  C   C42       1.0  0.93494  0.42408  0.58290  1.0000
  C   C43       1.0  0.56606  0.92517  0.41748  1.0000
  C   C44       1.0  0.43223  0.92393  0.58332  1.0000
  C   C45       1.0  0.23469  0.23862  0.27579  1.0000
  C   C46       1.0  0.76263  0.24100  0.72284  1.0000
  C   C47       1.0  0.73367  0.73688  0.27947  1.0000
  C   C48       1.0  0.26708  0.73542  0.72017  1.0000
  C   C49       1.0  0.22734  0.23790  0.21887  1.0000
  C   C50       1.0  0.77061  0.23902  0.77970  1.0000
  C   C51       1.0  0.72740  0.74053  0.22250  1.0000
  C   C52       1.0  0.27396  0.73494  0.77707  1.0000
  C   C53       1.0  0.40985  0.08686  0.43877  1.0000
  C   C54       1.0  0.58305  0.09033  0.56275  1.0000
  C   C55       1.0  0.91321  0.58620  0.43597  1.0000
  C   C56       1.0  0.08553  0.58926  0.56031  1.0000
  C   C57       1.0  0.99918  0.58755  0.49799  1.0000
  C   C58       1.0  0.49619  0.08808  0.50103  1.0000
  C   C59       1.0  0.00060  0.42329  0.50026  1.0000
  C   C60       1.0  0.49966  0.92389  0.50060  1.0000
  C   C61       1.0  0.49852  0.92855  0.99451  1.0000
  C   C62       1.0  0.00031  0.43333  0.99945  1.0000
  C   C63       1.0  0.00032  0.59825  0.99913  1.0000
  C   C64       1.0  0.50253  0.09241  0.00305  1.0000
  N   N1        1.0  0.06770  0.38114  0.08817  1.0000
  N   N2        1.0  0.93005  0.37934  0.91370  1.0000
  N   N3        1.0  0.58002  0.92080  0.11923  1.0000
  N   N4        1.0  0.43023  0.88011  0.90855  1.0000
  N   N5        1.0  0.10411  0.38195  0.43435  1.0000
  N   N6        1.0  0.88597  0.39833  0.57144  1.0000
  N   N7        1.0  0.60309  0.88492  0.43457  1.0000
  N   N8        1.0  0.39785  0.88149  0.56588  1.0000
  N   N9        1.0  0.37066  0.07807  0.08519  1.0000
  N   N10       1.0  0.63209  0.07881  0.91578  1.0000
  N   N11       1.0  0.86780  0.58512  0.08160  1.0000
  N   N12       1.0  0.13134  0.58048  0.91391  1.0000
  N   N13       1.0  0.40750  0.09067  0.38533  1.0000
  N   N14       1.0  0.58696  0.09406  0.61615  1.0000
  N   N15       1.0  0.91109  0.59023  0.38257  1.0000
  N   N16       1.0  0.08886  0.59311  0.61370  1.0000
  C  Sn1       1.0  0.10868  0.27013  0.12788  1.0000
  C   C65       1.0  0.09573  0.33299  0.13335  1.0000
  C  Sn2       1.0  0.13260  0.37182  0.16371  1.0000
  C  Sn3       1.0  0.18350  0.34734  0.18911  1.0000
  C   C66       1.0  0.19643  0.28452  0.18364  1.0000
  C  Sn4       1.0  0.15958  0.24565  0.15329  1.0000
  O  Te1       1.0  0.07120  0.23217  0.09734  1.0000
  O  Te2       1.0  0.11872  0.43450  0.16860  1.0000
  O  Te3       1.0  0.22098  0.38537  0.21968  1.0000
  O  Te4       1.0  0.17344  0.18301  0.14839  1.0000
  Mg  Mg1       1.0  0.18341  0.46759  0.21443  1.0000
  Mg  Mg2       1.0  0.10880  0.14989  0.10254  1.0000
  C  Sn5       1.0  0.88688  0.26932  0.87427  1.0000
  C   C67       1.0  0.90164  0.33152  0.86862  1.0000
  C  Sn6       1.0  0.86709  0.37084  0.83640  1.0000
  C  Sn7       1.0  0.81672  0.34752  0.80928  1.0000
  C   C68       1.0  0.80198  0.28536  0.81495  1.0000
  C  Sn8       1.0  0.83650  0.24600  0.84716  1.0000
  O  Te5       1.0  0.92204  0.23085  0.90670  1.0000
  O  Te6       1.0  0.88275  0.43284  0.83135  1.0000
  O  Te7       1.0  0.78156  0.38605  0.77684  1.0000
  O  Te8       1.0  0.82087  0.18403  0.85222  1.0000
  Mg  Mg3       1.0  0.82094  0.46700  0.78264  1.0000
  Mg  Mg4       1.0  0.88262  0.14984  0.90094  1.0000
  C  Sn9       1.0  0.67558  0.89077  0.18346  1.0000
  C   C69       1.0  0.63448  0.88064  0.14138  1.0000
  C  Sn10      1.0  0.61609  0.82080  0.12865  1.0000
  C  Sn11      1.0  0.63924  0.77002  0.15861  1.0000
  C   C70       1.0  0.68031  0.78015  0.20066  1.0000
  C  Sn12      1.0  0.69873  0.83998  0.21342  1.0000
  O  Te9       1.0  0.69333  0.95098  0.19549  1.0000
  O  Te10      1.0  0.57497  0.81183  0.08640  1.0000
  O  Te11      1.0  0.62145  0.70977  0.14654  1.0000
  O  Te12      1.0  0.73982  0.84897  0.25565  1.0000
  Mg  Mg5       1.0  0.56447  0.72115  0.08540  1.0000
  Mg  Mg6       1.0  0.75032  0.93962  0.25670  1.0000
  C  Sn13      1.0  0.33736  0.87423  0.83105  1.0000
  C   C71       1.0  0.37347  0.85565  0.87488  1.0000
  C  Sn14      1.0  0.38520  0.79309  0.88346  1.0000
  C  Sn15      1.0  0.36036  0.74815  0.84748  1.0000
  C   C72       1.0  0.32429  0.76673  0.80368  1.0000
  C  Sn16      1.0  0.31252  0.82929  0.79506  1.0000
  O  Te13      1.0  0.32623  0.93702  0.82324  1.0000
  O  Te14      1.0  0.42142  0.77564  0.92757  1.0000
  O  Te15      1.0  0.37152  0.68531  0.85532  1.0000
  O  Te16      1.0  0.27634  0.84674  0.75098  1.0000
  Mg  Mg7       1.0  0.42360  0.68450  0.92116  1.0000
  Mg  Mg8       1.0  0.27415  0.93787  0.75734  1.0000
  C  Sn17      1.0  0.20704  0.34896  0.38358  1.0000
  C   C73       1.0  0.14648  0.35696  0.38668  1.0000
  C  Sn18      1.0  0.10937  0.31860  0.35610  1.0000
  C  Sn19      1.0  0.13327  0.27123  0.32173  1.0000
  C   C74       1.0  0.19379  0.26325  0.31864  1.0000
  C  Sn20      1.0  0.23095  0.30160  0.34921  1.0000
  O  Te17      1.0  0.24332  0.38785  0.41452  1.0000
  O  Te18      1.0  0.04897  0.32750  0.35986  1.0000
  O  Te19      1.0  0.09693  0.23234  0.29078  1.0000
  O  Te20      1.0  0.29131  0.29271  0.34546  1.0000
  Mg  Mg9       1.0  0.01758  0.26270  0.30976  1.0000
  Mg  Mg10      1.0  0.32274  0.35745  0.39557  1.0000
  C  Sn21      1.0  0.77223  0.30983  0.62277  1.0000
  C   C75       1.0  0.79473  0.27254  0.66508  1.0000
  C  Sn22      1.0  0.85184  0.28092  0.68400  1.0000
  C  Sn23      1.0  0.88719  0.32759  0.66015  1.0000
  C   C76       1.0  0.86468  0.36486  0.61787  1.0000
  C  Sn24      1.0  0.80758  0.35650  0.59892  1.0000
  O  Te21      1.0  0.71501  0.30064  0.60451  1.0000
  O  Te22      1.0  0.87337  0.24305  0.72634  1.0000
  O  Te23      1.0  0.94444  0.33676  0.67845  1.0000
  O  Te24      1.0  0.78604  0.39434  0.55661  1.0000
  Mg  Mg11      1.0  0.95402  0.27351  0.73712  1.0000
  Mg  Mg12      1.0  0.70539  0.36395  0.54582  1.0000
  C  Sn25      1.0  0.60484  0.79427  0.34970  1.0000
  C   C77       1.0  0.62522  0.82707  0.39609  1.0000
  C  Sn26      1.0  0.68491  0.83809  0.40259  1.0000
  C  Sn27      1.0  0.72509  0.81590  0.36185  1.0000
  C   C78       1.0  0.70471  0.78314  0.31549  1.0000
  C  Sn28      1.0  0.64502  0.77208  0.30896  1.0000
  O  Te25      1.0  0.54498  0.78379  0.34405  1.0000
  O  Te26      1.0  0.70424  0.87098  0.44934  1.0000
  O  Te27      1.0  0.78499  0.82641  0.36754  1.0000
  O  Te28      1.0  0.62569  0.73923  0.26224  1.0000
  Mg  Mg13      1.0  0.78999  0.87355  0.43843  1.0000
  Mg  Mg14      1.0  0.53995  0.73665  0.27309  1.0000
  C  Sn29      1.0  0.39543  0.78924  0.64798  1.0000
  C   C79       1.0  0.37438  0.82437  0.60352  1.0000
  C  Sn30      1.0  0.31499  0.83890  0.59996  1.0000
  C  Sn31      1.0  0.27581  0.81790  0.64172  1.0000
  C   C80       1.0  0.29686  0.78280  0.68615  1.0000
  C  Sn32      1.0  0.35625  0.76824  0.68974  1.0000
  O  Te29      1.0  0.45498  0.77527  0.65070  1.0000
  O  Te30      1.0  0.29498  0.87407  0.55511  1.0000
  O  Te31      1.0  0.21622  0.83190  0.63896  1.0000
  O  Te32      1.0  0.37627  0.73310  0.73456  1.0000
  Mg  Mg15      1.0  0.21001  0.88115  0.56981  1.0000
  Mg  Mg16      1.0  0.46122  0.72602  0.71991  1.0000
  C  Sn33      1.0  0.28532  0.12250  0.19890  1.0000
  C   C81       1.0  0.27669  0.18613  0.19390  1.0000
  C  Sn34      1.0  0.29341  0.21667  0.14517  1.0000
  C  Sn35      1.0  0.31924  0.18289  0.10049  1.0000
  C   C82       1.0  0.32784  0.11930  0.10550  1.0000
  C  Sn36      1.0  0.31115  0.08872  0.15422  1.0000
  O  Te33      1.0  0.26827  0.09292  0.24799  1.0000
  O  Te34      1.0  0.28436  0.28032  0.14116  1.0000
  O  Te35      1.0  0.33629  0.21253  0.05137  1.0000
  O  Te36      1.0  0.32018  0.02511  0.15824  1.0000
  Mg  Mg17      1.0  0.31489  0.29981  0.06582  1.0000
  Mg  Mg18      1.0  0.28964  0.00556  0.23355  1.0000
  C  Sn37      1.0  0.70919  0.21320  0.88081  1.0000
  C   C83       1.0  0.74309  0.19658  0.83438  1.0000
  C  Sn38      1.0  0.73481  0.13968  0.80790  1.0000
  C  Sn39      1.0  0.69173  0.09853  0.82822  1.0000
  C   C84       1.0  0.65785  0.11515  0.87461  1.0000
  C  Sn40      1.0  0.66611  0.17205  0.90113  1.0000
  O  Te37      1.0  0.71822  0.27032  0.90663  1.0000
  O  Te38      1.0  0.76925  0.12408  0.76156  1.0000
  O  Te39      1.0  0.68272  0.04137  0.80235  1.0000
  O  Te40      1.0  0.63170  0.18765  0.94743  1.0000
  Mg  Mg19      1.0  0.74051  0.04107  0.74062  1.0000
  Mg  Mg20      1.0  0.66038  0.27066  0.96839  1.0000
  C  Sn41      1.0  0.77680  0.59901  0.15762  1.0000
  C   C85       1.0  0.81106  0.61721  0.11220  1.0000
  C  Sn42      1.0  0.82497  0.67936  0.10468  1.0000
  C  Sn43      1.0  0.80422  0.72424  0.14338  1.0000
  C   C86       1.0  0.76999  0.70603  0.18877  1.0000
  C  Sn44      1.0  0.75606  0.64389  0.19632  1.0000
  O  Te41      1.0  0.76344  0.53663  0.16432  1.0000
  O  Te42      1.0  0.85927  0.69644  0.05894  1.0000
  O  Te43      1.0  0.81761  0.78666  0.13664  1.0000
  O  Te44      1.0  0.72178  0.62680  0.24203  1.0000
  Mg  Mg21      1.0  0.86576  0.78708  0.06778  1.0000
  Mg  Mg22      1.0  0.71529  0.53617  0.23325  1.0000
  C  Sn45      1.0  0.21110  0.71235  0.87799  1.0000
  C   C87       1.0  0.24597  0.69419  0.83270  1.0000
  C  Sn46      1.0  0.23757  0.63685  0.80703  1.0000
  C  Sn47      1.0  0.19337  0.59683  0.82703  1.0000
  C   C88       1.0  0.15852  0.61500  0.87229  1.0000
  C  Sn48      1.0  0.16690  0.67233  0.89799  1.0000
  O  Te45      1.0  0.22026  0.76988  0.90300  1.0000
  O  Te46      1.0  0.27299  0.61970  0.76183  1.0000
  O  Te47      1.0  0.18423  0.53926  0.80198  1.0000
  O  Te48      1.0  0.13150  0.68949  0.94316  1.0000
  Mg  Mg23      1.0  0.24362  0.53670  0.74167  1.0000
  Mg  Mg24      1.0  0.16081  0.77249  0.96333  1.0000
  C  Sn49      1.0  0.37827  0.18570  0.31463  1.0000
  C   C89       1.0  0.36954  0.14679  0.36027  1.0000
  C  Sn50      1.0  0.31309  0.12969  0.37610  1.0000
  C  Sn51      1.0  0.26435  0.15191  0.34567  1.0000
  C   C90       1.0  0.27309  0.19078  0.30006  1.0000
  C  Sn52      1.0  0.32953  0.20792  0.28420  1.0000
  O  Te49      1.0  0.43509  0.20219  0.29955  1.0000
  O  Te50      1.0  0.30546  0.09076  0.42188  1.0000
  O  Te51      1.0  0.20751  0.13538  0.36079  1.0000
  O  Te52      1.0  0.33717  0.24681  0.23845  1.0000
  Mg  Mg25      1.0  0.21955  0.08130  0.42617  1.0000
  Mg  Mg26      1.0  0.42306  0.25627  0.23410  1.0000
  C  Sn53      1.0  0.65014  0.18295  0.72115  1.0000
  C   C91       1.0  0.70872  0.19084  0.70621  1.0000
  C  Sn54      1.0  0.72865  0.17257  0.65339  1.0000
  C  Sn55      1.0  0.68920  0.14589  0.61469  1.0000
  C   C92       1.0  0.63066  0.13803  0.62963  1.0000
  C  Sn56      1.0  0.61069  0.15628  0.68244  1.0000
  O  Te53      1.0  0.63118  0.20156  0.77417  1.0000
  O  Te54      1.0  0.78741  0.18090  0.63942  1.0000
  O  Te55      1.0  0.70822  0.12729  0.56163  1.0000
  O  Te56      1.0  0.55197  0.14797  0.69641  1.0000
  Mg  Mg27      1.0  0.79233  0.14822  0.56212  1.0000
  Mg  Mg28      1.0  0.54700  0.18065  0.77368  1.0000
  C  Sn57      1.0  0.79328  0.61567  0.36218  1.0000
  C   C93       1.0  0.85315  0.61367  0.35057  1.0000
  C  Sn58      1.0  0.87921  0.66000  0.31879  1.0000
  C  Sn59      1.0  0.84471  0.70939  0.29822  1.0000
  C   C94       1.0  0.78488  0.71138  0.30984  1.0000
  C  Sn60      1.0  0.75878  0.66505  0.34161  1.0000
  O  Te57      1.0  0.76816  0.56886  0.39404  1.0000
  O  Te58      1.0  0.93914  0.65700  0.30770  1.0000
  O  Te59      1.0  0.86989  0.75622  0.26634  1.0000
  O  Te60      1.0  0.69889  0.66805  0.35270  1.0000
  Mg  Mg29      1.0  0.95323  0.73173  0.26243  1.0000
  Mg  Mg30      1.0  0.68475  0.59336  0.39799  1.0000
  C  Sn61      1.0  0.22414  0.66791  0.62682  1.0000
  C   C95       1.0  0.21806  0.70582  0.67394  1.0000
  C  Sn62      1.0  0.16867  0.70129  0.70812  1.0000
  C  Sn63      1.0  0.12446  0.65793  0.69497  1.0000
  C   C96       1.0  0.13056  0.62005  0.64788  1.0000
  C  Sn64      1.0  0.17993  0.62456  0.61366  1.0000
  O  Te61      1.0  0.27388  0.67324  0.59324  1.0000
  O  Te62      1.0  0.16356  0.73970  0.75499  1.0000
  O  Te63      1.0  0.07470  0.65264  0.72860  1.0000
  O  Te64      1.0  0.18506  0.58617  0.56683  1.0000
  Mg  Mg31      1.0  0.08770  0.71509  0.78789  1.0000
  Mg  Mg32      1.0  0.26091  0.61072  0.53392  1.0000
