data_image0
_chemical_formula_structural       H64C64N16C2Sn2C2HTe2HMgC2Sn2C2HTe2HMgC2Sn2C2HTe2HMgC2Sn2C2HTe2HMgC2Sn2C2HTe2HMgC2Sn2C2HTe2HMgC2Sn2C2HTe2HMgC2Sn2C2HTe2HMgC2Sn2C2HTe2HMgC2Sn2C2HTe2HMgC2Sn2C2HTe2HMgC2Sn2C2HTe2HMgC2Sn2C2HTe2HMgC2Sn2C2HTe2HMgC2Sn2C2HTe2HMgC2Sn2C2HTe2HMg
_chemical_formula_sum              "H96 C128 N16 Sn32 Te32 Mg16"
_cell_length_a       22.8841
_cell_length_b       21.6611
_cell_length_c       23.9347
_cell_angle_alpha    90.3156
_cell_angle_beta     89.7907
_cell_angle_gamma    89.7639

_symmetry_space_group_name_H-M    'P1'
_space_group_IT_number       1

loop_
  _space_group_symop_operation_xyz
  'x, y, z'

loop_
  _atom_site_type_symbol
  _atom_site_label
  _atom_site_symmetry_multiplicity
  _atom_site_fract_x
  _atom_site_fract_y
  _atom_site_fract_z
  _atom_site_occupancy
  H   H1        1.0  0.10187  0.53392  0.46060  1.0000
  H   H2        1.0  0.89702  0.53418  0.53646  1.0000
  H   H3        1.0  0.59963  0.03628  0.46204  1.0000
  H   H4        1.0  0.39549  0.03310  0.53960  1.0000
  H   H5        1.0  0.10836  0.47653  0.51279  1.0000
  H   H6        1.0  0.89178  0.47469  0.48582  1.0000
  H   H7        1.0  0.60671  0.97787  0.51319  1.0000
  H   H8        1.0  0.39030  0.97407  0.48827  1.0000
  H   H9        1.0  0.01453  0.53266  0.39487  1.0000
  H   H10       1.0  0.98518  0.53705  0.60282  1.0000
  H   H11       1.0  0.51037  0.03468  0.39604  1.0000
  H   H12       1.0  0.48385  0.03552  0.60499  1.0000
  H   H13       1.0  0.96064  0.47527  0.40096  1.0000
  H   H14       1.0  0.03960  0.47967  0.59750  1.0000
  H   H15       1.0  0.45756  0.97644  0.40320  1.0000
  H   H16       1.0  0.53918  0.97912  0.59873  1.0000
  H   H17       1.0  0.44643  0.12973  0.09665  1.0000
  H   H18       1.0  0.55794  0.13479  0.91128  1.0000
  H   H19       1.0  0.94266  0.63832  0.09223  1.0000
  H   H20       1.0  0.05788  0.63714  0.90727  1.0000
  H   H21       1.0  0.52821  0.98652  0.89607  1.0000
  H   H22       1.0  0.47091  0.97675  0.09851  1.0000
  H   H23       1.0  0.03054  0.48582  0.89882  1.0000
  H   H24       1.0  0.97028  0.48815  0.10018  1.0000
  H   H25       1.0  0.47480  0.04606  0.89866  1.0000
  H   H26       1.0  0.52703  0.03208  0.10267  1.0000
  H   H27       1.0  0.97546  0.54358  0.89685  1.0000
  H   H28       1.0  0.02516  0.54581  0.10122  1.0000
  H   H29       1.0  0.60759  0.03395  0.02633  1.0000
  H   H30       1.0  0.39489  0.04375  0.97406  1.0000
  H   H31       1.0  0.10579  0.54470  0.02697  1.0000
  H   H32       1.0  0.89506  0.54510  0.97101  1.0000
  H   H33       1.0  0.60594  0.97958  0.97135  1.0000
  H   H34       1.0  0.39338  0.98376  0.02335  1.0000
  H   H35       1.0  0.10715  0.48697  0.97477  1.0000
  H   H36       1.0  0.89304  0.48847  0.02356  1.0000
  H   H37       1.0  0.11660  0.46234  0.09020  1.0000
  H   H38       1.0  0.88677  0.46388  0.90498  1.0000
  H   H39       1.0  0.60152  0.88977  0.03921  1.0000
  H   H40       1.0  0.38282  0.96282  0.90514  1.0000
  H   H41       1.0  0.06219  0.43258  0.37262  1.0000
  H   H42       1.0  0.95746  0.41696  0.62300  1.0000
  H   H43       1.0  0.55798  0.93262  0.37266  1.0000
  H   H44       1.0  0.43762  0.93367  0.62826  1.0000
  H   H45       1.0  0.38073  0.11416  0.46629  1.0000
  H   H46       1.0  0.61034  0.11891  0.53509  1.0000
  H   H47       1.0  0.88382  0.61349  0.46322  1.0000
  H   H48       1.0  0.11378  0.61674  0.53256  1.0000
  H   H49       1.0  0.53140  0.89445  0.52231  1.0000
  H   H50       1.0  0.46914  0.89320  0.47876  1.0000
  H   H51       1.0  0.03181  0.39384  0.52265  1.0000
  H   H52       1.0  0.96991  0.39277  0.47835  1.0000
  H   H53       1.0  0.97287  0.40310  0.02507  1.0000
  H   H54       1.0  0.02810  0.40269  0.97399  1.0000
  H   H55       1.0  0.46993  0.89768  0.01841  1.0000
  H   H56       1.0  0.52520  0.89897  0.96700  1.0000
  H   H57       1.0  0.02705  0.62834  0.02596  1.0000
  H   H58       1.0  0.97393  0.62846  0.97225  1.0000
  H   H59       1.0  0.53022  0.12004  0.03108  1.0000
  H   H60       1.0  0.47645  0.12497  0.97817  1.0000
  H   H61       1.0  0.97498  0.61808  0.52682  1.0000
  H   H62       1.0  0.02274  0.61715  0.46836  1.0000
  H   H63       1.0  0.47170  0.11739  0.53070  1.0000
  H   H64       1.0  0.51907  0.11889  0.47194  1.0000
  C   C1        1.0  0.95623  0.54550  0.46555  1.0000
  C   C2        1.0  0.04279  0.54754  0.53155  1.0000
  C   C3        1.0  0.45349  0.04621  0.46798  1.0000
  C   C4        1.0  0.54079  0.04803  0.53363  1.0000
  C   C5        1.0  0.03409  0.46343  0.45783  1.0000
  C   C6        1.0  0.96593  0.46506  0.54155  1.0000
  C   C7        1.0  0.53228  0.96513  0.45842  1.0000
  C   C8        1.0  0.46534  0.96423  0.54282  1.0000
  C   C9        1.0  0.07694  0.50554  0.49022  1.0000
  C   C10       1.0  0.92269  0.50481  0.50780  1.0000
  C   C11       1.0  0.57499  0.00713  0.49125  1.0000
  C   C12       1.0  0.42102  0.00453  0.51016  1.0000
  C   C13       1.0  0.99092  0.50405  0.42523  1.0000
  C   C14       1.0  0.00878  0.50739  0.57288  1.0000
  C   C15       1.0  0.48809  0.00554  0.42687  1.0000
  C   C16       1.0  0.50771  0.00659  0.57463  1.0000
  C   C17       1.0  0.54134  0.05242  0.96397  1.0000
  C   C18       1.0  0.46159  0.05079  0.03786  1.0000
  C   C19       1.0  0.04059  0.55676  0.96277  1.0000
  C   C20       1.0  0.95976  0.55788  0.03555  1.0000
  C   C21       1.0  0.46074  0.97226  0.95932  1.0000
  C   C22       1.0  0.53777  0.96610  0.03456  1.0000
  C   C23       1.0  0.96214  0.47387  0.96156  1.0000
  C   C24       1.0  0.03843  0.47439  0.03721  1.0000
  C   C25       1.0  0.42464  0.09035  0.07623  1.0000
  C   C26       1.0  0.57911  0.09304  0.92807  1.0000
  C   C27       1.0  0.92156  0.59819  0.07233  1.0000
  C   C28       1.0  0.07844  0.59576  0.92542  1.0000
  C   C29       1.0  0.50112  0.01466  0.92447  1.0000
  C   C30       1.0  0.49949  0.00626  0.07326  1.0000
  C   C31       1.0  0.00210  0.51507  0.92499  1.0000
  C   C32       1.0  0.99842  0.51669  0.07359  1.0000
  C   C33       1.0  0.57808  0.00771  0.99905  1.0000
  C   C34       1.0  0.42288  0.01264  0.99850  1.0000
  C   C35       1.0  0.07777  0.51548  0.00063  1.0000
  C   C36       1.0  0.92275  0.51613  0.99779  1.0000
  C   C37       1.0  0.07765  0.43752  0.07516  1.0000
  C   C38       1.0  0.92299  0.43720  0.92346  1.0000
  C   C39       1.0  0.57586  0.92168  0.06582  1.0000
  C   C40       1.0  0.42097  0.93704  0.92079  1.0000
  C   C41       1.0  0.06825  0.42340  0.41745  1.0000
  C   C42       1.0  0.93494  0.42408  0.58290  1.0000
  C   C43       1.0  0.56606  0.92517  0.41748  1.0000
  C   C44       1.0  0.43223  0.92393  0.58332  1.0000
  C   C45       1.0  0.23469  0.23862  0.27579  1.0000
  C   C46       1.0  0.76263  0.24100  0.72284  1.0000
  C   C47       1.0  0.73367  0.73688  0.27947  1.0000
  C   C48       1.0  0.26708  0.73542  0.72017  1.0000
  C   C49       1.0  0.22734  0.23790  0.21887  1.0000
  C   C50       1.0  0.77061  0.23902  0.77970  1.0000
  C   C51       1.0  0.72740  0.74053  0.22250  1.0000
  C   C52       1.0  0.27396  0.73494  0.77707  1.0000
  C   C53       1.0  0.40985  0.08686  0.43877  1.0000
  C   C54       1.0  0.58305  0.09033  0.56275  1.0000
  C   C55       1.0  0.91321  0.58620  0.43597  1.0000
  C   C56       1.0  0.08553  0.58926  0.56031  1.0000
  C   C57       1.0  0.99918  0.58755  0.49799  1.0000
  C   C58       1.0  0.49619  0.08808  0.50103  1.0000
  C   C59       1.0  0.00060  0.42329  0.50026  1.0000
  C   C60       1.0  0.49966  0.92389  0.50060  1.0000
  C   C61       1.0  0.49852  0.92855  0.99451  1.0000
  C   C62       1.0  0.00031  0.43333  0.99945  1.0000
  C   C63       1.0  0.00032  0.59825  0.99913  1.0000
  C   C64       1.0  0.50253  0.09241  0.00305  1.0000
  N   N1        1.0  0.06770  0.38114  0.08817  1.0000
  N   N2        1.0  0.93005  0.37934  0.91370  1.0000
  N   N3        1.0  0.58002  0.92080  0.11923  1.0000
  N   N4        1.0  0.43023  0.88011  0.90855  1.0000
  N   N5        1.0  0.10411  0.38195  0.43435  1.0000
  N   N6        1.0  0.88597  0.39833  0.57144  1.0000
  N   N7        1.0  0.60309  0.88492  0.43457  1.0000
  N   N8        1.0  0.39785  0.88149  0.56588  1.0000
  N   N9        1.0  0.37066  0.07807  0.08519  1.0000
  N   N10       1.0  0.63209  0.07881  0.91578  1.0000
  N   N11       1.0  0.86780  0.58512  0.08160  1.0000
  N   N12       1.0  0.13134  0.58048  0.91391  1.0000
  N   N13       1.0  0.40750  0.09067  0.38533  1.0000
  N   N14       1.0  0.58696  0.09406  0.61615  1.0000
  N   N15       1.0  0.91109  0.59023  0.38257  1.0000
  N   N16       1.0  0.08886  0.59311  0.61370  1.0000
  C   C65       1.0  0.17141  0.35647  0.19537  1.0000
  C   C66       1.0  0.18187  0.29288  0.19343  1.0000
  C  Sn1       1.0  0.15489  0.25626  0.15289  1.0000
  C  Sn2       1.0  0.11675  0.28395  0.11361  1.0000
  C   C67       1.0  0.10660  0.34761  0.11587  1.0000
  C   C68       1.0  0.13382  0.38381  0.15663  1.0000
  H   H65       1.0  0.19249  0.38449  0.22688  1.0000
  O  Te1       1.0  0.16582  0.19281  0.15156  1.0000
  O  Te2       1.0  0.08923  0.24844  0.07263  1.0000
  H   H66       1.0  0.12573  0.43305  0.15809  1.0000
  Mg  Mg1       1.0  0.11799  0.16387  0.08785  1.0000
  C   C69       1.0  0.87265  0.27083  0.88738  1.0000
  C   C70       1.0  0.89261  0.33098  0.87907  1.0000
  C  Sn3       1.0  0.86929  0.36708  0.83633  1.0000
  C  Sn4       1.0  0.82516  0.34239  0.80135  1.0000
  C   C71       1.0  0.80545  0.28218  0.81003  1.0000
  C   C72       1.0  0.82910  0.24645  0.85291  1.0000
  H   H67       1.0  0.89092  0.24319  0.92057  1.0000
  O  Te3       1.0  0.88976  0.42708  0.82859  1.0000
  O  Te4       1.0  0.80107  0.37747  0.75833  1.0000
  H   H68       1.0  0.81360  0.19990  0.85935  1.0000
  Mg  Mg2       1.0  0.84335  0.45679  0.76435  1.0000
  C   C73       1.0  0.63938  0.77314  0.14235  1.0000
  C   C74       1.0  0.68318  0.78277  0.18195  1.0000
  C  Sn5       1.0  0.69159  0.84139  0.20511  1.0000
  C  Sn6       1.0  0.65540  0.89121  0.18825  1.0000
  C   C75       1.0  0.61168  0.88110  0.14863  1.0000
  C   C76       1.0  0.60366  0.82225  0.12570  1.0000
  H   H69       1.0  0.63315  0.72761  0.12463  1.0000
  O  Te5       1.0  0.73556  0.85021  0.24462  1.0000
  O  Te6       1.0  0.66284  0.95027  0.21074  1.0000
  H   H70       1.0  0.56972  0.81480  0.09507  1.0000
  Mg  Mg3       1.0  0.72870  0.93916  0.26322  1.0000
  C   C77       1.0  0.37816  0.76935  0.88172  1.0000
  C   C78       1.0  0.39453  0.83079  0.87386  1.0000
  C  Sn7       1.0  0.36752  0.86636  0.83277  1.0000
  C  Sn8       1.0  0.32330  0.83982  0.79900  1.0000
  C   C79       1.0  0.30721  0.77833  0.80722  1.0000
  C   C80       1.0  0.33454  0.74314  0.84845  1.0000
  H   H71       1.0  0.39928  0.74213  0.91364  1.0000
  O  Te7       1.0  0.38441  0.92766  0.82545  1.0000
  O  Te8       1.0  0.29557  0.87434  0.75764  1.0000
  H   H72       1.0  0.32183  0.69559  0.85455  1.0000
  Mg  Mg4       1.0  0.33379  0.95594  0.76363  1.0000
  C   C81       1.0  0.10581  0.30687  0.33653  1.0000
  C   C82       1.0  0.12512  0.33636  0.38511  1.0000
  C  Sn9       1.0  0.18462  0.33760  0.39793  1.0000
  C  Sn10      1.0  0.22545  0.30877  0.36134  1.0000
  C   C83       1.0  0.20570  0.27943  0.31283  1.0000
  C   C84       1.0  0.14606  0.27844  0.30041  1.0000
  H   H73       1.0  0.05968  0.30613  0.32691  1.0000
  O  Te9       1.0  0.20315  0.36724  0.44665  1.0000
  O  Te10      1.0  0.28516  0.30934  0.37313  1.0000
  H   H74       1.0  0.13113  0.25564  0.26278  1.0000
  Mg  Mg5       1.0  0.28903  0.35560  0.44459  1.0000
  C   C85       1.0  0.88983  0.31142  0.66167  1.0000
  C   C86       1.0  0.86879  0.34546  0.61653  1.0000
  C  Sn11      1.0  0.80879  0.34892  0.60630  1.0000
  C  Sn12      1.0  0.76925  0.31769  0.64202  1.0000
  C   C87       1.0  0.79074  0.28380  0.68710  1.0000
  C   C88       1.0  0.85086  0.28062  0.69694  1.0000
  H   H75       1.0  0.93634  0.30899  0.66931  1.0000
  O  Te11      1.0  0.78851  0.38311  0.56100  1.0000
  O  Te12      1.0  0.70908  0.32040  0.63278  1.0000
  H   H76       1.0  0.86714  0.25430  0.73192  1.0000
  Mg  Mg6       1.0  0.70265  0.37290  0.56560  1.0000
  C   C89       1.0  0.60520  0.80931  0.33666  1.0000
  C   C90       1.0  0.62335  0.83725  0.38639  1.0000
  C  Sn13      1.0  0.68206  0.83493  0.40210  1.0000
  C  Sn14      1.0  0.72325  0.80405  0.36729  1.0000
  C   C91       1.0  0.70466  0.77628  0.31761  1.0000
  C   C92       1.0  0.64581  0.77886  0.30230  1.0000
  H   H77       1.0  0.55967  0.81133  0.32479  1.0000
  O  Te13      1.0  0.69944  0.86308  0.45192  1.0000
  O  Te14      1.0  0.78220  0.80106  0.38198  1.0000
  H   H78       1.0  0.63178  0.75725  0.26378  1.0000
  Mg  Mg7       1.0  0.78459  0.84648  0.45396  1.0000
  C   C93       1.0  0.39633  0.80392  0.66145  1.0000
  C   C94       1.0  0.37714  0.83417  0.61343  1.0000
  C  Sn15      1.0  0.31773  0.83557  0.60023  1.0000
  C  Sn16      1.0  0.27688  0.80611  0.63586  1.0000
  C   C95       1.0  0.29651  0.77601  0.68382  1.0000
  C   C96       1.0  0.35606  0.77487  0.69662  1.0000
  H   H79       1.0  0.44240  0.80307  0.67138  1.0000
  O  Te15      1.0  0.29930  0.86599  0.55208  1.0000
  O  Te16      1.0  0.21724  0.80682  0.62367  1.0000
  H   H80       1.0  0.37091  0.75148  0.73382  1.0000
  Mg  Mg8       1.0  0.21351  0.85424  0.55327  1.0000
  C   C97       1.0  0.30736  0.21812  0.12776  1.0000
  C   C98       1.0  0.26691  0.20191  0.16897  1.0000
  C  Sn17      1.0  0.26260  0.14071  0.18659  1.0000
  C  Sn18      1.0  0.29953  0.09498  0.16242  1.0000
  C   C99       1.0  0.33988  0.11167  0.12125  1.0000
  C   C100      1.0  0.34383  0.17305  0.10392  1.0000
  H   H81       1.0  0.31044  0.26561  0.11437  1.0000
  O  Te17      1.0  0.22193  0.12532  0.22779  1.0000
  O  Te18      1.0  0.29615  0.03347  0.17926  1.0000
  H   H82       1.0  0.37518  0.18558  0.07203  1.0000
  Mg  Mg9       1.0  0.23377  0.03529  0.23680  1.0000
  C   C101      1.0  0.69259  0.21931  0.87223  1.0000
  C   C102      1.0  0.73140  0.20294  0.82938  1.0000
  C  Sn19      1.0  0.73566  0.14161  0.81140  1.0000
  C  Sn20      1.0  0.70034  0.09593  0.83685  1.0000
  C   C103      1.0  0.66162  0.11278  0.87965  1.0000
  C   C104      1.0  0.65772  0.17429  0.89734  1.0000
  H   H83       1.0  0.68955  0.26690  0.88589  1.0000
  O  Te19      1.0  0.77468  0.12605  0.76855  1.0000
  O  Te20      1.0  0.70370  0.03429  0.81967  1.0000
  H   H84       1.0  0.62764  0.18695  0.93049  1.0000
  Mg  Mg10      1.0  0.76350  0.03590  0.75970  1.0000
  C   C105      1.0  0.79040  0.59905  0.17128  1.0000
  C   C106      1.0  0.82012  0.61505  0.12239  1.0000
  C  Sn21      1.0  0.82181  0.67652  0.10510  1.0000
  C  Sn22      1.0  0.79319  0.72273  0.13747  1.0000
  C   C107      1.0  0.76362  0.70626  0.18635  1.0000
  C   C108      1.0  0.76218  0.64460  0.20324  1.0000
  H   H85       1.0  0.78931  0.55135  0.18438  1.0000
  O  Te21      1.0  0.85168  0.69171  0.05613  1.0000
  O  Te22      1.0  0.79421  0.78453  0.12117  1.0000
  H   H86       1.0  0.73920  0.63223  0.24112  1.0000
  Mg  Mg11      1.0  0.84065  0.78226  0.05122  1.0000
  C   C109      1.0  0.17739  0.69827  0.88874  1.0000
  C   C110      1.0  0.16353  0.63586  0.88235  1.0000
  C  Sn23      1.0  0.19098  0.60028  0.84099  1.0000
  C  Sn24      1.0  0.23309  0.62781  0.80543  1.0000
  C   C111      1.0  0.24669  0.69027  0.81218  1.0000
  C   C112      1.0  0.21894  0.72545  0.85369  1.0000
  H   H87       1.0  0.15595  0.72548  0.92088  1.0000
  O  Te23      1.0  0.17660  0.53800  0.83517  1.0000
  O  Te24      1.0  0.26121  0.59332  0.76376  1.0000
  H   H88       1.0  0.22971  0.77376  0.85865  1.0000
  Mg  Mg12      1.0  0.22677  0.51017  0.77222  1.0000
  C   C113      1.0  0.26786  0.15315  0.36125  1.0000
  C   C114      1.0  0.27630  0.19531  0.31800  1.0000
  C  Sn25      1.0  0.33111  0.20094  0.29268  1.0000
  C  Sn26      1.0  0.37827  0.16359  0.31108  1.0000
  C   C115      1.0  0.36937  0.12152  0.35435  1.0000
  C   C116      1.0  0.31435  0.11628  0.37940  1.0000
  H   H89       1.0  0.22528  0.14907  0.38061  1.0000
  O  Te25      1.0  0.33878  0.24331  0.24955  1.0000
  O  Te26      1.0  0.43350  0.16826  0.28650  1.0000
  H   H90       1.0  0.30782  0.08361  0.41286  1.0000
  Mg  Mg13      1.0  0.42222  0.23277  0.22920  1.0000
  C   C117      1.0  0.70307  0.14006  0.61985  1.0000
  C   C118      1.0  0.64546  0.12836  0.63606  1.0000
  C  Sn27      1.0  0.62103  0.15932  0.68193  1.0000
  C  Sn28      1.0  0.65501  0.20279  0.71204  1.0000
  C   C119      1.0  0.71259  0.21420  0.69547  1.0000
  C   C120      1.0  0.73661  0.18294  0.64951  1.0000
  H   H91       1.0  0.72165  0.11590  0.58428  1.0000
  O  Te27      1.0  0.56341  0.14706  0.69757  1.0000
  O  Te28      1.0  0.63167  0.23440  0.75803  1.0000
  H   H92       1.0  0.78121  0.19204  0.63695  1.0000
  Mg  Mg14      1.0  0.55113  0.20182  0.76315  1.0000
  C   C121      1.0  0.85439  0.69734  0.28966  1.0000
  C   C122      1.0  0.79398  0.69765  0.29842  1.0000
  C  Sn29      1.0  0.76941  0.66181  0.34072  1.0000
  C  Sn30      1.0  0.80612  0.62504  0.37483  1.0000
  C   C123      1.0  0.86650  0.62508  0.36576  1.0000
  C   C124      1.0  0.89063  0.66110  0.32330  1.0000
  H   H93       1.0  0.87306  0.72523  0.25683  1.0000
  O  Te29      1.0  0.70897  0.66265  0.34889  1.0000
  O  Te30      1.0  0.78272  0.58880  0.41742  1.0000
  H   H94       1.0  0.93740  0.66088  0.31655  1.0000
  Mg  Mg15      1.0  0.69777  0.60541  0.41226  1.0000
  C   C125      1.0  0.20636  0.63409  0.61832  1.0000
  C   C126      1.0  0.14809  0.62513  0.63380  1.0000
  C  Sn31      1.0  0.12422  0.65759  0.67909  1.0000
  C  Sn32      1.0  0.15945  0.69979  0.70936  1.0000
  C   C127      1.0  0.21769  0.70846  0.69351  1.0000
  C   C128      1.0  0.24114  0.67572  0.64813  1.0000
  H   H95       1.0  0.22450  0.60879  0.58319  1.0000
  O  Te31      1.0  0.06592  0.64806  0.69402  1.0000
  O  Te32      1.0  0.13670  0.73285  0.75478  1.0000
  H   H96       1.0  0.28625  0.68270  0.63613  1.0000
  Mg  Mg16      1.0  0.05484  0.70395  0.75901  1.0000
