data_image0
_chemical_formula_structural       H120C224S8N32SnCSn2CSnTe4Mg2SnCSn2CSnTe4Mg2SnCSn2CSnTe4Mg2SnCSn2CSnTe4Mg2SnCSn2CSnTe4Mg2SnCSn2CSnTe4Mg2SnCSn2CSnTe4Mg2SnCSn2CSnTe4Mg2SnCSn2CSnTe4Mg2SnCSn2CSnTe4Mg2SnCSn2CSnTe4Mg2SnCSn2CSnTe4Mg2SnCSn2CSnTe4Mg2SnCSn2CSnTe4Mg2SnCSn2CSnTe4Mg2SnCSn2CSnTe4Mg2
_chemical_formula_sum              "H120 C256 S8 N32 Sn64 Te64 Mg32"
_cell_length_a       48.079
_cell_length_b       45.0896
_cell_length_c       7.91599
_cell_angle_alpha    91.3242
_cell_angle_beta     79.1081
_cell_angle_gamma    90.0822

_symmetry_space_group_name_H-M    'P1'
_space_group_IT_number       1

loop_
  _space_group_symop_operation_xyz
  'x, y, z'

loop_
  _atom_site_type_symbol
  _atom_site_label
  _atom_site_symmetry_multiplicity
  _atom_site_fract_x
  _atom_site_fract_y
  _atom_site_fract_z
  _atom_site_occupancy
  H   H1        1.0  0.10791  0.96391  0.17082  1.0000
  H   H2        1.0  0.10756  0.03415  0.16103  1.0000
  H   H3        1.0  0.13964  0.92087  0.18211  1.0000
  H   H4        1.0  0.14030  0.07671  0.16876  1.0000
  H   H5        1.0  0.07239  0.87677  0.02015  1.0000
  H   H6        1.0  0.07466  0.12285  0.02716  1.0000
  H   H7        1.0  0.04084  0.91965  0.01186  1.0000
  H   H8        1.0  0.04269  0.07975  0.02373  1.0000
  H   H9        1.0  0.26402  0.79756  0.12324  1.0000
  H   H10       1.0  0.73480  0.79753  0.38202  1.0000
  H   H11       1.0  0.73678  0.20354  0.37559  1.0000
  H   H12       1.0  0.26421  0.20280  0.10475  1.0000
  H   H13       1.0  0.29834  0.75659  0.09474  1.0000
  H   H14       1.0  0.70157  0.75558  0.40977  1.0000
  H   H15       1.0  0.70228  0.24440  0.40799  1.0000
  H   H16       1.0  0.29764  0.24450  0.08265  1.0000
  H   H17       1.0  0.32223  0.72598  0.29762  1.0000
  H   H18       1.0  0.32171  0.27556  0.29230  1.0000
  H   H19       1.0  0.35672  0.68445  0.27569  1.0000
  H   H20       1.0  0.35552  0.31752  0.27472  1.0000
  H   H21       1.0  0.29734  0.62631  0.09339  1.0000
  H   H22       1.0  0.29454  0.37435  0.11130  1.0000
  H   H23       1.0  0.26311  0.66812  0.10983  1.0000
  H   H24       1.0  0.26093  0.33202  0.12268  1.0000
  H   H25       1.0  0.11758  0.85124  0.42662  1.0000
  H   H26       1.0  0.87989  0.85204  0.07446  1.0000
  H   H27       1.0  0.88202  0.14885  0.07203  1.0000
  H   H28       1.0  0.12061  0.14774  0.42365  1.0000
  H   H29       1.0  0.42813  0.37509  0.46937  1.0000
  H   H30       1.0  0.57364  0.62255  0.03472  1.0000
  H   H31       1.0  0.35938  0.42207  0.31742  1.0000
  H   H32       1.0  0.64021  0.42118  0.19280  1.0000
  H   H33       1.0  0.64038  0.57894  0.17867  1.0000
  H   H34       1.0  0.39144  0.46493  0.33547  1.0000
  H   H35       1.0  0.60877  0.46401  0.17040  1.0000
  H   H36       1.0  0.60866  0.53595  0.15655  1.0000
  H   H37       1.0  0.38075  0.35241  0.05082  1.0000
  H   H38       1.0  0.61681  0.35214  0.43855  1.0000
  H   H39       1.0  0.61851  0.64856  0.44101  1.0000
  H   H40       1.0  0.38377  0.64893  0.05301  1.0000
  H   H41       1.0  0.52393  0.57570  0.28085  1.0000
  H   H42       1.0  0.47692  0.57574  0.20888  1.0000
  H   H43       1.0  0.47600  0.42501  0.20663  1.0000
  H   H44       1.0  0.52258  0.42496  0.28565  1.0000
  H   H45       1.0  0.02266  0.92467  0.28746  1.0000
  H   H46       1.0  0.97572  0.92482  0.21345  1.0000
  H   H47       1.0  0.97633  0.07570  0.22718  1.0000
  H   H48       1.0  0.02342  0.07543  0.29875  1.0000
  H   H49       1.0  0.45925  0.41859  0.47899  1.0000
  H   H50       1.0  0.54192  0.58000  0.01317  1.0000
  H   H51       1.0  0.08909  0.99976  0.38288  1.0000
  H   H52       1.0  0.90953  0.00072  0.13505  1.0000
  H   H53       1.0  0.41034  0.50031  0.11730  1.0000
  H   H54       1.0  0.58956  0.50036  0.37085  1.0000
  H   H55       1.0  0.10785  0.96382  0.67375  1.0000
  H   H56       1.0  0.10748  0.03397  0.66395  1.0000
  H   H57       1.0  0.13970  0.92092  0.68609  1.0000
  H   H58       1.0  0.13993  0.07690  0.67246  1.0000
  H   H59       1.0  0.07273  0.87760  0.52508  1.0000
  H   H60       1.0  0.07564  0.12302  0.52531  1.0000
  H   H61       1.0  0.04128  0.92058  0.51620  1.0000
  H   H62       1.0  0.04327  0.08051  0.52127  1.0000
  H   H63       1.0  0.26437  0.79760  0.63342  1.0000
  H   H64       1.0  0.73648  0.79650  0.87932  1.0000
  H   H65       1.0  0.73707  0.20479  0.88803  1.0000
  H   H66       1.0  0.26530  0.20055  0.60666  1.0000
  H   H67       1.0  0.29817  0.75616  0.59900  1.0000
  H   H68       1.0  0.70308  0.75472  0.90810  1.0000
  H   H69       1.0  0.70320  0.24624  0.92082  1.0000
  H   H70       1.0  0.29918  0.24182  0.58649  1.0000
  H   H71       1.0  0.17677  0.77431  0.67995  1.0000
  H   H72       1.0  0.82523  0.22782  0.81199  1.0000
  H   H73       1.0  0.17682  0.22380  0.68184  1.0000
  H   H74       1.0  0.14409  0.81716  0.69510  1.0000
  H   H75       1.0  0.85731  0.18462  0.80102  1.0000
  H   H76       1.0  0.14397  0.18114  0.69811  1.0000
  H   H77       1.0  0.20403  0.87285  0.88926  1.0000
  H   H78       1.0  0.79492  0.12827  0.63659  1.0000
  H   H79       1.0  0.20621  0.12530  0.85644  1.0000
  H   H80       1.0  0.23677  0.82984  0.87648  1.0000
  H   H81       1.0  0.76274  0.17176  0.64484  1.0000
  H   H82       1.0  0.23911  0.16822  0.84360  1.0000
  H   H83       1.0  0.32204  0.72506  0.79495  1.0000
  H   H84       1.0  0.67891  0.72383  0.70778  1.0000
  H   H85       1.0  0.35620  0.68339  0.77265  1.0000
  H   H86       1.0  0.64463  0.68221  0.72884  1.0000
  H   H87       1.0  0.29630  0.62546  0.59425  1.0000
  H   H88       1.0  0.70529  0.62506  0.89312  1.0000
  H   H89       1.0  0.26241  0.66750  0.60908  1.0000
  H   H90       1.0  0.73952  0.66694  0.87535  1.0000
  H   H91       1.0  0.11786  0.85118  0.92943  1.0000
  H   H92       1.0  0.88042  0.85182  0.56668  1.0000
  H   H93       1.0  0.88191  0.14857  0.58479  1.0000
  H   H94       1.0  0.11959  0.14785  0.92477  1.0000
  H   H95       1.0  0.42549  0.37784  0.96035  1.0000
  H   H96       1.0  0.57205  0.37891  0.53067  1.0000
  H   H97       1.0  0.57338  0.62268  0.53184  1.0000
  H   H98       1.0  0.35998  0.42121  0.79951  1.0000
  H   H99       1.0  0.64054  0.57844  0.68281  1.0000
  H   H100      1.0  0.39148  0.46458  0.81465  1.0000
  H   H101      1.0  0.60850  0.53583  0.65855  1.0000
  H   H102      1.0  0.38359  0.34928  0.56286  1.0000
  H   H103      1.0  0.61776  0.35259  0.94176  1.0000
  H   H104      1.0  0.61860  0.64821  0.94493  1.0000
  H   H105      1.0  0.38246  0.64703  0.54750  1.0000
  H   H106      1.0  0.52331  0.57539  0.78493  1.0000
  H   H107      1.0  0.47657  0.57498  0.70819  1.0000
  H   H108      1.0  0.47644  0.42424  0.71131  1.0000
  H   H109      1.0  0.52277  0.42470  0.79289  1.0000
  H   H110      1.0  0.02222  0.92431  0.79057  1.0000
  H   H111      1.0  0.97543  0.92459  0.71523  1.0000
  H   H112      1.0  0.97678  0.07538  0.72057  1.0000
  H   H113      1.0  0.02375  0.07511  0.79306  1.0000
  H   H114      1.0  0.45723  0.42067  0.97545  1.0000
  H   H115      1.0  0.54086  0.42179  0.51160  1.0000
  H   H116      1.0  0.54201  0.57967  0.51309  1.0000
  H   H117      1.0  0.08882  0.99953  0.88666  1.0000
  H   H118      1.0  0.90957  0.00028  0.63394  1.0000
  H   H119      1.0  0.41166  0.49910  0.60016  1.0000
  H   H120      1.0  0.58968  0.50063  0.87114  1.0000
  C   C1        1.0  0.02696  0.97242  0.29894  1.0000
  C   C2        1.0  0.97154  0.97265  0.21198  1.0000
  C   C3        1.0  0.97188  0.02789  0.21612  1.0000
  C   C4        1.0  0.02730  0.02761  0.30130  1.0000
  C   C5        1.0  0.01234  0.94563  0.27347  1.0000
  C   C6        1.0  0.98603  0.94574  0.23214  1.0000
  C   C7        1.0  0.98657  0.05469  0.24059  1.0000
  C   C8        1.0  0.01295  0.05457  0.28079  1.0000
  C   C9        1.0  0.05485  0.97252  0.33497  1.0000
  C   C10       1.0  0.94357  0.97307  0.17725  1.0000
  C   C11       1.0  0.94394  0.02785  0.18110  1.0000
  C   C12       1.0  0.05525  0.02723  0.33574  1.0000
  C   C13       1.0  0.07210  0.94553  0.34280  1.0000
  C   C14       1.0  0.07300  0.05398  0.34198  1.0000
  C   C15       1.0  0.10030  0.94515  0.25047  1.0000
  C   C16       1.0  0.10078  0.05339  0.24390  1.0000
  C   C17       1.0  0.11810  0.92116  0.25555  1.0000
  C   C18       1.0  0.11908  0.07710  0.24658  1.0000
  C   C19       1.0  0.10844  0.89629  0.35351  1.0000
  C   C20       1.0  0.11032  0.10262  0.34779  1.0000
  C   C21       1.0  0.08037  0.89633  0.44488  1.0000
  C   C22       1.0  0.08260  0.10361  0.44399  1.0000
  C   C23       1.0  0.06253  0.92051  0.43934  1.0000
  C   C24       1.0  0.06425  0.07970  0.44112  1.0000
  C   C25       1.0  0.25704  0.77640  0.17957  1.0000
  C   C26       1.0  0.74227  0.77618  0.32391  1.0000
  C   C27       1.0  0.74362  0.22484  0.32060  1.0000
  C   C28       1.0  0.25701  0.22381  0.16842  1.0000
  C   C29       1.0  0.27679  0.75276  0.16261  1.0000
  C   C30       1.0  0.72314  0.75205  0.34008  1.0000
  C   C31       1.0  0.72375  0.24839  0.33936  1.0000
  C   C32       1.0  0.27623  0.24786  0.15508  1.0000
  C   C33       1.0  0.26971  0.72457  0.22315  1.0000
  C   C34       1.0  0.73085  0.72372  0.27601  1.0000
  C   C35       1.0  0.73071  0.27670  0.28057  1.0000
  C   C36       1.0  0.26874  0.27594  0.22412  1.0000
  C   C37       1.0  0.24110  0.72094  0.31094  1.0000
  C   C38       1.0  0.75946  0.72025  0.18689  1.0000
  C   C39       1.0  0.75928  0.28055  0.19266  1.0000
  C   C40       1.0  0.24030  0.27901  0.31699  1.0000
  C   C41       1.0  0.22078  0.74518  0.32788  1.0000
  C   C42       1.0  0.77911  0.74497  0.17065  1.0000
  C   C43       1.0  0.77969  0.25640  0.17364  1.0000
  C   C44       1.0  0.22060  0.25427  0.33171  1.0000
  C   C45       1.0  0.22880  0.77361  0.25821  1.0000
  C   C46       1.0  0.77044  0.77361  0.24259  1.0000
  C   C47       1.0  0.77183  0.22787  0.24195  1.0000
  C   C48       1.0  0.22899  0.22601  0.25304  1.0000
  C   C49       1.0  0.29034  0.70007  0.20441  1.0000
  C   C50       1.0  0.28893  0.30079  0.20877  1.0000
  C   C51       1.0  0.31714  0.70442  0.24697  1.0000
  C   C52       1.0  0.31603  0.29691  0.24702  1.0000
  C   C53       1.0  0.33657  0.68119  0.23430  1.0000
  C   C54       1.0  0.33511  0.32039  0.23674  1.0000
  C   C55       1.0  0.32945  0.65274  0.17936  1.0000
  C   C56       1.0  0.32737  0.34864  0.18902  1.0000
  C   C57       1.0  0.30259  0.64832  0.13684  1.0000
  C   C58       1.0  0.30026  0.35257  0.15020  1.0000
  C   C59       1.0  0.28348  0.67163  0.14760  1.0000
  C   C60       1.0  0.28149  0.32898  0.15807  1.0000
  C   C61       1.0  0.12721  0.87110  0.36142  1.0000
  C   C62       1.0  0.87031  0.87214  0.14323  1.0000
  C   C63       1.0  0.87245  0.12945  0.14243  1.0000
  C   C64       1.0  0.12960  0.12753  0.35358  1.0000
  C   C65       1.0  0.44460  0.52766  0.16465  1.0000
  C   C66       1.0  0.55568  0.52763  0.32278  1.0000
  C   C67       1.0  0.55525  0.47295  0.32554  1.0000
  C   C68       1.0  0.44418  0.47299  0.16512  1.0000
  C   C69       1.0  0.47245  0.52792  0.20096  1.0000
  C   C70       1.0  0.52781  0.52789  0.28712  1.0000
  C   C71       1.0  0.52734  0.47271  0.28972  1.0000
  C   C72       1.0  0.47207  0.47277  0.20077  1.0000
  C   C73       1.0  0.48713  0.55478  0.22395  1.0000
  C   C74       1.0  0.51348  0.55477  0.26460  1.0000
  C   C75       1.0  0.51252  0.44589  0.26780  1.0000
  C   C76       1.0  0.48635  0.44593  0.22435  1.0000
  C   C77       1.0  0.42674  0.44609  0.15555  1.0000
  C   C78       1.0  0.57233  0.44610  0.33895  1.0000
  C   C79       1.0  0.57296  0.55454  0.33415  1.0000
  C   C80       1.0  0.43607  0.42085  0.05341  1.0000
  C   C81       1.0  0.56230  0.42144  0.43742  1.0000
  C   C82       1.0  0.56327  0.57965  0.43649  1.0000
  C   C83       1.0  0.41810  0.39681  0.04438  1.0000
  C   C84       1.0  0.57994  0.39733  0.44857  1.0000
  C   C85       1.0  0.58103  0.60379  0.44770  1.0000
  C   C86       1.0  0.39016  0.39717  0.13751  1.0000
  C   C87       1.0  0.60826  0.39707  0.36155  1.0000
  C   C88       1.0  0.60911  0.60355  0.35698  1.0000
  C   C89       1.0  0.38081  0.42216  0.24237  1.0000
  C   C90       1.0  0.61840  0.42161  0.26203  1.0000
  C   C91       1.0  0.61884  0.57868  0.25213  1.0000
  C   C92       1.0  0.39877  0.44602  0.25103  1.0000
  C   C93       1.0  0.60081  0.44553  0.25135  1.0000
  C   C94       1.0  0.60109  0.55475  0.24130  1.0000
  C   C95       1.0  0.37127  0.37219  0.12369  1.0000
  C   C96       1.0  0.62686  0.37204  0.37587  1.0000
  C   C97       1.0  0.62799  0.62842  0.37242  1.0000
  C   C98       1.0  0.37377  0.62928  0.11883  1.0000
  C   C99       1.0  0.01322  0.00006  0.27948  1.0000
  C   C100      1.0  0.98556  0.00019  0.23515  1.0000
  C   C101      1.0  0.06798  0.99984  0.35211  1.0000
  C   C102      1.0  0.93076  0.00055  0.16399  1.0000
  C   C103      1.0  0.48613  0.50033  0.22211  1.0000
  C   C104      1.0  0.51375  0.50029  0.26684  1.0000
  C   C105      1.0  0.43139  0.50032  0.14888  1.0000
  C   C106      1.0  0.56846  0.50032  0.33989  1.0000
  C   C107      1.0  0.02683  0.97210  0.80000  1.0000
  C   C108      1.0  0.97148  0.97241  0.71278  1.0000
  C   C109      1.0  0.97189  0.02762  0.71538  1.0000
  C   C110      1.0  0.02732  0.02727  0.80125  1.0000
  C   C111      1.0  0.01211  0.94532  0.77542  1.0000
  C   C112      1.0  0.98583  0.94547  0.73368  1.0000
  C   C113      1.0  0.98682  0.05438  0.73706  1.0000
  C   C114      1.0  0.01319  0.05421  0.77749  1.0000
  C   C115      1.0  0.05468  0.97217  0.83664  1.0000
  C   C116      1.0  0.94358  0.97281  0.67725  1.0000
  C   C117      1.0  0.94388  0.02752  0.68130  1.0000
  C   C118      1.0  0.05515  0.02685  0.83753  1.0000
  C   C119      1.0  0.07194  0.94520  0.84384  1.0000
  C   C120      1.0  0.07275  0.05366  0.84429  1.0000
  C   C121      1.0  0.10024  0.94502  0.75308  1.0000
  C   C122      1.0  0.10054  0.05323  0.74635  1.0000
  C   C123      1.0  0.11808  0.92108  0.75830  1.0000
  C   C124      1.0  0.11865  0.07708  0.74961  1.0000
  C   C125      1.0  0.10842  0.89607  0.85491  1.0000
  C   C126      1.0  0.10957  0.10258  0.85045  1.0000
  C   C127      1.0  0.08017  0.89580  0.94305  1.0000
  C   C128      1.0  0.08181  0.10342  0.94637  1.0000
  C   C129      1.0  0.06227  0.91993  0.93760  1.0000
  C   C130      1.0  0.06369  0.07930  0.94338  1.0000
  C   C131      1.0  0.25709  0.77627  0.68621  1.0000
  C   C132      1.0  0.74379  0.77515  0.82065  1.0000
  C   C133      1.0  0.74400  0.22574  0.82868  1.0000
  C   C134      1.0  0.25819  0.22168  0.66923  1.0000
  C   C135      1.0  0.27660  0.75235  0.66648  1.0000
  C   C136      1.0  0.72455  0.75114  0.83694  1.0000
  C   C137      1.0  0.72448  0.24962  0.84775  1.0000
  C   C138      1.0  0.27769  0.24549  0.65696  1.0000
  C   C139      1.0  0.26928  0.72398  0.72343  1.0000
  C   C140      1.0  0.73200  0.72283  0.77165  1.0000
  C   C141      1.0  0.73156  0.27752  0.78280  1.0000
  C   C142      1.0  0.27041  0.27367  0.72536  1.0000
  C   C143      1.0  0.24055  0.72047  0.80995  1.0000
  C   C144      1.0  0.76054  0.71934  0.68064  1.0000
  C   C145      1.0  0.76000  0.28088  0.69198  1.0000
  C   C146      1.0  0.24177  0.27723  0.81424  1.0000
  C   C147      1.0  0.22051  0.74503  0.83033  1.0000
  C   C148      1.0  0.78037  0.74395  0.66499  1.0000
  C   C149      1.0  0.78010  0.25646  0.67344  1.0000
  C   C150      1.0  0.22179  0.25279  0.82716  1.0000
  C   C151      1.0  0.22881  0.77364  0.76430  1.0000
  C   C152      1.0  0.77194  0.77253  0.73905  1.0000
  C   C153      1.0  0.77198  0.22814  0.74430  1.0000
  C   C154      1.0  0.23004  0.22430  0.75114  1.0000
  C   C155      1.0  0.20888  0.79880  0.77996  1.0000
  C   C156      1.0  0.79180  0.20294  0.72801  1.0000
  C   C157      1.0  0.21017  0.19920  0.76381  1.0000
  C   C158      1.0  0.28980  0.69932  0.70352  1.0000
  C   C159      1.0  0.71158  0.69825  0.78961  1.0000
  C   C160      1.0  0.18234  0.79555  0.73196  1.0000
  C   C161      1.0  0.81892  0.20629  0.76774  1.0000
  C   C162      1.0  0.18298  0.20255  0.72572  1.0000
  C   C163      1.0  0.16396  0.81959  0.74081  1.0000
  C   C164      1.0  0.83696  0.18201  0.76140  1.0000
  C   C165      1.0  0.16452  0.17860  0.73475  1.0000
  C   C166      1.0  0.17151  0.84769  0.79898  1.0000
  C   C167      1.0  0.82848  0.15360  0.71370  1.0000
  C   C168      1.0  0.17268  0.15052  0.78283  1.0000
  C   C169      1.0  0.19828  0.85115  0.84408  1.0000
  C   C170      1.0  0.80131  0.15019  0.67446  1.0000
  C   C171      1.0  0.20005  0.14696  0.81813  1.0000
  C   C172      1.0  0.21650  0.82702  0.83601  1.0000
  C   C173      1.0  0.78343  0.17452  0.67992  1.0000
  C   C174      1.0  0.21833  0.17101  0.81031  1.0000
  C   C175      1.0  0.31672  0.70353  0.74482  1.0000
  C   C176      1.0  0.68436  0.70245  0.75378  1.0000
  C   C177      1.0  0.33599  0.68014  0.73230  1.0000
  C   C178      1.0  0.66504  0.67920  0.76642  1.0000
  C   C179      1.0  0.32866  0.65161  0.67957  1.0000
  C   C180      1.0  0.67256  0.65096  0.81541  1.0000
  C   C181      1.0  0.30177  0.64742  0.63697  1.0000
  C   C182      1.0  0.69974  0.64681  0.85302  1.0000
  C   C183      1.0  0.28283  0.67091  0.64660  1.0000
  C   C184      1.0  0.71883  0.67012  0.84180  1.0000
  C   C185      1.0  0.12739  0.87110  0.86430  1.0000
  C   C186      1.0  0.87086  0.87190  0.63549  1.0000
  C   C187      1.0  0.87195  0.12899  0.65152  1.0000
  C   C188      1.0  0.12875  0.12755  0.85638  1.0000
  C   C189      1.0  0.44491  0.52675  0.65885  1.0000
  C   C190      1.0  0.55552  0.52762  0.82491  1.0000
  C   C191      1.0  0.55533  0.47294  0.82914  1.0000
  C   C192      1.0  0.44501  0.47200  0.65770  1.0000
  C   C193      1.0  0.47251  0.52715  0.69919  1.0000
  C   C194      1.0  0.52763  0.52765  0.78937  1.0000
  C   C195      1.0  0.52742  0.47249  0.79340  1.0000
  C   C196      1.0  0.47250  0.47197  0.69951  1.0000
  C   C197      1.0  0.48686  0.55413  0.72441  1.0000
  C   C198      1.0  0.51308  0.55438  0.76699  1.0000
  C   C199      1.0  0.51274  0.44553  0.77272  1.0000
  C   C200      1.0  0.48672  0.44528  0.72732  1.0000
  C   C201      1.0  0.42779  0.44496  0.64712  1.0000
  C   C202      1.0  0.57281  0.55457  0.83555  1.0000
  C   C203      1.0  0.43777  0.41910  0.55253  1.0000
  C   C204      1.0  0.56323  0.57976  0.93751  1.0000
  C   C205      1.0  0.42014  0.39467  0.54629  1.0000
  C   C206      1.0  0.58117  0.60370  0.94998  1.0000
  C   C207      1.0  0.39186  0.39524  0.63394  1.0000
  C   C208      1.0  0.60931  0.60328  0.86024  1.0000
  C   C209      1.0  0.38174  0.42100  0.72925  1.0000
  C   C210      1.0  0.61892  0.57838  0.75532  1.0000
  C   C211      1.0  0.39937  0.44521  0.73575  1.0000
  C   C212      1.0  0.60100  0.55464  0.74333  1.0000
  C   C213      1.0  0.37346  0.36963  0.62555  1.0000
  C   C214      1.0  0.62746  0.37229  0.87499  1.0000
  C   C215      1.0  0.62822  0.62811  0.87645  1.0000
  C   C216      1.0  0.37273  0.62772  0.61831  1.0000
  C   C217      1.0  0.01318  0.99976  0.77978  1.0000
  C   C218      1.0  0.98553  0.99993  0.73533  1.0000
  C   C219      1.0  0.06781  0.99947  0.85446  1.0000
  C   C220      1.0  0.93073  0.00022  0.66390  1.0000
  C   C221      1.0  0.48627  0.49968  0.72191  1.0000
  C   C222      1.0  0.51375  0.49993  0.76880  1.0000
  C   C223      1.0  0.43227  0.49928  0.63788  1.0000
  C   C224      1.0  0.56849  0.50039  0.84159  1.0000
  S   S1        1.0  0.80250  0.29790  0.02349  1.0000
  S   S2        1.0  0.19713  0.29503  0.49850  1.0000
  S   S3        1.0  0.19779  0.70405  0.48153  1.0000
  S   S4        1.0  0.80297  0.70365  0.01190  1.0000
  S   S5        1.0  0.80325  0.29749  0.51968  1.0000
  S   S6        1.0  0.19827  0.29407  0.98847  1.0000
  S   S7        1.0  0.19703  0.70370  0.97904  1.0000
  S   S8        1.0  0.80385  0.70275  0.50264  1.0000
  N   N1        1.0  0.15392  0.87235  0.29727  1.0000
  N   N2        1.0  0.84365  0.87348  0.20930  1.0000
  N   N3        1.0  0.84582  0.12864  0.20910  1.0000
  N   N4        1.0  0.15603  0.12581  0.28254  1.0000
  N   N5        1.0  0.65477  0.62654  0.31127  1.0000
  N   N6        1.0  0.34693  0.62804  0.17823  1.0000
  N   N7        1.0  0.34469  0.37350  0.19100  1.0000
  N   N8        1.0  0.65382  0.37354  0.32057  1.0000
  N   N9        1.0  0.80526  0.26362  0.07928  1.0000
  N   N10       1.0  0.19516  0.26073  0.43244  1.0000
  N   N11       1.0  0.19516  0.73815  0.42240  1.0000
  N   N12       1.0  0.80479  0.73819  0.07373  1.0000
  N   N13       1.0  0.76984  0.30549  0.11230  1.0000
  N   N14       1.0  0.22928  0.30359  0.40675  1.0000
  N   N15       1.0  0.23043  0.69622  0.39333  1.0000
  N   N16       1.0  0.77067  0.69533  0.10163  1.0000
  N   N17       1.0  0.15418  0.87265  0.80262  1.0000
  N   N18       1.0  0.84426  0.87316  0.70295  1.0000
  N   N19       1.0  0.84517  0.12824  0.71430  1.0000
  N   N20       1.0  0.15525  0.12562  0.78742  1.0000
  N   N21       1.0  0.65500  0.62630  0.81510  1.0000
  N   N22       1.0  0.34599  0.62679  0.68143  1.0000
  N   N23       1.0  0.34664  0.37115  0.68605  1.0000
  N   N24       1.0  0.65431  0.37383  0.81584  1.0000
  N   N25       1.0  0.80566  0.26328  0.57748  1.0000
  N   N26       1.0  0.19613  0.25973  0.92385  1.0000
  N   N27       1.0  0.19485  0.73814  0.92482  1.0000
  N   N28       1.0  0.80591  0.73717  0.56638  1.0000
  N   N29       1.0  0.77073  0.30557  0.60930  1.0000
  N   N30       1.0  0.23078  0.30207  0.90133  1.0000
  N   N31       1.0  0.22955  0.69560  0.88941  1.0000
  N   N32       1.0  0.77153  0.69454  0.59300  1.0000
  C  Sn1       1.0  0.78288  0.16635  0.21644  1.0000
  C   C225      1.0  0.78756  0.19570  0.26412  1.0000
  C  Sn2       1.0  0.81484  0.20530  0.27459  1.0000
  C  Sn3       1.0  0.83792  0.18515  0.23651  1.0000
  C   C226      1.0  0.83323  0.15582  0.18884  1.0000
  C  Sn4       1.0  0.80596  0.14620  0.17836  1.0000
  O  Te1       1.0  0.75544  0.15724  0.20680  1.0000
  O  Te2       1.0  0.81899  0.23475  0.32259  1.0000
  O  Te3       1.0  0.86537  0.19429  0.24619  1.0000
  O  Te4       1.0  0.80180  0.11677  0.13037  1.0000
  Mg  Mg1       1.0  0.86029  0.23661  0.31732  1.0000
  Mg  Mg2       1.0  0.76052  0.11489  0.13550  1.0000
  C  Sn5       1.0  0.56755  0.41919  0.99097  1.0000
  C   C227      1.0  0.57370  0.44478  0.89482  1.0000
  C  Sn6       1.0  0.59736  0.44568  0.76201  1.0000
  C  Sn7       1.0  0.61525  0.42046  0.72442  1.0000
  C   C228      1.0  0.60910  0.39488  0.82052  1.0000
  C  Sn8       1.0  0.58544  0.39397  0.95339  1.0000
  O  Te5       1.0  0.57488  0.41478  0.12316  1.0000
  O  Te6       1.0  0.60308  0.47152  0.66771  1.0000
  O  Te7       1.0  0.63903  0.42088  0.59211  1.0000
  O  Te8       1.0  0.61082  0.36414  0.04764  1.0000
  Mg  Mg3       1.0  0.63795  0.46122  0.50010  1.0000
  Mg  Mg4       1.0  0.57595  0.37441  0.21520  1.0000
  C  Sn9       1.0  0.92174  0.09589  0.01804  1.0000
  C   C229      1.0  0.89398  0.10063  0.10570  1.0000
  C  Sn10      1.0  0.88257  0.08325  0.24561  1.0000
  C  Sn11      1.0  0.89926  0.06066  0.29912  1.0000
  C   C230      1.0  0.92701  0.05593  0.21151  1.0000
  C  Sn12      1.0  0.93843  0.07330  0.07155  1.0000
  O  Te9       1.0  0.90161  0.11754  0.87852  1.0000
  O  Te10      1.0  0.85475  0.08841  0.33118  1.0000
  O  Te11      1.0  0.88826  0.04302  0.43876  1.0000
  O  Te12      1.0  0.93512  0.07217  0.98602  1.0000
  Mg  Mg5       1.0  0.84930  0.05856  0.51398  1.0000
  Mg  Mg6       1.0  0.94060  0.10202  0.80327  1.0000
  C  Sn13      1.0  0.42244  0.59480  0.49847  1.0000
  C   C231      1.0  0.39447  0.59908  0.58384  1.0000
  C  Sn14      1.0  0.38296  0.58140  0.72217  1.0000
  C  Sn15      1.0  0.39975  0.55898  0.77639  1.0000
  C   C232      1.0  0.42770  0.55471  0.69106  1.0000
  C  Sn16      1.0  0.43923  0.57238  0.55268  1.0000
  O  Te13      1.0  0.43351  0.61274  0.36050  1.0000
  O  Te14      1.0  0.35495  0.58610  0.80547  1.0000
  O  Te15      1.0  0.38866  0.54103  0.91447  1.0000
  O  Te16      1.0  0.46723  0.56770  0.46943  1.0000
  Mg  Mg7       1.0  0.34942  0.55598  0.98679  1.0000
  Mg  Mg8       1.0  0.47278  0.59781  0.28816  1.0000
  C  Sn17      1.0  0.81904  0.80202  0.31926  1.0000
  C   C233      1.0  0.79214  0.80076  0.27678  1.0000
  C  Sn18      1.0  0.78288  0.82335  0.18277  1.0000
  C  Sn19      1.0  0.80089  0.84770  0.13002  1.0000
  C   C234      1.0  0.82778  0.84895  0.17248  1.0000
  C  Sn20      1.0  0.83706  0.82636  0.26651  1.0000
  O  Te17      1.0  0.82786  0.77918  0.41332  1.0000
  O  Te18      1.0  0.75588  0.82161  0.14188  1.0000
  O  Te19      1.0  0.79205  0.87054  0.03590  1.0000
  O  Te20      1.0  0.86403  0.82809  0.30737  1.0000
  Mg  Mg9       1.0  0.75346  0.85816  0.01150  1.0000
  Mg  Mg10      1.0  0.86648  0.79155  0.43767  1.0000
  C  Sn21      1.0  0.89545  0.93807  0.80465  1.0000
  C   C235      1.0  0.92330  0.94184  0.71763  1.0000
  C  Sn22      1.0  0.93430  0.92384  0.57471  1.0000
  C  Sn23      1.0  0.91710  0.90161  0.51750  1.0000
  C   C236      1.0  0.88926  0.89785  0.60448  1.0000
  C  Sn24      1.0  0.87824  0.91584  0.74744  1.0000
  O  Te21      1.0  0.88489  0.95632  0.94721  1.0000
  O  Te22      1.0  0.96221  0.92802  0.48985  1.0000
  O  Te23      1.0  0.92768  0.88335  0.37482  1.0000
  O  Te24      1.0  0.85035  0.91167  0.83226  1.0000
  Mg  Mg11      1.0  0.96698  0.89763  0.30198  1.0000
  Mg  Mg12      1.0  0.87666  0.93805  0.02008  1.0000
  C  Sn25      1.0  0.71034  0.33345  0.41537  1.0000
  C   C237      1.0  0.70754  0.30449  0.35415  1.0000
  C  Sn26      1.0  0.68697  0.29776  0.25608  1.0000
  C  Sn27      1.0  0.66883  0.32045  0.21830  1.0000
  C   C238      1.0  0.67164  0.34939  0.27948  1.0000
  C  Sn28      1.0  0.69220  0.35614  0.37760  1.0000
  O  Te25      1.0  0.73105  0.33968  0.51317  1.0000
  O  Te26      1.0  0.68457  0.26864  0.19635  1.0000
  O  Te27      1.0  0.64811  0.31419  0.12042  1.0000
  O  Te28      1.0  0.69461  0.38524  0.43728  1.0000
  Mg  Mg13      1.0  0.65310  0.27118  0.06806  1.0000
  Mg  Mg14      1.0  0.72608  0.38273  0.56550  1.0000
  C  Sn29      1.0  0.43831  0.58925  0.08914  1.0000
  C   C239      1.0  0.43111  0.56284  0.17553  1.0000
  C  Sn30      1.0  0.40271  0.55549  0.23301  1.0000
  C  Sn31      1.0  0.38106  0.57495  0.20346  1.0000
  C   C240      1.0  0.38827  0.60134  0.11710  1.0000
  C  Sn32      1.0  0.41666  0.60870  0.05958  1.0000
  O  Te29      1.0  0.46684  0.59614  0.03280  1.0000
  O  Te30      1.0  0.39603  0.52897  0.31913  1.0000
  O  Te31      1.0  0.35252  0.56803  0.25989  1.0000
  O  Te32      1.0  0.39224  0.63922  0.97349  1.0000
  Mg  Mg15      1.0  0.35410  0.52936  0.37104  1.0000
  Mg  Mg16      1.0  0.43416  0.63884  0.92145  1.0000
  C  Sn33      1.0  0.88532  0.07634  0.80737  1.0000
  C   C241      1.0  0.89132  0.10214  0.71297  1.0000
  C  Sn34      1.0  0.91502  0.10341  0.58060  1.0000
  C  Sn35      1.0  0.93310  0.07836  0.54168  1.0000
  C   C242      1.0  0.92710  0.05258  0.63602  1.0000
  C  Sn36      1.0  0.90340  0.05129  0.76844  1.0000
  O  Te33      1.0  0.86151  0.07556  0.93914  1.0000
  O  Te34      1.0  0.92059  0.12946  0.48807  1.0000
  O  Te35      1.0  0.95693  0.07916  0.40979  1.0000
  O  Te36      1.0  0.89783  0.02526  0.86092  1.0000
  Mg  Mg17      1.0  0.95559  0.11966  0.32037  1.0000
  Mg  Mg18      1.0  0.89394  0.03102  0.02858  1.0000
  C  Sn37      1.0  0.17978  0.80074  0.18003  1.0000
  C   C243      1.0  0.20671  0.80031  0.22230  1.0000
  C  Sn38      1.0  0.21550  0.82359  0.31905  1.0000
  C  Sn39      1.0  0.19698  0.84780  0.37482  1.0000
  C   C244      1.0  0.17006  0.84822  0.33258  1.0000
  C  Sn40      1.0  0.16126  0.82495  0.23580  1.0000
  O  Te37      1.0  0.17144  0.77722  0.08319  1.0000
  O  Te38      1.0  0.24253  0.82267  0.35966  1.0000
  O  Te39      1.0  0.20534  0.87133  0.47172  1.0000
  O  Te40      1.0  0.13425  0.82586  0.19521  1.0000
  Mg  Mg19      1.0  0.24419  0.85995  0.49452  1.0000
  Mg  Mg20      1.0  0.13256  0.78859  0.06045  1.0000
  C  Sn41      1.0  0.67521  0.70146  0.29398  1.0000
  C   C245      1.0  0.70247  0.70150  0.33162  1.0000
  C  Sn42      1.0  0.71628  0.67478  0.34811  1.0000
  C  Sn43      1.0  0.70258  0.64746  0.32642  1.0000
  C   C246      1.0  0.67534  0.64744  0.28878  1.0000
  C  Sn44      1.0  0.66151  0.67414  0.27229  1.0000
  O  Te41      1.0  0.66181  0.72843  0.27807  1.0000
  O  Te42      1.0  0.74352  0.67538  0.38585  1.0000
  O  Te43      1.0  0.71601  0.62048  0.34237  1.0000
  O  Te44      1.0  0.63429  0.67356  0.23455  1.0000
  Mg  Mg21      1.0  0.75305  0.63281  0.39476  1.0000
  Mg  Mg22      1.0  0.62475  0.71611  0.22552  1.0000
  C  Sn45      1.0  0.70745  0.35227  0.81662  1.0000
  C   C247      1.0  0.68036  0.35160  0.77653  1.0000
  C  Sn46      1.0  0.66676  0.32457  0.76056  1.0000
  C  Sn47      1.0  0.68051  0.29764  0.78529  1.0000
  C   C248      1.0  0.70757  0.29832  0.82539  1.0000
  C  Sn48      1.0  0.72120  0.32534  0.84135  1.0000
  O  Te45      1.0  0.72065  0.37955  0.83196  1.0000
  O  Te46      1.0  0.63969  0.32447  0.72033  1.0000
  O  Te47      1.0  0.66728  0.27035  0.76992  1.0000
  O  Te48      1.0  0.74825  0.32546  0.88159  1.0000
  Mg  Mg23      1.0  0.63042  0.28171  0.71338  1.0000
  Mg  Mg24      1.0  0.75754  0.36820  0.88866  1.0000
  C  Sn49      1.0  0.17395  0.20132  0.26774  1.0000
  C   C249      1.0  0.20121  0.20248  0.30509  1.0000
  C  Sn50      1.0  0.21634  0.17637  0.31558  1.0000
  C  Sn51      1.0  0.20397  0.14853  0.28808  1.0000
  C   C250      1.0  0.17673  0.14737  0.25073  1.0000
  C  Sn52      1.0  0.16159  0.17347  0.24024  1.0000
  O  Te49      1.0  0.15921  0.22770  0.25788  1.0000
  O  Te50      1.0  0.24355  0.17810  0.35315  1.0000
  O  Te51      1.0  0.21873  0.12214  0.29798  1.0000
  O  Te52      1.0  0.13439  0.17175  0.20267  1.0000
  Mg  Mg25      1.0  0.25518  0.13598  0.35265  1.0000
  Mg  Mg26      1.0  0.12275  0.21385  0.20305  1.0000
  C  Sn53      1.0  0.83721  0.81152  0.71604  1.0000
  C   C251      1.0  0.83196  0.84038  0.66929  1.0000
  C  Sn54      1.0  0.80444  0.84940  0.66194  1.0000
  C  Sn55      1.0  0.78168  0.82914  0.70227  1.0000
  C   C252      1.0  0.78693  0.80030  0.74901  1.0000
  C  Sn56      1.0  0.81445  0.79126  0.75637  1.0000
  O  Te53      1.0  0.86489  0.80298  0.72255  1.0000
  O  Te54      1.0  0.79972  0.87837  0.61481  1.0000
  O  Te55      1.0  0.75399  0.83770  0.69572  1.0000
  O  Te56      1.0  0.81917  0.76232  0.80349  1.0000
  Mg  Mg27      1.0  0.75828  0.87951  0.62462  1.0000
  Mg  Mg28      1.0  0.86060  0.76115  0.79381  1.0000
  C  Sn57      1.0  0.33748  0.30950  0.69941  1.0000
  C   C253      1.0  0.33351  0.33860  0.65152  1.0000
  C  Sn58      1.0  0.30639  0.34899  0.64477  1.0000
  C  Sn59      1.0  0.28275  0.32991  0.68687  1.0000
  C   C254      1.0  0.28672  0.30083  0.73475  1.0000
  C  Sn60      1.0  0.31383  0.29041  0.74150  1.0000
  O  Te57      1.0  0.36478  0.29958  0.70528  1.0000
  O  Te58      1.0  0.30296  0.37817  0.59648  1.0000
  O  Te59      1.0  0.25543  0.33985  0.68095  1.0000
  O  Te60      1.0  0.31727  0.26125  0.78979  1.0000
  Mg  Mg29      1.0  0.26158  0.38141  0.60777  1.0000
  Mg  Mg30      1.0  0.35863  0.25800  0.77863  1.0000
  C  Sn61      1.0  0.89513  0.93902  0.30511  1.0000
  C   C255      1.0  0.92303  0.94238  0.21792  1.0000
  C  Sn62      1.0  0.93402  0.92370  0.07811  1.0000
  C  Sn63      1.0  0.91676  0.90119  0.02424  1.0000
  C   C256      1.0  0.88888  0.89784  0.11138  1.0000
  C  Sn64      1.0  0.87787  0.91651  0.25124  1.0000
  O  Te61      1.0  0.88458  0.95796  0.44454  1.0000
  O  Te62      1.0  0.93087  0.93149  0.99301  1.0000
  O  Te63      1.0  0.89623  0.88626  0.88469  1.0000
  O  Te64      1.0  0.84993  0.91274  0.33629  1.0000
  Mg  Mg31      1.0  0.93560  0.90020  0.81017  1.0000
  Mg  Mg32      1.0  0.84518  0.94403  0.51909  1.0000
