data_image0
_chemical_formula_structural       H56C128S8N32SnCSn2CSnTe4Mg2SnCSn2CSnTe4Mg2SnCSn2CSnTe4Mg2SnCSn2CSnTe4Mg2SnCSn2CSnTe4Mg2SnCSn2CSnTe4Mg2SnCSn2CSnTe4Mg2SnCSn2CSnTe4Mg2SnCSn2CSnTe4Mg2SnCSn2CSnTe4Mg2SnCSn2CSnTe4Mg2SnCSn2CSnTe4Mg2SnCSn2CSnTe4Mg2SnCSn2CSnTe4Mg2SnCSn2CSnTe4Mg2SnCSn2CSnTe4Mg2SnCSn2CSnTe4Mg2SnCSn2CSnTe4Mg2SnCSn2CSnTe4Mg2SnCSn2CSnTe4Mg2SnCSn2CSnTe4Mg2SnCSn2CSnTe4Mg2SnCSn2CSnTe4Mg2SnCSn2CSnTe4Mg2SnCSn2CSnTe4Mg2SnCSn2CSnTe4Mg2SnCSn2CSnTe4Mg2SnCSn2CSnTe4Mg2SnCSn2CSnTe4Mg2SnCSn2CSnTe4Mg2SnCSn2CSnTe4Mg2SnCSn2CSnTe4Mg2
_chemical_formula_sum              "H56 C192 S8 N32 Sn128 Te128 Mg64"
_cell_length_a       48.079
_cell_length_b       45.0896
_cell_length_c       7.91599
_cell_angle_alpha    91.3242
_cell_angle_beta     79.1081
_cell_angle_gamma    90.0822

_symmetry_space_group_name_H-M    'P1'
_space_group_IT_number       1

loop_
  _space_group_symop_operation_xyz
  'x, y, z'

loop_
  _atom_site_type_symbol
  _atom_site_label
  _atom_site_symmetry_multiplicity
  _atom_site_fract_x
  _atom_site_fract_y
  _atom_site_fract_z
  _atom_site_occupancy
  H   H1        1.0  0.26402  0.79756  0.12324  1.0000
  H   H2        1.0  0.73480  0.79753  0.38202  1.0000
  H   H3        1.0  0.73678  0.20354  0.37559  1.0000
  H   H4        1.0  0.26421  0.20280  0.10475  1.0000
  H   H5        1.0  0.29834  0.75659  0.09474  1.0000
  H   H6        1.0  0.70157  0.75558  0.40977  1.0000
  H   H7        1.0  0.70228  0.24440  0.40799  1.0000
  H   H8        1.0  0.29764  0.24450  0.08265  1.0000
  H   H9        1.0  0.11758  0.85124  0.42662  1.0000
  H   H10       1.0  0.87989  0.85204  0.07446  1.0000
  H   H11       1.0  0.88202  0.14885  0.07203  1.0000
  H   H12       1.0  0.12061  0.14774  0.42365  1.0000
  H   H13       1.0  0.38075  0.35241  0.05082  1.0000
  H   H14       1.0  0.61681  0.35214  0.43855  1.0000
  H   H15       1.0  0.61851  0.64856  0.44101  1.0000
  H   H16       1.0  0.38377  0.64893  0.05301  1.0000
  H   H17       1.0  0.52393  0.57570  0.28085  1.0000
  H   H18       1.0  0.47692  0.57574  0.20888  1.0000
  H   H19       1.0  0.47600  0.42501  0.20663  1.0000
  H   H20       1.0  0.52258  0.42496  0.28565  1.0000
  H   H21       1.0  0.02266  0.92467  0.28746  1.0000
  H   H22       1.0  0.97572  0.92482  0.21345  1.0000
  H   H23       1.0  0.97633  0.07570  0.22718  1.0000
  H   H24       1.0  0.02342  0.07543  0.29875  1.0000
  H   H25       1.0  0.08909  0.99976  0.38288  1.0000
  H   H26       1.0  0.90953  0.00072  0.13505  1.0000
  H   H27       1.0  0.41034  0.50031  0.11730  1.0000
  H   H28       1.0  0.58956  0.50036  0.37085  1.0000
  H   H29       1.0  0.26437  0.79760  0.63342  1.0000
  H   H30       1.0  0.73648  0.79650  0.87932  1.0000
  H   H31       1.0  0.73707  0.20479  0.88803  1.0000
  H   H32       1.0  0.26530  0.20055  0.60666  1.0000
  H   H33       1.0  0.29817  0.75616  0.59900  1.0000
  H   H34       1.0  0.70308  0.75472  0.90810  1.0000
  H   H35       1.0  0.70320  0.24624  0.92082  1.0000
  H   H36       1.0  0.29918  0.24182  0.58649  1.0000
  H   H37       1.0  0.11786  0.85118  0.92943  1.0000
  H   H38       1.0  0.88042  0.85182  0.56668  1.0000
  H   H39       1.0  0.88191  0.14857  0.58479  1.0000
  H   H40       1.0  0.11959  0.14785  0.92477  1.0000
  H   H41       1.0  0.38359  0.34928  0.56286  1.0000
  H   H42       1.0  0.61776  0.35259  0.94176  1.0000
  H   H43       1.0  0.61860  0.64821  0.94493  1.0000
  H   H44       1.0  0.38246  0.64703  0.54750  1.0000
  H   H45       1.0  0.52331  0.57539  0.78493  1.0000
  H   H46       1.0  0.47657  0.57498  0.70819  1.0000
  H   H47       1.0  0.47644  0.42424  0.71131  1.0000
  H   H48       1.0  0.52277  0.42470  0.79289  1.0000
  H   H49       1.0  0.02222  0.92431  0.79057  1.0000
  H   H50       1.0  0.97543  0.92459  0.71523  1.0000
  H   H51       1.0  0.97678  0.07538  0.72057  1.0000
  H   H52       1.0  0.02375  0.07511  0.79306  1.0000
  H   H53       1.0  0.08882  0.99953  0.88666  1.0000
  H   H54       1.0  0.90957  0.00028  0.63394  1.0000
  H   H55       1.0  0.41166  0.49910  0.60016  1.0000
  H   H56       1.0  0.58968  0.50063  0.87114  1.0000
  C   C1        1.0  0.02696  0.97242  0.29894  1.0000
  C   C2        1.0  0.97154  0.97265  0.21198  1.0000
  C   C3        1.0  0.97188  0.02789  0.21612  1.0000
  C   C4        1.0  0.02730  0.02761  0.30130  1.0000
  C   C5        1.0  0.01234  0.94563  0.27347  1.0000
  C   C6        1.0  0.98603  0.94574  0.23214  1.0000
  C   C7        1.0  0.98657  0.05469  0.24059  1.0000
  C   C8        1.0  0.01295  0.05457  0.28079  1.0000
  C   C9        1.0  0.05485  0.97252  0.33497  1.0000
  C   C10       1.0  0.94357  0.97307  0.17725  1.0000
  C   C11       1.0  0.94394  0.02785  0.18110  1.0000
  C   C12       1.0  0.05525  0.02723  0.33574  1.0000
  C   C13       1.0  0.25704  0.77640  0.17957  1.0000
  C   C14       1.0  0.74227  0.77618  0.32391  1.0000
  C   C15       1.0  0.74362  0.22484  0.32060  1.0000
  C   C16       1.0  0.25701  0.22381  0.16842  1.0000
  C   C17       1.0  0.27679  0.75276  0.16261  1.0000
  C   C18       1.0  0.72314  0.75205  0.34008  1.0000
  C   C19       1.0  0.72375  0.24839  0.33936  1.0000
  C   C20       1.0  0.27623  0.24786  0.15508  1.0000
  C   C21       1.0  0.26971  0.72457  0.22315  1.0000
  C   C22       1.0  0.73085  0.72372  0.27601  1.0000
  C   C23       1.0  0.73071  0.27670  0.28057  1.0000
  C   C24       1.0  0.26874  0.27594  0.22412  1.0000
  C   C25       1.0  0.24110  0.72094  0.31094  1.0000
  C   C26       1.0  0.75946  0.72025  0.18689  1.0000
  C   C27       1.0  0.75928  0.28055  0.19266  1.0000
  C   C28       1.0  0.24030  0.27901  0.31699  1.0000
  C   C29       1.0  0.22078  0.74518  0.32788  1.0000
  C   C30       1.0  0.77911  0.74497  0.17065  1.0000
  C   C31       1.0  0.77969  0.25640  0.17364  1.0000
  C   C32       1.0  0.22060  0.25427  0.33171  1.0000
  C   C33       1.0  0.22880  0.77361  0.25821  1.0000
  C   C34       1.0  0.77044  0.77361  0.24259  1.0000
  C   C35       1.0  0.77183  0.22787  0.24195  1.0000
  C   C36       1.0  0.22899  0.22601  0.25304  1.0000
  C   C37       1.0  0.12721  0.87110  0.36142  1.0000
  C   C38       1.0  0.87031  0.87214  0.14323  1.0000
  C   C39       1.0  0.87245  0.12945  0.14243  1.0000
  C   C40       1.0  0.12960  0.12753  0.35358  1.0000
  C   C41       1.0  0.44460  0.52766  0.16465  1.0000
  C   C42       1.0  0.55568  0.52763  0.32278  1.0000
  C   C43       1.0  0.55525  0.47295  0.32554  1.0000
  C   C44       1.0  0.44418  0.47299  0.16512  1.0000
  C   C45       1.0  0.47245  0.52792  0.20096  1.0000
  C   C46       1.0  0.52781  0.52789  0.28712  1.0000
  C   C47       1.0  0.52734  0.47271  0.28972  1.0000
  C   C48       1.0  0.47207  0.47277  0.20077  1.0000
  C   C49       1.0  0.48713  0.55478  0.22395  1.0000
  C   C50       1.0  0.51348  0.55477  0.26460  1.0000
  C   C51       1.0  0.51252  0.44589  0.26780  1.0000
  C   C52       1.0  0.48635  0.44593  0.22435  1.0000
  C   C53       1.0  0.37127  0.37219  0.12369  1.0000
  C   C54       1.0  0.62686  0.37204  0.37587  1.0000
  C   C55       1.0  0.62799  0.62842  0.37242  1.0000
  C   C56       1.0  0.37377  0.62928  0.11883  1.0000
  C   C57       1.0  0.01322  0.00006  0.27948  1.0000
  C   C58       1.0  0.98556  0.00019  0.23515  1.0000
  C   C59       1.0  0.06798  0.99984  0.35211  1.0000
  C   C60       1.0  0.93076  0.00055  0.16399  1.0000
  C   C61       1.0  0.48613  0.50033  0.22211  1.0000
  C   C62       1.0  0.51375  0.50029  0.26684  1.0000
  C   C63       1.0  0.43139  0.50032  0.14888  1.0000
  C   C64       1.0  0.56846  0.50032  0.33989  1.0000
  C   C65       1.0  0.02683  0.97210  0.80000  1.0000
  C   C66       1.0  0.97148  0.97241  0.71278  1.0000
  C   C67       1.0  0.97189  0.02762  0.71538  1.0000
  C   C68       1.0  0.02732  0.02727  0.80125  1.0000
  C   C69       1.0  0.01211  0.94532  0.77542  1.0000
  C   C70       1.0  0.98583  0.94547  0.73368  1.0000
  C   C71       1.0  0.98682  0.05438  0.73706  1.0000
  C   C72       1.0  0.01319  0.05421  0.77749  1.0000
  C   C73       1.0  0.05468  0.97217  0.83664  1.0000
  C   C74       1.0  0.94358  0.97281  0.67725  1.0000
  C   C75       1.0  0.94388  0.02752  0.68130  1.0000
  C   C76       1.0  0.05515  0.02685  0.83753  1.0000
  C   C77       1.0  0.25709  0.77627  0.68621  1.0000
  C   C78       1.0  0.74379  0.77515  0.82065  1.0000
  C   C79       1.0  0.74400  0.22574  0.82868  1.0000
  C   C80       1.0  0.25819  0.22168  0.66923  1.0000
  C   C81       1.0  0.27660  0.75235  0.66648  1.0000
  C   C82       1.0  0.72455  0.75114  0.83694  1.0000
  C   C83       1.0  0.72448  0.24962  0.84775  1.0000
  C   C84       1.0  0.27769  0.24549  0.65696  1.0000
  C   C85       1.0  0.26928  0.72398  0.72343  1.0000
  C   C86       1.0  0.73200  0.72283  0.77165  1.0000
  C   C87       1.0  0.73156  0.27752  0.78280  1.0000
  C   C88       1.0  0.27041  0.27367  0.72536  1.0000
  C   C89       1.0  0.24055  0.72047  0.80995  1.0000
  C   C90       1.0  0.76054  0.71934  0.68064  1.0000
  C   C91       1.0  0.76000  0.28088  0.69198  1.0000
  C   C92       1.0  0.24177  0.27723  0.81424  1.0000
  C   C93       1.0  0.22051  0.74503  0.83033  1.0000
  C   C94       1.0  0.78037  0.74395  0.66499  1.0000
  C   C95       1.0  0.78010  0.25646  0.67344  1.0000
  C   C96       1.0  0.22179  0.25279  0.82716  1.0000
  C   C97       1.0  0.22881  0.77364  0.76430  1.0000
  C   C98       1.0  0.77194  0.77253  0.73905  1.0000
  C   C99       1.0  0.77198  0.22814  0.74430  1.0000
  C   C100      1.0  0.23004  0.22430  0.75114  1.0000
  C   C101      1.0  0.12739  0.87110  0.86430  1.0000
  C   C102      1.0  0.87086  0.87190  0.63549  1.0000
  C   C103      1.0  0.87195  0.12899  0.65152  1.0000
  C   C104      1.0  0.12875  0.12755  0.85638  1.0000
  C   C105      1.0  0.44491  0.52675  0.65885  1.0000
  C   C106      1.0  0.55552  0.52762  0.82491  1.0000
  C   C107      1.0  0.55533  0.47294  0.82914  1.0000
  C   C108      1.0  0.44501  0.47200  0.65770  1.0000
  C   C109      1.0  0.47251  0.52715  0.69919  1.0000
  C   C110      1.0  0.52763  0.52765  0.78937  1.0000
  C   C111      1.0  0.52742  0.47249  0.79340  1.0000
  C   C112      1.0  0.47250  0.47197  0.69951  1.0000
  C   C113      1.0  0.48686  0.55413  0.72441  1.0000
  C   C114      1.0  0.51308  0.55438  0.76699  1.0000
  C   C115      1.0  0.51274  0.44553  0.77272  1.0000
  C   C116      1.0  0.48672  0.44528  0.72732  1.0000
  C   C117      1.0  0.37346  0.36963  0.62555  1.0000
  C   C118      1.0  0.62746  0.37229  0.87499  1.0000
  C   C119      1.0  0.62822  0.62811  0.87645  1.0000
  C   C120      1.0  0.37273  0.62772  0.61831  1.0000
  C   C121      1.0  0.01318  0.99976  0.77978  1.0000
  C   C122      1.0  0.98553  0.99993  0.73533  1.0000
  C   C123      1.0  0.06781  0.99947  0.85446  1.0000
  C   C124      1.0  0.93073  0.00022  0.66390  1.0000
  C   C125      1.0  0.48627  0.49968  0.72191  1.0000
  C   C126      1.0  0.51375  0.49993  0.76880  1.0000
  C   C127      1.0  0.43227  0.49928  0.63788  1.0000
  C   C128      1.0  0.56849  0.50039  0.84159  1.0000
  S   S1        1.0  0.80250  0.29790  0.02349  1.0000
  S   S2        1.0  0.19713  0.29503  0.49850  1.0000
  S   S3        1.0  0.19779  0.70405  0.48153  1.0000
  S   S4        1.0  0.80297  0.70365  0.01190  1.0000
  S   S5        1.0  0.80325  0.29749  0.51968  1.0000
  S   S6        1.0  0.19827  0.29407  0.98847  1.0000
  S   S7        1.0  0.19703  0.70370  0.97904  1.0000
  S   S8        1.0  0.80385  0.70275  0.50264  1.0000
  N   N1        1.0  0.15392  0.87235  0.29727  1.0000
  N   N2        1.0  0.84365  0.87348  0.20930  1.0000
  N   N3        1.0  0.84582  0.12864  0.20910  1.0000
  N   N4        1.0  0.15603  0.12581  0.28254  1.0000
  N   N5        1.0  0.65477  0.62654  0.31127  1.0000
  N   N6        1.0  0.34693  0.62804  0.17823  1.0000
  N   N7        1.0  0.34469  0.37350  0.19100  1.0000
  N   N8        1.0  0.65382  0.37354  0.32057  1.0000
  N   N9        1.0  0.80526  0.26362  0.07928  1.0000
  N   N10       1.0  0.19516  0.26073  0.43244  1.0000
  N   N11       1.0  0.19516  0.73815  0.42240  1.0000
  N   N12       1.0  0.80479  0.73819  0.07373  1.0000
  N   N13       1.0  0.76984  0.30549  0.11230  1.0000
  N   N14       1.0  0.22928  0.30359  0.40675  1.0000
  N   N15       1.0  0.23043  0.69622  0.39333  1.0000
  N   N16       1.0  0.77067  0.69533  0.10163  1.0000
  N   N17       1.0  0.15418  0.87265  0.80262  1.0000
  N   N18       1.0  0.84426  0.87316  0.70295  1.0000
  N   N19       1.0  0.84517  0.12824  0.71430  1.0000
  N   N20       1.0  0.15525  0.12562  0.78742  1.0000
  N   N21       1.0  0.65500  0.62630  0.81510  1.0000
  N   N22       1.0  0.34599  0.62679  0.68143  1.0000
  N   N23       1.0  0.34664  0.37115  0.68605  1.0000
  N   N24       1.0  0.65431  0.37383  0.81584  1.0000
  N   N25       1.0  0.80566  0.26328  0.57748  1.0000
  N   N26       1.0  0.19613  0.25973  0.92385  1.0000
  N   N27       1.0  0.19485  0.73814  0.92482  1.0000
  N   N28       1.0  0.80591  0.73717  0.56638  1.0000
  N   N29       1.0  0.77073  0.30557  0.60930  1.0000
  N   N30       1.0  0.23078  0.30207  0.90133  1.0000
  N   N31       1.0  0.22955  0.69560  0.88941  1.0000
  N   N32       1.0  0.77153  0.69454  0.59300  1.0000
  C  Sn1       1.0  0.11855  0.93110  0.28712  1.0000
  C   C129      1.0  0.11228  0.90474  0.37574  1.0000
  C  Sn2       1.0  0.08419  0.89700  0.43995  1.0000
  C  Sn3       1.0  0.06190  0.91600  0.41498  1.0000
  C   C130      1.0  0.06818  0.94233  0.32638  1.0000
  C  Sn4       1.0  0.09626  0.95009  0.26215  1.0000
  O  Te1       1.0  0.14679  0.93839  0.22403  1.0000
  O  Te2       1.0  0.07845  0.87054  0.52818  1.0000
  O  Te3       1.0  0.03365  0.90868  0.47816  1.0000
  O  Te4       1.0  0.10201  0.97653  0.17394  1.0000
  Mg  Mg1       1.0  0.03658  0.87028  0.58978  1.0000
  Mg  Mg2       1.0  0.14387  0.97681  0.11221  1.0000
  C  Sn5       1.0  0.87936  0.93268  0.22113  1.0000
  C   C131      1.0  0.88528  0.90581  0.12999  1.0000
  C  Sn6       1.0  0.91326  0.89740  0.06434  1.0000
  C  Sn7       1.0  0.93579  0.91625  0.09042  1.0000
  C   C132      1.0  0.92987  0.94310  0.18154  1.0000
  C  Sn8       1.0  0.90189  0.95152  0.24721  1.0000
  O  Te5       1.0  0.85123  0.94063  0.28562  1.0000
  O  Te6       1.0  0.88755  0.87444  0.97359  1.0000
  O  Te7       1.0  0.96394  0.90827  0.02583  1.0000
  O  Te8       1.0  0.89649  0.97847  0.33793  1.0000
  Mg  Mg3       1.0  0.92941  0.87336  0.91086  1.0000
  Mg  Mg4       1.0  0.85465  0.97957  0.40080  1.0000
  C  Sn9       1.0  0.88610  0.07775  0.30545  1.0000
  C   C133      1.0  0.89221  0.10310  0.20703  1.0000
  C  Sn10      1.0  0.91573  0.10365  0.07314  1.0000
  C  Sn11      1.0  0.93351  0.07833  0.03678  1.0000
  C   C134      1.0  0.92740  0.05300  0.13514  1.0000
  C  Sn12      1.0  0.90388  0.05244  0.26909  1.0000
  O  Te9       1.0  0.86247  0.07770  0.43868  1.0000
  O  Te10      1.0  0.89031  0.13326  0.97656  1.0000
  O  Te11      1.0  0.92605  0.08242  0.90342  1.0000
  O  Te12      1.0  0.89819  0.02686  0.36560  1.0000
  Mg  Mg5       1.0  0.92497  0.12252  0.80829  1.0000
  Mg  Mg6       1.0  0.86353  0.03756  0.53384  1.0000
  C  Sn13      1.0  0.10897  0.05373  0.27659  1.0000
  C   C135      1.0  0.08085  0.05119  0.36162  1.0000
  C  Sn14      1.0  0.06570  0.07627  0.43376  1.0000
  C  Sn15      1.0  0.07892  0.10448  0.42055  1.0000
  C   C136      1.0  0.10702  0.10701  0.33554  1.0000
  C  Sn16      1.0  0.12219  0.08194  0.26338  1.0000
  O  Te13      1.0  0.12372  0.02835  0.20543  1.0000
  O  Te14      1.0  0.03761  0.07318  0.51820  1.0000
  O  Te15      1.0  0.06415  0.12986  0.49181  1.0000
  O  Te16      1.0  0.15026  0.08502  0.17896  1.0000
  Mg  Mg7       1.0  0.02635  0.11430  0.59407  1.0000
  Mg  Mg8       1.0  0.16154  0.04392  0.10297  1.0000
  C  Sn17      1.0  0.17978  0.80074  0.18003  1.0000
  C   C137      1.0  0.20671  0.80031  0.22230  1.0000
  C  Sn18      1.0  0.21550  0.82359  0.31905  1.0000
  C  Sn19      1.0  0.19698  0.84780  0.37482  1.0000
  C   C138      1.0  0.17006  0.84822  0.33258  1.0000
  C  Sn20      1.0  0.16126  0.82495  0.23580  1.0000
  O  Te17      1.0  0.17144  0.77722  0.08319  1.0000
  O  Te18      1.0  0.24253  0.82267  0.35966  1.0000
  O  Te19      1.0  0.20534  0.87133  0.47172  1.0000
  O  Te20      1.0  0.13425  0.82586  0.19521  1.0000
  Mg  Mg9       1.0  0.24419  0.85995  0.49452  1.0000
  Mg  Mg10      1.0  0.13256  0.78859  0.06045  1.0000
  C  Sn21      1.0  0.79090  0.84935  0.21935  1.0000
  C   C139      1.0  0.81832  0.85028  0.25418  1.0000
  C  Sn22      1.0  0.83339  0.82406  0.26247  1.0000
  C  Sn23      1.0  0.82080  0.79633  0.23527  1.0000
  C   C140      1.0  0.79339  0.79540  0.20044  1.0000
  C  Sn24      1.0  0.77830  0.82162  0.19216  1.0000
  O  Te21      1.0  0.77623  0.87585  0.21166  1.0000
  O  Te22      1.0  0.86078  0.82556  0.29754  1.0000
  O  Te23      1.0  0.83550  0.76982  0.24299  1.0000
  O  Te24      1.0  0.75094  0.82013  0.15708  1.0000
  Mg  Mg11      1.0  0.87223  0.78336  0.29468  1.0000
  Mg  Mg12      1.0  0.73947  0.86231  0.15982  1.0000
  C  Sn25      1.0  0.78288  0.16635  0.21644  1.0000
  C   C141      1.0  0.78756  0.19570  0.26412  1.0000
  C  Sn26      1.0  0.81484  0.20530  0.27459  1.0000
  C  Sn27      1.0  0.83792  0.18515  0.23651  1.0000
  C   C142      1.0  0.83323  0.15582  0.18884  1.0000
  C  Sn28      1.0  0.80596  0.14620  0.17836  1.0000
  O  Te25      1.0  0.75544  0.15724  0.20680  1.0000
  O  Te26      1.0  0.81899  0.23475  0.32259  1.0000
  O  Te27      1.0  0.86537  0.19429  0.24619  1.0000
  O  Te28      1.0  0.80180  0.11677  0.13037  1.0000
  Mg  Mg13      1.0  0.86029  0.23661  0.31732  1.0000
  Mg  Mg14      1.0  0.76052  0.11489  0.13550  1.0000
  C  Sn29      1.0  0.20192  0.15422  0.37163  1.0000
  C   C143      1.0  0.17529  0.15268  0.32550  1.0000
  C  Sn30      1.0  0.16623  0.17511  0.22953  1.0000
  C  Sn31      1.0  0.18418  0.19959  0.17850  1.0000
  C   C144      1.0  0.21080  0.20112  0.22459  1.0000
  C  Sn32      1.0  0.21987  0.17870  0.32059  1.0000
  O  Te29      1.0  0.21053  0.13154  0.46760  1.0000
  O  Te30      1.0  0.13951  0.17309  0.18500  1.0000
  O  Te31      1.0  0.17554  0.22227  0.08245  1.0000
  O  Te32      1.0  0.24657  0.18071  0.36508  1.0000
  Mg  Mg15      1.0  0.13730  0.20952  0.05316  1.0000
  Mg  Mg16      1.0  0.24881  0.14429  0.49684  1.0000
  C  Sn33      1.0  0.28281  0.66328  0.19067  1.0000
  C   C145      1.0  0.28648  0.69284  0.23872  1.0000
  C  Sn34      1.0  0.31347  0.70362  0.24661  1.0000
  C  Sn35      1.0  0.33729  0.68448  0.20552  1.0000
  C   C146      1.0  0.33361  0.65494  0.15748  1.0000
  C  Sn36      1.0  0.30663  0.64414  0.14958  1.0000
  O  Te33      1.0  0.25564  0.65298  0.18364  1.0000
  O  Te34      1.0  0.31661  0.73325  0.29504  1.0000
  O  Te35      1.0  0.36447  0.69481  0.21259  1.0000
  O  Te36      1.0  0.30348  0.61453  0.10116  1.0000
  Mg  Mg17      1.0  0.35792  0.73690  0.28550  1.0000
  Mg  Mg18      1.0  0.26219  0.61086  0.11057  1.0000
  C  Sn37      1.0  0.71855  0.66232  0.30555  1.0000
  C   C147      1.0  0.71476  0.69138  0.25623  1.0000
  C  Sn38      1.0  0.68777  0.70175  0.24630  1.0000
  C  Sn39      1.0  0.66406  0.68269  0.28660  1.0000
  C   C148      1.0  0.66786  0.65366  0.33591  1.0000
  C  Sn40      1.0  0.69484  0.64326  0.34585  1.0000
  O  Te37      1.0  0.74573  0.65242  0.31461  1.0000
  O  Te38      1.0  0.68451  0.73088  0.19663  1.0000
  O  Te39      1.0  0.63687  0.69262  0.27750  1.0000
  O  Te40      1.0  0.69811  0.61415  0.39551  1.0000
  Mg  Mg19      1.0  0.64324  0.73411  0.20350  1.0000
  Mg  Mg20      1.0  0.73936  0.61091  0.38877  1.0000
  C  Sn41      1.0  0.68178  0.30301  0.20146  1.0000
  C   C149      1.0  0.70812  0.30289  0.25167  1.0000
  C  Sn42      1.0  0.71555  0.32586  0.35589  1.0000
  C  Sn43      1.0  0.69623  0.34943  0.41117  1.0000
  C   C150      1.0  0.66990  0.34954  0.36099  1.0000
  C  Sn44      1.0  0.66246  0.32658  0.25674  1.0000
  O  Te41      1.0  0.67480  0.27981  0.09724  1.0000
  O  Te42      1.0  0.74201  0.32526  0.40438  1.0000
  O  Te43      1.0  0.70322  0.37263  0.51547  1.0000
  O  Te44      1.0  0.63601  0.32717  0.20829  1.0000
  Mg  Mg21      1.0  0.74176  0.36189  0.54748  1.0000
  Mg  Mg22      1.0  0.63623  0.29054  0.06527  1.0000
  C  Sn45      1.0  0.29158  0.35103  0.19734  1.0000
  C   C151      1.0  0.31900  0.35103  0.23233  1.0000
  C  Sn46      1.0  0.33324  0.32430  0.24155  1.0000
  C  Sn47      1.0  0.31980  0.29702  0.21514  1.0000
  C   C152      1.0  0.29240  0.29703  0.18015  1.0000
  C  Sn48      1.0  0.27814  0.32375  0.17093  1.0000
  O  Te45      1.0  0.27774  0.37801  0.18871  1.0000
  O  Te46      1.0  0.36064  0.32486  0.27676  1.0000
  O  Te47      1.0  0.33367  0.27003  0.22380  1.0000
  O  Te48      1.0  0.25076  0.32320  0.13571  1.0000
  Mg  Mg23      1.0  0.37078  0.28230  0.27531  1.0000
  Mg  Mg24      1.0  0.24061  0.36574  0.13705  1.0000
  C  Sn49      1.0  0.39626  0.43813  0.29662  1.0000
  C   C153      1.0  0.42400  0.44196  0.20796  1.0000
  C  Sn50      1.0  0.43485  0.42390  0.06500  1.0000
  C  Sn51      1.0  0.41759  0.40156  0.00942  1.0000
  C   C154      1.0  0.38986  0.39774  0.09804  1.0000
  C  Sn52      1.0  0.37900  0.41579  0.24103  1.0000
  O  Te49      1.0  0.38585  0.45644  0.43919  1.0000
  O  Te50      1.0  0.43155  0.43215  0.97848  1.0000
  O  Te51      1.0  0.39691  0.38725  0.86673  1.0000
  O  Te52      1.0  0.35121  0.41156  0.32751  1.0000
  Mg  Mg25      1.0  0.43611  0.40164  0.79130  1.0000
  Mg  Mg26      1.0  0.34663  0.44206  0.51464  1.0000
  C  Sn53      1.0  0.60360  0.43740  0.20530  1.0000
  C   C155      1.0  0.57549  0.44178  0.28765  1.0000
  C  Sn54      1.0  0.56365  0.42448  0.42702  1.0000
  C  Sn55      1.0  0.58028  0.40234  0.48539  1.0000
  C   C156      1.0  0.60837  0.39797  0.40308  1.0000
  C  Sn56      1.0  0.62022  0.41526  0.26367  1.0000
  O  Te53      1.0  0.61499  0.45497  0.06623  1.0000
  O  Te54      1.0  0.53550  0.42926  0.50724  1.0000
  O  Te55      1.0  0.56886  0.38477  0.62458  1.0000
  O  Te56      1.0  0.64836  0.41049  0.18349  1.0000
  Mg  Mg27      1.0  0.52953  0.39969  0.69160  1.0000
  Mg  Mg28      1.0  0.62325  0.44406  0.99919  1.0000
  C  Sn57      1.0  0.57859  0.59588  0.49321  1.0000
  C   C157      1.0  0.60631  0.60006  0.40514  1.0000
  C  Sn58      1.0  0.61745  0.58212  0.26221  1.0000
  C  Sn59      1.0  0.60050  0.55953  0.20605  1.0000
  C   C158      1.0  0.57279  0.55536  0.29408  1.0000
  C  Sn60      1.0  0.56164  0.57330  0.43705  1.0000
  O  Te57      1.0  0.56789  0.61408  0.63576  1.0000
  O  Te58      1.0  0.64523  0.58671  0.17629  1.0000
  O  Te59      1.0  0.61122  0.54133  0.06338  1.0000
  O  Te60      1.0  0.53388  0.56871  0.52293  1.0000
  Mg  Mg29      1.0  0.61915  0.56024  0.98888  1.0000
  Mg  Mg30      1.0  0.52882  0.59919  0.71029  1.0000
  C  Sn61      1.0  0.39210  0.59976  0.99952  1.0000
  C   C159      1.0  0.39519  0.60044  0.08290  1.0000
  C  Sn62      1.0  0.38313  0.58284  0.22042  1.0000
  C  Sn63      1.0  0.39942  0.56008  0.27583  1.0000
  C   C160      1.0  0.42741  0.55539  0.19249  1.0000
  C  Sn64      1.0  0.43949  0.57299  0.05493  1.0000
  O  Te61      1.0  0.40372  0.61762  0.86234  1.0000
  O  Te62      1.0  0.35508  0.58794  0.30172  1.0000
  O  Te63      1.0  0.38777  0.54220  0.41313  1.0000
  O  Te64      1.0  0.43642  0.57190  0.97367  1.0000
  Mg  Mg31      1.0  0.34871  0.55777  0.48265  1.0000
  Mg  Mg32      1.0  0.44282  0.60207  0.79279  1.0000
  C  Sn65      1.0  0.11839  0.93098  0.79046  1.0000
  C   C161      1.0  0.11209  0.90448  0.87747  1.0000
  C  Sn66      1.0  0.08397  0.89650  0.93889  1.0000
  C  Sn67      1.0  0.06169  0.91540  0.91271  1.0000
  C   C162      1.0  0.06800  0.94188  0.82572  1.0000
  C  Sn68      1.0  0.09611  0.94988  0.76428  1.0000
  O  Te65      1.0  0.14665  0.93852  0.73016  1.0000
  O  Te66      1.0  0.10930  0.86588  0.02556  1.0000
  O  Te67      1.0  0.03342  0.90784  0.97310  1.0000
  O  Te68      1.0  0.10189  0.97647  0.67764  1.0000
  Mg  Mg33      1.0  0.06741  0.86530  0.08344  1.0000
  Mg  Mg34      1.0  0.14377  0.97707  0.61962  1.0000
  C  Sn69      1.0  0.92570  0.89718  0.58595  1.0000
  C   C163      1.0  0.89756  0.89380  0.66892  1.0000
  C  Sn70      1.0  0.88179  0.91833  0.74375  1.0000
  C  Sn71      1.0  0.89441  0.94684  0.73539  1.0000
  C   C164      1.0  0.92253  0.95021  0.65244  1.0000
  C  Sn72      1.0  0.93831  0.92569  0.57759  1.0000
  O  Te69      1.0  0.94106  0.87235  0.51202  1.0000
  O  Te70      1.0  0.85370  0.91439  0.82605  1.0000
  O  Te71      1.0  0.87902  0.97168  0.80941  1.0000
  O  Te72      1.0  0.96638  0.92962  0.49531  1.0000
  Mg  Mg35      1.0  0.84147  0.95502  0.90715  1.0000
  Mg  Mg36      1.0  0.97863  0.88901  0.41409  1.0000
  C  Sn73      1.0  0.93682  0.08934  0.61165  1.0000
  C   C165      1.0  0.93020  0.06263  0.69607  1.0000
  C  Sn74      1.0  0.90199  0.05489  0.75635  1.0000
  C  Sn75      1.0  0.87993  0.07422  0.73165  1.0000
  C   C166      1.0  0.88656  0.10090  0.64725  1.0000
  C  Sn76      1.0  0.91476  0.10867  0.58695  1.0000
  O  Te73      1.0  0.96517  0.09663  0.55244  1.0000
  O  Te74      1.0  0.89589  0.02808  0.84042  1.0000
  O  Te75      1.0  0.85156  0.06690  0.79095  1.0000
  O  Te76      1.0  0.92086  0.13545  0.50290  1.0000
  Mg  Mg37      1.0  0.85399  0.02796  0.89768  1.0000
  Mg  Mg38      1.0  0.96276  0.13559  0.44551  1.0000
  C  Sn77      1.0  0.07957  0.09579  0.99364  1.0000
  C   C167      1.0  0.10698  0.09941  0.89941  1.0000
  C  Sn78      1.0  0.11724  0.08064  0.75864  1.0000
  C  Sn79      1.0  0.09974  0.05778  0.71098  1.0000
  C   C168      1.0  0.07235  0.05418  0.80517  1.0000
  C  Sn80      1.0  0.06207  0.07294  0.94599  1.0000
  O  Te77      1.0  0.10086  0.11080  0.13390  1.0000
  O  Te78      1.0  0.14472  0.08468  0.66644  1.0000
  O  Te79      1.0  0.10959  0.03876  0.57060  1.0000
  O  Te80      1.0  0.06571  0.06490  0.03814  1.0000
  Mg  Mg39      1.0  0.14851  0.05314  0.48529  1.0000
  Mg  Mg40      1.0  0.06190  0.09643  0.21924  1.0000
  C  Sn81      1.0  0.21034  0.83133  0.89070  1.0000
  C   C169      1.0  0.20665  0.80237  0.83223  1.0000
  C  Sn82      1.0  0.18580  0.79610  0.73542  1.0000
  C  Sn83      1.0  0.16830  0.81925  0.69612  1.0000
  C   C170      1.0  0.17200  0.84819  0.75455  1.0000
  C  Sn84      1.0  0.19284  0.85448  0.85140  1.0000
  O  Te81      1.0  0.23132  0.83709  0.98728  1.0000
  O  Te82      1.0  0.18250  0.76697  0.67844  1.0000
  O  Te83      1.0  0.14731  0.81346  0.59946  1.0000
  O  Te84      1.0  0.19614  0.88359  0.90834  1.0000
  Mg  Mg41      1.0  0.15100  0.77024  0.55090  1.0000
  Mg  Mg42      1.0  0.25875  0.87634  0.03580  1.0000
  C  Sn85      1.0  0.82002  0.80191  0.81992  1.0000
  C   C171      1.0  0.79329  0.80008  0.77539  1.0000
  C  Sn86      1.0  0.78403  0.82214  0.67778  1.0000
  C  Sn87      1.0  0.80188  0.84654  0.62344  1.0000
  C   C172      1.0  0.82860  0.84837  0.66793  1.0000
  C  Sn88      1.0  0.83787  0.82632  0.76557  1.0000
  O  Te85      1.0  0.82884  0.77960  0.91758  1.0000
  O  Te86      1.0  0.75721  0.81982  0.63491  1.0000
  O  Te87      1.0  0.79304  0.86886  0.52571  1.0000
  O  Te88      1.0  0.86467  0.82862  0.80842  1.0000
  Mg  Mg43      1.0  0.75472  0.85579  0.49972  1.0000
  Mg  Mg44      1.0  0.86719  0.79266  0.94352  1.0000
  C  Sn89      1.0  0.83116  0.18670  0.81614  1.0000
  C   C173      1.0  0.82670  0.15747  0.76522  1.0000
  C  Sn90      1.0  0.80504  0.15082  0.67525  1.0000
  C  Sn91      1.0  0.78748  0.17387  0.63522  1.0000
  C   C174      1.0  0.79195  0.20308  0.68611  1.0000
  C  Sn92      1.0  0.81360  0.20975  0.77612  1.0000
  O  Te89      1.0  0.85294  0.19284  0.90597  1.0000
  O  Te90      1.0  0.80098  0.12143  0.62575  1.0000
  O  Te91      1.0  0.76569  0.16771  0.54533  1.0000
  O  Te92      1.0  0.81767  0.23913  0.82558  1.0000
  Mg  Mg45      1.0  0.76853  0.12422  0.50565  1.0000
  Mg  Mg46      1.0  0.85012  0.23636  0.94560  1.0000
  C  Sn93      1.0  0.20208  0.15291  0.87008  1.0000
  C   C175      1.0  0.17508  0.15207  0.82878  1.0000
  C  Sn94      1.0  0.16597  0.17489  0.73569  1.0000
  C  Sn95      1.0  0.18424  0.19903  0.68267  1.0000
  C   C176      1.0  0.21122  0.19986  0.72395  1.0000
  C  Sn96      1.0  0.22034  0.17706  0.81707  1.0000
  O  Te93      1.0  0.21075  0.12986  0.96324  1.0000
  O  Te94      1.0  0.13889  0.17356  0.69597  1.0000
  O  Te95      1.0  0.17555  0.22209  0.58945  1.0000
  O  Te96      1.0  0.24742  0.17837  0.85676  1.0000
  Mg  Mg47      1.0  0.13675  0.21028  0.56651  1.0000
  Mg  Mg48      1.0  0.24958  0.14166  0.98613  1.0000
  C  Sn97      1.0  0.29987  0.65317  0.58551  1.0000
  C   C177      1.0  0.32649  0.65312  0.63212  1.0000
  C  Sn98      1.0  0.33447  0.67641  0.73205  1.0000
  C  Sn99      1.0  0.31544  0.70025  0.78664  1.0000
  C   C178      1.0  0.28883  0.70030  0.74005  1.0000
  C  Sn100     1.0  0.28084  0.67702  0.64009  1.0000
  O  Te97      1.0  0.29234  0.62966  0.48554  1.0000
  O  Te98      1.0  0.36120  0.67587  0.77699  1.0000
  O  Te99      1.0  0.32299  0.72378  0.88667  1.0000
  O  Te100     1.0  0.25412  0.67755  0.59518  1.0000
  Mg  Mg49      1.0  0.36172  0.71299  0.91492  1.0000
  Mg  Mg50      1.0  0.25358  0.64044  0.45734  1.0000
  C  Sn101     1.0  0.67087  0.68303  0.71054  1.0000
  C   C179      1.0  0.67421  0.65422  0.76517  1.0000
  C  Sn102     1.0  0.69594  0.64762  0.85321  1.0000
  C  Sn103     1.0  0.71472  0.67030  0.88745  1.0000
  C   C180      1.0  0.71138  0.69909  0.83286  1.0000
  C  Sn104     1.0  0.68966  0.70571  0.74479  1.0000
  O  Te101     1.0  0.64900  0.68911  0.62275  1.0000
  O  Te102     1.0  0.69886  0.61865  0.90649  1.0000
  O  Te103     1.0  0.73661  0.66419  0.97532  1.0000
  O  Te104     1.0  0.68673  0.73466  0.69154  1.0000
  Mg  Mg51      1.0  0.76304  0.61734  0.02180  1.0000
  Mg  Mg52      1.0  0.65366  0.73199  0.57631  1.0000
  C  Sn105     1.0  0.66427  0.31240  0.80527  1.0000
  C   C181      1.0  0.66770  0.34197  0.85406  1.0000
  C  Sn106     1.0  0.69453  0.35285  0.86516  1.0000
  C  Sn107     1.0  0.71844  0.33378  0.82659  1.0000
  C   C182      1.0  0.71501  0.30424  0.77781  1.0000
  C  Sn108     1.0  0.68818  0.29334  0.76669  1.0000
  O  Te105     1.0  0.63725  0.30200  0.79501  1.0000
  O  Te106     1.0  0.69742  0.38248  0.91428  1.0000
  O  Te107     1.0  0.74547  0.34421  0.83689  1.0000
  O  Te108     1.0  0.68529  0.26372  0.71758  1.0000
  Mg  Mg53      1.0  0.73859  0.38628  0.90951  1.0000
  Mg  Mg54      1.0  0.64413  0.25990  0.72222  1.0000
  C  Sn109     1.0  0.31978  0.30082  0.80450  1.0000
  C   C183      1.0  0.29291  0.30035  0.76120  1.0000
  C  Sn110     1.0  0.28457  0.32289  0.66310  1.0000
  C  Sn111     1.0  0.30349  0.34637  0.60700  1.0000
  C   C184      1.0  0.33033  0.34683  0.65027  1.0000
  C  Sn112     1.0  0.33869  0.32431  0.74840  1.0000
  O  Te109     1.0  0.32767  0.27806  0.90268  1.0000
  O  Te110     1.0  0.25761  0.32194  0.62147  1.0000
  O  Te111     1.0  0.29558  0.36914  0.50875  1.0000
  O  Te112     1.0  0.36564  0.32524  0.79000  1.0000
  Mg  Mg55      1.0  0.25663  0.35804  0.48494  1.0000
  Mg  Mg56      1.0  0.36664  0.28915  0.92644  1.0000
  C  Sn113     1.0  0.43304  0.41614  0.50209  1.0000
  C   C185      1.0  0.42666  0.44289  0.59389  1.0000
  C  Sn114     1.0  0.40282  0.44522  0.72526  1.0000
  C  Sn115     1.0  0.38499  0.42028  0.76582  1.0000
  C   C186      1.0  0.39138  0.39355  0.67407  1.0000
  C  Sn116     1.0  0.41521  0.39121  0.54265  1.0000
  O  Te113     1.0  0.45699  0.41432  0.37128  1.0000
  O  Te114     1.0  0.39686  0.47220  0.81519  1.0000
  O  Te115     1.0  0.36103  0.42213  0.89675  1.0000
  O  Te116     1.0  0.42117  0.36425  0.45277  1.0000
  Mg  Mg57      1.0  0.36182  0.46364  0.98249  1.0000
  Mg  Mg58      1.0  0.45621  0.37277  0.28551  1.0000
  C  Sn117     1.0  0.57253  0.39760  0.91521  1.0000
  C   C187      1.0  0.60088  0.39379  0.83606  1.0000
  C  Sn118     1.0  0.61695  0.41799  0.76698  1.0000
  C  Sn119     1.0  0.60443  0.44659  0.77732  1.0000
  C   C188      1.0  0.57609  0.45039  0.85645  1.0000
  C  Sn120     1.0  0.56001  0.42621  0.92555  1.0000
  O  Te117     1.0  0.55687  0.37310  0.98340  1.0000
  O  Te118     1.0  0.64525  0.41362  0.68842  1.0000
  O  Te119     1.0  0.62011  0.47110  0.70904  1.0000
  O  Te120     1.0  0.56283  0.42655  0.00409  1.0000
  Mg  Mg59      1.0  0.65787  0.45391  0.61474  1.0000
  Mg  Mg60      1.0  0.55020  0.38628  0.07790  1.0000
  C  Sn121     1.0  0.60890  0.55481  0.77829  1.0000
  C   C189      1.0  0.58048  0.55170  0.85636  1.0000
  C  Sn122     1.0  0.56476  0.57633  0.93012  1.0000
  C  Sn123     1.0  0.57770  0.60466  0.92568  1.0000
  C   C190      1.0  0.60610  0.60775  0.84762  1.0000
  C  Sn124     1.0  0.62185  0.58313  0.77384  1.0000
  O  Te121     1.0  0.62422  0.52988  0.70535  1.0000
  O  Te122     1.0  0.56748  0.56866  0.00749  1.0000
  O  Te123     1.0  0.56236  0.62959  0.99871  1.0000
  O  Te124     1.0  0.65021  0.58678  0.69649  1.0000
  Mg  Mg61      1.0  0.55545  0.60932  0.08914  1.0000
  Mg  Mg62      1.0  0.66226  0.54615  0.61473  1.0000
  C  Sn125     1.0  0.43791  0.58866  0.58626  1.0000
  C   C191      1.0  0.43131  0.56226  0.67389  1.0000
  C  Sn126     1.0  0.40310  0.55452  0.73437  1.0000
  C  Sn127     1.0  0.38103  0.57357  0.70659  1.0000
  C   C192      1.0  0.38763  0.59995  0.61899  1.0000
  C  Sn128     1.0  0.41584  0.60770  0.55849  1.0000
  O  Te125     1.0  0.46626  0.59595  0.52693  1.0000
  O  Te126     1.0  0.39703  0.52802  0.82167  1.0000
  O  Te127     1.0  0.35266  0.56626  0.76602  1.0000
  O  Te128     1.0  0.42192  0.63419  0.47121  1.0000
  Mg  Mg63      1.0  0.35512  0.52778  0.87777  1.0000
  Mg  Mg64      1.0  0.46382  0.63444  0.41498  1.0000
