data_image0
_chemical_formula_structural       H104C224S8N32F16SnCSn2CSnTe4Mg2SnCSn2CSnTe4Mg2SnCSn2CSnTe4Mg2SnCSn2CSnTe4Mg2SnCSn2CSnTe4Mg2SnCSn2CSnTe4Mg2SnCSn2CSnTe4Mg2SnCSn2CSnTe4Mg2SnCSn2CSnTe4Mg2SnCSn2CSnTe4Mg2SnCSn2CSnTe4Mg2SnCSn2CSnTe4Mg2SnCSn2CSnTe4Mg2SnCSn2CSnTe4Mg2SnCSn2CSnTe4Mg2SnCSn2CSnTe4Mg2
_chemical_formula_sum              "H104 C256 S8 N32 F16 Sn64 Te64 Mg32"
_cell_length_a       48.1754
_cell_length_b       45.0302
_cell_length_c       7.89559
_cell_angle_alpha    89.1392
_cell_angle_beta     79.7856
_cell_angle_gamma    90.0991

_symmetry_space_group_name_H-M    'P1'
_space_group_IT_number       1

loop_
  _space_group_symop_operation_xyz
  'x, y, z'

loop_
  _atom_site_type_symbol
  _atom_site_label
  _atom_site_symmetry_multiplicity
  _atom_site_fract_x
  _atom_site_fract_y
  _atom_site_fract_z
  _atom_site_occupancy
  H   H1        1.0  0.89095  0.96662  0.34090  1.0000
  H   H2        1.0  0.10838  0.03499  0.18327  1.0000
  H   H3        1.0  0.85882  0.92404  0.32028  1.0000
  H   H4        1.0  0.14114  0.07708  0.20314  1.0000
  H   H5        1.0  0.07204  0.87380  0.02350  1.0000
  H   H6        1.0  0.04069  0.91706  0.01363  1.0000
  H   H7        1.0  0.82293  0.77656  0.30466  1.0000
  H   H8        1.0  0.17795  0.22341  0.19244  1.0000
  H   H9        1.0  0.85533  0.81961  0.29414  1.0000
  H   H10       1.0  0.14523  0.18033  0.21096  1.0000
  H   H11       1.0  0.79427  0.87564  0.11252  1.0000
  H   H12       1.0  0.20596  0.12513  0.40079  1.0000
  H   H13       1.0  0.76207  0.83250  0.11910  1.0000
  H   H14       1.0  0.23871  0.16828  0.38515  1.0000
  H   H15       1.0  0.67804  0.72392  0.15561  1.0000
  H   H16       1.0  0.32309  0.27607  0.30494  1.0000
  H   H17       1.0  0.64490  0.68145  0.18420  1.0000
  H   H18       1.0  0.35563  0.31919  0.28083  1.0000
  H   H19       1.0  0.70415  0.62770  0.39808  1.0000
  H   H20       1.0  0.29453  0.37325  0.08630  1.0000
  H   H21       1.0  0.73748  0.67043  0.37176  1.0000
  H   H22       1.0  0.26183  0.32996  0.10954  1.0000
  H   H23       1.0  0.11799  0.85167  0.42309  1.0000
  H   H24       1.0  0.88026  0.85553  0.05920  1.0000
  H   H25       1.0  0.87852  0.15044  0.09974  1.0000
  H   H26       1.0  0.12034  0.14744  0.44229  1.0000
  H   H27       1.0  0.42652  0.37722  0.46379  1.0000
  H   H28       1.0  0.42701  0.62344  0.47254  1.0000
  H   H29       1.0  0.63997  0.57801  0.18630  1.0000
  H   H30       1.0  0.60762  0.53551  0.17141  1.0000
  H   H31       1.0  0.38087  0.35294  0.05183  1.0000
  H   H32       1.0  0.61726  0.35135  0.41886  1.0000
  H   H33       1.0  0.61861  0.64913  0.41807  1.0000
  H   H34       1.0  0.38265  0.65113  0.06950  1.0000
  H   H35       1.0  0.52289  0.57620  0.28031  1.0000
  H   H36       1.0  0.47611  0.57632  0.20415  1.0000
  H   H37       1.0  0.47607  0.42529  0.20286  1.0000
  H   H38       1.0  0.52303  0.42516  0.27573  1.0000
  H   H39       1.0  0.02300  0.92579  0.28122  1.0000
  H   H40       1.0  0.97588  0.92661  0.20823  1.0000
  H   H41       1.0  0.97645  0.07761  0.23037  1.0000
  H   H42       1.0  0.02364  0.07668  0.30130  1.0000
  H   H43       1.0  0.45776  0.42028  0.47965  1.0000
  H   H44       1.0  0.45789  0.57974  0.48302  1.0000
  H   H45       1.0  0.08909  0.99969  0.38529  1.0000
  H   H46       1.0  0.90948  0.00323  0.13847  1.0000
  H   H47       1.0  0.40997  0.50111  0.11235  1.0000
  H   H48       1.0  0.58829  0.50038  0.38066  1.0000
  H   H49       1.0  0.10727  0.96312  0.67644  1.0000
  H   H50       1.0  0.13908  0.92005  0.69165  1.0000
  H   H51       1.0  0.92459  0.88174  0.96833  1.0000
  H   H52       1.0  0.07485  0.12246  0.53454  1.0000
  H   H53       1.0  0.95638  0.92437  0.98622  1.0000
  H   H54       1.0  0.04262  0.07994  0.52257  1.0000
  H   H55       1.0  0.82216  0.22486  0.83595  1.0000
  H   H56       1.0  0.17691  0.22195  0.69219  1.0000
  H   H57       1.0  0.85493  0.18229  0.82734  1.0000
  H   H58       1.0  0.14484  0.17833  0.70712  1.0000
  H   H59       1.0  0.79436  0.12599  0.64851  1.0000
  H   H60       1.0  0.20597  0.12398  0.89974  1.0000
  H   H61       1.0  0.76161  0.16871  0.65439  1.0000
  H   H62       1.0  0.23779  0.16783  0.89012  1.0000
  H   H63       1.0  0.32520  0.72700  0.79986  1.0000
  H   H64       1.0  0.67629  0.72701  0.68252  1.0000
  H   H65       1.0  0.67777  0.27593  0.67306  1.0000
  H   H66       1.0  0.32335  0.27245  0.78838  1.0000
  H   H67       1.0  0.35805  0.68437  0.78461  1.0000
  H   H68       1.0  0.64323  0.68437  0.69631  1.0000
  H   H69       1.0  0.64475  0.31829  0.69191  1.0000
  H   H70       1.0  0.35671  0.31488  0.76891  1.0000
  H   H71       1.0  0.29688  0.62856  0.60836  1.0000
  H   H72       1.0  0.70353  0.62775  0.87970  1.0000
  H   H73       1.0  0.70539  0.37359  0.87750  1.0000
  H   H74       1.0  0.29528  0.37188  0.59910  1.0000
  H   H75       1.0  0.26395  0.67131  0.62085  1.0000
  H   H76       1.0  0.73660  0.67050  0.86929  1.0000
  H   H77       1.0  0.73839  0.33087  0.86260  1.0000
  H   H78       1.0  0.26198  0.32918  0.61465  1.0000
  H   H79       1.0  0.11739  0.84894  0.93593  1.0000
  H   H80       1.0  0.88062  0.85259  0.57049  1.0000
  H   H81       1.0  0.88000  0.14873  0.60190  1.0000
  H   H82       1.0  0.12020  0.14477  0.93723  1.0000
  H   H83       1.0  0.57335  0.62376  0.51249  1.0000
  H   H84       1.0  0.35899  0.42089  0.79479  1.0000
  H   H85       1.0  0.36001  0.57873  0.81290  1.0000
  H   H86       1.0  0.39064  0.46381  0.81561  1.0000
  H   H87       1.0  0.39114  0.53502  0.82656  1.0000
  H   H88       1.0  0.38198  0.35112  0.54870  1.0000
  H   H89       1.0  0.61934  0.35120  0.92183  1.0000
  H   H90       1.0  0.61793  0.64824  0.92520  1.0000
  H   H91       1.0  0.38279  0.64919  0.56010  1.0000
  H   H92       1.0  0.52286  0.57498  0.78554  1.0000
  H   H93       1.0  0.47591  0.57503  0.71253  1.0000
  H   H94       1.0  0.47640  0.42405  0.70321  1.0000
  H   H95       1.0  0.52323  0.42396  0.77848  1.0000
  H   H96       1.0  0.02232  0.92309  0.78794  1.0000
  H   H97       1.0  0.97572  0.92422  0.70929  1.0000
  H   H98       1.0  0.97687  0.07518  0.73153  1.0000
  H   H99       1.0  0.02412  0.07404  0.80159  1.0000
  H   H100      1.0  0.54154  0.58077  0.50658  1.0000
  H   H101      1.0  0.08902  0.99704  0.88859  1.0000
  H   H102      1.0  0.91081  0.00133  0.62164  1.0000
  H   H103      1.0  0.41016  0.49991  0.61358  1.0000
  H   H104      1.0  0.58946  0.49923  0.86899  1.0000
  C   C1        1.0  0.02711  0.97348  0.29613  1.0000
  C   C2        1.0  0.97169  0.97453  0.21090  1.0000
  C   C3        1.0  0.97189  0.02982  0.21917  1.0000
  C   C4        1.0  0.02745  0.02871  0.30403  1.0000
  C   C5        1.0  0.01260  0.94687  0.26867  1.0000
  C   C6        1.0  0.98623  0.94737  0.22810  1.0000
  C   C7        1.0  0.98665  0.05644  0.24408  1.0000
  C   C8        1.0  0.01310  0.05591  0.28401  1.0000
  C   C9        1.0  0.05493  0.97317  0.33243  1.0000
  C   C10       1.0  0.94365  0.97526  0.17742  1.0000
  C   C11       1.0  0.94388  0.02999  0.18563  1.0000
  C   C12       1.0  0.05533  0.02784  0.34013  1.0000
  C   C13       1.0  0.92610  0.94867  0.16457  1.0000
  C   C14       1.0  0.07304  0.05430  0.35214  1.0000
  C   C15       1.0  0.89813  0.94822  0.25675  1.0000
  C   C16       1.0  0.10124  0.05386  0.26371  1.0000
  C   C17       1.0  0.88017  0.92448  0.24671  1.0000
  C   C18       1.0  0.11952  0.07730  0.27271  1.0000
  C   C19       1.0  0.88948  0.90001  0.14360  1.0000
  C   C20       1.0  0.11019  0.10247  0.36944  1.0000
  C   C21       1.0  0.91730  0.90019  0.05213  1.0000
  C   C22       1.0  0.08215  0.10330  0.45665  1.0000
  C   C23       1.0  0.93530  0.92409  0.06272  1.0000
  C   C24       1.0  0.06389  0.07951  0.44863  1.0000
  C   C25       1.0  0.25693  0.77881  0.19219  1.0000
  C   C26       1.0  0.74218  0.77788  0.28299  1.0000
  C   C27       1.0  0.74067  0.22365  0.32018  1.0000
  C   C28       1.0  0.25776  0.22235  0.19112  1.0000
  C   C29       1.0  0.27678  0.75520  0.17789  1.0000
  C   C30       1.0  0.72289  0.75378  0.29124  1.0000
  C   C31       1.0  0.72102  0.24732  0.32646  1.0000
  C   C32       1.0  0.27688  0.24674  0.17181  1.0000
  C   C33       1.0  0.27048  0.72670  0.24087  1.0000
  C   C34       1.0  0.73042  0.72520  0.24091  1.0000
  C   C35       1.0  0.72801  0.27553  0.26082  1.0000
  C   C36       1.0  0.27003  0.27495  0.23191  1.0000
  C   C37       1.0  0.24194  0.72285  0.32780  1.0000
  C   C38       1.0  0.75964  0.72229  0.16595  1.0000
  C   C39       1.0  0.75680  0.27880  0.17707  1.0000
  C   C40       1.0  0.24163  0.27773  0.32168  1.0000
  C   C41       1.0  0.22162  0.74696  0.34291  1.0000
  C   C42       1.0  0.77937  0.74709  0.15413  1.0000
  C   C43       1.0  0.77686  0.25454  0.16879  1.0000
  C   C44       1.0  0.22202  0.25282  0.34219  1.0000
  C   C45       1.0  0.22906  0.77595  0.27200  1.0000
  C   C46       1.0  0.77078  0.77593  0.21809  1.0000
  C   C47       1.0  0.76881  0.22598  0.24433  1.0000
  C   C48       1.0  0.23002  0.22421  0.27350  1.0000
  C   C49       1.0  0.79029  0.80131  0.21051  1.0000
  C   C50       1.0  0.21041  0.19888  0.28934  1.0000
  C   C51       1.0  0.71027  0.70020  0.26028  1.0000
  C   C52       1.0  0.29016  0.29998  0.20893  1.0000
  C   C53       1.0  0.81696  0.79797  0.25725  1.0000
  C   C54       1.0  0.18374  0.20218  0.24318  1.0000
  C   C55       1.0  0.83524  0.82212  0.25062  1.0000
  C   C56       1.0  0.16540  0.17810  0.25369  1.0000
  C   C57       1.0  0.82733  0.85038  0.19741  1.0000
  C   C58       1.0  0.17329  0.15014  0.31102  1.0000
  C   C59       1.0  0.80042  0.85386  0.15388  1.0000
  C   C60       1.0  0.20011  0.14676  0.35553  1.0000
  C   C61       1.0  0.78241  0.82966  0.15843  1.0000
  C   C62       1.0  0.21829  0.17090  0.34638  1.0000
  C   C63       1.0  0.68369  0.70313  0.21194  1.0000
  C   C64       1.0  0.31706  0.29707  0.25264  1.0000
  C   C65       1.0  0.66491  0.67930  0.22889  1.0000
  C   C66       1.0  0.33546  0.32121  0.23783  1.0000
  C   C67       1.0  0.67221  0.65173  0.29469  1.0000
  C   C68       1.0  0.32747  0.34900  0.17837  1.0000
  C   C69       1.0  0.69877  0.64880  0.34381  1.0000
  C   C70       1.0  0.30056  0.35187  0.13398  1.0000
  C   C71       1.0  0.71738  0.67271  0.32835  1.0000
  C   C72       1.0  0.28231  0.32769  0.14780  1.0000
  C   C73       1.0  0.12759  0.87217  0.36054  1.0000
  C   C74       1.0  0.87076  0.87488  0.13093  1.0000
  C   C75       1.0  0.86973  0.13006  0.16776  1.0000
  C   C76       1.0  0.12940  0.12720  0.37837  1.0000
  C   C77       1.0  0.44400  0.52830  0.16129  1.0000
  C   C78       1.0  0.55462  0.52799  0.32855  1.0000
  C   C79       1.0  0.55468  0.47323  0.32595  1.0000
  C   C80       1.0  0.44394  0.47352  0.16014  1.0000
  C   C81       1.0  0.47180  0.52846  0.19838  1.0000
  C   C82       1.0  0.52693  0.52830  0.28930  1.0000
  C   C83       1.0  0.52699  0.47302  0.28694  1.0000
  C   C84       1.0  0.47176  0.47318  0.19741  1.0000
  C   C85       1.0  0.48632  0.55532  0.22166  1.0000
  C   C86       1.0  0.51255  0.55525  0.26459  1.0000
  C   C87       1.0  0.51264  0.44618  0.26120  1.0000
  C   C88       1.0  0.48633  0.44624  0.21966  1.0000
  C   C89       1.0  0.57210  0.55478  0.33878  1.0000
  C   C90       1.0  0.56280  0.58028  0.43234  1.0000
  C   C91       1.0  0.58088  0.60437  0.43738  1.0000
  C   C92       1.0  0.60901  0.60365  0.35097  1.0000
  C   C93       1.0  0.61841  0.57826  0.25658  1.0000
  C   C94       1.0  0.60030  0.55452  0.25016  1.0000
  C   C95       1.0  0.37116  0.37292  0.11566  1.0000
  C   C96       1.0  0.62677  0.37186  0.35634  1.0000
  C   C97       1.0  0.62808  0.62867  0.35903  1.0000
  C   C98       1.0  0.37289  0.63078  0.13312  1.0000
  C   C99       1.0  0.01337  0.00138  0.27942  1.0000
  C   C100      1.0  0.98568  0.00192  0.23561  1.0000
  C   C101      1.0  0.06803  0.00020  0.35357  1.0000
  C   C102      1.0  0.93075  0.00284  0.16676  1.0000
  C   C103      1.0  0.48560  0.50077  0.21992  1.0000
  C   C104      1.0  0.51313  0.50070  0.26630  1.0000
  C   C105      1.0  0.43104  0.50099  0.14393  1.0000
  C   C106      1.0  0.56743  0.50053  0.34614  1.0000
  C   C107      1.0  0.02706  0.97085  0.79856  1.0000
  C   C108      1.0  0.97214  0.97221  0.70609  1.0000
  C   C109      1.0  0.97245  0.02746  0.71623  1.0000
  C   C110      1.0  0.02776  0.02610  0.80297  1.0000
  C   C111      1.0  0.01236  0.94430  0.77190  1.0000
  C   C112      1.0  0.98625  0.94494  0.72770  1.0000
  C   C113      1.0  0.98708  0.05399  0.74393  1.0000
  C   C114      1.0  0.01353  0.05335  0.78343  1.0000
  C   C115      1.0  0.05474  0.97047  0.83707  1.0000
  C   C116      1.0  0.94448  0.97315  0.66709  1.0000
  C   C117      1.0  0.94467  0.02784  0.67897  1.0000
  C   C118      1.0  0.05561  0.02515  0.83910  1.0000
  C   C119      1.0  0.07170  0.94336  0.84540  1.0000
  C   C120      1.0  0.09979  0.94374  0.75543  1.0000
  C   C121      1.0  0.11754  0.91979  0.76230  1.0000
  C   C122      1.0  0.10782  0.89423  0.85946  1.0000
  C   C123      1.0  0.07975  0.89335  0.94651  1.0000
  C   C124      1.0  0.06198  0.91758  0.93988  1.0000
  C   C125      1.0  0.25727  0.77793  0.67498  1.0000
  C   C126      1.0  0.74296  0.77793  0.81759  1.0000
  C   C127      1.0  0.74178  0.22339  0.82341  1.0000
  C   C128      1.0  0.25640  0.22109  0.68348  1.0000
  C   C129      1.0  0.27734  0.75464  0.66021  1.0000
  C   C130      1.0  0.72308  0.75428  0.82851  1.0000
  C   C131      1.0  0.72275  0.24754  0.82297  1.0000
  C   C132      1.0  0.27599  0.24513  0.65858  1.0000
  C   C133      1.0  0.27161  0.72642  0.72910  1.0000
  C   C134      1.0  0.72927  0.72644  0.76066  1.0000
  C   C135      1.0  0.73034  0.27546  0.75506  1.0000
  C   C136      1.0  0.26992  0.27315  0.72440  1.0000
  C   C137      1.0  0.24338  0.72255  0.82162  1.0000
  C   C138      1.0  0.75776  0.72329  0.67297  1.0000
  C   C139      1.0  0.75924  0.27805  0.67408  1.0000
  C   C140      1.0  0.24187  0.27631  0.81933  1.0000
  C   C141      1.0  0.22296  0.74649  0.83854  1.0000
  C   C142      1.0  0.77811  0.74742  0.66098  1.0000
  C   C143      1.0  0.77876  0.25341  0.67182  1.0000
  C   C144      1.0  0.22166  0.25194  0.84119  1.0000
  C   C145      1.0  0.22983  0.77516  0.76197  1.0000
  C   C146      1.0  0.77068  0.77572  0.73534  1.0000
  C   C147      1.0  0.77009  0.22508  0.74940  1.0000
  C   C148      1.0  0.22905  0.22327  0.77226  1.0000
  C   C149      1.0  0.78963  0.19984  0.74504  1.0000
  C   C150      1.0  0.20940  0.19788  0.79099  1.0000
  C   C151      1.0  0.29221  0.70204  0.71228  1.0000
  C   C152      1.0  0.70879  0.70176  0.77468  1.0000
  C   C153      1.0  0.71037  0.30039  0.76695  1.0000
  C   C154      1.0  0.29042  0.29784  0.70239  1.0000
  C   C155      1.0  0.81630  0.20346  0.79078  1.0000
  C   C156      1.0  0.18284  0.20078  0.74305  1.0000
  C   C157      1.0  0.83475  0.17958  0.78544  1.0000
  C   C158      1.0  0.16487  0.17638  0.75188  1.0000
  C   C159      1.0  0.82701  0.15139  0.73404  1.0000
  C   C160      1.0  0.17307  0.14849  0.80858  1.0000
  C   C161      1.0  0.80017  0.14768  0.69022  1.0000
  C   C162      1.0  0.19977  0.14555  0.85555  1.0000
  C   C163      1.0  0.78192  0.17162  0.69406  1.0000
  C   C164      1.0  0.21750  0.17005  0.84900  1.0000
  C   C165      1.0  0.31914  0.70569  0.75407  1.0000
  C   C166      1.0  0.68208  0.70548  0.72963  1.0000
  C   C167      1.0  0.68362  0.29702  0.72221  1.0000
  C   C168      1.0  0.31750  0.29399  0.74186  1.0000
  C   C169      1.0  0.33770  0.68181  0.74479  1.0000
  C   C170      1.0  0.66342  0.68157  0.73804  1.0000
  C   C171      1.0  0.66493  0.32075  0.73397  1.0000
  C   C172      1.0  0.33629  0.31780  0.73026  1.0000
  C   C173      1.0  0.32966  0.65369  0.69410  1.0000
  C   C174      1.0  0.67109  0.65323  0.79120  1.0000
  C   C175      1.0  0.67260  0.34860  0.79039  1.0000
  C   C176      1.0  0.32838  0.34619  0.67914  1.0000
  C   C177      1.0  0.30277  0.65017  0.65078  1.0000
  C   C178      1.0  0.69787  0.64956  0.83612  1.0000
  C   C179      1.0  0.69953  0.35208  0.83345  1.0000
  C   C180      1.0  0.30124  0.34996  0.63936  1.0000
  C   C181      1.0  0.28444  0.67403  0.65841  1.0000
  C   C182      1.0  0.71628  0.67347  0.82966  1.0000
  C   C183      1.0  0.71799  0.32825  0.82365  1.0000
  C   C184      1.0  0.28267  0.32614  0.64909  1.0000
  C   C185      1.0  0.12675  0.86933  0.87077  1.0000
  C   C186      1.0  0.87126  0.87296  0.63115  1.0000
  C   C187      1.0  0.87082  0.12841  0.66874  1.0000
  C   C188      1.0  0.12956  0.12476  0.87208  1.0000
  C   C189      1.0  0.44405  0.52707  0.66492  1.0000
  C   C190      1.0  0.55538  0.52681  0.82339  1.0000
  C   C191      1.0  0.55530  0.47198  0.82237  1.0000
  C   C192      1.0  0.44407  0.47226  0.66174  1.0000
  C   C193      1.0  0.47188  0.52722  0.70206  1.0000
  C   C194      1.0  0.52736  0.52709  0.78883  1.0000
  C   C195      1.0  0.52738  0.47179  0.78694  1.0000
  C   C196      1.0  0.47195  0.47194  0.69871  1.0000
  C   C197      1.0  0.48633  0.55404  0.72695  1.0000
  C   C198      1.0  0.51269  0.55401  0.76793  1.0000
  C   C199      1.0  0.51287  0.44496  0.76295  1.0000
  C   C200      1.0  0.48658  0.44502  0.72079  1.0000
  C   C201      1.0  0.42672  0.44540  0.64888  1.0000
  C   C202      1.0  0.42690  0.55413  0.65555  1.0000
  C   C203      1.0  0.43642  0.42031  0.55244  1.0000
  C   C204      1.0  0.43671  0.57963  0.55842  1.0000
  C   C205      1.0  0.41867  0.39612  0.54248  1.0000
  C   C206      1.0  0.41924  0.60413  0.55170  1.0000
  C   C207      1.0  0.39050  0.39611  0.62846  1.0000
  C   C208      1.0  0.39135  0.60394  0.64184  1.0000
  C   C209      1.0  0.38065  0.42110  0.72566  1.0000
  C   C210      1.0  0.38144  0.57857  0.74045  1.0000
  C   C211      1.0  0.39839  0.44507  0.73565  1.0000
  C   C212      1.0  0.39886  0.55424  0.74670  1.0000
  C   C213      1.0  0.37205  0.37068  0.61622  1.0000
  C   C214      1.0  0.62867  0.37153  0.85569  1.0000
  C   C215      1.0  0.62758  0.62867  0.85643  1.0000
  C   C216      1.0  0.37301  0.62943  0.63048  1.0000
  C   C217      1.0  0.01360  0.99881  0.77898  1.0000
  C   C218      1.0  0.98609  0.99950  0.73288  1.0000
  C   C219      1.0  0.06804  0.99751  0.85579  1.0000
  C   C220      1.0  0.93177  0.00081  0.65472  1.0000
  C   C221      1.0  0.48579  0.49953  0.72196  1.0000
  C   C222      1.0  0.51347  0.49948  0.76686  1.0000
  C   C223      1.0  0.43116  0.49976  0.64632  1.0000
  C   C224      1.0  0.56830  0.49934  0.83875  1.0000
  S   S1        1.0  0.80046  0.29588  0.01108  1.0000
  S   S2        1.0  0.19838  0.29398  0.49157  1.0000
  S   S3        1.0  0.19886  0.70479  0.49622  1.0000
  S   S4        1.0  0.80415  0.70571  0.01309  1.0000
  S   S5        1.0  0.80364  0.29396  0.51286  1.0000
  S   S6        1.0  0.19932  0.29355  0.99277  1.0000
  S   S7        1.0  0.20112  0.70482  0.00096  1.0000
  S   S8        1.0  0.80080  0.70668  0.50251  1.0000
  N   N1        1.0  0.15433  0.87427  0.30360  1.0000
  N   N2        1.0  0.84434  0.87552  0.19802  1.0000
  N   N3        1.0  0.84335  0.12787  0.23467  1.0000
  N   N4        1.0  0.15594  0.12520  0.31591  1.0000
  N   N5        1.0  0.65481  0.62671  0.30192  1.0000
  N   N6        1.0  0.34631  0.62923  0.19537  1.0000
  N   N7        1.0  0.34446  0.37427  0.17474  1.0000
  N   N8        1.0  0.65342  0.37383  0.29604  1.0000
  N   N9        1.0  0.80258  0.26160  0.07713  1.0000
  N   N10       1.0  0.19661  0.25933  0.43715  1.0000
  N   N11       1.0  0.19622  0.73936  0.43644  1.0000
  N   N12       1.0  0.80547  0.74031  0.06949  1.0000
  N   N13       1.0  0.76779  0.30358  0.09165  1.0000
  N   N14       1.0  0.23059  0.30249  0.40171  1.0000
  N   N15       1.0  0.23144  0.69765  0.41045  1.0000
  N   N16       1.0  0.77134  0.69746  0.09024  1.0000
  N   N17       1.0  0.15333  0.87154  0.80933  1.0000
  N   N18       1.0  0.84462  0.87490  0.69054  1.0000
  N   N19       1.0  0.84434  0.12650  0.73363  1.0000
  N   N20       1.0  0.15616  0.12323  0.81022  1.0000
  N   N21       1.0  0.65406  0.62805  0.79067  1.0000
  N   N22       1.0  0.34653  0.62852  0.69600  1.0000
  N   N23       1.0  0.34544  0.37134  0.67895  1.0000
  N   N24       1.0  0.65523  0.37347  0.79296  1.0000
  N   N25       1.0  0.80486  0.25988  0.58366  1.0000
  N   N26       1.0  0.19650  0.25907  0.93742  1.0000
  N   N27       1.0  0.19803  0.73915  0.93868  1.0000
  N   N28       1.0  0.80353  0.74064  0.56671  1.0000
  N   N29       1.0  0.77091  0.30241  0.58710  1.0000
  N   N30       1.0  0.23162  0.30120  0.90133  1.0000
  N   N31       1.0  0.23334  0.69756  0.90866  1.0000
  N   N32       1.0  0.76821  0.69884  0.58711  1.0000
  F   F1        1.0  0.26666  0.80501  0.11670  1.0000
  F   F2        1.0  0.73063  0.80357  0.35000  1.0000
  F   F3        1.0  0.73054  0.19794  0.40000  1.0000
  F   F4        1.0  0.26800  0.19661  0.11690  1.0000
  F   F5        1.0  0.30294  0.76191  0.09113  1.0000
  F   F6        1.0  0.69577  0.76036  0.35891  1.0000
  F   F7        1.0  0.69440  0.24108  0.40862  1.0000
  F   F8        1.0  0.30297  0.24106  0.08273  1.0000
  F   F9        1.0  0.26661  0.80363  0.59189  1.0000
  F   F10       1.0  0.73338  0.80331  0.89925  1.0000
  F   F11       1.0  0.73069  0.19824  0.90733  1.0000
  F   F12       1.0  0.26537  0.19507  0.60818  1.0000
  F   F13       1.0  0.30294  0.76178  0.56643  1.0000
  F   F14       1.0  0.69702  0.76039  0.91707  1.0000
  F   F15       1.0  0.69574  0.24244  0.90086  1.0000
  F   F16       1.0  0.30138  0.23957  0.55867  1.0000
  C  Sn1       1.0  0.56719  0.41771  0.47977  1.0000
  C   C225      1.0  0.57332  0.44442  0.38823  1.0000
  C  Sn2       1.0  0.59678  0.44669  0.25637  1.0000
  C  Sn3       1.0  0.61448  0.42174  0.21505  1.0000
  C   C226      1.0  0.60835  0.39505  0.30653  1.0000
  C  Sn4       1.0  0.58489  0.39276  0.43845  1.0000
  O  Te1       1.0  0.54362  0.41594  0.61109  1.0000
  O  Te2       1.0  0.60248  0.47363  0.16671  1.0000
  O  Te3       1.0  0.63806  0.42352  0.08361  1.0000
  O  Te4       1.0  0.57918  0.36584  0.52806  1.0000
  Mg  Mg1       1.0  0.60797  0.46232  0.99850  1.0000
  Mg  Mg2       1.0  0.54462  0.37443  0.69622  1.0000
  C  Sn5       1.0  0.42599  0.39778  0.07950  1.0000
  C   C227      1.0  0.39762  0.39458  0.15519  1.0000
  C  Sn6       1.0  0.38192  0.41923  0.22039  1.0000
  C  Sn7       1.0  0.39485  0.44768  0.20963  1.0000
  C   C228      1.0  0.42320  0.45087  0.13395  1.0000
  C  Sn8       1.0  0.43891  0.42623  0.06874  1.0000
  O  Te5       1.0  0.44127  0.37282  0.01517  1.0000
  O  Te6       1.0  0.35359  0.41548  0.29553  1.0000
  O  Te7       1.0  0.37953  0.47264  0.27405  1.0000
  O  Te8       1.0  0.43815  0.42729  0.99362  1.0000
  Mg  Mg3       1.0  0.34158  0.45622  0.36462  1.0000
  Mg  Mg4       1.0  0.45018  0.38657  0.92441  1.0000
  C  Sn9       1.0  0.88048  0.93313  0.70243  1.0000
  C   C229      1.0  0.88644  0.90655  0.61445  1.0000
  C  Sn10      1.0  0.91434  0.89826  0.55442  1.0000
  C  Sn11      1.0  0.93675  0.91692  0.58300  1.0000
  C   C230      1.0  0.93078  0.94348  0.67095  1.0000
  C  Sn12      1.0  0.90289  0.95179  0.73101  1.0000
  O  Te9       1.0  0.85243  0.94097  0.76132  1.0000
  O  Te10      1.0  0.91977  0.87159  0.46675  1.0000
  O  Te11      1.0  0.96481  0.90906  0.52402  1.0000
  O  Te12      1.0  0.89745  0.97844  0.81865  1.0000
  Mg  Mg5       1.0  0.96148  0.87055  0.41151  1.0000
  Mg  Mg6       1.0  0.85575  0.97949  0.87403  1.0000
  C  Sn13      1.0  0.70946  0.33204  0.38658  1.0000
  C   C231      1.0  0.70564  0.30342  0.32838  1.0000
  C  Sn14      1.0  0.68463  0.29775  0.23169  1.0000
  C  Sn15      1.0  0.66708  0.32118  0.19226  1.0000
  C   C232      1.0  0.67091  0.34978  0.25042  1.0000
  C  Sn16      1.0  0.69191  0.35547  0.34715  1.0000
  O  Te13      1.0  0.73060  0.33720  0.48304  1.0000
  O  Te14      1.0  0.68121  0.26895  0.17498  1.0000
  O  Te15      1.0  0.64593  0.31600  0.09572  1.0000
  O  Te16      1.0  0.69534  0.38425  0.40382  1.0000
  Mg  Mg7       1.0  0.64951  0.27304  0.04753  1.0000
  Mg  Mg8       1.0  0.72704  0.38020  0.53120  1.0000
  C  Sn17      1.0  0.91888  0.09863  0.03145  1.0000
  C   C233      1.0  0.89161  0.10200  0.12484  1.0000
  C  Sn18      1.0  0.88174  0.08334  0.26568  1.0000
  C  Sn19      1.0  0.89950  0.06087  0.31426  1.0000
  C   C234      1.0  0.92676  0.05751  0.22092  1.0000
  C  Sn20      1.0  0.93664  0.07615  0.08004  1.0000
  O  Te17      1.0  0.89924  0.11485  0.89112  1.0000
  O  Te18      1.0  0.85440  0.08713  0.35702  1.0000
  O  Te19      1.0  0.89005  0.04196  0.45473  1.0000
  O  Te20      1.0  0.93490  0.06969  0.98875  1.0000
  Mg  Mg9       1.0  0.85117  0.05589  0.53866  1.0000
  Mg  Mg10      1.0  0.93816  0.10093  0.80715  1.0000
  C  Sn21      1.0  0.77998  0.16422  0.23194  1.0000
  C   C235      1.0  0.78415  0.19362  0.27617  1.0000
  C  Sn22      1.0  0.81107  0.20375  0.28992  1.0000
  C  Sn23      1.0  0.83432  0.18409  0.25870  1.0000
  C   C236      1.0  0.83015  0.15470  0.21448  1.0000
  C  Sn24      1.0  0.80324  0.14455  0.20073  1.0000
  O  Te21      1.0  0.75289  0.15457  0.21893  1.0000
  O  Te22      1.0  0.81470  0.23324  0.33437  1.0000
  O  Te23      1.0  0.86143  0.19376  0.27176  1.0000
  O  Te24      1.0  0.79960  0.11509  0.15628  1.0000
  Mg  Mg11      1.0  0.85568  0.23592  0.33590  1.0000
  Mg  Mg12      1.0  0.75863  0.11239  0.15463  1.0000
  C  Sn25      1.0  0.88621  0.07487  0.81931  1.0000
  C   C237      1.0  0.89113  0.10158  0.72633  1.0000
  C  Sn26      1.0  0.91411  0.10445  0.59158  1.0000
  C  Sn27      1.0  0.93253  0.08011  0.54880  1.0000
  C   C238      1.0  0.92760  0.05342  0.64174  1.0000
  C  Sn28      1.0  0.90463  0.05053  0.77653  1.0000
  O  Te25      1.0  0.86311  0.07250  0.95351  1.0000
  O  Te26      1.0  0.91861  0.13139  0.50051  1.0000
  O  Te27      1.0  0.95564  0.08251  0.41448  1.0000
  O  Te28      1.0  0.90013  0.02361  0.86755  1.0000
  Mg  Mg13      1.0  0.95293  0.12372  0.32839  1.0000
  Mg  Mg14      1.0  0.89487  0.03394  0.03963  1.0000
  C  Sn29      1.0  0.11468  0.07276  0.71368  1.0000
  C   C239      1.0  0.10953  0.09848  0.81102  1.0000
  C  Sn30      1.0  0.08634  0.09994  0.94474  1.0000
  C  Sn31      1.0  0.06791  0.07519  0.98203  1.0000
  C   C240      1.0  0.07306  0.04949  0.88474  1.0000
  C  Sn32      1.0  0.09625  0.04801  0.75096  1.0000
  O  Te29      1.0  0.13799  0.07179  0.58060  1.0000
  O  Te30      1.0  0.11070  0.12858  0.04023  1.0000
  O  Te31      1.0  0.07366  0.07887  0.11523  1.0000
  O  Te32      1.0  0.10097  0.02207  0.65553  1.0000
  Mg  Mg15      1.0  0.07612  0.11914  0.20872  1.0000
  Mg  Mg16      1.0  0.13554  0.03149  0.48708  1.0000
  C  Sn33      1.0  0.16292  0.81010  0.79878  1.0000
  C   C241      1.0  0.16705  0.83943  0.84438  1.0000
  C  Sn34      1.0  0.19422  0.85020  0.84554  1.0000
  C  Sn35      1.0  0.21777  0.83125  0.80008  1.0000
  C   C242      1.0  0.21363  0.80193  0.75448  1.0000
  C  Sn36      1.0  0.18646  0.79115  0.75332  1.0000
  O  Te33      1.0  0.13556  0.79981  0.79850  1.0000
  O  Te34      1.0  0.19782  0.87960  0.89165  1.0000
  O  Te35      1.0  0.24514  0.84156  0.80040  1.0000
  O  Te36      1.0  0.18286  0.76176  0.70722  1.0000
  Mg  Mg17      1.0  0.23922  0.88332  0.87250  1.0000
  Mg  Mg18      1.0  0.14147  0.75803  0.72623  1.0000
  C  Sn37      1.0  0.60883  0.55446  0.77769  1.0000
  C   C243      1.0  0.58063  0.55091  0.85625  1.0000
  C  Sn38      1.0  0.56486  0.57535  0.92409  1.0000
  C  Sn39      1.0  0.57753  0.60393  0.91309  1.0000
  C   C244      1.0  0.60571  0.60746  0.83455  1.0000
  C  Sn40      1.0  0.62150  0.58304  0.76669  1.0000
  O  Te37      1.0  0.62419  0.52971  0.71075  1.0000
  O  Te38      1.0  0.56578  0.57394  0.00208  1.0000
  O  Te39      1.0  0.56214  0.62868  0.98013  1.0000
  O  Te40      1.0  0.64964  0.58712  0.68872  1.0000
  Mg  Mg19      1.0  0.55357  0.61450  0.07406  1.0000
  Mg  Mg20      1.0  0.66186  0.54659  0.61662  1.0000
  C  Sn41      1.0  0.39099  0.55618  0.21126  1.0000
  C   C245      1.0  0.41902  0.55274  0.13027  1.0000
  C  Sn42      1.0  0.43497  0.57736  0.06059  1.0000
  C  Sn43      1.0  0.42267  0.60602  0.07219  1.0000
  C   C246      1.0  0.39466  0.60944  0.15316  1.0000
  C  Sn44      1.0  0.37869  0.58483  0.22286  1.0000
  O  Te41      1.0  0.37544  0.53125  0.28002  1.0000
  O  Te42      1.0  0.43388  0.57068  0.98019  1.0000
  O  Te43      1.0  0.43825  0.63095  0.00334  1.0000
  O  Te44      1.0  0.35073  0.58881  0.30324  1.0000
  Mg  Mg21      1.0  0.44647  0.61147  0.90639  1.0000
  Mg  Mg22      1.0  0.33813  0.54804  0.37716  1.0000
  C  Sn45      1.0  0.32642  0.70449  0.22176  1.0000
  C   C247      1.0  0.29915  0.70481  0.18419  1.0000
  C  Sn46      1.0  0.28512  0.67821  0.16540  1.0000
  C  Sn47      1.0  0.29863  0.65072  0.18466  1.0000
  C   C248      1.0  0.32589  0.65041  0.22223  1.0000
  C  Sn48      1.0  0.33993  0.67700  0.24102  1.0000
  O  Te45      1.0  0.34005  0.73135  0.24000  1.0000
  O  Te46      1.0  0.25787  0.67909  0.12778  1.0000
  O  Te47      1.0  0.28499  0.62385  0.16638  1.0000
  O  Te48      1.0  0.36717  0.67613  0.27864  1.0000
  Mg  Mg23      1.0  0.24801  0.63658  0.11516  1.0000
  Mg  Mg24      1.0  0.37704  0.71862  0.29138  1.0000
  C  Sn49      1.0  0.20683  0.85119  0.30892  1.0000
  C   C249      1.0  0.18002  0.85187  0.26445  1.0000
  C  Sn50      1.0  0.16590  0.82546  0.24262  1.0000
  C  Sn51      1.0  0.17885  0.79779  0.26583  1.0000
  C   C250      1.0  0.20564  0.79712  0.31030  1.0000
  C  Sn52      1.0  0.21977  0.82352  0.33212  1.0000
  O  Te49      1.0  0.22055  0.87787  0.33008  1.0000
  O  Te50      1.0  0.13912  0.82671  0.19809  1.0000
  O  Te51      1.0  0.16510  0.77110  0.24462  1.0000
  O  Te52      1.0  0.24654  0.82228  0.37665  1.0000
  Mg  Mg25      1.0  0.12891  0.78433  0.18380  1.0000
  Mg  Mg26      1.0  0.25676  0.86464  0.39106  1.0000
  C  Sn53      1.0  0.57363  0.39600  0.90279  1.0000
  C   C251      1.0  0.60163  0.39307  0.82027  1.0000
  C  Sn54      1.0  0.61708  0.41795  0.74967  1.0000
  C  Sn55      1.0  0.60428  0.44636  0.76188  1.0000
  C   C252      1.0  0.57629  0.44929  0.84438  1.0000
  C  Sn56      1.0  0.56083  0.42441  0.91501  1.0000
  O  Te53      1.0  0.55858  0.37082  0.97246  1.0000
  O  Te54      1.0  0.64504  0.41446  0.66773  1.0000
  O  Te55      1.0  0.61935  0.47155  0.69212  1.0000
  O  Te56      1.0  0.53289  0.42789  0.99692  1.0000
  Mg  Mg27      1.0  0.65682  0.45544  0.59316  1.0000
  Mg  Mg28      1.0  0.55015  0.38962  0.07162  1.0000
  C  Sn57      1.0  0.10221  0.93837  0.19436  1.0000
  C   C253      1.0  0.07467  0.94192  0.28323  1.0000
  C  Sn58      1.0  0.06417  0.92354  0.42421  1.0000
  C  Sn59      1.0  0.08157  0.90115  0.47757  1.0000
  C   C254      1.0  0.10910  0.89762  0.38874  1.0000
  C  Sn60      1.0  0.11962  0.91599  0.24771  1.0000
  O  Te57      1.0  0.11227  0.95700  0.05378  1.0000
  O  Te58      1.0  0.03655  0.92750  0.51099  1.0000
  O  Te59      1.0  0.07148  0.88252  0.61826  1.0000
  O  Te60      1.0  0.14721  0.91203  0.16098  1.0000
  Mg  Mg29      1.0  0.03245  0.89661  0.69493  1.0000
  Mg  Mg30      1.0  0.12228  0.94023  0.97709  1.0000
  C  Sn61      1.0  0.78924  0.83234  0.60038  1.0000
  C   C255      1.0  0.79290  0.80386  0.66537  1.0000
  C  Sn62      1.0  0.81347  0.79861  0.76647  1.0000
  C  Sn63      1.0  0.83074  0.82234  0.80349  1.0000
  C   C256      1.0  0.82707  0.85081  0.73855  1.0000
  C  Sn64      1.0  0.80651  0.85607  0.63740  1.0000
  O  Te61      1.0  0.76854  0.83708  0.49960  1.0000
  O  Te62      1.0  0.81674  0.76994  0.82995  1.0000
  O  Te63      1.0  0.85145  0.81758  0.90436  1.0000
  O  Te64      1.0  0.80323  0.88472  0.57397  1.0000
  Mg  Mg31      1.0  0.84783  0.77464  0.96133  1.0000
  Mg  Mg32      1.0  0.77214  0.88006  0.44266  1.0000
