data_image0
_chemical_formula_structural       H40C128S8N32Cl16C2Sn2C2HTe2HMgC2Sn2C2HTe2HMgC2Sn2C2HTe2HMgC2Sn2C2HTe2HMgC2Sn2C2HTe2HMgC2Sn2C2HTe2HMgC2Sn2C2HTe2HMgC2Sn2C2HTe2HMgC2Sn2C2HTe2HMgC2Sn2C2HTe2HMgC2Sn2C2HTe2HMgC2Sn2C2HTe2HMgC2Sn2C2HTe2HMgC2Sn2C2HTe2HMgC2Sn2C2HTe2HMgC2Sn2C2HTe2HMgC2Sn2C2HTe2HMgC2Sn2C2HTe2HMgC2Sn2C2HTe2HMgC2Sn2C2HTe2HMgC2Sn2C2HTe2HMgC2Sn2C2HTe2HMgC2Sn2C2HTe2HMgC2Sn2C2HTe2HMgC2Sn2C2HTe2HMgC2Sn2C2HTe2HMgC2Sn2C2HTe2HMgC2Sn2C2HTe2HMgC2Sn2C2HTe2HMgC2Sn2C2HTe2HMgC2Sn2C2HTe2HMgC2Sn2C2HTe2HMg
_chemical_formula_sum              "H104 C256 S8 N32 Cl16 Sn64 Te64 Mg32"
_cell_length_a       47.7437
_cell_length_b       45.4047
_cell_length_c       8.01223
_cell_angle_alpha    89.3161
_cell_angle_beta     78.8076
_cell_angle_gamma    90.0911

_symmetry_space_group_name_H-M    'P1'
_space_group_IT_number       1

loop_
  _space_group_symop_operation_xyz
  'x, y, z'

loop_
  _atom_site_type_symbol
  _atom_site_label
  _atom_site_symmetry_multiplicity
  _atom_site_fract_x
  _atom_site_fract_y
  _atom_site_fract_z
  _atom_site_occupancy
  H   H1        1.0  0.11819  0.85328  0.43992  1.0000
  H   H2        1.0  0.87888  0.85742  0.04216  1.0000
  H   H3        1.0  0.87890  0.14777  0.07570  1.0000
  H   H4        1.0  0.12095  0.14551  0.46006  1.0000
  H   H5        1.0  0.38372  0.35092  0.07751  1.0000
  H   H6        1.0  0.61520  0.35000  0.40062  1.0000
  H   H7        1.0  0.61590  0.64961  0.40317  1.0000
  H   H8        1.0  0.38481  0.65163  0.09611  1.0000
  H   H9        1.0  0.52339  0.57507  0.27607  1.0000
  H   H10       1.0  0.47610  0.57531  0.20527  1.0000
  H   H11       1.0  0.47572  0.42555  0.20542  1.0000
  H   H12       1.0  0.52305  0.42537  0.27535  1.0000
  H   H13       1.0  0.02354  0.92609  0.27751  1.0000
  H   H14       1.0  0.97562  0.92661  0.21364  1.0000
  H   H15       1.0  0.97599  0.07636  0.23154  1.0000
  H   H16       1.0  0.02376  0.07577  0.29585  1.0000
  H   H17       1.0  0.09020  0.99983  0.37400  1.0000
  H   H18       1.0  0.90822  0.00239  0.15022  1.0000
  H   H19       1.0  0.40880  0.50071  0.12295  1.0000
  H   H20       1.0  0.58952  0.49996  0.36929  1.0000
  H   H21       1.0  0.11942  0.85073  0.94317  1.0000
  H   H22       1.0  0.87987  0.85418  0.55320  1.0000
  H   H23       1.0  0.88059  0.14719  0.58224  1.0000
  H   H24       1.0  0.12092  0.14351  0.94960  1.0000
  H   H25       1.0  0.38414  0.34959  0.58094  1.0000
  H   H26       1.0  0.61624  0.34944  0.90198  1.0000
  H   H27       1.0  0.61614  0.64853  0.90217  1.0000
  H   H28       1.0  0.38535  0.65001  0.58518  1.0000
  H   H29       1.0  0.52338  0.57389  0.78309  1.0000
  H   H30       1.0  0.47604  0.57401  0.71385  1.0000
  H   H31       1.0  0.47625  0.42432  0.70618  1.0000
  H   H32       1.0  0.52362  0.42420  0.77561  1.0000
  H   H33       1.0  0.02300  0.92359  0.78659  1.0000
  H   H34       1.0  0.97582  0.92455  0.71556  1.0000
  H   H35       1.0  0.97700  0.07430  0.73278  1.0000
  H   H36       1.0  0.02473  0.07336  0.79792  1.0000
  H   H37       1.0  0.09059  0.99712  0.87818  1.0000
  H   H38       1.0  0.90995  0.00084  0.63478  1.0000
  H   H39       1.0  0.40947  0.49958  0.62113  1.0000
  H   H40       1.0  0.59066  0.49868  0.86046  1.0000
  C   C1        1.0  0.02759  0.97342  0.29166  1.0000
  C   C2        1.0  0.97125  0.97412  0.21575  1.0000
  C   C3        1.0  0.97140  0.02891  0.22299  1.0000
  C   C4        1.0  0.02770  0.02823  0.29982  1.0000
  C   C5        1.0  0.01291  0.94694  0.26668  1.0000
  C   C6        1.0  0.98611  0.94727  0.23070  1.0000
  C   C7        1.0  0.98632  0.05542  0.24459  1.0000
  C   C8        1.0  0.01309  0.05510  0.28110  1.0000
  C   C9        1.0  0.05578  0.97334  0.32451  1.0000
  C   C10       1.0  0.94282  0.97466  0.18605  1.0000
  C   C11       1.0  0.94301  0.02895  0.19350  1.0000
  C   C12       1.0  0.05592  0.02763  0.33287  1.0000
  C   C13       1.0  0.26427  0.78609  0.24188  1.0000
  C   C14       1.0  0.73496  0.78524  0.26347  1.0000
  C   C15       1.0  0.73445  0.21612  0.27344  1.0000
  C   C16       1.0  0.26586  0.21465  0.23781  1.0000
  C   C17       1.0  0.28455  0.76228  0.22608  1.0000
  C   C18       1.0  0.71500  0.76105  0.27657  1.0000
  C   C19       1.0  0.71436  0.23999  0.28387  1.0000
  C   C20       1.0  0.28550  0.23913  0.22069  1.0000
  C   C21       1.0  0.27738  0.73397  0.28931  1.0000
  C   C22       1.0  0.72269  0.73308  0.21462  1.0000
  C   C23       1.0  0.72195  0.26812  0.21915  1.0000
  C   C24       1.0  0.27754  0.26719  0.28031  1.0000
  C   C25       1.0  0.24852  0.73047  0.37853  1.0000
  C   C26       1.0  0.75170  0.73046  0.12732  1.0000
  C   C27       1.0  0.75090  0.27123  0.13095  1.0000
  C   C28       1.0  0.24866  0.26967  0.36988  1.0000
  C   C29       1.0  0.22812  0.75435  0.39421  1.0000
  C   C30       1.0  0.77173  0.75482  0.11218  1.0000
  C   C31       1.0  0.77098  0.24710  0.11767  1.0000
  C   C32       1.0  0.22899  0.24500  0.38897  1.0000
  C   C33       1.0  0.23579  0.78295  0.32297  1.0000
  C   C34       1.0  0.76356  0.78305  0.18306  1.0000
  C   C35       1.0  0.76297  0.21880  0.19238  1.0000
  C   C36       1.0  0.23735  0.21676  0.31919  1.0000
  C   C37       1.0  0.12830  0.87354  0.37898  1.0000
  C   C38       1.0  0.86907  0.87665  0.11274  1.0000
  C   C39       1.0  0.86935  0.12783  0.14335  1.0000
  C   C40       1.0  0.13040  0.12534  0.39827  1.0000
  C   C41       1.0  0.44335  0.52772  0.16704  1.0000
  C   C42       1.0  0.55538  0.52725  0.32146  1.0000
  C   C43       1.0  0.55529  0.47294  0.32034  1.0000
  C   C44       1.0  0.44330  0.47342  0.16578  1.0000
  C   C45       1.0  0.47156  0.52784  0.20026  1.0000
  C   C46       1.0  0.52738  0.52758  0.28503  1.0000
  C   C47       1.0  0.52732  0.47281  0.28369  1.0000
  C   C48       1.0  0.47148  0.47306  0.19952  1.0000
  C   C49       1.0  0.48637  0.55445  0.22135  1.0000
  C   C50       1.0  0.51289  0.55431  0.26144  1.0000
  C   C51       1.0  0.51270  0.44621  0.26015  1.0000
  C   C52       1.0  0.48615  0.44632  0.22066  1.0000
  C   C53       1.0  0.37299  0.37080  0.13568  1.0000
  C   C54       1.0  0.62563  0.37003  0.33843  1.0000
  C   C55       1.0  0.62643  0.62985  0.34223  1.0000
  C   C56       1.0  0.37405  0.63168  0.15725  1.0000
  C   C57       1.0  0.01356  0.00101  0.27713  1.0000
  C   C58       1.0  0.98544  0.00134  0.23789  1.0000
  C   C59       1.0  0.06894  0.00025  0.34406  1.0000
  C   C60       1.0  0.92968  0.00200  0.17707  1.0000
  C   C61       1.0  0.48551  0.50039  0.22035  1.0000
  C   C62       1.0  0.51337  0.50026  0.26366  1.0000
  C   C63       1.0  0.43013  0.50063  0.15200  1.0000
  C   C64       1.0  0.56836  0.50003  0.33779  1.0000
  C   C65       1.0  0.02780  0.97096  0.79725  1.0000
  C   C66       1.0  0.97200  0.97213  0.71287  1.0000
  C   C67       1.0  0.97249  0.02695  0.71997  1.0000
  C   C68       1.0  0.02846  0.02577  0.80084  1.0000
  C   C69       1.0  0.01285  0.94462  0.77322  1.0000
  C   C70       1.0  0.98637  0.94517  0.73275  1.0000
  C   C71       1.0  0.98733  0.05332  0.74497  1.0000
  C   C72       1.0  0.01406  0.05276  0.78204  1.0000
  C   C73       1.0  0.05589  0.97062  0.83172  1.0000
  C   C74       1.0  0.94395  0.97291  0.67727  1.0000
  C   C75       1.0  0.94441  0.02724  0.68522  1.0000
  C   C76       1.0  0.05666  0.02493  0.83375  1.0000
  C   C77       1.0  0.26540  0.78495  0.74181  1.0000
  C   C78       1.0  0.73512  0.78489  0.76080  1.0000
  C   C79       1.0  0.73550  0.21464  0.77411  1.0000
  C   C80       1.0  0.26526  0.21352  0.73696  1.0000
  C   C81       1.0  0.28564  0.76114  0.72731  1.0000
  C   C82       1.0  0.71504  0.76083  0.77409  1.0000
  C   C83       1.0  0.71537  0.23852  0.78590  1.0000
  C   C84       1.0  0.28491  0.23803  0.71733  1.0000
  C   C85       1.0  0.27841  0.73286  0.79074  1.0000
  C   C86       1.0  0.72259  0.73284  0.71166  1.0000
  C   C87       1.0  0.72281  0.26664  0.72058  1.0000
  C   C88       1.0  0.27713  0.26610  0.77793  1.0000
  C   C89       1.0  0.24957  0.72945  0.88042  1.0000
  C   C90       1.0  0.75156  0.73010  0.62359  1.0000
  C   C91       1.0  0.75177  0.26983  0.63253  1.0000
  C   C92       1.0  0.24829  0.26861  0.86830  1.0000
  C   C93       1.0  0.22929  0.75346  0.89716  1.0000
  C   C94       1.0  0.77169  0.75436  0.60865  1.0000
  C   C95       1.0  0.77201  0.24583  0.62001  1.0000
  C   C96       1.0  0.22857  0.24394  0.88860  1.0000
  C   C97       1.0  0.23697  0.78199  0.82450  1.0000
  C   C98       1.0  0.76367  0.78251  0.68057  1.0000
  C   C99       1.0  0.76407  0.21744  0.69378  1.0000
  C   C100      1.0  0.23683  0.21564  0.81975  1.0000
  C   C101      1.0  0.12900  0.87131  0.88377  1.0000
  C   C102      1.0  0.87020  0.87431  0.61426  1.0000
  C   C103      1.0  0.87085  0.12668  0.64183  1.0000
  C   C104      1.0  0.13073  0.12327  0.89076  1.0000
  C   C105      1.0  0.44386  0.52647  0.66813  1.0000
  C   C106      1.0  0.55613  0.52607  0.81861  1.0000
  C   C107      1.0  0.55607  0.47179  0.81644  1.0000
  C   C108      1.0  0.44380  0.47219  0.66575  1.0000
  C   C109      1.0  0.47192  0.52659  0.70320  1.0000
  C   C110      1.0  0.52789  0.52640  0.78566  1.0000
  C   C111      1.0  0.52790  0.47164  0.78285  1.0000
  C   C112      1.0  0.47193  0.47183  0.70038  1.0000
  C   C113      1.0  0.48651  0.55317  0.72725  1.0000
  C   C114      1.0  0.51310  0.55311  0.76616  1.0000
  C   C115      1.0  0.51321  0.44503  0.76065  1.0000
  C   C116      1.0  0.48663  0.44511  0.72150  1.0000
  C   C117      1.0  0.37343  0.36937  0.64071  1.0000
  C   C118      1.0  0.62670  0.36918  0.83651  1.0000
  C   C119      1.0  0.62674  0.62901  0.83859  1.0000
  C   C120      1.0  0.37480  0.63034  0.65071  1.0000
  C   C121      1.0  0.01412  0.99865  0.77914  1.0000
  C   C122      1.0  0.98622  0.99924  0.73666  1.0000
  C   C123      1.0  0.06935  0.99752  0.84805  1.0000
  C   C124      1.0  0.93116  0.00036  0.66533  1.0000
  C   C125      1.0  0.48593  0.49915  0.72204  1.0000
  C   C126      1.0  0.51387  0.49908  0.76417  1.0000
  C   C127      1.0  0.43070  0.49942  0.65146  1.0000
  C   C128      1.0  0.56927  0.49886  0.83217  1.0000
  S   S1        1.0  0.79579  0.28695  0.46378  1.0000
  S   S2        1.0  0.20424  0.28469  0.03790  1.0000
  S   S3        1.0  0.20569  0.71185  0.04899  1.0000
  S   S4        1.0  0.79573  0.71370  0.45688  1.0000
  S   S5        1.0  0.79506  0.28817  0.96272  1.0000
  S   S6        1.0  0.20454  0.28563  0.53898  1.0000
  S   S7        1.0  0.20461  0.71270  0.54593  1.0000
  S   S8        1.0  0.79587  0.71415  0.96058  1.0000
  N   N1        1.0  0.15564  0.87611  0.33404  1.0000
  N   N2        1.0  0.84188  0.87826  0.16804  1.0000
  N   N3        1.0  0.84218  0.12535  0.19753  1.0000
  N   N4        1.0  0.15760  0.12260  0.34715  1.0000
  N   N5        1.0  0.65341  0.62962  0.27847  1.0000
  N   N6        1.0  0.34716  0.63145  0.22299  1.0000
  N   N7        1.0  0.34592  0.37111  0.19631  1.0000
  N   N8        1.0  0.65258  0.37070  0.27417  1.0000
  N   N9        1.0  0.79705  0.25407  0.02484  1.0000
  N   N10       1.0  0.20299  0.25137  0.48303  1.0000
  N   N11       1.0  0.20215  0.74690  0.48662  1.0000
  N   N12       1.0  0.79782  0.74816  0.02018  1.0000
  N   N13       1.0  0.76210  0.29594  0.04725  1.0000
  N   N14       1.0  0.23722  0.29422  0.44998  1.0000
  N   N15       1.0  0.23764  0.70547  0.46031  1.0000
  N   N16       1.0  0.76293  0.70599  0.04554  1.0000
  N   N17       1.0  0.15627  0.87459  0.83732  1.0000
  N   N18       1.0  0.84295  0.87681  0.66398  1.0000
  N   N19       1.0  0.84357  0.12379  0.68958  1.0000
  N   N20       1.0  0.15802  0.12073  0.84351  1.0000
  N   N21       1.0  0.65361  0.62920  0.77236  1.0000
  N   N22       1.0  0.34804  0.63030  0.71938  1.0000
  N   N23       1.0  0.34643  0.36953  0.70353  1.0000
  N   N24       1.0  0.65354  0.36945  0.76967  1.0000
  N   N25       1.0  0.79805  0.25296  0.52732  1.0000
  N   N26       1.0  0.20260  0.25041  0.98275  1.0000
  N   N27       1.0  0.20337  0.74612  0.99068  1.0000
  N   N28       1.0  0.79777  0.74769  0.51655  1.0000
  N   N29       1.0  0.76278  0.29453  0.54797  1.0000
  N   N30       1.0  0.23690  0.29319  0.94823  1.0000
  N   N31       1.0  0.23861  0.70446  0.96181  1.0000
  N   N32       1.0  0.76275  0.70561  0.54175  1.0000
  Cl  Cl1       1.0  0.27611  0.81942  0.14595  1.0000
  Cl  Cl2       1.0  0.72249  0.81775  0.36195  1.0000
  Cl  Cl3       1.0  0.72243  0.18350  0.37763  1.0000
  Cl  Cl4       1.0  0.27846  0.18199  0.14191  1.0000
  Cl  Cl5       1.0  0.31883  0.76942  0.11483  1.0000
  Cl  Cl6       1.0  0.68026  0.76740  0.38133  1.0000
  Cl  Cl7       1.0  0.67971  0.23303  0.38985  1.0000
  Cl  Cl8       1.0  0.32009  0.23310  0.11255  1.0000
  Cl  Cl9       1.0  0.27710  0.81785  0.63982  1.0000
  Cl  Cl10      1.0  0.72300  0.81753  0.85875  1.0000
  Cl  Cl11      1.0  0.72332  0.18168  0.87350  1.0000
  Cl  Cl12      1.0  0.27770  0.18061  0.64381  1.0000
  Cl  Cl13      1.0  0.31998  0.76823  0.61692  1.0000
  Cl  Cl14      1.0  0.68047  0.76733  0.88106  1.0000
  Cl  Cl15      1.0  0.68083  0.23171  0.89417  1.0000
  Cl  Cl16      1.0  0.31922  0.23194  0.60511  1.0000
  C   C129      1.0  0.07407  0.90180  0.46338  1.0000
  C   C130      1.0  0.10140  0.89616  0.37028  1.0000
  C  Sn1       1.0  0.11558  0.91727  0.25597  1.0000
  C  Sn2       1.0  0.10209  0.94451  0.23477  1.0000
  C   C131      1.0  0.07474  0.94994  0.32860  1.0000
  C   C132      1.0  0.06075  0.92866  0.44260  1.0000
  H   H41       1.0  0.06324  0.88534  0.55167  1.0000
  O  Te1       1.0  0.14288  0.91128  0.16392  1.0000
  O  Te2       1.0  0.11577  0.96600  0.12142  1.0000
  H   H42       1.0  0.03959  0.93303  0.51475  1.0000
  Mg  Mg1       1.0  0.15283  0.94753  0.02486  1.0000
  C   C133      1.0  0.92380  0.90464  0.03449  1.0000
  C   C134      1.0  0.89610  0.89889  0.12321  1.0000
  C  Sn3       1.0  0.88188  0.91943  0.23767  1.0000
  C  Sn4       1.0  0.89571  0.94620  0.26348  1.0000
  C   C135      1.0  0.92343  0.95175  0.17402  1.0000
  C   C136      1.0  0.93746  0.93104  0.05983  1.0000
  H   H43       1.0  0.90208  0.88646  0.94606  1.0000
  O  Te3       1.0  0.85421  0.91333  0.32530  1.0000
  O  Te4       1.0  0.88200  0.96711  0.37707  1.0000
  H   H44       1.0  0.92633  0.93335  0.99107  1.0000
  Mg  Mg2       1.0  0.84437  0.94872  0.46661  1.0000
  C   C137      1.0  0.88025  0.07190  0.28642  1.0000
  C   C138      1.0  0.88616  0.09852  0.19709  1.0000
  C  Sn5       1.0  0.91282  0.10333  0.09238  1.0000
  C  Sn6       1.0  0.93391  0.08102  0.07703  1.0000
  C   C139      1.0  0.92779  0.05446  0.16683  1.0000
  C   C140      1.0  0.90104  0.04988  0.27130  1.0000
  H   H45       1.0  0.85955  0.06835  0.36718  1.0000
  O  Te5       1.0  0.91837  0.13006  0.00408  1.0000
  O  Te6       1.0  0.92816  0.08308  0.97321  1.0000
  H   H46       1.0  0.89647  0.02926  0.34036  1.0000
  Mg  Mg3       1.0  0.92554  0.12324  0.87851  1.0000
  C   C141      1.0  0.07464  0.09896  0.47036  1.0000
  C   C142      1.0  0.10381  0.10205  0.40373  1.0000
  C  Sn7       1.0  0.11822  0.08063  0.29633  1.0000
  C  Sn8       1.0  0.10309  0.05569  0.25505  1.0000
  C   C143      1.0  0.07391  0.05281  0.32227  1.0000
  C   C144      1.0  0.05970  0.07437  0.42966  1.0000
  H   H47       1.0  0.06365  0.11565  0.55338  1.0000
  O  Te7       1.0  0.14737  0.08406  0.23092  1.0000
  O  Te8       1.0  0.11696  0.03395  0.14796  1.0000
  H   H48       1.0  0.03711  0.07198  0.48114  1.0000
  Mg  Mg4       1.0  0.15683  0.04850  0.09056  1.0000
  C   C145      1.0  0.17108  0.81662  0.26729  1.0000
  C   C146      1.0  0.17066  0.84457  0.33882  1.0000
  C  Sn9       1.0  0.19363  0.85421  0.40886  1.0000
  C  Sn10      1.0  0.21743  0.83546  0.40703  1.0000
  C   C147      1.0  0.21766  0.80754  0.33506  1.0000
  C   C148      1.0  0.19456  0.79812  0.26537  1.0000
  H   H49       1.0  0.15322  0.80933  0.21329  1.0000
  O  Te9       1.0  0.19286  0.88220  0.47987  1.0000
  O  Te10      1.0  0.24068  0.84454  0.47610  1.0000
  H   H50       1.0  0.19490  0.77648  0.20990  1.0000
  Mg  Mg5       1.0  0.22965  0.88462  0.55835  1.0000
  C   C149      1.0  0.79144  0.85574  0.09318  1.0000
  C   C150      1.0  0.81684  0.85643  0.15526  1.0000
  C  Sn11      1.0  0.82718  0.83080  0.21975  1.0000
  C  Sn12      1.0  0.81177  0.80401  0.22193  1.0000
  C   C151      1.0  0.78639  0.80354  0.15942  1.0000
  C   C152      1.0  0.77623  0.82932  0.09522  1.0000
  H   H51       1.0  0.78359  0.87568  0.04342  1.0000
  O  Te11      1.0  0.85258  0.83188  0.28133  1.0000
  O  Te12      1.0  0.82162  0.77806  0.28561  1.0000
  H   H52       1.0  0.75658  0.82878  0.04706  1.0000
  Mg  Mg6       1.0  0.85732  0.79071  0.35534  1.0000
  C   C153      1.0  0.81670  0.19754  0.25199  1.0000
  C   C154      1.0  0.79151  0.19754  0.18756  1.0000
  C  Sn13      1.0  0.78180  0.17163  0.12510  1.0000
  C  Sn14      1.0  0.79764  0.14526  0.12739  1.0000
  C   C155      1.0  0.82280  0.14548  0.19223  1.0000
  C   C156      1.0  0.83232  0.17154  0.25436  1.0000
  H   H53       1.0  0.82406  0.21769  0.30016  1.0000
  O  Te13      1.0  0.75661  0.17202  0.06111  1.0000
  O  Te14      1.0  0.78842  0.11905  0.06581  1.0000
  H   H54       1.0  0.85181  0.17153  0.30434  1.0000
  Mg  Mg7       1.0  0.72020  0.12857  0.99143  1.0000
  C   C157      1.0  0.20942  0.14404  0.40548  1.0000
  C   C158      1.0  0.18206  0.14475  0.36771  1.0000
  C  Sn15      1.0  0.17193  0.17048  0.30298  1.0000
  C  Sn16      1.0  0.18958  0.19593  0.27566  1.0000
  C   C159      1.0  0.21693  0.19500  0.31374  1.0000
  C   C160      1.0  0.22685  0.16914  0.37851  1.0000
  H   H55       1.0  0.21710  0.12403  0.45551  1.0000
  O  Te15      1.0  0.14453  0.17080  0.26598  1.0000
  O  Te16      1.0  0.17999  0.22193  0.21104  1.0000
  H   H56       1.0  0.24804  0.16860  0.40764  1.0000
  Mg  Mg8       1.0  0.14106  0.21147  0.18028  1.0000
  C   C161      1.0  0.28863  0.67418  0.18844  1.0000
  C   C162      1.0  0.29308  0.70143  0.25849  1.0000
  C  Sn17      1.0  0.31844  0.70706  0.31508  1.0000
  C  Sn18      1.0  0.33971  0.68495  0.30109  1.0000
  C   C163      1.0  0.33507  0.65777  0.23072  1.0000
  C   C164      1.0  0.30961  0.65237  0.17453  1.0000
  H   H57       1.0  0.26894  0.67001  0.14489  1.0000
  O  Te17      1.0  0.32253  0.73440  0.38479  1.0000
  O  Te18      1.0  0.36526  0.68999  0.35659  1.0000
  H   H58       1.0  0.30618  0.63127  0.12021  1.0000
  Mg  Mg9       1.0  0.36089  0.73076  0.44254  1.0000
  C   C165      1.0  0.67061  0.70344  0.17672  1.0000
  C   C166      1.0  0.69634  0.70821  0.23091  1.0000
  C  Sn19      1.0  0.70970  0.68506  0.30079  1.0000
  C  Sn20      1.0  0.69702  0.65663  0.31650  1.0000
  C   C167      1.0  0.67129  0.65207  0.26179  1.0000
  C   C168      1.0  0.65809  0.67540  0.19210  1.0000
  H   H59       1.0  0.66041  0.72148  0.12271  1.0000
  O  Te19      1.0  0.73539  0.69022  0.35435  1.0000
  O  Te20      1.0  0.70992  0.63310  0.38582  1.0000
  H   H60       1.0  0.63818  0.67169  0.15005  1.0000
  Mg  Mg10      1.0  0.74478  0.65112  0.44059  1.0000
  C   C169      1.0  0.70187  0.34178  0.32251  1.0000
  C   C170      1.0  0.67638  0.34651  0.26532  1.0000
  C  Sn21      1.0  0.66303  0.32332  0.19790  1.0000
  C  Sn22      1.0  0.67548  0.29488  0.18775  1.0000
  C   C171      1.0  0.70098  0.29037  0.24542  1.0000
  C   C172      1.0  0.71416  0.31373  0.31261  1.0000
  H   H61       1.0  0.71207  0.35985  0.37458  1.0000
  O  Te21      1.0  0.63757  0.32844  0.14128  1.0000
  O  Te22      1.0  0.66258  0.27131  0.12099  1.0000
  H   H62       1.0  0.73389  0.31006  0.35698  1.0000
  Mg  Mg11      1.0  0.62808  0.28929  0.06034  1.0000
  C   C173      1.0  0.33005  0.29736  0.30317  1.0000
  C   C174      1.0  0.30239  0.29320  0.27412  1.0000
  C  Sn23      1.0  0.28869  0.31579  0.20174  1.0000
  C  Sn24      1.0  0.30299  0.34303  0.15773  1.0000
  C   C175      1.0  0.33066  0.34696  0.18719  1.0000
  C   C176      1.0  0.34418  0.32421  0.25974  1.0000
  H   H63       1.0  0.34051  0.27975  0.35921  1.0000
  O  Te23      1.0  0.26105  0.31127  0.17364  1.0000
  O  Te24      1.0  0.28980  0.36597  0.08516  1.0000
  H   H64       1.0  0.36560  0.32743  0.28211  1.0000
  Mg  Mg12      1.0  0.25200  0.34919  0.07171  1.0000
  C   C177      1.0  0.39034  0.44224  0.25501  1.0000
  C   C178      1.0  0.41931  0.44622  0.18567  1.0000
  C  Sn25      1.0  0.43430  0.42476  0.08119  1.0000
  C  Sn26      1.0  0.41997  0.39886  0.04566  1.0000
  C   C179      1.0  0.39098  0.39510  0.11555  1.0000
  C   C180      1.0  0.37618  0.41671  0.21998  1.0000
  H   H65       1.0  0.37888  0.45897  0.33573  1.0000
  O  Te25      1.0  0.46324  0.42908  0.01301  1.0000
  O  Te26      1.0  0.40186  0.37490  0.94160  1.0000
  H   H66       1.0  0.35375  0.41364  0.27356  1.0000
  Mg  Mg13      1.0  0.44116  0.39088  0.87857  1.0000
  C   C181      1.0  0.56271  0.41275  0.43656  1.0000
  C   C182      1.0  0.56979  0.44029  0.36003  1.0000
  C  Sn27      1.0  0.59672  0.44509  0.25834  1.0000
  C  Sn28      1.0  0.61687  0.42185  0.23299  1.0000
  C   C183      1.0  0.60957  0.39438  0.31001  1.0000
  C   C184      1.0  0.58257  0.38982  0.41157  1.0000
  H   H67       1.0  0.54182  0.40922  0.51506  1.0000
  O  Te27      1.0  0.60345  0.47273  0.18288  1.0000
  O  Te28      1.0  0.64393  0.42604  0.13191  1.0000
  H   H68       1.0  0.57709  0.36849  0.47071  1.0000
  Mg  Mg14      1.0  0.64307  0.46765  0.05620  1.0000
  C   C185      1.0  0.61799  0.57133  0.22970  1.0000
  C   C186      1.0  0.61127  0.59827  0.30999  1.0000
  C  Sn29      1.0  0.58435  0.60264  0.41157  1.0000
  C  Sn30      1.0  0.56383  0.57958  0.43298  1.0000
  C   C187      1.0  0.57077  0.55270  0.35221  1.0000
  C   C188      1.0  0.59777  0.54856  0.25080  1.0000
  H   H69       1.0  0.63888  0.56811  0.15131  1.0000
  O  Te29      1.0  0.57799  0.62970  0.49082  1.0000
  O  Te30      1.0  0.53677  0.58336  0.53385  1.0000
  H   H70       1.0  0.60297  0.52769  0.18874  1.0000
  Mg  Mg15      1.0  0.53821  0.62421  0.61558  1.0000
  C   C189      1.0  0.43531  0.58703  0.04103  1.0000
  C   C190      1.0  0.42975  0.56131  0.13950  1.0000
  C  Sn31      1.0  0.40335  0.55724  0.24830  1.0000
  C  Sn32      1.0  0.38215  0.57937  0.25841  1.0000
  C   C191      1.0  0.38792  0.60502  0.15928  1.0000
  C   C192      1.0  0.41441  0.60887  0.05086  1.0000
  H   H71       1.0  0.42322  0.58785  0.95707  1.0000
  O  Te31      1.0  0.39815  0.53141  0.34584  1.0000
  O  Te32      1.0  0.35558  0.57586  0.36605  1.0000
  H   H72       1.0  0.38613  0.62662  0.97456  1.0000
  Mg  Mg16      1.0  0.35865  0.53682  0.47363  1.0000
  C   C193      1.0  0.07394  0.89828  0.96421  1.0000
  C   C194      1.0  0.10171  0.89339  0.87523  1.0000
  C  Sn33      1.0  0.11620  0.91528  0.76800  1.0000
  C  Sn34      1.0  0.10259  0.94257  0.74981  1.0000
  C   C195      1.0  0.07481  0.94725  0.83948  1.0000
  C   C196      1.0  0.06051  0.92518  0.94640  1.0000
  H   H73       1.0  0.09546  0.88337  0.04702  1.0000
  O  Te33      1.0  0.14393  0.91003  0.67999  1.0000
  O  Te34      1.0  0.11658  0.96483  0.64354  1.0000
  H   H74       1.0  0.07159  0.93115  0.01536  1.0000
  Mg  Mg17      1.0  0.15418  0.94718  0.55032  1.0000
  C   C197      1.0  0.88067  0.92992  0.75550  1.0000
  C   C198      1.0  0.88583  0.90540  0.65038  1.0000
  C  Sn35      1.0  0.91297  0.90071  0.55224  1.0000
  C  Sn36      1.0  0.93532  0.92099  0.55979  1.0000
  C   C199      1.0  0.92994  0.94545  0.66545  1.0000
  C   C200      1.0  0.90270  0.94993  0.76307  1.0000
  H   H75       1.0  0.85959  0.93338  0.83111  1.0000
  O  Te35      1.0  0.91776  0.87610  0.44785  1.0000
  O  Te36      1.0  0.96265  0.91684  0.46310  1.0000
  H   H76       1.0  0.89871  0.96891  0.84453  1.0000
  Mg  Mg18      1.0  0.95862  0.87998  0.34014  1.0000
  C   C201      1.0  0.92620  0.10022  0.56325  1.0000
  C   C202      1.0  0.89721  0.10315  0.63392  1.0000
  C  Sn37      1.0  0.88284  0.08095  0.73935  1.0000
  C  Sn38      1.0  0.89784  0.05538  0.77450  1.0000
  C   C203      1.0  0.92685  0.05267  0.70328  1.0000
  C   C204      1.0  0.94102  0.07501  0.59790  1.0000
  H   H77       1.0  0.93717  0.11751  0.48179  1.0000
  O  Te37      1.0  0.85386  0.08423  0.80885  1.0000
  O  Te38      1.0  0.88401  0.03287  0.87950  1.0000
  H   H78       1.0  0.96347  0.07275  0.54330  1.0000
  Mg  Mg19      1.0  0.84439  0.04752  0.94420  1.0000
  C   C205      1.0  0.12041  0.06710  0.75528  1.0000
  C   C206      1.0  0.11430  0.09365  0.84096  1.0000
  C  Sn39      1.0  0.08722  0.09853  0.93934  1.0000
  C  Sn40      1.0  0.06590  0.07636  0.95196  1.0000
  C   C207      1.0  0.07223  0.04987  0.86585  1.0000
  C   C208      1.0  0.09940  0.04522  0.76771  1.0000
  H   H79       1.0  0.14144  0.06350  0.67942  1.0000
  O  Te39      1.0  0.11405  0.12734  0.02406  1.0000
  O  Te40      1.0  0.07123  0.08281  0.04946  1.0000
  H   H80       1.0  0.10413  0.02466  0.70147  1.0000
  Mg  Mg20      1.0  0.07372  0.12283  0.14122  1.0000
  C   C209      1.0  0.20740  0.85368  0.90883  1.0000
  C   C210      1.0  0.18197  0.85356  0.84703  1.0000
  C  Sn41      1.0  0.17232  0.82769  0.78383  1.0000
  C  Sn42      1.0  0.18848  0.80147  0.78269  1.0000
  C   C211      1.0  0.21389  0.80180  0.84491  1.0000
  C   C212      1.0  0.22335  0.82782  0.90781  1.0000
  H   H81       1.0  0.21471  0.87380  0.95758  1.0000
  O  Te41      1.0  0.14687  0.82797  0.72252  1.0000
  O  Te42      1.0  0.17933  0.77529  0.72031  1.0000
  H   H82       1.0  0.24303  0.82790  0.95575  1.0000
  Mg  Mg21      1.0  0.14327  0.78678  0.65044  1.0000
  C   C213      1.0  0.79269  0.85458  0.58668  1.0000
  C   C214      1.0  0.81752  0.85532  0.65461  1.0000
  C  Sn43      1.0  0.82700  0.82988  0.72599  1.0000
  C  Sn44      1.0  0.81130  0.80326  0.72920  1.0000
  C   C215      1.0  0.78650  0.80275  0.66080  1.0000
  C   C216      1.0  0.77720  0.82833  0.58973  1.0000
  H   H83       1.0  0.78550  0.87437  0.53161  1.0000
  O  Te43      1.0  0.85184  0.83100  0.79336  1.0000
  O  Te44      1.0  0.82030  0.77751  0.79971  1.0000
  H   H84       1.0  0.75799  0.82775  0.53705  1.0000
  Mg  Mg22      1.0  0.85548  0.79014  0.87564  1.0000
  C   C217      1.0  0.81751  0.19571  0.75625  1.0000
  C   C218      1.0  0.79263  0.19612  0.68880  1.0000
  C  Sn45      1.0  0.78329  0.17059  0.62024  1.0000
  C  Sn46      1.0  0.79920  0.14421  0.61942  1.0000
  C   C219      1.0  0.82406  0.14403  0.68731  1.0000
  C   C220      1.0  0.83321  0.16970  0.75555  1.0000
  H   H85       1.0  0.82459  0.21557  0.80914  1.0000
  O  Te45      1.0  0.75839  0.17138  0.55332  1.0000
  O  Te46      1.0  0.79035  0.11838  0.55175  1.0000
  H   H86       1.0  0.85247  0.16938  0.80786  1.0000
  Mg  Mg23      1.0  0.75502  0.13053  0.47531  1.0000
  C   C221      1.0  0.17206  0.18091  0.77690  1.0000
  C   C222      1.0  0.17421  0.15151  0.82640  1.0000
  C  Sn47      1.0  0.19769  0.14214  0.89316  1.0000
  C  Sn48      1.0  0.21937  0.16263  0.91058  1.0000
  C   C223      1.0  0.21701  0.19199  0.86080  1.0000
  C   C224      1.0  0.19344  0.20114  0.79410  1.0000
  H   H87       1.0  0.15382  0.18799  0.72538  1.0000
  O  Te47      1.0  0.19950  0.11269  0.94193  1.0000
  O  Te48      1.0  0.24306  0.15386  0.97697  1.0000
  H   H88       1.0  0.19177  0.22390  0.75588  1.0000
  Mg  Mg24      1.0  0.26848  0.11351  0.02545  1.0000
  C   C225      1.0  0.29820  0.65935  0.68229  1.0000
  C   C226      1.0  0.32585  0.65572  0.71255  1.0000
  C  Sn49      1.0  0.33938  0.67870  0.78070  1.0000
  C  Sn50      1.0  0.32490  0.70577  0.81918  1.0000
  C   C227      1.0  0.29723  0.70917  0.78855  1.0000
  C   C228      1.0  0.28389  0.68604  0.72026  1.0000
  H   H89       1.0  0.28787  0.64145  0.62954  1.0000
  O  Te49      1.0  0.36702  0.67471  0.81009  1.0000
  O  Te50      1.0  0.33792  0.72909  0.88745  1.0000
  H   H90       1.0  0.26248  0.68884  0.69695  1.0000
  Mg  Mg25      1.0  0.37578  0.71299  0.90472  1.0000
  C   C229      1.0  0.71173  0.67248  0.81159  1.0000
  C   C230      1.0  0.70722  0.69994  0.74092  1.0000
  C  Sn51      1.0  0.68198  0.70548  0.68249  1.0000
  C  Sn52      1.0  0.66089  0.68308  0.69528  1.0000
  C   C231      1.0  0.66559  0.65569  0.76629  1.0000
  C   C232      1.0  0.69093  0.65037  0.82431  1.0000
  H   H91       1.0  0.73132  0.66836  0.85657  1.0000
  O  Te51      1.0  0.67783  0.73304  0.61217  1.0000
  O  Te52      1.0  0.63547  0.68803  0.63794  1.0000
  H   H92       1.0  0.69441  0.62911  0.87912  1.0000
  Mg  Mg26      1.0  0.63969  0.72918  0.55181  1.0000
  C   C233      1.0  0.71234  0.32710  0.80654  1.0000
  C   C234      1.0  0.70598  0.29852  0.76238  1.0000
  C  Sn53      1.0  0.68061  0.29271  0.70627  1.0000
  C  Sn54      1.0  0.66130  0.31600  0.69423  1.0000
  C   C235      1.0  0.66786  0.34452  0.73860  1.0000
  C   C236      1.0  0.69330  0.35008  0.79465  1.0000
  H   H93       1.0  0.73203  0.33141  0.84982  1.0000
  O  Te53      1.0  0.67459  0.26403  0.66272  1.0000
  O  Te54      1.0  0.63579  0.31081  0.63847  1.0000
  H   H94       1.0  0.69823  0.37222  0.82872  1.0000
  Mg  Mg27      1.0  0.63711  0.26800  0.59369  1.0000
  C   C237      1.0  0.29695  0.34010  0.66308  1.0000
  C   C238      1.0  0.32276  0.34496  0.71616  1.0000
  C  Sn55      1.0  0.33628  0.32186  0.78543  1.0000
  C  Sn56      1.0  0.32369  0.29339  0.80164  1.0000
  C   C239      1.0  0.29787  0.28874  0.74805  1.0000
  C   C240      1.0  0.28452  0.31202  0.67897  1.0000
  H   H95       1.0  0.28662  0.35809  0.60954  1.0000
  O  Te55      1.0  0.36205  0.32711  0.83788  1.0000
  O  Te56      1.0  0.33675  0.26991  0.87037  1.0000
  H   H96       1.0  0.26454  0.30824  0.63778  1.0000
  Mg  Mg28      1.0  0.37167  0.28806  0.92365  1.0000
  C   C241      1.0  0.39076  0.44119  0.75509  1.0000
  C   C242      1.0  0.41973  0.44510  0.68560  1.0000
  C  Sn57      1.0  0.43473  0.42349  0.58232  1.0000
  C  Sn58      1.0  0.42039  0.39750  0.54816  1.0000
  C   C243      1.0  0.39140  0.39381  0.61819  1.0000
  C   C244      1.0  0.37660  0.41557  0.72141  1.0000
  H   H97       1.0  0.37930  0.45803  0.83488  1.0000
  O  Te57      1.0  0.46367  0.42774  0.51397  1.0000
  O  Te58      1.0  0.43486  0.37555  0.44531  1.0000
  H   H98       1.0  0.35416  0.41254  0.77510  1.0000
  Mg  Mg29      1.0  0.47416  0.39150  0.38151  1.0000
  C   C245      1.0  0.61766  0.42709  0.71085  1.0000
  C   C246      1.0  0.61259  0.40188  0.81413  1.0000
  C  Sn59      1.0  0.58614  0.39761  0.92217  1.0000
  C  Sn60      1.0  0.56441  0.41903  0.92659  1.0000
  C   C247      1.0  0.56968  0.44417  0.82268  1.0000
  C   C248      1.0  0.59623  0.44822  0.71508  1.0000
  H   H99       1.0  0.63819  0.43022  0.62753  1.0000
  O  Te59      1.0  0.61402  0.37446  0.02456  1.0000
  O  Te60      1.0  0.57035  0.41747  0.03334  1.0000
  H   H100      1.0  0.60014  0.46773  0.63505  1.0000
  Mg  Mg30      1.0  0.57422  0.37933  0.14891  1.0000
  C   C249      1.0  0.57358  0.59868  0.94126  1.0000
  C   C250      1.0  0.60224  0.60297  0.86541  1.0000
  C  Sn61      1.0  0.61689  0.58156  0.75899  1.0000
  C  Sn62      1.0  0.60252  0.55539  0.72813  1.0000
  C   C251      1.0  0.57385  0.55132  0.80452  1.0000
  C   C252      1.0  0.55939  0.57289  0.91084  1.0000
  H   H101      1.0  0.59497  0.61754  0.02345  1.0000
  O  Te61      1.0  0.64552  0.58619  0.68428  1.0000
  O  Te62      1.0  0.61665  0.53364  0.62225  1.0000
  H   H102      1.0  0.53720  0.56957  0.96946  1.0000
  Mg  Mg31      1.0  0.65561  0.55009  0.54975  1.0000
  C   C253      1.0  0.38230  0.57135  0.76488  1.0000
  C   C254      1.0  0.38951  0.59855  0.68445  1.0000
  C  Sn63      1.0  0.41631  0.60278  0.58022  1.0000
  C  Sn64      1.0  0.43620  0.57930  0.55626  1.0000
  C   C255      1.0  0.42878  0.55217  0.63719  1.0000
  C   C256      1.0  0.40190  0.54817  0.74127  1.0000
  H   H103      1.0  0.36150  0.56825  0.84533  1.0000
  O  Te63      1.0  0.42317  0.63011  0.50087  1.0000
  O  Te64      1.0  0.46313  0.58293  0.45271  1.0000
  H   H104      1.0  0.39632  0.52710  0.80343  1.0000
  Mg  Mg32      1.0  0.46253  0.62427  0.37195  1.0000
