data_image0
_chemical_formula_structural       H104C224S8N32Cl16SnCSn2CSnTe4Mg2SnCSn2CSnTe4Mg2SnCSn2CSnTe4Mg2SnCSn2CSnTe4Mg2SnCSn2CSnTe4Mg2SnCSn2CSnTe4Mg2SnCSn2CSnTe4Mg2SnCSn2CSnTe4Mg2SnCSn2CSnTe4Mg2SnCSn2CSnTe4Mg2SnCSn2CSnTe4Mg2SnCSn2CSnTe4Mg2SnCSn2CSnTe4Mg2SnCSn2CSnTe4Mg2SnCSn2CSnTe4Mg2SnCSn2CSnTe4Mg2
_chemical_formula_sum              "H104 C256 S8 N32 Cl16 Sn64 Te64 Mg32"
_cell_length_a       47.7437
_cell_length_b       45.4047
_cell_length_c       8.01223
_cell_angle_alpha    89.3161
_cell_angle_beta     78.8076
_cell_angle_gamma    90.0911

_symmetry_space_group_name_H-M    'P1'
_space_group_IT_number       1

loop_
  _space_group_symop_operation_xyz
  'x, y, z'

loop_
  _atom_site_type_symbol
  _atom_site_label
  _atom_site_symmetry_multiplicity
  _atom_site_fract_x
  _atom_site_fract_y
  _atom_site_fract_z
  _atom_site_occupancy
  H   H1        1.0  0.07292  0.87540  0.02589  1.0000
  H   H2        1.0  0.92652  0.12243  0.49440  1.0000
  H   H3        1.0  0.04118  0.91799  0.00945  1.0000
  H   H4        1.0  0.95852  0.07988  0.50761  1.0000
  H   H5        1.0  0.18487  0.78064  0.22299  1.0000
  H   H6        1.0  0.81557  0.78133  0.26937  1.0000
  H   H7        1.0  0.18590  0.21861  0.22862  1.0000
  H   H8        1.0  0.14957  0.82047  0.22933  1.0000
  H   H9        1.0  0.85006  0.82223  0.26121  1.0000
  H   H10       1.0  0.15078  0.17836  0.24054  1.0000
  H   H11       1.0  0.20266  0.87830  0.45548  1.0000
  H   H12       1.0  0.79338  0.88033  0.06073  1.0000
  H   H13       1.0  0.20638  0.11997  0.44892  1.0000
  H   H14       1.0  0.23793  0.83824  0.45259  1.0000
  H   H15       1.0  0.75907  0.83921  0.06466  1.0000
  H   H16       1.0  0.24144  0.16058  0.44011  1.0000
  H   H17       1.0  0.66987  0.72707  0.13073  1.0000
  H   H18       1.0  0.66904  0.27360  0.13603  1.0000
  H   H19       1.0  0.33022  0.27452  0.36251  1.0000
  H   H20       1.0  0.63992  0.68222  0.15844  1.0000
  H   H21       1.0  0.63904  0.31819  0.15964  1.0000
  H   H22       1.0  0.35997  0.31961  0.32419  1.0000
  H   H23       1.0  0.70345  0.63489  0.36538  1.0000
  H   H24       1.0  0.70275  0.36597  0.35932  1.0000
  H   H25       1.0  0.29615  0.36451  0.10658  1.0000
  H   H26       1.0  0.73335  0.68006  0.34177  1.0000
  H   H27       1.0  0.73259  0.32093  0.34139  1.0000
  H   H28       1.0  0.26638  0.31907  0.14228  1.0000
  H   H29       1.0  0.11819  0.85328  0.43992  1.0000
  H   H30       1.0  0.87888  0.85742  0.04216  1.0000
  H   H31       1.0  0.87890  0.14777  0.07570  1.0000
  H   H32       1.0  0.12095  0.14551  0.46006  1.0000
  H   H33       1.0  0.57288  0.37650  0.00786  1.0000
  H   H34       1.0  0.57280  0.62073  0.00892  1.0000
  H   H35       1.0  0.64037  0.57980  0.17019  1.0000
  H   H36       1.0  0.60895  0.53620  0.15964  1.0000
  H   H37       1.0  0.38372  0.35092  0.07751  1.0000
  H   H38       1.0  0.61520  0.35000  0.40062  1.0000
  H   H39       1.0  0.61590  0.64961  0.40317  1.0000
  H   H40       1.0  0.38481  0.65163  0.09611  1.0000
  H   H41       1.0  0.52339  0.57507  0.27607  1.0000
  H   H42       1.0  0.47610  0.57531  0.20527  1.0000
  H   H43       1.0  0.47572  0.42555  0.20542  1.0000
  H   H44       1.0  0.52305  0.42537  0.27535  1.0000
  H   H45       1.0  0.02354  0.92609  0.27751  1.0000
  H   H46       1.0  0.97562  0.92661  0.21364  1.0000
  H   H47       1.0  0.97599  0.07636  0.23154  1.0000
  H   H48       1.0  0.02376  0.07577  0.29585  1.0000
  H   H49       1.0  0.54214  0.42037  0.00317  1.0000
  H   H50       1.0  0.54216  0.57695  0.00386  1.0000
  H   H51       1.0  0.09020  0.99983  0.37400  1.0000
  H   H52       1.0  0.90822  0.00239  0.15022  1.0000
  H   H53       1.0  0.40880  0.50071  0.12295  1.0000
  H   H54       1.0  0.58952  0.49996  0.36929  1.0000
  H   H55       1.0  0.10948  0.96267  0.67216  1.0000
  H   H56       1.0  0.89097  0.03495  0.84878  1.0000
  H   H57       1.0  0.14168  0.92046  0.69611  1.0000
  H   H58       1.0  0.85855  0.07712  0.82916  1.0000
  H   H59       1.0  0.18518  0.77879  0.73672  1.0000
  H   H60       1.0  0.81451  0.78078  0.78142  1.0000
  H   H61       1.0  0.14981  0.81849  0.74096  1.0000
  H   H62       1.0  0.84933  0.82131  0.77449  1.0000
  H   H63       1.0  0.20466  0.87814  0.94052  1.0000
  H   H64       1.0  0.79524  0.87902  0.55032  1.0000
  H   H65       1.0  0.24020  0.83828  0.93821  1.0000
  H   H66       1.0  0.76051  0.83820  0.55347  1.0000
  H   H67       1.0  0.33159  0.72703  0.86973  1.0000
  H   H68       1.0  0.66978  0.27200  0.63721  1.0000
  H   H69       1.0  0.33024  0.27224  0.85547  1.0000
  H   H70       1.0  0.36206  0.68255  0.83630  1.0000
  H   H71       1.0  0.63973  0.31664  0.65946  1.0000
  H   H72       1.0  0.36046  0.31690  0.82157  1.0000
  H   H73       1.0  0.29820  0.63596  0.63098  1.0000
  H   H74       1.0  0.70332  0.36447  0.85932  1.0000
  H   H75       1.0  0.29609  0.36428  0.62242  1.0000
  H   H76       1.0  0.26801  0.68081  0.66010  1.0000
  H   H77       1.0  0.73318  0.31957  0.84216  1.0000
  H   H78       1.0  0.26598  0.31919  0.65109  1.0000
  H   H79       1.0  0.11942  0.85073  0.94317  1.0000
  H   H80       1.0  0.87987  0.85418  0.55320  1.0000
  H   H81       1.0  0.88059  0.14719  0.58224  1.0000
  H   H82       1.0  0.12092  0.14351  0.94960  1.0000
  H   H83       1.0  0.57199  0.62228  0.50840  1.0000
  H   H84       1.0  0.64033  0.41931  0.65544  1.0000
  H   H85       1.0  0.64075  0.57911  0.66259  1.0000
  H   H86       1.0  0.60920  0.46294  0.64558  1.0000
  H   H87       1.0  0.60969  0.53532  0.65424  1.0000
  H   H88       1.0  0.38414  0.34959  0.58094  1.0000
  H   H89       1.0  0.61624  0.34944  0.90198  1.0000
  H   H90       1.0  0.61614  0.64853  0.90217  1.0000
  H   H91       1.0  0.38535  0.65001  0.58518  1.0000
  H   H92       1.0  0.52338  0.57389  0.78309  1.0000
  H   H93       1.0  0.47604  0.57401  0.71385  1.0000
  H   H94       1.0  0.47625  0.42432  0.70618  1.0000
  H   H95       1.0  0.52362  0.42420  0.77561  1.0000
  H   H96       1.0  0.02300  0.92359  0.78659  1.0000
  H   H97       1.0  0.97582  0.92455  0.71556  1.0000
  H   H98       1.0  0.97700  0.07430  0.73278  1.0000
  H   H99       1.0  0.02473  0.07336  0.79792  1.0000
  H   H100      1.0  0.54120  0.57844  0.50384  1.0000
  H   H101      1.0  0.09059  0.99712  0.87818  1.0000
  H   H102      1.0  0.90995  0.00084  0.63478  1.0000
  H   H103      1.0  0.40947  0.49958  0.62113  1.0000
  H   H104      1.0  0.59066  0.49868  0.86046  1.0000
  C   C1        1.0  0.02759  0.97342  0.29166  1.0000
  C   C2        1.0  0.97125  0.97412  0.21575  1.0000
  C   C3        1.0  0.97140  0.02891  0.22299  1.0000
  C   C4        1.0  0.02770  0.02823  0.29982  1.0000
  C   C5        1.0  0.01291  0.94694  0.26668  1.0000
  C   C6        1.0  0.98611  0.94727  0.23070  1.0000
  C   C7        1.0  0.98632  0.05542  0.24459  1.0000
  C   C8        1.0  0.01309  0.05510  0.28110  1.0000
  C   C9        1.0  0.05578  0.97334  0.32451  1.0000
  C   C10       1.0  0.94282  0.97466  0.18605  1.0000
  C   C11       1.0  0.94301  0.02895  0.19350  1.0000
  C   C12       1.0  0.05592  0.02763  0.33287  1.0000
  C   C13       1.0  0.26427  0.78609  0.24188  1.0000
  C   C14       1.0  0.73496  0.78524  0.26347  1.0000
  C   C15       1.0  0.73445  0.21612  0.27344  1.0000
  C   C16       1.0  0.26586  0.21465  0.23781  1.0000
  C   C17       1.0  0.28455  0.76228  0.22608  1.0000
  C   C18       1.0  0.71500  0.76105  0.27657  1.0000
  C   C19       1.0  0.71436  0.23999  0.28387  1.0000
  C   C20       1.0  0.28550  0.23913  0.22069  1.0000
  C   C21       1.0  0.27738  0.73397  0.28931  1.0000
  C   C22       1.0  0.72269  0.73308  0.21462  1.0000
  C   C23       1.0  0.72195  0.26812  0.21915  1.0000
  C   C24       1.0  0.27754  0.26719  0.28031  1.0000
  C   C25       1.0  0.24852  0.73047  0.37853  1.0000
  C   C26       1.0  0.75170  0.73046  0.12732  1.0000
  C   C27       1.0  0.75090  0.27123  0.13095  1.0000
  C   C28       1.0  0.24866  0.26967  0.36988  1.0000
  C   C29       1.0  0.22812  0.75435  0.39421  1.0000
  C   C30       1.0  0.77173  0.75482  0.11218  1.0000
  C   C31       1.0  0.77098  0.24710  0.11767  1.0000
  C   C32       1.0  0.22899  0.24500  0.38897  1.0000
  C   C33       1.0  0.23579  0.78295  0.32297  1.0000
  C   C34       1.0  0.76356  0.78305  0.18306  1.0000
  C   C35       1.0  0.76297  0.21880  0.19238  1.0000
  C   C36       1.0  0.23735  0.21676  0.31919  1.0000
  C   C37       1.0  0.21418  0.80657  0.33576  1.0000
  C   C38       1.0  0.78462  0.80731  0.16933  1.0000
  C   C39       1.0  0.21626  0.19256  0.33342  1.0000
  C   C40       1.0  0.70374  0.70696  0.23500  1.0000
  C   C41       1.0  0.70290  0.29396  0.23792  1.0000
  C   C42       1.0  0.29625  0.29347  0.25436  1.0000
  C   C43       1.0  0.18857  0.80167  0.27863  1.0000
  C   C44       1.0  0.81094  0.80270  0.21884  1.0000
  C   C45       1.0  0.19009  0.19738  0.28241  1.0000
  C   C46       1.0  0.16857  0.82410  0.28256  1.0000
  C   C47       1.0  0.83048  0.82568  0.21341  1.0000
  C   C48       1.0  0.17018  0.17473  0.29000  1.0000
  C   C49       1.0  0.17363  0.85214  0.34381  1.0000
  C   C50       1.0  0.82419  0.85405  0.15866  1.0000
  C   C51       1.0  0.17591  0.14652  0.34965  1.0000
  C   C52       1.0  0.19902  0.85687  0.40422  1.0000
  C   C53       1.0  0.79806  0.85858  0.10615  1.0000
  C   C54       1.0  0.20208  0.14168  0.40121  1.0000
  C   C55       1.0  0.21875  0.83436  0.40205  1.0000
  C   C56       1.0  0.77884  0.83550  0.10941  1.0000
  C   C57       1.0  0.22172  0.16443  0.39521  1.0000
  C   C58       1.0  0.67702  0.70727  0.18674  1.0000
  C   C59       1.0  0.67617  0.29342  0.18992  1.0000
  C   C60       1.0  0.32298  0.29384  0.30232  1.0000
  C   C61       1.0  0.65998  0.68208  0.20352  1.0000
  C   C62       1.0  0.65914  0.31845  0.20429  1.0000
  C   C63       1.0  0.33985  0.31913  0.27974  1.0000
  C   C64       1.0  0.66930  0.65570  0.26845  1.0000
  C   C65       1.0  0.66853  0.34483  0.26596  1.0000
  C   C66       1.0  0.33027  0.34490  0.20947  1.0000
  C   C67       1.0  0.69629  0.65518  0.31407  1.0000
  C   C68       1.0  0.69553  0.34560  0.31132  1.0000
  C   C69       1.0  0.30335  0.34471  0.16296  1.0000
  C   C70       1.0  0.71305  0.68048  0.29946  1.0000
  C   C71       1.0  0.71225  0.32041  0.29973  1.0000
  C   C72       1.0  0.28674  0.31928  0.18384  1.0000
  C   C73       1.0  0.12830  0.87354  0.37898  1.0000
  C   C74       1.0  0.86907  0.87665  0.11274  1.0000
  C   C75       1.0  0.86935  0.12783  0.14335  1.0000
  C   C76       1.0  0.13040  0.12534  0.39827  1.0000
  C   C77       1.0  0.44335  0.52772  0.16704  1.0000
  C   C78       1.0  0.55538  0.52725  0.32146  1.0000
  C   C79       1.0  0.55529  0.47294  0.32034  1.0000
  C   C80       1.0  0.44330  0.47342  0.16578  1.0000
  C   C81       1.0  0.47156  0.52784  0.20026  1.0000
  C   C82       1.0  0.52738  0.52758  0.28503  1.0000
  C   C83       1.0  0.52732  0.47281  0.28369  1.0000
  C   C84       1.0  0.47148  0.47306  0.19952  1.0000
  C   C85       1.0  0.48637  0.55445  0.22135  1.0000
  C   C86       1.0  0.51289  0.55431  0.26144  1.0000
  C   C87       1.0  0.51270  0.44621  0.26015  1.0000
  C   C88       1.0  0.48615  0.44632  0.22066  1.0000
  C   C89       1.0  0.57269  0.55410  0.33092  1.0000
  C   C90       1.0  0.56262  0.57891  0.42727  1.0000
  C   C91       1.0  0.58009  0.60345  0.43086  1.0000
  C   C92       1.0  0.60835  0.60394  0.33914  1.0000
  C   C93       1.0  0.61864  0.57912  0.24326  1.0000
  C   C94       1.0  0.60111  0.55484  0.23910  1.0000
  C   C95       1.0  0.37299  0.37080  0.13568  1.0000
  C   C96       1.0  0.62563  0.37003  0.33843  1.0000
  C   C97       1.0  0.62643  0.62985  0.34223  1.0000
  C   C98       1.0  0.37405  0.63168  0.15725  1.0000
  C   C99       1.0  0.01356  0.00101  0.27713  1.0000
  C   C100      1.0  0.98544  0.00134  0.23789  1.0000
  C   C101      1.0  0.06894  0.00025  0.34406  1.0000
  C   C102      1.0  0.92968  0.00200  0.17707  1.0000
  C   C103      1.0  0.48551  0.50039  0.22035  1.0000
  C   C104      1.0  0.51337  0.50026  0.26366  1.0000
  C   C105      1.0  0.43013  0.50063  0.15200  1.0000
  C   C106      1.0  0.56836  0.50003  0.33779  1.0000
  C   C107      1.0  0.02780  0.97096  0.79725  1.0000
  C   C108      1.0  0.97200  0.97213  0.71287  1.0000
  C   C109      1.0  0.97249  0.02695  0.71997  1.0000
  C   C110      1.0  0.02846  0.02577  0.80084  1.0000
  C   C111      1.0  0.01285  0.94462  0.77322  1.0000
  C   C112      1.0  0.98637  0.94517  0.73275  1.0000
  C   C113      1.0  0.98733  0.05332  0.74497  1.0000
  C   C114      1.0  0.01406  0.05276  0.78204  1.0000
  C   C115      1.0  0.05589  0.97062  0.83172  1.0000
  C   C116      1.0  0.94395  0.97291  0.67727  1.0000
  C   C117      1.0  0.94441  0.02724  0.68522  1.0000
  C   C118      1.0  0.05666  0.02493  0.83375  1.0000
  C   C119      1.0  0.07298  0.94370  0.84121  1.0000
  C   C120      1.0  0.92714  0.05414  0.67811  1.0000
  C   C121      1.0  0.10165  0.94382  0.75291  1.0000
  C   C122      1.0  0.89861  0.05390  0.76835  1.0000
  C   C123      1.0  0.11964  0.92030  0.76446  1.0000
  C   C124      1.0  0.88047  0.07741  0.75899  1.0000
  C   C125      1.0  0.10961  0.89536  0.86398  1.0000
  C   C126      1.0  0.89021  0.10244  0.65948  1.0000
  C   C127      1.0  0.08088  0.89452  0.94750  1.0000
  C   C128      1.0  0.91881  0.10331  0.57349  1.0000
  C   C129      1.0  0.06291  0.91839  0.93705  1.0000
  C   C130      1.0  0.93693  0.07949  0.58204  1.0000
  C   C131      1.0  0.26540  0.78495  0.74181  1.0000
  C   C132      1.0  0.73512  0.78489  0.76080  1.0000
  C   C133      1.0  0.73550  0.21464  0.77411  1.0000
  C   C134      1.0  0.26526  0.21352  0.73696  1.0000
  C   C135      1.0  0.28564  0.76114  0.72731  1.0000
  C   C136      1.0  0.71504  0.76083  0.77409  1.0000
  C   C137      1.0  0.71537  0.23852  0.78590  1.0000
  C   C138      1.0  0.28491  0.23803  0.71733  1.0000
  C   C139      1.0  0.27841  0.73286  0.79074  1.0000
  C   C140      1.0  0.72259  0.73284  0.71166  1.0000
  C   C141      1.0  0.72281  0.26664  0.72058  1.0000
  C   C142      1.0  0.27713  0.26610  0.77793  1.0000
  C   C143      1.0  0.24957  0.72945  0.88042  1.0000
  C   C144      1.0  0.75156  0.73010  0.62359  1.0000
  C   C145      1.0  0.75177  0.26983  0.63253  1.0000
  C   C146      1.0  0.24829  0.26861  0.86830  1.0000
  C   C147      1.0  0.22929  0.75346  0.89716  1.0000
  C   C148      1.0  0.77169  0.75436  0.60865  1.0000
  C   C149      1.0  0.77201  0.24583  0.62001  1.0000
  C   C150      1.0  0.22857  0.24394  0.88860  1.0000
  C   C151      1.0  0.23697  0.78199  0.82450  1.0000
  C   C152      1.0  0.76367  0.78251  0.68057  1.0000
  C   C153      1.0  0.76407  0.21744  0.69378  1.0000
  C   C154      1.0  0.23683  0.21564  0.81975  1.0000
  C   C155      1.0  0.21542  0.80561  0.83623  1.0000
  C   C156      1.0  0.78489  0.80657  0.66870  1.0000
  C   C157      1.0  0.29765  0.70712  0.76727  1.0000
  C   C158      1.0  0.70366  0.29244  0.73822  1.0000
  C   C159      1.0  0.29603  0.29226  0.75413  1.0000
  C   C160      1.0  0.18927  0.80020  0.78636  1.0000
  C   C161      1.0  0.81057  0.80193  0.72562  1.0000
  C   C162      1.0  0.16919  0.82250  0.78968  1.0000
  C   C163      1.0  0.83029  0.82469  0.72109  1.0000
  C   C164      1.0  0.17467  0.85092  0.84402  1.0000
  C   C165      1.0  0.82485  0.85279  0.65892  1.0000
  C   C166      1.0  0.20070  0.85630  0.89581  1.0000
  C   C167      1.0  0.79922  0.85742  0.60072  1.0000
  C   C168      1.0  0.22055  0.83393  0.89372  1.0000
  C   C169      1.0  0.77980  0.83454  0.60334  1.0000
  C   C170      1.0  0.32454  0.70743  0.81330  1.0000
  C   C171      1.0  0.67690  0.29188  0.69048  1.0000
  C   C172      1.0  0.32303  0.29197  0.79902  1.0000
  C   C173      1.0  0.34175  0.68247  0.79379  1.0000
  C   C174      1.0  0.65986  0.31693  0.70390  1.0000
  C   C175      1.0  0.34016  0.31709  0.77914  1.0000
  C   C176      1.0  0.33230  0.65635  0.72926  1.0000
  C   C177      1.0  0.66930  0.34343  0.76401  1.0000
  C   C178      1.0  0.33061  0.34343  0.71500  1.0000
  C   C179      1.0  0.30528  0.65595  0.68393  1.0000
  C   C180      1.0  0.69620  0.34413  0.81048  1.0000
  C   C181      1.0  0.30337  0.34395  0.67283  1.0000
  C   C182      1.0  0.28841  0.68103  0.70109  1.0000
  C   C183      1.0  0.71293  0.31897  0.79946  1.0000
  C   C184      1.0  0.28653  0.31869  0.69027  1.0000
  C   C185      1.0  0.12900  0.87131  0.88377  1.0000
  C   C186      1.0  0.87020  0.87431  0.61426  1.0000
  C   C187      1.0  0.87085  0.12668  0.64183  1.0000
  C   C188      1.0  0.13073  0.12327  0.89076  1.0000
  C   C189      1.0  0.44386  0.52647  0.66813  1.0000
  C   C190      1.0  0.55613  0.52607  0.81861  1.0000
  C   C191      1.0  0.55607  0.47179  0.81644  1.0000
  C   C192      1.0  0.44380  0.47219  0.66575  1.0000
  C   C193      1.0  0.47192  0.52659  0.70320  1.0000
  C   C194      1.0  0.52789  0.52640  0.78566  1.0000
  C   C195      1.0  0.52790  0.47164  0.78285  1.0000
  C   C196      1.0  0.47193  0.47183  0.70038  1.0000
  C   C197      1.0  0.48651  0.55317  0.72725  1.0000
  C   C198      1.0  0.51310  0.55311  0.76616  1.0000
  C   C199      1.0  0.51321  0.44503  0.76065  1.0000
  C   C200      1.0  0.48663  0.44511  0.72150  1.0000
  C   C201      1.0  0.57331  0.44488  0.82402  1.0000
  C   C202      1.0  0.57346  0.55289  0.82803  1.0000
  C   C203      1.0  0.56336  0.41999  0.92400  1.0000
  C   C204      1.0  0.56347  0.57753  0.92600  1.0000
  C   C205      1.0  0.58074  0.39543  0.92749  1.0000
  C   C206      1.0  0.58085  0.60211  0.92954  1.0000
  C   C207      1.0  0.60872  0.39505  0.83188  1.0000
  C   C208      1.0  0.60893  0.60291  0.83544  1.0000
  C   C209      1.0  0.61884  0.41991  0.73181  1.0000
  C   C210      1.0  0.61918  0.57825  0.73790  1.0000
  C   C211      1.0  0.60143  0.44424  0.72791  1.0000
  C   C212      1.0  0.60178  0.55383  0.73456  1.0000
  C   C213      1.0  0.37343  0.36937  0.64071  1.0000
  C   C214      1.0  0.62670  0.36918  0.83651  1.0000
  C   C215      1.0  0.62674  0.62901  0.83859  1.0000
  C   C216      1.0  0.37480  0.63034  0.65071  1.0000
  C   C217      1.0  0.01412  0.99865  0.77914  1.0000
  C   C218      1.0  0.98622  0.99924  0.73666  1.0000
  C   C219      1.0  0.06935  0.99752  0.84805  1.0000
  C   C220      1.0  0.93116  0.00036  0.66533  1.0000
  C   C221      1.0  0.48593  0.49915  0.72204  1.0000
  C   C222      1.0  0.51387  0.49908  0.76417  1.0000
  C   C223      1.0  0.43070  0.49942  0.65146  1.0000
  C   C224      1.0  0.56927  0.49886  0.83217  1.0000
  S   S1        1.0  0.79579  0.28695  0.46378  1.0000
  S   S2        1.0  0.20424  0.28469  0.03790  1.0000
  S   S3        1.0  0.20569  0.71185  0.04899  1.0000
  S   S4        1.0  0.79573  0.71370  0.45688  1.0000
  S   S5        1.0  0.79506  0.28817  0.96272  1.0000
  S   S6        1.0  0.20454  0.28563  0.53898  1.0000
  S   S7        1.0  0.20461  0.71270  0.54593  1.0000
  S   S8        1.0  0.79587  0.71415  0.96058  1.0000
  N   N1        1.0  0.15564  0.87611  0.33404  1.0000
  N   N2        1.0  0.84188  0.87826  0.16804  1.0000
  N   N3        1.0  0.84218  0.12535  0.19753  1.0000
  N   N4        1.0  0.15760  0.12260  0.34715  1.0000
  N   N5        1.0  0.65341  0.62962  0.27847  1.0000
  N   N6        1.0  0.34716  0.63145  0.22299  1.0000
  N   N7        1.0  0.34592  0.37111  0.19631  1.0000
  N   N8        1.0  0.65258  0.37070  0.27417  1.0000
  N   N9        1.0  0.79705  0.25407  0.02484  1.0000
  N   N10       1.0  0.20299  0.25137  0.48303  1.0000
  N   N11       1.0  0.20215  0.74690  0.48662  1.0000
  N   N12       1.0  0.79782  0.74816  0.02018  1.0000
  N   N13       1.0  0.76210  0.29594  0.04725  1.0000
  N   N14       1.0  0.23722  0.29422  0.44998  1.0000
  N   N15       1.0  0.23764  0.70547  0.46031  1.0000
  N   N16       1.0  0.76293  0.70599  0.04554  1.0000
  N   N17       1.0  0.15627  0.87459  0.83732  1.0000
  N   N18       1.0  0.84295  0.87681  0.66398  1.0000
  N   N19       1.0  0.84357  0.12379  0.68958  1.0000
  N   N20       1.0  0.15802  0.12073  0.84351  1.0000
  N   N21       1.0  0.65361  0.62920  0.77236  1.0000
  N   N22       1.0  0.34804  0.63030  0.71938  1.0000
  N   N23       1.0  0.34643  0.36953  0.70353  1.0000
  N   N24       1.0  0.65354  0.36945  0.76967  1.0000
  N   N25       1.0  0.79805  0.25296  0.52732  1.0000
  N   N26       1.0  0.20260  0.25041  0.98275  1.0000
  N   N27       1.0  0.20337  0.74612  0.99068  1.0000
  N   N28       1.0  0.79777  0.74769  0.51655  1.0000
  N   N29       1.0  0.76278  0.29453  0.54797  1.0000
  N   N30       1.0  0.23690  0.29319  0.94823  1.0000
  N   N31       1.0  0.23861  0.70446  0.96181  1.0000
  N   N32       1.0  0.76275  0.70561  0.54175  1.0000
  Cl  Cl1       1.0  0.27611  0.81942  0.14595  1.0000
  Cl  Cl2       1.0  0.72249  0.81775  0.36195  1.0000
  Cl  Cl3       1.0  0.72243  0.18350  0.37763  1.0000
  Cl  Cl4       1.0  0.27846  0.18199  0.14191  1.0000
  Cl  Cl5       1.0  0.31883  0.76942  0.11483  1.0000
  Cl  Cl6       1.0  0.68026  0.76740  0.38133  1.0000
  Cl  Cl7       1.0  0.67971  0.23303  0.38985  1.0000
  Cl  Cl8       1.0  0.32009  0.23310  0.11255  1.0000
  Cl  Cl9       1.0  0.27710  0.81785  0.63982  1.0000
  Cl  Cl10      1.0  0.72300  0.81753  0.85875  1.0000
  Cl  Cl11      1.0  0.72332  0.18168  0.87350  1.0000
  Cl  Cl12      1.0  0.27770  0.18061  0.64381  1.0000
  Cl  Cl13      1.0  0.31998  0.76823  0.61692  1.0000
  Cl  Cl14      1.0  0.68047  0.76733  0.88106  1.0000
  Cl  Cl15      1.0  0.68083  0.23171  0.89417  1.0000
  Cl  Cl16      1.0  0.31922  0.23194  0.60511  1.0000
  C  Sn1       1.0  0.92607  0.89832  0.58567  1.0000
  C   C225      1.0  0.89725  0.89490  0.66052  1.0000
  C  Sn2       1.0  0.88118  0.91911  0.72897  1.0000
  C  Sn3       1.0  0.89417  0.94732  0.72238  1.0000
  C   C226      1.0  0.92296  0.95073  0.64754  1.0000
  C  Sn4       1.0  0.93906  0.92654  0.57908  1.0000
  O  Te1       1.0  0.94173  0.87382  0.51803  1.0000
  O  Te2       1.0  0.85241  0.91514  0.80320  1.0000
  O  Te3       1.0  0.87848  0.97183  0.79011  1.0000
  O  Te4       1.0  0.96780  0.93049  0.50486  1.0000
  Mg  Mg1       1.0  0.83999  0.95527  0.87786  1.0000
  Mg  Mg2       1.0  0.98024  0.89039  0.43009  1.0000
  C  Sn5       1.0  0.11080  0.05132  0.79348  1.0000
  C   C227      1.0  0.08189  0.04824  0.86707  1.0000
  C  Sn6       1.0  0.06612  0.07255  0.93668  1.0000
  C  Sn7       1.0  0.07950  0.10053  0.93257  1.0000
  C   C228      1.0  0.10838  0.10360  0.85899  1.0000
  C  Sn8       1.0  0.12418  0.07930  0.78937  1.0000
  O  Te5       1.0  0.12616  0.02672  0.72464  1.0000
  O  Te6       1.0  0.06983  0.07108  0.00962  1.0000
  O  Te7       1.0  0.09669  0.12730  0.00150  1.0000
  O  Te8       1.0  0.15303  0.08292  0.71644  1.0000
  Mg  Mg3       1.0  0.05792  0.11122  0.08670  1.0000
  Mg  Mg4       1.0  0.16495  0.04280  0.63924  1.0000
  C  Sn9       1.0  0.06372  0.08858  0.41670  1.0000
  C   C229      1.0  0.07019  0.06254  0.32629  1.0000
  C  Sn10      1.0  0.09858  0.05442  0.26793  1.0000
  C  Sn11      1.0  0.12097  0.07270  0.30070  1.0000
  C   C230      1.0  0.11449  0.09872  0.39108  1.0000
  C  Sn12      1.0  0.08611  0.10686  0.44947  1.0000
  O  Te9       1.0  0.03519  0.09627  0.47385  1.0000
  O  Te10      1.0  0.10452  0.02829  0.17777  1.0000
  O  Te11      1.0  0.14952  0.06499  0.24346  1.0000
  O  Te12      1.0  0.08016  0.13297  0.53961  1.0000
  Mg  Mg5       1.0  0.14678  0.02727  0.12631  1.0000
  Mg  Mg6       1.0  0.03792  0.13401  0.59120  1.0000
  C  Sn13      1.0  0.82363  0.17941  0.79340  1.0000
  C   C231      1.0  0.82260  0.15082  0.73209  1.0000
  C  Sn14      1.0  0.80371  0.14377  0.62542  1.0000
  C  Sn15      1.0  0.78548  0.16575  0.57897  1.0000
  C   C232      1.0  0.78652  0.19431  0.64024  1.0000
  C  Sn16      1.0  0.80540  0.20139  0.74695  1.0000
  O  Te13      1.0  0.84268  0.18597  0.89988  1.0000
  O  Te14      1.0  0.80306  0.11503  0.56576  1.0000
  O  Te15      1.0  0.76642  0.15916  0.47240  1.0000
  O  Te16      1.0  0.80606  0.23011  0.80656  1.0000
  Mg  Mg7       1.0  0.77346  0.11689  0.42384  1.0000
  Mg  Mg8       1.0  0.83566  0.22828  0.94842  1.0000
  C  Sn17      1.0  0.22217  0.15491  0.86081  1.0000
  C   C233      1.0  0.21996  0.18394  0.80500  1.0000
  C  Sn18      1.0  0.19375  0.19492  0.78020  1.0000
  C  Sn19      1.0  0.16921  0.17651  0.81195  1.0000
  C   C234      1.0  0.17142  0.14750  0.86775  1.0000
  C  Sn20      1.0  0.19763  0.13650  0.89256  1.0000
  O  Te17      1.0  0.24859  0.14439  0.88475  1.0000
  O  Te18      1.0  0.19207  0.22401  0.72428  1.0000
  O  Te19      1.0  0.14277  0.18705  0.78795  1.0000
  O  Te20      1.0  0.19931  0.10742  0.94847  1.0000
  Mg  Mg9       1.0  0.15132  0.22822  0.71044  1.0000
  Mg  Mg10      1.0  0.24005  0.10320  0.96243  1.0000
  C  Sn21      1.0  0.88947  0.05612  0.24800  1.0000
  C   C235      1.0  0.91801  0.05292  0.16794  1.0000
  C  Sn22      1.0  0.93371  0.07721  0.09209  1.0000
  C  Sn23      1.0  0.92061  0.10528  0.09644  1.0000
  C   C236      1.0  0.89209  0.10846  0.17649  1.0000
  C  Sn24      1.0  0.87637  0.08418  0.25235  1.0000
  O  Te21      1.0  0.87419  0.03153  0.32301  1.0000
  O  Te22      1.0  0.96221  0.07347  0.01276  1.0000
  O  Te23      1.0  0.93592  0.12986  0.02134  1.0000
  O  Te24      1.0  0.84789  0.08791  0.33167  1.0000
  Mg  Mg11      1.0  0.94157  0.11146  0.92870  1.0000
  Mg  Mg12      1.0  0.83594  0.04779  0.41584  1.0000
  C  Sn25      1.0  0.60315  0.43800  0.18875  1.0000
  C   C237      1.0  0.57523  0.44225  0.27705  1.0000
  C  Sn26      1.0  0.56356  0.42370  0.41328  1.0000
  C  Sn27      1.0  0.58016  0.40044  0.46238  1.0000
  C   C238      1.0  0.60807  0.39621  0.37413  1.0000
  C  Sn28      1.0  0.61975  0.41475  0.23785  1.0000
  O  Te25      1.0  0.61438  0.45681  0.05295  1.0000
  O  Te26      1.0  0.53559  0.42837  0.49958  1.0000
  O  Te27      1.0  0.56890  0.38163  0.59830  1.0000
  O  Te28      1.0  0.64770  0.41009  0.15160  1.0000
  Mg  Mg13      1.0  0.52980  0.39690  0.67623  1.0000
  Mg  Mg14      1.0  0.62094  0.43939  0.97500  1.0000
  C  Sn29      1.0  0.28576  0.67301  0.24534  1.0000
  C   C239      1.0  0.29200  0.70098  0.29963  1.0000
  C  Sn30      1.0  0.31995  0.70844  0.31137  1.0000
  C  Sn31      1.0  0.34211  0.68752  0.26785  1.0000
  C   C240      1.0  0.33586  0.65957  0.21357  1.0000
  C  Sn32      1.0  0.30792  0.65209  0.20182  1.0000
  O  Te29      1.0  0.25767  0.66603  0.23455  1.0000
  O  Te30      1.0  0.32567  0.73654  0.36603  1.0000
  O  Te31      1.0  0.37021  0.69452  0.27869  1.0000
  O  Te32      1.0  0.30219  0.62402  0.14717  1.0000
  Mg  Mg15      1.0  0.36732  0.73562  0.35976  1.0000
  Mg  Mg16      1.0  0.26056  0.62492  0.15331  1.0000
  C  Sn33      1.0  0.81941  0.19902  0.19522  1.0000
  C   C241      1.0  0.79290  0.19766  0.14633  1.0000
  C  Sn34      1.0  0.78012  0.17047  0.12878  1.0000
  C  Sn35      1.0  0.79414  0.14408  0.16086  1.0000
  C   C242      1.0  0.82063  0.14544  0.20974  1.0000
  C  Sn36      1.0  0.83343  0.17263  0.22730  1.0000
  O  Te33      1.0  0.83179  0.22645  0.21199  1.0000
  O  Te34      1.0  0.75360  0.16968  0.07970  1.0000
  O  Te35      1.0  0.78174  0.11664  0.14405  1.0000
  O  Te36      1.0  0.85993  0.17343  0.27637  1.0000
  Mg  Mg17      1.0  0.74539  0.12698  0.07424  1.0000
  Mg  Mg18      1.0  0.86815  0.21611  0.28196  1.0000
  C  Sn37      1.0  0.10389  0.93778  0.19428  1.0000
  C   C243      1.0  0.07575  0.94192  0.27938  1.0000
  C  Sn38      1.0  0.06436  0.92467  0.42200  1.0000
  C  Sn39      1.0  0.08145  0.90284  0.48088  1.0000
  C   C244      1.0  0.10957  0.89871  0.39582  1.0000
  C  Sn40      1.0  0.12098  0.91595  0.25315  1.0000
  O  Te37      1.0  0.11484  0.95528  0.05197  1.0000
  O  Te38      1.0  0.03617  0.92921  0.50494  1.0000
  O  Te39      1.0  0.07047  0.88534  0.62331  1.0000
  O  Te40      1.0  0.14915  0.91143  0.17026  1.0000
  Mg  Mg19      1.0  0.03091  0.89985  0.69322  1.0000
  Mg  Mg20      1.0  0.12186  0.93862  0.98203  1.0000
  C  Sn41      1.0  0.38690  0.57640  0.79983  1.0000
  C   C245      1.0  0.39360  0.60229  0.70428  1.0000
  C  Sn42      1.0  0.41687  0.60320  0.56833  1.0000
  C  Sn43      1.0  0.43378  0.57769  0.52692  1.0000
  C   C246      1.0  0.42707  0.55181  0.62241  1.0000
  C  Sn44      1.0  0.40381  0.55089  0.75842  1.0000
  O  Te41      1.0  0.36354  0.57599  0.93520  1.0000
  O  Te42      1.0  0.42316  0.62934  0.47470  1.0000
  O  Te43      1.0  0.45715  0.57811  0.39143  1.0000
  O  Te44      1.0  0.39751  0.52476  0.85199  1.0000
  Mg  Mg21      1.0  0.45714  0.61893  0.30182  1.0000
  Mg  Mg22      1.0  0.39611  0.53731  0.02483  1.0000
  C  Sn45      1.0  0.38995  0.55658  0.22455  1.0000
  C   C247      1.0  0.41805  0.55238  0.13906  1.0000
  C  Sn46      1.0  0.43478  0.57637  0.06854  1.0000
  C  Sn47      1.0  0.42318  0.60518  0.08389  1.0000
  C   C248      1.0  0.39510  0.60937  0.16936  1.0000
  C  Sn48      1.0  0.37835  0.58539  0.23990  1.0000
  O  Te45      1.0  0.37362  0.53228  0.29406  1.0000
  O  Te46      1.0  0.43024  0.56946  0.98360  1.0000
  O  Te47      1.0  0.43954  0.62949  0.01428  1.0000
  O  Te48      1.0  0.35033  0.59013  0.32482  1.0000
  Mg  Mg23      1.0  0.44402  0.60961  0.91054  1.0000
  Mg  Mg24      1.0  0.33654  0.55000  0.39800  1.0000
  C  Sn49      1.0  0.92480  0.90058  0.08482  1.0000
  C   C249      1.0  0.89614  0.89679  0.16195  1.0000
  C  Sn50      1.0  0.88019  0.92056  0.23771  1.0000
  C  Sn51      1.0  0.89317  0.94871  0.23626  1.0000
  C   C250      1.0  0.92182  0.95248  0.15914  1.0000
  C  Sn52      1.0  0.93778  0.92873  0.08337  1.0000
  O  Te49      1.0  0.94033  0.87651  0.00985  1.0000
  O  Te50      1.0  0.85157  0.91623  0.31409  1.0000
  O  Te51      1.0  0.87761  0.97278  0.31133  1.0000
  O  Te52      1.0  0.96638  0.93305  0.00700  1.0000
  Mg  Mg25      1.0  0.83930  0.95583  0.39935  1.0000
  Mg  Mg26      1.0  0.94609  0.89131  0.92163  1.0000
  C  Sn53      1.0  0.71471  0.67156  0.75477  1.0000
  C   C251      1.0  0.70837  0.69965  0.69976  1.0000
  C  Sn54      1.0  0.68046  0.70683  0.68610  1.0000
  C  Sn55      1.0  0.65842  0.68549  0.72841  1.0000
  C   C252      1.0  0.66476  0.65742  0.78341  1.0000
  C  Sn56      1.0  0.69267  0.65021  0.79708  1.0000
  O  Te53      1.0  0.74276  0.66486  0.76748  1.0000
  O  Te54      1.0  0.67464  0.73507  0.63076  1.0000
  O  Te55      1.0  0.63035  0.69221  0.71565  1.0000
  O  Te56      1.0  0.69849  0.62200  0.85241  1.0000
  Mg  Mg27      1.0  0.63308  0.73365  0.63430  1.0000
  Mg  Mg28      1.0  0.74003  0.62341  0.84900  1.0000
  C  Sn57      1.0  0.42768  0.39682  0.58738  1.0000
  C   C253      1.0  0.39932  0.39249  0.66917  1.0000
  C  Sn58      1.0  0.38256  0.41636  0.73597  1.0000
  C  Sn59      1.0  0.39439  0.44516  0.72061  1.0000
  C   C254      1.0  0.42273  0.44949  0.63883  1.0000
  C  Sn60      1.0  0.43950  0.42563  0.57201  1.0000
  O  Te57      1.0  0.44403  0.37264  0.52154  1.0000
  O  Te58      1.0  0.35426  0.41147  0.81725  1.0000
  O  Te59      1.0  0.37800  0.46935  0.78653  1.0000
  O  Te60      1.0  0.46778  0.43051  0.49075  1.0000
  Mg  Mg29      1.0  0.34055  0.45148  0.88609  1.0000
  Mg  Mg30      1.0  0.48150  0.39052  0.42179  1.0000
  C  Sn61      1.0  0.37966  0.43111  0.20772  1.0000
  C   C255      1.0  0.38672  0.40506  0.11841  1.0000
  C  Sn62      1.0  0.41525  0.39808  0.05492  1.0000
  C  Sn63      1.0  0.43720  0.41755  0.08134  1.0000
  C   C256      1.0  0.43014  0.44359  0.17062  1.0000
  C  Sn64      1.0  0.40161  0.45058  0.23414  1.0000
  O  Te61      1.0  0.35099  0.43763  0.27006  1.0000
  O  Te62      1.0  0.38920  0.36975  0.96598  1.0000
  O  Te63      1.0  0.46589  0.41101  0.01890  1.0000
  O  Te64      1.0  0.39508  0.47673  0.32305  1.0000
  Mg  Mg31      1.0  0.43142  0.37057  0.90585  1.0000
  Mg  Mg32      1.0  0.35286  0.47593  0.38331  1.0000
