data_image0
_chemical_formula_structural       H104C224S8N32F16C2Sn2C2HTe2HMgC2Sn2C2HTe2HMgC2Sn2C2HTe2HMgC2Sn2C2HTe2HMgC2Sn2C2HTe2HMgC2Sn2C2HTe2HMgC2Sn2C2HTe2HMgC2Sn2C2HTe2HMgC2Sn2C2HTe2HMgC2Sn2C2HTe2HMgC2Sn2C2HTe2HMgC2Sn2C2HTe2HMgC2Sn2C2HTe2HMgC2Sn2C2HTe2HMgC2Sn2C2HTe2HMgC2Sn2C2HTe2HMg
_chemical_formula_sum              "H136 C288 S8 N32 F16 Sn32 Te32 Mg16"
_cell_length_a       48.1754
_cell_length_b       45.0302
_cell_length_c       7.89559
_cell_angle_alpha    89.1392
_cell_angle_beta     79.7856
_cell_angle_gamma    90.0991

_symmetry_space_group_name_H-M    'P1'
_space_group_IT_number       1

loop_
  _space_group_symop_operation_xyz
  'x, y, z'

loop_
  _atom_site_type_symbol
  _atom_site_label
  _atom_site_symmetry_multiplicity
  _atom_site_fract_x
  _atom_site_fract_y
  _atom_site_fract_z
  _atom_site_occupancy
  H   H1        1.0  0.89095  0.96662  0.34090  1.0000
  H   H2        1.0  0.10838  0.03499  0.18327  1.0000
  H   H3        1.0  0.85882  0.92404  0.32028  1.0000
  H   H4        1.0  0.14114  0.07708  0.20314  1.0000
  H   H5        1.0  0.07204  0.87380  0.02350  1.0000
  H   H6        1.0  0.92567  0.87816  0.47421  1.0000
  H   H7        1.0  0.92469  0.12472  0.50636  1.0000
  H   H8        1.0  0.07554  0.11962  0.03103  1.0000
  H   H9        1.0  0.04069  0.91706  0.01363  1.0000
  H   H10       1.0  0.95753  0.92107  0.48387  1.0000
  H   H11       1.0  0.95710  0.08219  0.50678  1.0000
  H   H12       1.0  0.04334  0.07690  0.02221  1.0000
  H   H13       1.0  0.67534  0.27602  0.17777  1.0000
  H   H14       1.0  0.32309  0.27607  0.30494  1.0000
  H   H15       1.0  0.64267  0.31886  0.19303  1.0000
  H   H16       1.0  0.35563  0.31919  0.28083  1.0000
  H   H17       1.0  0.70289  0.37344  0.38650  1.0000
  H   H18       1.0  0.29453  0.37325  0.08630  1.0000
  H   H19       1.0  0.73565  0.33043  0.37412  1.0000
  H   H20       1.0  0.26183  0.32996  0.10954  1.0000
  H   H21       1.0  0.11799  0.85167  0.42309  1.0000
  H   H22       1.0  0.88026  0.85553  0.05920  1.0000
  H   H23       1.0  0.87852  0.15044  0.09974  1.0000
  H   H24       1.0  0.12034  0.14744  0.44229  1.0000
  H   H25       1.0  0.42652  0.37722  0.46379  1.0000
  H   H26       1.0  0.57362  0.62181  0.01839  1.0000
  H   H27       1.0  0.63935  0.42284  0.18123  1.0000
  H   H28       1.0  0.36034  0.58023  0.31466  1.0000
  H   H29       1.0  0.60777  0.46613  0.16682  1.0000
  H   H30       1.0  0.39155  0.53652  0.32719  1.0000
  H   H31       1.0  0.38087  0.35294  0.05183  1.0000
  H   H32       1.0  0.61726  0.35135  0.41886  1.0000
  H   H33       1.0  0.61861  0.64913  0.41807  1.0000
  H   H34       1.0  0.38265  0.65113  0.06950  1.0000
  H   H35       1.0  0.52289  0.57620  0.28031  1.0000
  H   H36       1.0  0.47611  0.57632  0.20415  1.0000
  H   H37       1.0  0.47607  0.42529  0.20286  1.0000
  H   H38       1.0  0.52303  0.42516  0.27573  1.0000
  H   H39       1.0  0.02300  0.92579  0.28122  1.0000
  H   H40       1.0  0.97588  0.92661  0.20823  1.0000
  H   H41       1.0  0.97645  0.07761  0.23037  1.0000
  H   H42       1.0  0.02364  0.07668  0.30130  1.0000
  H   H43       1.0  0.45776  0.42028  0.47965  1.0000
  H   H44       1.0  0.54234  0.57858  0.00776  1.0000
  H   H45       1.0  0.08909  0.99969  0.38529  1.0000
  H   H46       1.0  0.90948  0.00323  0.13847  1.0000
  H   H47       1.0  0.40997  0.50111  0.11235  1.0000
  H   H48       1.0  0.58829  0.50038  0.38066  1.0000
  H   H49       1.0  0.10727  0.96312  0.67644  1.0000
  H   H50       1.0  0.89137  0.96593  0.82021  1.0000
  H   H51       1.0  0.89254  0.03401  0.84826  1.0000
  H   H52       1.0  0.10846  0.03229  0.67683  1.0000
  H   H53       1.0  0.13908  0.92005  0.69165  1.0000
  H   H54       1.0  0.85909  0.92335  0.80404  1.0000
  H   H55       1.0  0.85967  0.07650  0.84279  1.0000
  H   H56       1.0  0.14118  0.07469  0.69209  1.0000
  H   H57       1.0  0.92459  0.88174  0.96833  1.0000
  H   H58       1.0  0.07485  0.12246  0.53454  1.0000
  H   H59       1.0  0.95638  0.92437  0.98622  1.0000
  H   H60       1.0  0.04262  0.07994  0.52257  1.0000
  H   H61       1.0  0.82235  0.77714  0.82866  1.0000
  H   H62       1.0  0.85492  0.82041  0.80741  1.0000
  H   H63       1.0  0.79546  0.87389  0.59331  1.0000
  H   H64       1.0  0.76303  0.83042  0.61064  1.0000
  H   H65       1.0  0.32520  0.72700  0.79986  1.0000
  H   H66       1.0  0.67629  0.72701  0.68252  1.0000
  H   H67       1.0  0.67777  0.27593  0.67306  1.0000
  H   H68       1.0  0.35805  0.68437  0.78461  1.0000
  H   H69       1.0  0.64323  0.68437  0.69631  1.0000
  H   H70       1.0  0.64475  0.31829  0.69191  1.0000
  H   H71       1.0  0.29688  0.62856  0.60836  1.0000
  H   H72       1.0  0.70353  0.62775  0.87970  1.0000
  H   H73       1.0  0.70539  0.37359  0.87750  1.0000
  H   H74       1.0  0.26395  0.67131  0.62085  1.0000
  H   H75       1.0  0.73660  0.67050  0.86929  1.0000
  H   H76       1.0  0.73839  0.33087  0.86260  1.0000
  H   H77       1.0  0.11739  0.84894  0.93593  1.0000
  H   H78       1.0  0.88062  0.85259  0.57049  1.0000
  H   H79       1.0  0.88000  0.14873  0.60190  1.0000
  H   H80       1.0  0.12020  0.14477  0.93723  1.0000
  H   H81       1.0  0.57218  0.37671  0.51239  1.0000
  H   H82       1.0  0.42675  0.62452  0.96727  1.0000
  H   H83       1.0  0.35899  0.42089  0.79479  1.0000
  H   H84       1.0  0.64011  0.57850  0.67737  1.0000
  H   H85       1.0  0.39064  0.46381  0.81561  1.0000
  H   H86       1.0  0.60849  0.53531  0.66285  1.0000
  H   H87       1.0  0.38198  0.35112  0.54870  1.0000
  H   H88       1.0  0.61934  0.35120  0.92183  1.0000
  H   H89       1.0  0.61793  0.64824  0.92520  1.0000
  H   H90       1.0  0.38279  0.64919  0.56010  1.0000
  H   H91       1.0  0.52286  0.57498  0.78554  1.0000
  H   H92       1.0  0.47591  0.57503  0.71253  1.0000
  H   H93       1.0  0.47640  0.42405  0.70321  1.0000
  H   H94       1.0  0.52323  0.42396  0.77848  1.0000
  H   H95       1.0  0.02232  0.92309  0.78794  1.0000
  H   H96       1.0  0.97572  0.92422  0.70929  1.0000
  H   H97       1.0  0.97687  0.07518  0.73153  1.0000
  H   H98       1.0  0.02412  0.07404  0.80159  1.0000
  H   H99       1.0  0.54109  0.42023  0.50390  1.0000
  H   H100      1.0  0.45752  0.58078  0.97620  1.0000
  H   H101      1.0  0.08902  0.99704  0.88859  1.0000
  H   H102      1.0  0.91081  0.00133  0.62164  1.0000
  H   H103      1.0  0.41016  0.49991  0.61358  1.0000
  H   H104      1.0  0.58946  0.49923  0.86899  1.0000
  C   C1        1.0  0.02711  0.97348  0.29613  1.0000
  C   C2        1.0  0.97169  0.97453  0.21090  1.0000
  C   C3        1.0  0.97189  0.02982  0.21917  1.0000
  C   C4        1.0  0.02745  0.02871  0.30403  1.0000
  C   C5        1.0  0.01260  0.94687  0.26867  1.0000
  C   C6        1.0  0.98623  0.94737  0.22810  1.0000
  C   C7        1.0  0.98665  0.05644  0.24408  1.0000
  C   C8        1.0  0.01310  0.05591  0.28401  1.0000
  C   C9        1.0  0.05493  0.97317  0.33243  1.0000
  C   C10       1.0  0.94365  0.97526  0.17742  1.0000
  C   C11       1.0  0.94388  0.02999  0.18563  1.0000
  C   C12       1.0  0.05533  0.02784  0.34013  1.0000
  C   C13       1.0  0.92610  0.94867  0.16457  1.0000
  C   C14       1.0  0.07304  0.05430  0.35214  1.0000
  C   C15       1.0  0.89813  0.94822  0.25675  1.0000
  C   C16       1.0  0.10124  0.05386  0.26371  1.0000
  C   C17       1.0  0.88017  0.92448  0.24671  1.0000
  C   C18       1.0  0.11952  0.07730  0.27271  1.0000
  C   C19       1.0  0.88948  0.90001  0.14360  1.0000
  C   C20       1.0  0.11019  0.10247  0.36944  1.0000
  C   C21       1.0  0.91730  0.90019  0.05213  1.0000
  C   C22       1.0  0.08215  0.10330  0.45665  1.0000
  C   C23       1.0  0.93530  0.92409  0.06272  1.0000
  C   C24       1.0  0.06389  0.07951  0.44863  1.0000
  C   C25       1.0  0.25693  0.77881  0.19219  1.0000
  C   C26       1.0  0.74218  0.77788  0.28299  1.0000
  C   C27       1.0  0.74067  0.22365  0.32018  1.0000
  C   C28       1.0  0.25776  0.22235  0.19112  1.0000
  C   C29       1.0  0.27678  0.75520  0.17789  1.0000
  C   C30       1.0  0.72289  0.75378  0.29124  1.0000
  C   C31       1.0  0.72102  0.24732  0.32646  1.0000
  C   C32       1.0  0.27688  0.24674  0.17181  1.0000
  C   C33       1.0  0.27048  0.72670  0.24087  1.0000
  C   C34       1.0  0.73042  0.72520  0.24091  1.0000
  C   C35       1.0  0.72801  0.27553  0.26082  1.0000
  C   C36       1.0  0.27003  0.27495  0.23191  1.0000
  C   C37       1.0  0.24194  0.72285  0.32780  1.0000
  C   C38       1.0  0.75964  0.72229  0.16595  1.0000
  C   C39       1.0  0.75680  0.27880  0.17707  1.0000
  C   C40       1.0  0.24163  0.27773  0.32168  1.0000
  C   C41       1.0  0.22162  0.74696  0.34291  1.0000
  C   C42       1.0  0.77937  0.74709  0.15413  1.0000
  C   C43       1.0  0.77686  0.25454  0.16879  1.0000
  C   C44       1.0  0.22202  0.25282  0.34219  1.0000
  C   C45       1.0  0.22906  0.77595  0.27200  1.0000
  C   C46       1.0  0.77078  0.77593  0.21809  1.0000
  C   C47       1.0  0.76881  0.22598  0.24433  1.0000
  C   C48       1.0  0.23002  0.22421  0.27350  1.0000
  C   C49       1.0  0.70786  0.30032  0.27387  1.0000
  C   C50       1.0  0.29016  0.29998  0.20893  1.0000
  C   C51       1.0  0.68126  0.29711  0.22672  1.0000
  C   C52       1.0  0.31706  0.29707  0.25264  1.0000
  C   C53       1.0  0.66281  0.32105  0.23617  1.0000
  C   C54       1.0  0.33546  0.32121  0.23783  1.0000
  C   C55       1.0  0.67057  0.34882  0.29313  1.0000
  C   C56       1.0  0.32747  0.34900  0.17837  1.0000
  C   C57       1.0  0.69726  0.35206  0.33971  1.0000
  C   C58       1.0  0.30056  0.35187  0.13398  1.0000
  C   C59       1.0  0.71549  0.32808  0.33190  1.0000
  C   C60       1.0  0.28231  0.32769  0.14780  1.0000
  C   C61       1.0  0.12759  0.87217  0.36054  1.0000
  C   C62       1.0  0.87076  0.87488  0.13093  1.0000
  C   C63       1.0  0.86973  0.13006  0.16776  1.0000
  C   C64       1.0  0.12940  0.12720  0.37837  1.0000
  C   C65       1.0  0.44400  0.52830  0.16129  1.0000
  C   C66       1.0  0.55462  0.52799  0.32855  1.0000
  C   C67       1.0  0.55468  0.47323  0.32595  1.0000
  C   C68       1.0  0.44394  0.47352  0.16014  1.0000
  C   C69       1.0  0.47180  0.52846  0.19838  1.0000
  C   C70       1.0  0.52693  0.52830  0.28930  1.0000
  C   C71       1.0  0.52699  0.47302  0.28694  1.0000
  C   C72       1.0  0.47176  0.47318  0.19741  1.0000
  C   C73       1.0  0.48632  0.55532  0.22166  1.0000
  C   C74       1.0  0.51255  0.55525  0.26459  1.0000
  C   C75       1.0  0.51264  0.44618  0.26120  1.0000
  C   C76       1.0  0.48633  0.44624  0.21966  1.0000
  C   C77       1.0  0.57200  0.44635  0.33476  1.0000
  C   C78       1.0  0.42688  0.55536  0.15182  1.0000
  C   C79       1.0  0.56233  0.42060  0.42952  1.0000
  C   C80       1.0  0.43649  0.58076  0.05323  1.0000
  C   C81       1.0  0.57997  0.39625  0.43550  1.0000
  C   C82       1.0  0.41906  0.60532  0.04768  1.0000
  C   C83       1.0  0.60800  0.39702  0.34757  1.0000
  C   C84       1.0  0.39133  0.60523  0.14053  1.0000
  C   C85       1.0  0.61779  0.42267  0.25166  1.0000
  C   C86       1.0  0.38161  0.57991  0.24000  1.0000
  C   C87       1.0  0.60012  0.44675  0.24528  1.0000
  C   C88       1.0  0.39904  0.55558  0.24542  1.0000
  C   C89       1.0  0.37116  0.37292  0.11566  1.0000
  C   C90       1.0  0.62677  0.37186  0.35634  1.0000
  C   C91       1.0  0.62808  0.62867  0.35903  1.0000
  C   C92       1.0  0.37289  0.63078  0.13312  1.0000
  C   C93       1.0  0.01337  0.00138  0.27942  1.0000
  C   C94       1.0  0.98568  0.00192  0.23561  1.0000
  C   C95       1.0  0.06803  0.00020  0.35357  1.0000
  C   C96       1.0  0.93075  0.00284  0.16676  1.0000
  C   C97       1.0  0.48560  0.50077  0.21992  1.0000
  C   C98       1.0  0.51313  0.50070  0.26630  1.0000
  C   C99       1.0  0.43104  0.50099  0.14393  1.0000
  C   C100      1.0  0.56743  0.50053  0.34614  1.0000
  C   C101      1.0  0.02706  0.97085  0.79856  1.0000
  C   C102      1.0  0.97214  0.97221  0.70609  1.0000
  C   C103      1.0  0.97245  0.02746  0.71623  1.0000
  C   C104      1.0  0.02776  0.02610  0.80297  1.0000
  C   C105      1.0  0.01236  0.94430  0.77190  1.0000
  C   C106      1.0  0.98625  0.94494  0.72770  1.0000
  C   C107      1.0  0.98708  0.05399  0.74393  1.0000
  C   C108      1.0  0.01353  0.05335  0.78343  1.0000
  C   C109      1.0  0.05474  0.97047  0.83707  1.0000
  C   C110      1.0  0.94448  0.97315  0.66709  1.0000
  C   C111      1.0  0.94467  0.02784  0.67897  1.0000
  C   C112      1.0  0.05561  0.02515  0.83910  1.0000
  C   C113      1.0  0.07170  0.94336  0.84540  1.0000
  C   C114      1.0  0.92693  0.94664  0.65360  1.0000
  C   C115      1.0  0.92722  0.05485  0.67715  1.0000
  C   C116      1.0  0.07345  0.05159  0.84845  1.0000
  C   C117      1.0  0.09979  0.94374  0.75543  1.0000
  C   C118      1.0  0.89872  0.94692  0.74153  1.0000
  C   C119      1.0  0.89937  0.05377  0.77099  1.0000
  C   C120      1.0  0.10147  0.05123  0.75712  1.0000
  C   C121      1.0  0.11754  0.91979  0.76230  1.0000
  C   C122      1.0  0.88068  0.92320  0.73425  1.0000
  C   C123      1.0  0.88105  0.07745  0.76989  1.0000
  C   C124      1.0  0.11972  0.07482  0.76398  1.0000
  C   C125      1.0  0.10782  0.89423  0.85946  1.0000
  C   C126      1.0  0.89024  0.89794  0.63923  1.0000
  C   C127      1.0  0.88998  0.10348  0.67512  1.0000
  C   C128      1.0  0.11054  0.09989  0.86201  1.0000
  C   C129      1.0  0.07975  0.89335  0.94651  1.0000
  C   C130      1.0  0.91826  0.89733  0.55171  1.0000
  C   C131      1.0  0.91775  0.10494  0.58345  1.0000
  C   C132      1.0  0.08265  0.10057  0.95182  1.0000
  C   C133      1.0  0.06198  0.91758  0.93988  1.0000
  C   C134      1.0  0.93630  0.92135  0.55832  1.0000
  C   C135      1.0  0.93610  0.08104  0.58432  1.0000
  C   C136      1.0  0.06442  0.07672  0.94560  1.0000
  C   C137      1.0  0.25727  0.77793  0.67498  1.0000
  C   C138      1.0  0.74296  0.77793  0.81759  1.0000
  C   C139      1.0  0.74178  0.22339  0.82341  1.0000
  C   C140      1.0  0.25640  0.22109  0.68348  1.0000
  C   C141      1.0  0.27734  0.75464  0.66021  1.0000
  C   C142      1.0  0.72308  0.75428  0.82851  1.0000
  C   C143      1.0  0.72275  0.24754  0.82297  1.0000
  C   C144      1.0  0.27599  0.24513  0.65858  1.0000
  C   C145      1.0  0.27161  0.72642  0.72910  1.0000
  C   C146      1.0  0.72927  0.72644  0.76066  1.0000
  C   C147      1.0  0.73034  0.27546  0.75506  1.0000
  C   C148      1.0  0.26992  0.27315  0.72440  1.0000
  C   C149      1.0  0.24338  0.72255  0.82162  1.0000
  C   C150      1.0  0.75776  0.72329  0.67297  1.0000
  C   C151      1.0  0.75924  0.27805  0.67408  1.0000
  C   C152      1.0  0.24187  0.27631  0.81933  1.0000
  C   C153      1.0  0.22296  0.74649  0.83854  1.0000
  C   C154      1.0  0.77811  0.74742  0.66098  1.0000
  C   C155      1.0  0.77876  0.25341  0.67182  1.0000
  C   C156      1.0  0.22166  0.25194  0.84119  1.0000
  C   C157      1.0  0.22983  0.77516  0.76197  1.0000
  C   C158      1.0  0.77068  0.77572  0.73534  1.0000
  C   C159      1.0  0.77009  0.22508  0.74940  1.0000
  C   C160      1.0  0.22905  0.22327  0.77226  1.0000
  C   C161      1.0  0.79056  0.80087  0.72041  1.0000
  C   C162      1.0  0.29221  0.70204  0.71228  1.0000
  C   C163      1.0  0.70879  0.70176  0.77468  1.0000
  C   C164      1.0  0.71037  0.30039  0.76695  1.0000
  C   C165      1.0  0.81682  0.79801  0.77232  1.0000
  C   C166      1.0  0.83509  0.82222  0.76013  1.0000
  C   C167      1.0  0.82747  0.84978  0.69591  1.0000
  C   C168      1.0  0.80108  0.85266  0.64494  1.0000
  C   C169      1.0  0.78304  0.82837  0.65528  1.0000
  C   C170      1.0  0.31914  0.70569  0.75407  1.0000
  C   C171      1.0  0.68208  0.70548  0.72963  1.0000
  C   C172      1.0  0.68362  0.29702  0.72221  1.0000
  C   C173      1.0  0.33770  0.68181  0.74479  1.0000
  C   C174      1.0  0.66342  0.68157  0.73804  1.0000
  C   C175      1.0  0.66493  0.32075  0.73397  1.0000
  C   C176      1.0  0.32966  0.65369  0.69410  1.0000
  C   C177      1.0  0.67109  0.65323  0.79120  1.0000
  C   C178      1.0  0.67260  0.34860  0.79039  1.0000
  C   C179      1.0  0.30277  0.65017  0.65078  1.0000
  C   C180      1.0  0.69787  0.64956  0.83612  1.0000
  C   C181      1.0  0.69953  0.35208  0.83345  1.0000
  C   C182      1.0  0.28444  0.67403  0.65841  1.0000
  C   C183      1.0  0.71628  0.67347  0.82966  1.0000
  C   C184      1.0  0.71799  0.32825  0.82365  1.0000
  C   C185      1.0  0.12675  0.86933  0.87077  1.0000
  C   C186      1.0  0.87126  0.87296  0.63115  1.0000
  C   C187      1.0  0.87082  0.12841  0.66874  1.0000
  C   C188      1.0  0.12956  0.12476  0.87208  1.0000
  C   C189      1.0  0.44405  0.52707  0.66492  1.0000
  C   C190      1.0  0.55538  0.52681  0.82339  1.0000
  C   C191      1.0  0.55530  0.47198  0.82237  1.0000
  C   C192      1.0  0.44407  0.47226  0.66174  1.0000
  C   C193      1.0  0.47188  0.52722  0.70206  1.0000
  C   C194      1.0  0.52736  0.52709  0.78883  1.0000
  C   C195      1.0  0.52738  0.47179  0.78694  1.0000
  C   C196      1.0  0.47195  0.47194  0.69871  1.0000
  C   C197      1.0  0.48633  0.55404  0.72695  1.0000
  C   C198      1.0  0.51269  0.55401  0.76793  1.0000
  C   C199      1.0  0.51287  0.44496  0.76295  1.0000
  C   C200      1.0  0.48658  0.44502  0.72079  1.0000
  C   C201      1.0  0.42672  0.44540  0.64888  1.0000
  C   C202      1.0  0.57280  0.55372  0.83330  1.0000
  C   C203      1.0  0.43642  0.42031  0.55244  1.0000
  C   C204      1.0  0.56342  0.57873  0.93113  1.0000
  C   C205      1.0  0.41867  0.39612  0.54248  1.0000
  C   C206      1.0  0.58118  0.60302  0.93803  1.0000
  C   C207      1.0  0.39050  0.39611  0.62846  1.0000
  C   C208      1.0  0.60905  0.60320  0.84725  1.0000
  C   C209      1.0  0.38065  0.42110  0.72566  1.0000
  C   C210      1.0  0.61864  0.57821  0.74933  1.0000
  C   C211      1.0  0.39839  0.44507  0.73565  1.0000
  C   C212      1.0  0.60089  0.55412  0.74267  1.0000
  C   C213      1.0  0.37205  0.37068  0.61622  1.0000
  C   C214      1.0  0.62867  0.37153  0.85569  1.0000
  C   C215      1.0  0.62758  0.62867  0.85643  1.0000
  C   C216      1.0  0.37301  0.62943  0.63048  1.0000
  C   C217      1.0  0.01360  0.99881  0.77898  1.0000
  C   C218      1.0  0.98609  0.99950  0.73288  1.0000
  C   C219      1.0  0.06804  0.99751  0.85579  1.0000
  C   C220      1.0  0.93177  0.00081  0.65472  1.0000
  C   C221      1.0  0.48579  0.49953  0.72196  1.0000
  C   C222      1.0  0.51347  0.49948  0.76686  1.0000
  C   C223      1.0  0.43116  0.49976  0.64632  1.0000
  C   C224      1.0  0.56830  0.49934  0.83875  1.0000
  S   S1        1.0  0.80046  0.29588  0.01108  1.0000
  S   S2        1.0  0.19838  0.29398  0.49157  1.0000
  S   S3        1.0  0.19886  0.70479  0.49622  1.0000
  S   S4        1.0  0.80415  0.70571  0.01309  1.0000
  S   S5        1.0  0.80364  0.29396  0.51286  1.0000
  S   S6        1.0  0.19932  0.29355  0.99277  1.0000
  S   S7        1.0  0.20112  0.70482  0.00096  1.0000
  S   S8        1.0  0.80080  0.70668  0.50251  1.0000
  N   N1        1.0  0.15433  0.87427  0.30360  1.0000
  N   N2        1.0  0.84434  0.87552  0.19802  1.0000
  N   N3        1.0  0.84335  0.12787  0.23467  1.0000
  N   N4        1.0  0.15594  0.12520  0.31591  1.0000
  N   N5        1.0  0.65481  0.62671  0.30192  1.0000
  N   N6        1.0  0.34631  0.62923  0.19537  1.0000
  N   N7        1.0  0.34446  0.37427  0.17474  1.0000
  N   N8        1.0  0.65342  0.37383  0.29604  1.0000
  N   N9        1.0  0.80258  0.26160  0.07713  1.0000
  N   N10       1.0  0.19661  0.25933  0.43715  1.0000
  N   N11       1.0  0.19622  0.73936  0.43644  1.0000
  N   N12       1.0  0.80547  0.74031  0.06949  1.0000
  N   N13       1.0  0.76779  0.30358  0.09165  1.0000
  N   N14       1.0  0.23059  0.30249  0.40171  1.0000
  N   N15       1.0  0.23144  0.69765  0.41045  1.0000
  N   N16       1.0  0.77134  0.69746  0.09024  1.0000
  N   N17       1.0  0.15333  0.87154  0.80933  1.0000
  N   N18       1.0  0.84462  0.87490  0.69054  1.0000
  N   N19       1.0  0.84434  0.12650  0.73363  1.0000
  N   N20       1.0  0.15616  0.12323  0.81022  1.0000
  N   N21       1.0  0.65406  0.62805  0.79067  1.0000
  N   N22       1.0  0.34653  0.62852  0.69600  1.0000
  N   N23       1.0  0.34544  0.37134  0.67895  1.0000
  N   N24       1.0  0.65523  0.37347  0.79296  1.0000
  N   N25       1.0  0.80486  0.25988  0.58366  1.0000
  N   N26       1.0  0.19650  0.25907  0.93742  1.0000
  N   N27       1.0  0.19803  0.73915  0.93868  1.0000
  N   N28       1.0  0.80353  0.74064  0.56671  1.0000
  N   N29       1.0  0.77091  0.30241  0.58710  1.0000
  N   N30       1.0  0.23162  0.30120  0.90133  1.0000
  N   N31       1.0  0.23334  0.69756  0.90866  1.0000
  N   N32       1.0  0.76821  0.69884  0.58711  1.0000
  F   F1        1.0  0.26666  0.80501  0.11670  1.0000
  F   F2        1.0  0.73063  0.80357  0.35000  1.0000
  F   F3        1.0  0.73054  0.19794  0.40000  1.0000
  F   F4        1.0  0.26800  0.19661  0.11690  1.0000
  F   F5        1.0  0.30294  0.76191  0.09113  1.0000
  F   F6        1.0  0.69577  0.76036  0.35891  1.0000
  F   F7        1.0  0.69440  0.24108  0.40862  1.0000
  F   F8        1.0  0.30297  0.24106  0.08273  1.0000
  F   F9        1.0  0.26661  0.80363  0.59189  1.0000
  F   F10       1.0  0.73338  0.80331  0.89925  1.0000
  F   F11       1.0  0.73069  0.19824  0.90733  1.0000
  F   F12       1.0  0.26537  0.19507  0.60818  1.0000
  F   F13       1.0  0.30294  0.76178  0.56643  1.0000
  F   F14       1.0  0.69702  0.76039  0.91707  1.0000
  F   F15       1.0  0.69574  0.24244  0.90086  1.0000
  F   F16       1.0  0.30138  0.23957  0.55867  1.0000
  C   C225      1.0  0.16507  0.81096  0.74078  1.0000
  C   C226      1.0  0.16764  0.83955  0.80285  1.0000
  C  Sn1       1.0  0.19290  0.84868  0.85005  1.0000
  C  Sn2       1.0  0.21597  0.82877  0.83464  1.0000
  C   C227      1.0  0.21320  0.80022  0.77228  1.0000
  C   C228      1.0  0.18783  0.79131  0.72547  1.0000
  H   H105      1.0  0.14545  0.80407  0.70447  1.0000
  O  Te1       1.0  0.19510  0.87732  0.91188  1.0000
  O  Te2       1.0  0.24146  0.83733  0.88083  1.0000
  H   H106      1.0  0.18585  0.76918  0.67731  1.0000
  Mg  Mg1       1.0  0.23416  0.87865  0.95834  1.0000
  C   C229      1.0  0.07421  0.90031  0.46088  1.0000
  C   C230      1.0  0.10089  0.89527  0.36326  1.0000
  C  Sn3       1.0  0.11426  0.91734  0.25139  1.0000
  C  Sn4       1.0  0.10062  0.94493  0.23729  1.0000
  C   C231      1.0  0.07393  0.94976  0.33560  1.0000
  C   C232      1.0  0.06074  0.92752  0.44710  1.0000
  H   H107      1.0  0.06400  0.88311  0.54722  1.0000
  O  Te3       1.0  0.14092  0.91194  0.15475  1.0000
  O  Te4       1.0  0.11351  0.96737  0.12653  1.0000
  H   H108      1.0  0.04009  0.93143  0.52275  1.0000
  Mg  Mg2       1.0  0.14989  0.94943  0.02168  1.0000
  C   C233      1.0  0.17708  0.19900  0.23257  1.0000
  C   C234      1.0  0.20314  0.20094  0.28628  1.0000
  C  Sn5       1.0  0.21509  0.17575  0.34913  1.0000
  C  Sn6       1.0  0.20064  0.14813  0.35818  1.0000
  C   C235      1.0  0.17459  0.14642  0.30403  1.0000
  C   C236      1.0  0.16282  0.17177  0.24140  1.0000
  H   H109      1.0  0.16797  0.21862  0.18403  1.0000
  O  Te5       1.0  0.24114  0.17808  0.40230  1.0000
  O  Te6       1.0  0.21212  0.12259  0.42040  1.0000
  H   H110      1.0  0.14265  0.17026  0.19973  1.0000
  Mg  Mg3       1.0  0.24814  0.13703  0.47757  1.0000
  C   C237      1.0  0.79211  0.15144  0.18245  1.0000
  C   C238      1.0  0.81944  0.15091  0.21910  1.0000
  C  Sn7       1.0  0.83112  0.17644  0.27705  1.0000
  C  Sn8       1.0  0.81509  0.20295  0.29862  1.0000
  C   C239      1.0  0.78776  0.20324  0.26171  1.0000
  C   C240      1.0  0.77628  0.17758  0.20375  1.0000
  H   H111      1.0  0.78322  0.13158  0.13769  1.0000
  O  Te7       1.0  0.85846  0.17552  0.31302  1.0000
  O  Te8       1.0  0.82625  0.22877  0.35641  1.0000
  H   H112      1.0  0.75511  0.17799  0.17548  1.0000
  Mg  Mg4       1.0  0.86443  0.21644  0.38844  1.0000
  C   C241      1.0  0.61750  0.57043  0.24309  1.0000
  C   C242      1.0  0.61174  0.59786  0.32199  1.0000
  C  Sn9       1.0  0.58519  0.60339  0.41987  1.0000
  C  Sn10      1.0  0.56405  0.58100  0.43892  1.0000
  C   C243      1.0  0.57003  0.55364  0.35956  1.0000
  C   C244      1.0  0.59667  0.54834  0.26186  1.0000
  H   H113      1.0  0.63812  0.56633  0.16757  1.0000
  O  Te9       1.0  0.57979  0.63091  0.49778  1.0000
  O  Te10      1.0  0.53734  0.58594  0.53608  1.0000
  H   H114      1.0  0.60112  0.52710  0.20087  1.0000
  Mg  Mg5       1.0  0.54014  0.62704  0.61728  1.0000
  C   C245      1.0  0.78365  0.16379  0.68085  1.0000
  C   C246      1.0  0.78639  0.19253  0.74040  1.0000
  C  Sn11      1.0  0.81117  0.20120  0.79515  1.0000
  C  Sn12      1.0  0.83361  0.18067  0.78999  1.0000
  C   C247      1.0  0.83067  0.15198  0.73008  1.0000
  C   C248      1.0  0.80577  0.14353  0.67565  1.0000
  H   H115      1.0  0.76439  0.15726  0.63865  1.0000
  O  Te11      1.0  0.81355  0.23000  0.85433  1.0000
  O  Te12      1.0  0.85862  0.18876  0.84388  1.0000
  H   H116      1.0  0.80367  0.12129  0.62944  1.0000
  Mg  Mg6       1.0  0.85179  0.23052  0.91398  1.0000
  C   C249      1.0  0.33453  0.30997  0.74499  1.0000
  C   C250      1.0  0.33180  0.33878  0.68188  1.0000
  C  Sn13      1.0  0.30667  0.34765  0.63139  1.0000
  C  Sn14      1.0  0.28388  0.32725  0.64451  1.0000
  C   C251      1.0  0.28682  0.29848  0.70792  1.0000
  C   C252      1.0  0.31206  0.28984  0.75803  1.0000
  H   H117      1.0  0.35405  0.30329  0.78385  1.0000
  O  Te13      1.0  0.30430  0.37651  0.56857  1.0000
  O  Te14      1.0  0.25853  0.33553  0.59502  1.0000
  H   H118      1.0  0.31416  0.26754  0.80699  1.0000
  Mg  Mg7       1.0  0.26552  0.37732  0.51735  1.0000
  C   C253      1.0  0.20449  0.84930  0.36610  1.0000
  C   C254      1.0  0.17895  0.85142  0.30609  1.0000
  C  Sn15      1.0  0.16760  0.82657  0.23888  1.0000
  C  Sn16      1.0  0.18213  0.79911  0.23183  1.0000
  C   C255      1.0  0.20765  0.79721  0.29231  1.0000
  C   C256      1.0  0.21883  0.82222  0.35926  1.0000
  H   H119      1.0  0.21313  0.86865  0.41799  1.0000
  O  Te15      1.0  0.14207  0.82908  0.17943  1.0000
  O  Te16      1.0  0.17125  0.77391  0.16535  1.0000
  H   H120      1.0  0.23859  0.82057  0.40581  1.0000
  Mg  Mg8       1.0  0.13579  0.78849  0.10013  1.0000
  C   C257      1.0  0.83353  0.81425  0.26466  1.0000
  C   C258      1.0  0.83072  0.84307  0.20199  1.0000
  C  Sn17      1.0  0.80592  0.85158  0.14612  1.0000
  C  Sn18      1.0  0.78356  0.83079  0.15332  1.0000
  C   C259      1.0  0.78657  0.80202  0.21635  1.0000
  C   C260      1.0  0.81148  0.79374  0.27187  1.0000
  H   H121      1.0  0.85280  0.80784  0.30772  1.0000
  O  Te17      1.0  0.80347  0.88046  0.08382  1.0000
  O  Te18      1.0  0.75854  0.83871  0.09838  1.0000
  H   H122      1.0  0.81364  0.77143  0.32049  1.0000
  Mg  Mg9       1.0  0.76525  0.88068  0.02382  1.0000
  C   C261      1.0  0.16590  0.18459  0.74529  1.0000
  C   C262      1.0  0.17069  0.15503  0.78779  1.0000
  C  Sn19      1.0  0.19564  0.14708  0.84365  1.0000
  C  Sn20      1.0  0.21612  0.16918  0.85714  1.0000
  C   C263      1.0  0.21112  0.19870  0.81444  1.0000
  C   C264      1.0  0.18608  0.20641  0.75862  1.0000
  H   H123      1.0  0.14652  0.19056  0.70219  1.0000
  O  Te19      1.0  0.20010  0.11744  0.88553  1.0000
  O  Te20      1.0  0.24124  0.16185  0.91269  1.0000
  H   H124      1.0  0.18237  0.22930  0.72583  1.0000
  Mg  Mg10      1.0  0.23763  0.11845  0.95494  1.0000
  C   C265      1.0  0.57496  0.39933  0.95454  1.0000
  C   C266      1.0  0.60193  0.39461  0.85987  1.0000
  C  Sn21      1.0  0.61539  0.41683  0.74958  1.0000
  C  Sn22      1.0  0.60156  0.44427  0.73407  1.0000
  C   C267      1.0  0.57459  0.44878  0.82942  1.0000
  C   C268      1.0  0.56130  0.42639  0.93937  1.0000
  H   H125      1.0  0.59375  0.38470  0.03968  1.0000
  O  Te21      1.0  0.64233  0.41174  0.65589  1.0000
  O  Te22      1.0  0.61454  0.46686  0.62483  1.0000
  H   H126      1.0  0.56950  0.43275  0.01273  1.0000
  Mg  Mg11      1.0  0.65132  0.44934  0.52396  1.0000
  C   C269      1.0  0.88146  0.07201  0.28925  1.0000
  C   C270      1.0  0.88665  0.09959  0.20599  1.0000
  C  Sn23      1.0  0.91257  0.10539  0.09974  1.0000
  C  Sn24      1.0  0.93365  0.08313  0.07664  1.0000
  C   C271      1.0  0.92825  0.05560  0.16040  1.0000
  C   C272      1.0  0.90224  0.05003  0.26648  1.0000
  H   H127      1.0  0.86134  0.06770  0.37125  1.0000
  O  Te23      1.0  0.91740  0.13307  0.01758  1.0000
  O  Te24      1.0  0.93067  0.08564  0.97112  1.0000
  H   H128      1.0  0.89822  0.02867  0.33083  1.0000
  Mg  Mg12      1.0  0.92723  0.12687  0.88676  1.0000
  C   C273      1.0  0.67704  0.69988  0.20168  1.0000
  C   C274      1.0  0.70290  0.70224  0.25739  1.0000
  C  Sn25      1.0  0.71434  0.67762  0.32954  1.0000
  C  Sn26      1.0  0.69956  0.65015  0.34602  1.0000
  C   C275      1.0  0.67371  0.64801  0.28978  1.0000
  C   C276      1.0  0.66245  0.67279  0.21782  1.0000
  H   H129      1.0  0.66833  0.71905  0.14592  1.0000
  O  Te25      1.0  0.74020  0.68037  0.38459  1.0000
  O  Te26      1.0  0.71051  0.62518  0.41760  1.0000
  H   H130      1.0  0.64243  0.67095  0.17460  1.0000
  Mg  Mg13      1.0  0.74646  0.64004  0.47375  1.0000
  C   C277      1.0  0.42647  0.60086  0.54106  1.0000
  C   C278      1.0  0.39802  0.60431  0.61311  1.0000
  C  Sn27      1.0  0.38368  0.58197  0.71866  1.0000
  C  Sn28      1.0  0.39814  0.55573  0.75252  1.0000
  C   C279      1.0  0.42661  0.55250  0.67993  1.0000
  C   C280      1.0  0.44075  0.57499  0.57445  1.0000
  H   H131      1.0  0.43742  0.61827  0.45952  1.0000
  O  Te27      1.0  0.35525  0.58577  0.78955  1.0000
  O  Te28      1.0  0.38432  0.53306  0.85761  1.0000
  H   H132      1.0  0.46279  0.57232  0.51878  1.0000
  Mg  Mg14      1.0  0.34556  0.54859  0.92445  1.0000
  C   C281      1.0  0.43538  0.41358  0.04008  1.0000
  C   C282      1.0  0.42918  0.44103  0.11774  1.0000
  C  Sn29      1.0  0.40241  0.44638  0.21323  1.0000
  C  Sn30      1.0  0.38149  0.42377  0.23111  1.0000
  C   C283      1.0  0.38791  0.39637  0.15302  1.0000
  C   C284      1.0  0.41477  0.39126  0.05771  1.0000
  H   H133      1.0  0.42710  0.40693  0.96641  1.0000
  O  Te29      1.0  0.39657  0.47394  0.28992  1.0000
  O  Te30      1.0  0.35456  0.42852  0.32589  1.0000
  H   H134      1.0  0.39050  0.36731  0.99769  1.0000
  Mg  Mg15      1.0  0.35677  0.46976  0.40619  1.0000
  C   C285      1.0  0.28564  0.66678  0.14742  1.0000
  C   C286      1.0  0.28805  0.69507  0.21394  1.0000
  C  Sn31      1.0  0.31272  0.70344  0.27107  1.0000
  C  Sn32      1.0  0.33537  0.68306  0.26123  1.0000
  C   C287      1.0  0.33275  0.65483  0.19436  1.0000
  C   C288      1.0  0.30796  0.64668  0.13760  1.0000
  H   H135      1.0  0.26647  0.66049  0.10341  1.0000
  O  Te31      1.0  0.31478  0.73178  0.33723  1.0000
  O  Te32      1.0  0.36027  0.69085  0.31736  1.0000
  H   H136      1.0  0.30611  0.62479  0.08600  1.0000
  Mg  Mg16      1.0  0.35298  0.73203  0.39747  1.0000
