data_image0
_chemical_formula_structural       H40C128S8N32F16C2Sn2C2HTe2HMgC2Sn2C2HTe2HMgC2Sn2C2HTe2HMgC2Sn2C2HTe2HMgC2Sn2C2HTe2HMgC2Sn2C2HTe2HMgC2Sn2C2HTe2HMgC2Sn2C2HTe2HMgC2Sn2C2HTe2HMgC2Sn2C2HTe2HMgC2Sn2C2HTe2HMgC2Sn2C2HTe2HMgC2Sn2C2HTe2HMgC2Sn2C2HTe2HMgC2Sn2C2HTe2HMgC2Sn2C2HTe2HMgC2Sn2C2HTe2HMgC2Sn2C2HTe2HMgC2Sn2C2HTe2HMgC2Sn2C2HTe2HMgC2Sn2C2HTe2HMgC2Sn2C2HTe2HMgC2Sn2C2HTe2HMgC2Sn2C2HTe2HMgC2Sn2C2HTe2HMgC2Sn2C2HTe2HMgC2Sn2C2HTe2HMgC2Sn2C2HTe2HMgC2Sn2C2HTe2HMgC2Sn2C2HTe2HMgC2Sn2C2HTe2HMgC2Sn2C2HTe2HMg
_chemical_formula_sum              "H104 C256 S8 N32 F16 Sn64 Te64 Mg32"
_cell_length_a       48.1754
_cell_length_b       45.0302
_cell_length_c       7.89559
_cell_angle_alpha    89.1392
_cell_angle_beta     79.7856
_cell_angle_gamma    90.0991

_symmetry_space_group_name_H-M    'P1'
_space_group_IT_number       1

loop_
  _space_group_symop_operation_xyz
  'x, y, z'

loop_
  _atom_site_type_symbol
  _atom_site_label
  _atom_site_symmetry_multiplicity
  _atom_site_fract_x
  _atom_site_fract_y
  _atom_site_fract_z
  _atom_site_occupancy
  H   H1        1.0  0.11799  0.85167  0.42309  1.0000
  H   H2        1.0  0.88026  0.85553  0.05920  1.0000
  H   H3        1.0  0.87852  0.15044  0.09974  1.0000
  H   H4        1.0  0.12034  0.14744  0.44229  1.0000
  H   H5        1.0  0.38087  0.35294  0.05183  1.0000
  H   H6        1.0  0.61726  0.35135  0.41886  1.0000
  H   H7        1.0  0.61861  0.64913  0.41807  1.0000
  H   H8        1.0  0.38265  0.65113  0.06950  1.0000
  H   H9        1.0  0.52289  0.57620  0.28031  1.0000
  H   H10       1.0  0.47611  0.57632  0.20415  1.0000
  H   H11       1.0  0.47607  0.42529  0.20286  1.0000
  H   H12       1.0  0.52303  0.42516  0.27573  1.0000
  H   H13       1.0  0.02300  0.92579  0.28122  1.0000
  H   H14       1.0  0.97588  0.92661  0.20823  1.0000
  H   H15       1.0  0.97645  0.07761  0.23037  1.0000
  H   H16       1.0  0.02364  0.07668  0.30130  1.0000
  H   H17       1.0  0.08909  0.99969  0.38529  1.0000
  H   H18       1.0  0.90948  0.00323  0.13847  1.0000
  H   H19       1.0  0.40997  0.50111  0.11235  1.0000
  H   H20       1.0  0.58829  0.50038  0.38066  1.0000
  H   H21       1.0  0.11739  0.84894  0.93593  1.0000
  H   H22       1.0  0.88062  0.85259  0.57049  1.0000
  H   H23       1.0  0.88000  0.14873  0.60190  1.0000
  H   H24       1.0  0.12020  0.14477  0.93723  1.0000
  H   H25       1.0  0.38198  0.35112  0.54870  1.0000
  H   H26       1.0  0.61934  0.35120  0.92183  1.0000
  H   H27       1.0  0.61793  0.64824  0.92520  1.0000
  H   H28       1.0  0.38279  0.64919  0.56010  1.0000
  H   H29       1.0  0.52286  0.57498  0.78554  1.0000
  H   H30       1.0  0.47591  0.57503  0.71253  1.0000
  H   H31       1.0  0.47640  0.42405  0.70321  1.0000
  H   H32       1.0  0.52323  0.42396  0.77848  1.0000
  H   H33       1.0  0.02232  0.92309  0.78794  1.0000
  H   H34       1.0  0.97572  0.92422  0.70929  1.0000
  H   H35       1.0  0.97687  0.07518  0.73153  1.0000
  H   H36       1.0  0.02412  0.07404  0.80159  1.0000
  H   H37       1.0  0.08902  0.99704  0.88859  1.0000
  H   H38       1.0  0.91081  0.00133  0.62164  1.0000
  H   H39       1.0  0.41016  0.49991  0.61358  1.0000
  H   H40       1.0  0.58946  0.49923  0.86899  1.0000
  C   C1        1.0  0.02711  0.97348  0.29613  1.0000
  C   C2        1.0  0.97169  0.97453  0.21090  1.0000
  C   C3        1.0  0.97189  0.02982  0.21917  1.0000
  C   C4        1.0  0.02745  0.02871  0.30403  1.0000
  C   C5        1.0  0.01260  0.94687  0.26867  1.0000
  C   C6        1.0  0.98623  0.94737  0.22810  1.0000
  C   C7        1.0  0.98665  0.05644  0.24408  1.0000
  C   C8        1.0  0.01310  0.05591  0.28401  1.0000
  C   C9        1.0  0.05493  0.97317  0.33243  1.0000
  C   C10       1.0  0.94365  0.97526  0.17742  1.0000
  C   C11       1.0  0.94388  0.02999  0.18563  1.0000
  C   C12       1.0  0.05533  0.02784  0.34013  1.0000
  C   C13       1.0  0.25693  0.77881  0.19219  1.0000
  C   C14       1.0  0.74218  0.77788  0.28299  1.0000
  C   C15       1.0  0.74067  0.22365  0.32018  1.0000
  C   C16       1.0  0.25776  0.22235  0.19112  1.0000
  C   C17       1.0  0.27678  0.75520  0.17789  1.0000
  C   C18       1.0  0.72289  0.75378  0.29124  1.0000
  C   C19       1.0  0.72102  0.24732  0.32646  1.0000
  C   C20       1.0  0.27688  0.24674  0.17181  1.0000
  C   C21       1.0  0.27048  0.72670  0.24087  1.0000
  C   C22       1.0  0.73042  0.72520  0.24091  1.0000
  C   C23       1.0  0.72801  0.27553  0.26082  1.0000
  C   C24       1.0  0.27003  0.27495  0.23191  1.0000
  C   C25       1.0  0.24194  0.72285  0.32780  1.0000
  C   C26       1.0  0.75964  0.72229  0.16595  1.0000
  C   C27       1.0  0.75680  0.27880  0.17707  1.0000
  C   C28       1.0  0.24163  0.27773  0.32168  1.0000
  C   C29       1.0  0.22162  0.74696  0.34291  1.0000
  C   C30       1.0  0.77937  0.74709  0.15413  1.0000
  C   C31       1.0  0.77686  0.25454  0.16879  1.0000
  C   C32       1.0  0.22202  0.25282  0.34219  1.0000
  C   C33       1.0  0.22906  0.77595  0.27200  1.0000
  C   C34       1.0  0.77078  0.77593  0.21809  1.0000
  C   C35       1.0  0.76881  0.22598  0.24433  1.0000
  C   C36       1.0  0.23002  0.22421  0.27350  1.0000
  C   C37       1.0  0.12759  0.87217  0.36054  1.0000
  C   C38       1.0  0.87076  0.87488  0.13093  1.0000
  C   C39       1.0  0.86973  0.13006  0.16776  1.0000
  C   C40       1.0  0.12940  0.12720  0.37837  1.0000
  C   C41       1.0  0.44400  0.52830  0.16129  1.0000
  C   C42       1.0  0.55462  0.52799  0.32855  1.0000
  C   C43       1.0  0.55468  0.47323  0.32595  1.0000
  C   C44       1.0  0.44394  0.47352  0.16014  1.0000
  C   C45       1.0  0.47180  0.52846  0.19838  1.0000
  C   C46       1.0  0.52693  0.52830  0.28930  1.0000
  C   C47       1.0  0.52699  0.47302  0.28694  1.0000
  C   C48       1.0  0.47176  0.47318  0.19741  1.0000
  C   C49       1.0  0.48632  0.55532  0.22166  1.0000
  C   C50       1.0  0.51255  0.55525  0.26459  1.0000
  C   C51       1.0  0.51264  0.44618  0.26120  1.0000
  C   C52       1.0  0.48633  0.44624  0.21966  1.0000
  C   C53       1.0  0.37116  0.37292  0.11566  1.0000
  C   C54       1.0  0.62677  0.37186  0.35634  1.0000
  C   C55       1.0  0.62808  0.62867  0.35903  1.0000
  C   C56       1.0  0.37289  0.63078  0.13312  1.0000
  C   C57       1.0  0.01337  0.00138  0.27942  1.0000
  C   C58       1.0  0.98568  0.00192  0.23561  1.0000
  C   C59       1.0  0.06803  0.00020  0.35357  1.0000
  C   C60       1.0  0.93075  0.00284  0.16676  1.0000
  C   C61       1.0  0.48560  0.50077  0.21992  1.0000
  C   C62       1.0  0.51313  0.50070  0.26630  1.0000
  C   C63       1.0  0.43104  0.50099  0.14393  1.0000
  C   C64       1.0  0.56743  0.50053  0.34614  1.0000
  C   C65       1.0  0.02706  0.97085  0.79856  1.0000
  C   C66       1.0  0.97214  0.97221  0.70609  1.0000
  C   C67       1.0  0.97245  0.02746  0.71623  1.0000
  C   C68       1.0  0.02776  0.02610  0.80297  1.0000
  C   C69       1.0  0.01236  0.94430  0.77190  1.0000
  C   C70       1.0  0.98625  0.94494  0.72770  1.0000
  C   C71       1.0  0.98708  0.05399  0.74393  1.0000
  C   C72       1.0  0.01353  0.05335  0.78343  1.0000
  C   C73       1.0  0.05474  0.97047  0.83707  1.0000
  C   C74       1.0  0.94448  0.97315  0.66709  1.0000
  C   C75       1.0  0.94467  0.02784  0.67897  1.0000
  C   C76       1.0  0.05561  0.02515  0.83910  1.0000
  C   C77       1.0  0.25727  0.77793  0.67498  1.0000
  C   C78       1.0  0.74296  0.77793  0.81759  1.0000
  C   C79       1.0  0.74178  0.22339  0.82341  1.0000
  C   C80       1.0  0.25640  0.22109  0.68348  1.0000
  C   C81       1.0  0.27734  0.75464  0.66021  1.0000
  C   C82       1.0  0.72308  0.75428  0.82851  1.0000
  C   C83       1.0  0.72275  0.24754  0.82297  1.0000
  C   C84       1.0  0.27599  0.24513  0.65858  1.0000
  C   C85       1.0  0.27161  0.72642  0.72910  1.0000
  C   C86       1.0  0.72927  0.72644  0.76066  1.0000
  C   C87       1.0  0.73034  0.27546  0.75506  1.0000
  C   C88       1.0  0.26992  0.27315  0.72440  1.0000
  C   C89       1.0  0.24338  0.72255  0.82162  1.0000
  C   C90       1.0  0.75776  0.72329  0.67297  1.0000
  C   C91       1.0  0.75924  0.27805  0.67408  1.0000
  C   C92       1.0  0.24187  0.27631  0.81933  1.0000
  C   C93       1.0  0.22296  0.74649  0.83854  1.0000
  C   C94       1.0  0.77811  0.74742  0.66098  1.0000
  C   C95       1.0  0.77876  0.25341  0.67182  1.0000
  C   C96       1.0  0.22166  0.25194  0.84119  1.0000
  C   C97       1.0  0.22983  0.77516  0.76197  1.0000
  C   C98       1.0  0.77068  0.77572  0.73534  1.0000
  C   C99       1.0  0.77009  0.22508  0.74940  1.0000
  C   C100      1.0  0.22905  0.22327  0.77226  1.0000
  C   C101      1.0  0.12675  0.86933  0.87077  1.0000
  C   C102      1.0  0.87126  0.87296  0.63115  1.0000
  C   C103      1.0  0.87082  0.12841  0.66874  1.0000
  C   C104      1.0  0.12956  0.12476  0.87208  1.0000
  C   C105      1.0  0.44405  0.52707  0.66492  1.0000
  C   C106      1.0  0.55538  0.52681  0.82339  1.0000
  C   C107      1.0  0.55530  0.47198  0.82237  1.0000
  C   C108      1.0  0.44407  0.47226  0.66174  1.0000
  C   C109      1.0  0.47188  0.52722  0.70206  1.0000
  C   C110      1.0  0.52736  0.52709  0.78883  1.0000
  C   C111      1.0  0.52738  0.47179  0.78694  1.0000
  C   C112      1.0  0.47195  0.47194  0.69871  1.0000
  C   C113      1.0  0.48633  0.55404  0.72695  1.0000
  C   C114      1.0  0.51269  0.55401  0.76793  1.0000
  C   C115      1.0  0.51287  0.44496  0.76295  1.0000
  C   C116      1.0  0.48658  0.44502  0.72079  1.0000
  C   C117      1.0  0.37205  0.37068  0.61622  1.0000
  C   C118      1.0  0.62867  0.37153  0.85569  1.0000
  C   C119      1.0  0.62758  0.62867  0.85643  1.0000
  C   C120      1.0  0.37301  0.62943  0.63048  1.0000
  C   C121      1.0  0.01360  0.99881  0.77898  1.0000
  C   C122      1.0  0.98609  0.99950  0.73288  1.0000
  C   C123      1.0  0.06804  0.99751  0.85579  1.0000
  C   C124      1.0  0.93177  0.00081  0.65472  1.0000
  C   C125      1.0  0.48579  0.49953  0.72196  1.0000
  C   C126      1.0  0.51347  0.49948  0.76686  1.0000
  C   C127      1.0  0.43116  0.49976  0.64632  1.0000
  C   C128      1.0  0.56830  0.49934  0.83875  1.0000
  S   S1        1.0  0.80046  0.29588  0.01108  1.0000
  S   S2        1.0  0.19838  0.29398  0.49157  1.0000
  S   S3        1.0  0.19886  0.70479  0.49622  1.0000
  S   S4        1.0  0.80415  0.70571  0.01309  1.0000
  S   S5        1.0  0.80364  0.29396  0.51286  1.0000
  S   S6        1.0  0.19932  0.29355  0.99277  1.0000
  S   S7        1.0  0.20112  0.70482  0.00096  1.0000
  S   S8        1.0  0.80080  0.70668  0.50251  1.0000
  N   N1        1.0  0.15433  0.87427  0.30360  1.0000
  N   N2        1.0  0.84434  0.87552  0.19802  1.0000
  N   N3        1.0  0.84335  0.12787  0.23467  1.0000
  N   N4        1.0  0.15594  0.12520  0.31591  1.0000
  N   N5        1.0  0.65481  0.62671  0.30192  1.0000
  N   N6        1.0  0.34631  0.62923  0.19537  1.0000
  N   N7        1.0  0.34446  0.37427  0.17474  1.0000
  N   N8        1.0  0.65342  0.37383  0.29604  1.0000
  N   N9        1.0  0.80258  0.26160  0.07713  1.0000
  N   N10       1.0  0.19661  0.25933  0.43715  1.0000
  N   N11       1.0  0.19622  0.73936  0.43644  1.0000
  N   N12       1.0  0.80547  0.74031  0.06949  1.0000
  N   N13       1.0  0.76779  0.30358  0.09165  1.0000
  N   N14       1.0  0.23059  0.30249  0.40171  1.0000
  N   N15       1.0  0.23144  0.69765  0.41045  1.0000
  N   N16       1.0  0.77134  0.69746  0.09024  1.0000
  N   N17       1.0  0.15333  0.87154  0.80933  1.0000
  N   N18       1.0  0.84462  0.87490  0.69054  1.0000
  N   N19       1.0  0.84434  0.12650  0.73363  1.0000
  N   N20       1.0  0.15616  0.12323  0.81022  1.0000
  N   N21       1.0  0.65406  0.62805  0.79067  1.0000
  N   N22       1.0  0.34653  0.62852  0.69600  1.0000
  N   N23       1.0  0.34544  0.37134  0.67895  1.0000
  N   N24       1.0  0.65523  0.37347  0.79296  1.0000
  N   N25       1.0  0.80486  0.25988  0.58366  1.0000
  N   N26       1.0  0.19650  0.25907  0.93742  1.0000
  N   N27       1.0  0.19803  0.73915  0.93868  1.0000
  N   N28       1.0  0.80353  0.74064  0.56671  1.0000
  N   N29       1.0  0.77091  0.30241  0.58710  1.0000
  N   N30       1.0  0.23162  0.30120  0.90133  1.0000
  N   N31       1.0  0.23334  0.69756  0.90866  1.0000
  N   N32       1.0  0.76821  0.69884  0.58711  1.0000
  F   F1        1.0  0.26666  0.80501  0.11670  1.0000
  F   F2        1.0  0.73063  0.80357  0.35000  1.0000
  F   F3        1.0  0.73054  0.19794  0.40000  1.0000
  F   F4        1.0  0.26800  0.19661  0.11690  1.0000
  F   F5        1.0  0.30294  0.76191  0.09113  1.0000
  F   F6        1.0  0.69577  0.76036  0.35891  1.0000
  F   F7        1.0  0.69440  0.24108  0.40862  1.0000
  F   F8        1.0  0.30297  0.24106  0.08273  1.0000
  F   F9        1.0  0.26661  0.80363  0.59189  1.0000
  F   F10       1.0  0.73338  0.80331  0.89925  1.0000
  F   F11       1.0  0.73069  0.19824  0.90733  1.0000
  F   F12       1.0  0.26537  0.19507  0.60818  1.0000
  F   F13       1.0  0.30294  0.76178  0.56643  1.0000
  F   F14       1.0  0.69702  0.76039  0.91707  1.0000
  F   F15       1.0  0.69574  0.24244  0.90086  1.0000
  F   F16       1.0  0.30138  0.23957  0.55867  1.0000
  C   C129      1.0  0.10706  0.94311  0.23010  1.0000
  C   C130      1.0  0.07860  0.94590  0.30348  1.0000
  C  Sn1       1.0  0.06500  0.92355  0.41230  1.0000
  C  Sn2       1.0  0.08024  0.89796  0.44811  1.0000
  C   C131      1.0  0.10871  0.89539  0.37416  1.0000
  C   C132      1.0  0.12211  0.91788  0.26541  1.0000
  H   H41       1.0  0.11743  0.96051  0.14603  1.0000
  O  Te1       1.0  0.03655  0.92669  0.48449  1.0000
  O  Te2       1.0  0.06717  0.87530  0.55647  1.0000
  H   H42       1.0  0.14415  0.91572  0.20870  1.0000
  Mg  Mg1       1.0  0.02805  0.88980  0.62397  1.0000
  C   C133      1.0  0.93446  0.91633  0.04789  1.0000
  C   C134      1.0  0.92855  0.94322  0.13267  1.0000
  C  Sn3       1.0  0.90219  0.94785  0.23517  1.0000
  C  Sn4       1.0  0.88142  0.92510  0.25290  1.0000
  C   C135      1.0  0.88755  0.89827  0.16765  1.0000
  C   C136      1.0  0.91399  0.89388  0.06537  1.0000
  H   H43       1.0  0.92585  0.91024  0.96882  1.0000
  O  Te3       1.0  0.89663  0.97485  0.31892  1.0000
  O  Te4       1.0  0.85491  0.92913  0.35459  1.0000
  H   H44       1.0  0.88950  0.87036  0.99983  1.0000
  Mg  Mg2       1.0  0.85737  0.96979  0.44306  1.0000
  C   C137      1.0  0.88146  0.07201  0.28925  1.0000
  C   C138      1.0  0.88665  0.09959  0.20599  1.0000
  C  Sn5       1.0  0.91257  0.10539  0.09974  1.0000
  C  Sn6       1.0  0.93365  0.08313  0.07664  1.0000
  C   C139      1.0  0.92825  0.05560  0.16040  1.0000
  C   C140      1.0  0.90224  0.05003  0.26648  1.0000
  H   H45       1.0  0.86134  0.06770  0.37125  1.0000
  O  Te5       1.0  0.91740  0.13307  0.01758  1.0000
  O  Te6       1.0  0.93067  0.08564  0.97112  1.0000
  H   H46       1.0  0.89822  0.02867  0.33083  1.0000
  Mg  Mg3       1.0  0.92723  0.12687  0.88676  1.0000
  C   C141      1.0  0.06522  0.08671  0.46897  1.0000
  C   C142      1.0  0.06978  0.06106  0.37059  1.0000
  C  Sn7       1.0  0.09622  0.05570  0.27080  1.0000
  C  Sn8       1.0  0.11846  0.07644  0.26979  1.0000
  C   C143      1.0  0.11368  0.10202  0.36876  1.0000
  C   C144      1.0  0.08714  0.10717  0.46810  1.0000
  H   H47       1.0  0.04469  0.09069  0.54592  1.0000
  O  Te7       1.0  0.10042  0.02997  0.17321  1.0000
  O  Te8       1.0  0.14509  0.07163  0.17127  1.0000
  H   H48       1.0  0.08362  0.12702  0.54435  1.0000
  Mg  Mg4       1.0  0.14043  0.03329  0.05975  1.0000
  C   C145      1.0  0.21507  0.83672  0.35321  1.0000
  C   C146      1.0  0.21098  0.80728  0.30947  1.0000
  C  Sn9       1.0  0.18641  0.79900  0.25087  1.0000
  C  Sn10      1.0  0.16559  0.82066  0.23587  1.0000
  C   C147      1.0  0.16988  0.85006  0.27984  1.0000
  C   C148      1.0  0.19455  0.85810  0.33839  1.0000
  H   H49       1.0  0.23415  0.84295  0.39842  1.0000
  O  Te9       1.0  0.18266  0.76949  0.20778  1.0000
  O  Te10      1.0  0.14084  0.81299  0.17759  1.0000
  H   H50       1.0  0.19771  0.88090  0.37214  1.0000
  Mg  Mg5       1.0  0.14540  0.76992  0.13459  1.0000
  C   C149      1.0  0.83353  0.81425  0.26466  1.0000
  C   C150      1.0  0.83072  0.84307  0.20199  1.0000
  C  Sn11      1.0  0.80592  0.85158  0.14612  1.0000
  C  Sn12      1.0  0.78356  0.83079  0.15332  1.0000
  C   C151      1.0  0.78657  0.80202  0.21635  1.0000
  C   C152      1.0  0.81148  0.79374  0.27187  1.0000
  H   H51       1.0  0.85280  0.80784  0.30772  1.0000
  O  Te11      1.0  0.80347  0.88046  0.08382  1.0000
  O  Te12      1.0  0.75854  0.83871  0.09838  1.0000
  H   H52       1.0  0.81364  0.77143  0.32049  1.0000
  Mg  Mg6       1.0  0.76525  0.88068  0.02382  1.0000
  C   C153      1.0  0.78292  0.16481  0.17431  1.0000
  C   C154      1.0  0.78530  0.19357  0.23448  1.0000
  C  Sn13      1.0  0.80966  0.20228  0.29399  1.0000
  C  Sn14      1.0  0.83202  0.18178  0.29305  1.0000
  C   C155      1.0  0.82944  0.15307  0.23248  1.0000
  C   C156      1.0  0.80496  0.14458  0.17327  1.0000
  H   H53       1.0  0.76399  0.15824  0.12840  1.0000
  O  Te13      1.0  0.81170  0.23110  0.35373  1.0000
  O  Te14      1.0  0.85661  0.18991  0.35174  1.0000
  H   H54       1.0  0.80313  0.12232  0.12658  1.0000
  Mg  Mg7       1.0  0.84942  0.23168  0.42069  1.0000
  C   C157      1.0  0.17708  0.19900  0.23257  1.0000
  C   C158      1.0  0.20314  0.20094  0.28628  1.0000
  C  Sn15      1.0  0.21509  0.17575  0.34913  1.0000
  C  Sn16      1.0  0.20064  0.14813  0.35818  1.0000
  C   C159      1.0  0.17459  0.14642  0.30403  1.0000
  C   C160      1.0  0.16282  0.17177  0.24140  1.0000
  H   H55       1.0  0.16797  0.21862  0.18403  1.0000
  O  Te15      1.0  0.24114  0.17808  0.40230  1.0000
  O  Te16      1.0  0.21212  0.12259  0.42040  1.0000
  H   H56       1.0  0.14265  0.17026  0.19973  1.0000
  Mg  Mg8       1.0  0.24814  0.13703  0.47757  1.0000
  C   C161      1.0  0.29515  0.65350  0.14963  1.0000
  C   C162      1.0  0.32276  0.65285  0.18157  1.0000
  C  Sn17      1.0  0.33448  0.67796  0.24378  1.0000
  C  Sn18      1.0  0.31820  0.70419  0.27449  1.0000
  C   C163      1.0  0.29059  0.70462  0.24224  1.0000
  C   C164      1.0  0.27907  0.67936  0.17995  1.0000
  H   H57       1.0  0.28623  0.63396  0.10152  1.0000
  O  Te17      1.0  0.36210  0.67692  0.27494  1.0000
  O  Te18      1.0  0.32939  0.72961  0.33670  1.0000
  H   H58       1.0  0.25769  0.67987  0.15534  1.0000
  Mg  Mg9       1.0  0.36800  0.71725  0.35932  1.0000
  C   C165      1.0  0.67704  0.69988  0.20168  1.0000
  C   C166      1.0  0.70290  0.70224  0.25739  1.0000
  C  Sn19      1.0  0.71434  0.67762  0.32954  1.0000
  C  Sn20      1.0  0.69956  0.65015  0.34602  1.0000
  C   C167      1.0  0.67371  0.64801  0.28978  1.0000
  C   C168      1.0  0.66245  0.67279  0.21782  1.0000
  H   H59       1.0  0.66833  0.71905  0.14592  1.0000
  O  Te19      1.0  0.74020  0.68037  0.38459  1.0000
  O  Te20      1.0  0.71051  0.62518  0.41760  1.0000
  H   H60       1.0  0.64243  0.67095  0.17460  1.0000
  Mg  Mg10      1.0  0.74646  0.64004  0.47375  1.0000
  C   C169      1.0  0.66457  0.31332  0.22106  1.0000
  C   C170      1.0  0.66718  0.34154  0.28803  1.0000
  C  Sn21      1.0  0.69184  0.34960  0.34621  1.0000
  C  Sn22      1.0  0.71428  0.32898  0.33694  1.0000
  C   C171      1.0  0.71147  0.30082  0.26961  1.0000
  C   C172      1.0  0.68669  0.29298  0.21181  1.0000
  H   H61       1.0  0.64540  0.30726  0.17625  1.0000
  O  Te21      1.0  0.69410  0.37788  0.41281  1.0000
  O  Te22      1.0  0.73917  0.33646  0.39412  1.0000
  H   H62       1.0  0.68469  0.27114  0.15986  1.0000
  Mg  Mg11      1.0  0.73220  0.37767  0.47448  1.0000
  C   C173      1.0  0.32431  0.29993  0.25413  1.0000
  C   C174      1.0  0.29649  0.29875  0.22618  1.0000
  C  Sn23      1.0  0.28418  0.32375  0.16366  1.0000
  C  Sn24      1.0  0.30007  0.35039  0.12854  1.0000
  C   C175      1.0  0.32790  0.35133  0.15681  1.0000
  C   C176      1.0  0.34001  0.32619  0.21947  1.0000
  H   H63       1.0  0.33369  0.28048  0.30252  1.0000
  O  Te23      1.0  0.25636  0.32220  0.13652  1.0000
  O  Te24      1.0  0.28829  0.37570  0.06590  1.0000
  H   H64       1.0  0.36155  0.32710  0.24099  1.0000
  Mg  Mg12      1.0  0.24961  0.36257  0.04977  1.0000
  C   C177      1.0  0.38158  0.43013  0.24650  1.0000
  C   C178      1.0  0.38636  0.40489  0.14478  1.0000
  C  Sn25      1.0  0.41297  0.39982  0.04633  1.0000
  C  Sn26      1.0  0.43515  0.42043  0.05007  1.0000
  C   C179      1.0  0.43015  0.44561  0.15235  1.0000
  C   C180      1.0  0.40344  0.45047  0.25032  1.0000
  H   H65       1.0  0.36092  0.43389  0.32238  1.0000
  O  Te25      1.0  0.38832  0.37180  0.94537  1.0000
  O  Te26      1.0  0.43288  0.41321  0.95298  1.0000
  H   H66       1.0  0.39975  0.47001  0.32915  1.0000
  Mg  Mg13      1.0  0.42849  0.37539  0.83557  1.0000
  C   C181      1.0  0.56302  0.41262  0.44205  1.0000
  C   C182      1.0  0.56953  0.44060  0.36627  1.0000
  C  Sn27      1.0  0.59618  0.44620  0.26827  1.0000
  C  Sn28      1.0  0.61666  0.42331  0.24591  1.0000
  C   C183      1.0  0.60994  0.39539  0.32215  1.0000
  C   C184      1.0  0.58320  0.39003  0.42000  1.0000
  H   H67       1.0  0.54233  0.40846  0.51768  1.0000
  O  Te27      1.0  0.60233  0.47428  0.19351  1.0000
  O  Te28      1.0  0.64346  0.42830  0.14855  1.0000
  H   H68       1.0  0.57817  0.36836  0.47856  1.0000
  Mg  Mg14      1.0  0.64180  0.47026  0.07237  1.0000
  C   C185      1.0  0.60725  0.55820  0.23356  1.0000
  C   C186      1.0  0.57966  0.55368  0.32092  1.0000
  C  Sn29      1.0  0.56580  0.57592  0.42461  1.0000
  C  Sn30      1.0  0.57986  0.60316  0.44084  1.0000
  C   C187      1.0  0.60745  0.60747  0.35281  1.0000
  C   C188      1.0  0.62113  0.58507  0.24945  1.0000
  H   H69       1.0  0.61783  0.54087  0.15350  1.0000
  O  Te29      1.0  0.53824  0.57103  0.51105  1.0000
  O  Te30      1.0  0.56649  0.62577  0.54357  1.0000
  H   H70       1.0  0.64248  0.58858  0.18173  1.0000
  Mg  Mg15      1.0  0.52890  0.60856  0.63581  1.0000
  C   C189      1.0  0.42627  0.60203  0.03640  1.0000
  C   C190      1.0  0.39796  0.60561  0.11120  1.0000
  C  Sn31      1.0  0.38382  0.58340  0.21876  1.0000
  C  Sn32      1.0  0.39834  0.55716  0.25186  1.0000
  C   C191      1.0  0.42667  0.55380  0.17651  1.0000
  C   C192      1.0  0.44062  0.57615  0.06903  1.0000
  H   H71       1.0  0.40800  0.61664  0.95332  1.0000
  O  Te31      1.0  0.35553  0.58733  0.29239  1.0000
  O  Te32      1.0  0.38472  0.53462  0.35891  1.0000
  H   H72       1.0  0.46254  0.57338  0.01123  1.0000
  Mg  Mg16      1.0  0.34609  0.55031  0.42922  1.0000
  C   C193      1.0  0.06271  0.90962  0.95264  1.0000
  C   C194      1.0  0.06908  0.93756  0.87614  1.0000
  C  Sn33      1.0  0.09573  0.94326  0.77825  1.0000
  C  Sn34      1.0  0.11633  0.92050  0.75675  1.0000
  C   C195      1.0  0.10974  0.89261  0.83371  1.0000
  C   C196      1.0  0.08302  0.88715  0.93144  1.0000
  H   H73       1.0  0.07109  0.90808  0.02818  1.0000
  O  Te33      1.0  0.10175  0.97131  0.70277  1.0000
  O  Te34      1.0  0.14313  0.92558  0.65952  1.0000
  H   H74       1.0  0.07808  0.86551  0.99056  1.0000
  Mg  Mg17      1.0  0.14126  0.96744  0.58214  1.0000
  C   C197      1.0  0.93548  0.91346  0.54568  1.0000
  C   C198      1.0  0.92941  0.94108  0.62161  1.0000
  C  Sn35      1.0  0.90279  0.94652  0.71895  1.0000
  C  Sn36      1.0  0.88192  0.92385  0.74048  1.0000
  C   C199      1.0  0.88821  0.89629  0.66410  1.0000
  C   C200      1.0  0.91490  0.89108  0.56691  1.0000
  H   H75       1.0  0.95614  0.90942  0.47056  1.0000
  O  Te35      1.0  0.89708  0.97424  0.79387  1.0000
  O  Te36      1.0  0.85515  0.92869  0.83717  1.0000
  H   H76       1.0  0.91961  0.86969  0.50823  1.0000
  Mg  Mg18      1.0  0.85748  0.97014  0.91388  1.0000
  C   C201      1.0  0.88205  0.06953  0.78255  1.0000
  C   C202      1.0  0.88737  0.09756  0.70515  1.0000
  C  Sn37      1.0  0.91357  0.10397  0.60353  1.0000
  C  Sn38      1.0  0.93478  0.08185  0.57914  1.0000
  C   C203      1.0  0.92924  0.05387  0.65703  1.0000
  C   C204      1.0  0.90296  0.04770  0.75851  1.0000
  H   H77       1.0  0.86171  0.06475  0.86099  1.0000
  O  Te37      1.0  0.91854  0.13210  0.52719  1.0000
  O  Te38      1.0  0.96114  0.08765  0.47816  1.0000
  H   H78       1.0  0.89884  0.02598  0.81833  1.0000
  Mg  Mg19      1.0  0.95781  0.12933  0.40103  1.0000
  C   C205      1.0  0.10839  0.05492  0.74003  1.0000
  C   C206      1.0  0.08101  0.05028  0.83032  1.0000
  C  Sn39      1.0  0.06754  0.07223  0.93787  1.0000
  C  Sn40      1.0  0.08179  0.09932  0.95507  1.0000
  C   C207      1.0  0.10917  0.10376  0.86410  1.0000
  C   C208      1.0  0.12246  0.08164  0.75687  1.0000
  H   H79       1.0  0.11867  0.03781  0.65699  1.0000
  O  Te39      1.0  0.06925  0.06991  0.02719  1.0000
  O  Te40      1.0  0.09789  0.12434  0.06164  1.0000
  H   H80       1.0  0.14365  0.08525  0.68690  1.0000
  Mg  Mg20      1.0  0.06044  0.10705  0.15678  1.0000
  C   C209      1.0  0.16507  0.81096  0.74078  1.0000
  C   C210      1.0  0.16764  0.83955  0.80285  1.0000
  C  Sn41      1.0  0.19290  0.84868  0.85005  1.0000
  C  Sn42      1.0  0.21597  0.82877  0.83464  1.0000
  C   C211      1.0  0.21320  0.80022  0.77228  1.0000
  C   C212      1.0  0.18783  0.79131  0.72547  1.0000
  H   H81       1.0  0.14545  0.80407  0.70447  1.0000
  O  Te41      1.0  0.19510  0.87732  0.91188  1.0000
  O  Te42      1.0  0.24146  0.83733  0.88083  1.0000
  H   H82       1.0  0.18585  0.76918  0.67731  1.0000
  Mg  Mg21      1.0  0.23416  0.87865  0.95834  1.0000
  C   C213      1.0  0.79458  0.84933  0.63303  1.0000
  C   C214      1.0  0.81999  0.85195  0.69381  1.0000
  C  Sn43      1.0  0.83154  0.82729  0.76489  1.0000
  C  Sn44      1.0  0.81734  0.79951  0.77510  1.0000
  C   C215      1.0  0.79193  0.79712  0.71383  1.0000
  C   C216      1.0  0.78056  0.82194  0.64299  1.0000
  H   H83       1.0  0.78578  0.86853  0.57814  1.0000
  O  Te43      1.0  0.85695  0.83030  0.82506  1.0000
  O  Te44      1.0  0.82842  0.77451  0.84548  1.0000
  H   H84       1.0  0.76089  0.81990  0.59585  1.0000
  Mg  Mg22      1.0  0.86360  0.78979  0.91017  1.0000
  C   C217      1.0  0.79294  0.15040  0.68706  1.0000
  C   C218      1.0  0.82061  0.14988  0.71797  1.0000
  C  Sn45      1.0  0.83269  0.17542  0.77290  1.0000
  C  Sn46      1.0  0.81672  0.20194  0.79728  1.0000
  C   C219      1.0  0.78904  0.20223  0.76612  1.0000
  C   C220      1.0  0.77716  0.17655  0.71113  1.0000
  H   H85       1.0  0.78374  0.13053  0.64461  1.0000
  O  Te45      1.0  0.86037  0.17452  0.80313  1.0000
  O  Te46      1.0  0.82827  0.22779  0.85216  1.0000
  H   H86       1.0  0.75573  0.17695  0.68732  1.0000
  Mg  Mg23      1.0  0.86682  0.21545  0.87641  1.0000
  C   C221      1.0  0.20691  0.14850  0.85905  1.0000
  C   C222      1.0  0.17944  0.14710  0.82514  1.0000
  C  Sn47      1.0  0.16708  0.17223  0.76450  1.0000
  C  Sn48      1.0  0.18256  0.19923  0.73740  1.0000
  C   C223      1.0  0.21004  0.20040  0.77159  1.0000
  C   C224      1.0  0.22220  0.17512  0.83228  1.0000
  H   H87       1.0  0.21633  0.12894  0.90592  1.0000
  O  Te47      1.0  0.13961  0.17044  0.73134  1.0000
  O  Te48      1.0  0.17072  0.22468  0.67682  1.0000
  H   H88       1.0  0.24348  0.17621  0.85842  1.0000
  Mg  Mg24      1.0  0.13262  0.21114  0.65037  1.0000
  C   C225      1.0  0.28614  0.66623  0.64445  1.0000
  C   C226      1.0  0.28903  0.69482  0.70575  1.0000
  C  Sn49      1.0  0.31404  0.70333  0.75841  1.0000
  C  Sn50      1.0  0.33654  0.68279  0.74933  1.0000
  C   C227      1.0  0.33345  0.65425  0.68770  1.0000
  C   C228      1.0  0.30833  0.64596  0.63540  1.0000
  H   H89       1.0  0.26671  0.65983  0.60389  1.0000
  O  Te49      1.0  0.31657  0.73198  0.81938  1.0000
  O  Te50      1.0  0.36177  0.69072  0.80106  1.0000
  H   H90       1.0  0.30610  0.62383  0.58784  1.0000
  Mg  Mg25      1.0  0.35509  0.73231  0.87489  1.0000
  C   C229      1.0  0.71451  0.66561  0.84368  1.0000
  C   C230      1.0  0.71190  0.69449  0.78130  1.0000
  C  Sn51      1.0  0.68712  0.70326  0.72605  1.0000
  C  Sn52      1.0  0.66458  0.68268  0.73358  1.0000
  C   C231      1.0  0.66740  0.65385  0.79630  1.0000
  C   C232      1.0  0.69229  0.64531  0.85121  1.0000
  H   H91       1.0  0.73376  0.65900  0.88625  1.0000
  O  Te51      1.0  0.68487  0.73219  0.66403  1.0000
  O  Te52      1.0  0.63958  0.69086  0.67925  1.0000
  H   H92       1.0  0.69430  0.62295  0.89960  1.0000
  Mg  Mg26      1.0  0.64660  0.73281  0.60488  1.0000
  C   C233      1.0  0.71684  0.33642  0.82968  1.0000
  C   C234      1.0  0.71242  0.30682  0.79028  1.0000
  C  Sn53      1.0  0.68736  0.29833  0.73816  1.0000
  C  Sn54      1.0  0.66638  0.31992  0.72533  1.0000
  C   C235      1.0  0.67102  0.34947  0.76491  1.0000
  C   C236      1.0  0.69616  0.35772  0.81699  1.0000
  H   H93       1.0  0.73630  0.34281  0.86988  1.0000
  O  Te53      1.0  0.68328  0.26867  0.69935  1.0000
  O  Te54      1.0  0.64115  0.31204  0.67350  1.0000
  H   H94       1.0  0.69959  0.38064  0.84738  1.0000
  Mg  Mg27      1.0  0.64540  0.26883  0.63449  1.0000
  C   C237      1.0  0.29450  0.34692  0.62912  1.0000
  C   C238      1.0  0.32083  0.34829  0.67977  1.0000
  C  Sn55      1.0  0.33285  0.32266  0.73717  1.0000
  C  Sn56      1.0  0.31820  0.29519  0.74381  1.0000
  C   C239      1.0  0.29188  0.29405  0.69275  1.0000
  C   C240      1.0  0.28004  0.31983  0.63557  1.0000
  H   H95       1.0  0.28534  0.36686  0.58479  1.0000
  O  Te55      1.0  0.35917  0.32442  0.78735  1.0000
  O  Te56      1.0  0.32974  0.26924  0.80060  1.0000
  H   H96       1.0  0.25966  0.31876  0.59626  1.0000
  Mg  Mg28      1.0  0.36616  0.28296  0.85535  1.0000
  C   C241      1.0  0.42550  0.40002  0.52568  1.0000
  C   C242      1.0  0.39817  0.39458  0.61474  1.0000
  C  Sn57      1.0  0.38393  0.41621  0.72151  1.0000
  C  Sn58      1.0  0.39735  0.44378  0.73914  1.0000
  C   C243      1.0  0.42469  0.44902  0.64940  1.0000
  C   C244      1.0  0.43874  0.42721  0.54295  1.0000
  H   H97       1.0  0.43637  0.38316  0.44324  1.0000
  O  Te57      1.0  0.35664  0.41041  0.80961  1.0000
  O  Te58      1.0  0.38360  0.46580  0.84494  1.0000
  H   H98       1.0  0.45989  0.43144  0.47393  1.0000
  Mg  Mg29      1.0  0.34659  0.44740  0.93850  1.0000
  C   C245      1.0  0.61731  0.42895  0.72309  1.0000
  C   C246      1.0  0.61311  0.40339  0.82725  1.0000
  C  Sn59      1.0  0.58700  0.39798  0.93227  1.0000
  C  Sn60      1.0  0.56472  0.41857  0.93272  1.0000
  C   C247      1.0  0.56914  0.44406  0.82797  1.0000
  C   C248      1.0  0.59535  0.44926  0.72341  1.0000
  H   H99       1.0  0.63759  0.43297  0.64212  1.0000
  O  Te59      1.0  0.61223  0.37503  0.03559  1.0000
  O  Te60      1.0  0.56748  0.41639  0.03640  1.0000
  H   H100      1.0  0.59859  0.46903  0.64270  1.0000
  Mg  Mg30      1.0  0.57257  0.37823  0.15472  1.0000
  C   C249      1.0  0.60771  0.55800  0.72543  1.0000
  C   C250      1.0  0.58050  0.55262  0.81640  1.0000
  C  Sn61      1.0  0.56654  0.57424  0.92447  1.0000
  C  Sn62      1.0  0.58013  0.60174  0.94150  1.0000
  C   C251      1.0  0.60735  0.60691  0.84986  1.0000
  C   C252      1.0  0.62112  0.58512  0.74210  1.0000
  H   H101      1.0  0.61836  0.54114  0.64199  1.0000
  O  Te61      1.0  0.56843  0.57119  0.01447  1.0000
  O  Te62      1.0  0.59573  0.62643  0.04859  1.0000
  H   H102      1.0  0.64219  0.58929  0.67161  1.0000
  Mg  Mg31      1.0  0.55877  0.60813  0.14457  1.0000
  C   C253      1.0  0.38212  0.57065  0.75424  1.0000
  C   C254      1.0  0.38861  0.59825  0.67344  1.0000
  C  Sn63      1.0  0.41514  0.60336  0.57275  1.0000
  C  Sn64      1.0  0.43551  0.58037  0.55278  1.0000
  C   C255      1.0  0.42881  0.55284  0.63406  1.0000
  C   C256      1.0  0.40220  0.54796  0.73457  1.0000
  H   H103      1.0  0.36153  0.56687  0.83194  1.0000
  O  Te63      1.0  0.42127  0.63107  0.49297  1.0000
  O  Te64      1.0  0.46219  0.58488  0.45283  1.0000
  H   H104      1.0  0.39718  0.52659  0.79702  1.0000
  Mg  Mg32      1.0  0.46055  0.62644  0.36987  1.0000
