data_image0
_chemical_formula_structural       H40C128S8N32Cl16SnCSn2CSnTe4Mg2SnCSn2CSnTe4Mg2SnCSn2CSnTe4Mg2SnCSn2CSnTe4Mg2SnCSn2CSnTe4Mg2SnCSn2CSnTe4Mg2SnCSn2CSnTe4Mg2SnCSn2CSnTe4Mg2SnCSn2CSnTe4Mg2SnCSn2CSnTe4Mg2SnCSn2CSnTe4Mg2SnCSn2CSnTe4Mg2SnCSn2CSnTe4Mg2SnCSn2CSnTe4Mg2SnCSn2CSnTe4Mg2SnCSn2CSnTe4Mg2SnCSn2CSnTe4Mg2SnCSn2CSnTe4Mg2SnCSn2CSnTe4Mg2SnCSn2CSnTe4Mg2SnCSn2CSnTe4Mg2SnCSn2CSnTe4Mg2SnCSn2CSnTe4Mg2SnCSn2CSnTe4Mg2SnCSn2CSnTe4Mg2SnCSn2CSnTe4Mg2SnCSn2CSnTe4Mg2SnCSn2CSnTe4Mg2SnCSn2CSnTe4Mg2SnCSn2CSnTe4Mg2SnCSn2CSnTe4Mg2SnCSn2CSnTe4Mg2
_chemical_formula_sum              "H40 C192 S8 N32 Cl16 Sn128 Te128 Mg64"
_cell_length_a       47.7437
_cell_length_b       45.4047
_cell_length_c       8.01223
_cell_angle_alpha    89.3161
_cell_angle_beta     78.8076
_cell_angle_gamma    90.0911

_symmetry_space_group_name_H-M    'P1'
_space_group_IT_number       1

loop_
  _space_group_symop_operation_xyz
  'x, y, z'

loop_
  _atom_site_type_symbol
  _atom_site_label
  _atom_site_symmetry_multiplicity
  _atom_site_fract_x
  _atom_site_fract_y
  _atom_site_fract_z
  _atom_site_occupancy
  H   H1        1.0  0.11819  0.85328  0.43992  1.0000
  H   H2        1.0  0.87888  0.85742  0.04216  1.0000
  H   H3        1.0  0.87890  0.14777  0.07570  1.0000
  H   H4        1.0  0.12095  0.14551  0.46006  1.0000
  H   H5        1.0  0.38372  0.35092  0.07751  1.0000
  H   H6        1.0  0.61520  0.35000  0.40062  1.0000
  H   H7        1.0  0.61590  0.64961  0.40317  1.0000
  H   H8        1.0  0.38481  0.65163  0.09611  1.0000
  H   H9        1.0  0.52339  0.57507  0.27607  1.0000
  H   H10       1.0  0.47610  0.57531  0.20527  1.0000
  H   H11       1.0  0.47572  0.42555  0.20542  1.0000
  H   H12       1.0  0.52305  0.42537  0.27535  1.0000
  H   H13       1.0  0.02354  0.92609  0.27751  1.0000
  H   H14       1.0  0.97562  0.92661  0.21364  1.0000
  H   H15       1.0  0.97599  0.07636  0.23154  1.0000
  H   H16       1.0  0.02376  0.07577  0.29585  1.0000
  H   H17       1.0  0.09020  0.99983  0.37400  1.0000
  H   H18       1.0  0.90822  0.00239  0.15022  1.0000
  H   H19       1.0  0.40880  0.50071  0.12295  1.0000
  H   H20       1.0  0.58952  0.49996  0.36929  1.0000
  H   H21       1.0  0.11942  0.85073  0.94317  1.0000
  H   H22       1.0  0.87987  0.85418  0.55320  1.0000
  H   H23       1.0  0.88059  0.14719  0.58224  1.0000
  H   H24       1.0  0.12092  0.14351  0.94960  1.0000
  H   H25       1.0  0.38414  0.34959  0.58094  1.0000
  H   H26       1.0  0.61624  0.34944  0.90198  1.0000
  H   H27       1.0  0.61614  0.64853  0.90217  1.0000
  H   H28       1.0  0.38535  0.65001  0.58518  1.0000
  H   H29       1.0  0.52338  0.57389  0.78309  1.0000
  H   H30       1.0  0.47604  0.57401  0.71385  1.0000
  H   H31       1.0  0.47625  0.42432  0.70618  1.0000
  H   H32       1.0  0.52362  0.42420  0.77561  1.0000
  H   H33       1.0  0.02300  0.92359  0.78659  1.0000
  H   H34       1.0  0.97582  0.92455  0.71556  1.0000
  H   H35       1.0  0.97700  0.07430  0.73278  1.0000
  H   H36       1.0  0.02473  0.07336  0.79792  1.0000
  H   H37       1.0  0.09059  0.99712  0.87818  1.0000
  H   H38       1.0  0.90995  0.00084  0.63478  1.0000
  H   H39       1.0  0.40947  0.49958  0.62113  1.0000
  H   H40       1.0  0.59066  0.49868  0.86046  1.0000
  C   C1        1.0  0.02759  0.97342  0.29166  1.0000
  C   C2        1.0  0.97125  0.97412  0.21575  1.0000
  C   C3        1.0  0.97140  0.02891  0.22299  1.0000
  C   C4        1.0  0.02770  0.02823  0.29982  1.0000
  C   C5        1.0  0.01291  0.94694  0.26668  1.0000
  C   C6        1.0  0.98611  0.94727  0.23070  1.0000
  C   C7        1.0  0.98632  0.05542  0.24459  1.0000
  C   C8        1.0  0.01309  0.05510  0.28110  1.0000
  C   C9        1.0  0.05578  0.97334  0.32451  1.0000
  C   C10       1.0  0.94282  0.97466  0.18605  1.0000
  C   C11       1.0  0.94301  0.02895  0.19350  1.0000
  C   C12       1.0  0.05592  0.02763  0.33287  1.0000
  C   C13       1.0  0.26427  0.78609  0.24188  1.0000
  C   C14       1.0  0.73496  0.78524  0.26347  1.0000
  C   C15       1.0  0.73445  0.21612  0.27344  1.0000
  C   C16       1.0  0.26586  0.21465  0.23781  1.0000
  C   C17       1.0  0.28455  0.76228  0.22608  1.0000
  C   C18       1.0  0.71500  0.76105  0.27657  1.0000
  C   C19       1.0  0.71436  0.23999  0.28387  1.0000
  C   C20       1.0  0.28550  0.23913  0.22069  1.0000
  C   C21       1.0  0.27738  0.73397  0.28931  1.0000
  C   C22       1.0  0.72269  0.73308  0.21462  1.0000
  C   C23       1.0  0.72195  0.26812  0.21915  1.0000
  C   C24       1.0  0.27754  0.26719  0.28031  1.0000
  C   C25       1.0  0.24852  0.73047  0.37853  1.0000
  C   C26       1.0  0.75170  0.73046  0.12732  1.0000
  C   C27       1.0  0.75090  0.27123  0.13095  1.0000
  C   C28       1.0  0.24866  0.26967  0.36988  1.0000
  C   C29       1.0  0.22812  0.75435  0.39421  1.0000
  C   C30       1.0  0.77173  0.75482  0.11218  1.0000
  C   C31       1.0  0.77098  0.24710  0.11767  1.0000
  C   C32       1.0  0.22899  0.24500  0.38897  1.0000
  C   C33       1.0  0.23579  0.78295  0.32297  1.0000
  C   C34       1.0  0.76356  0.78305  0.18306  1.0000
  C   C35       1.0  0.76297  0.21880  0.19238  1.0000
  C   C36       1.0  0.23735  0.21676  0.31919  1.0000
  C   C37       1.0  0.12830  0.87354  0.37898  1.0000
  C   C38       1.0  0.86907  0.87665  0.11274  1.0000
  C   C39       1.0  0.86935  0.12783  0.14335  1.0000
  C   C40       1.0  0.13040  0.12534  0.39827  1.0000
  C   C41       1.0  0.44335  0.52772  0.16704  1.0000
  C   C42       1.0  0.55538  0.52725  0.32146  1.0000
  C   C43       1.0  0.55529  0.47294  0.32034  1.0000
  C   C44       1.0  0.44330  0.47342  0.16578  1.0000
  C   C45       1.0  0.47156  0.52784  0.20026  1.0000
  C   C46       1.0  0.52738  0.52758  0.28503  1.0000
  C   C47       1.0  0.52732  0.47281  0.28369  1.0000
  C   C48       1.0  0.47148  0.47306  0.19952  1.0000
  C   C49       1.0  0.48637  0.55445  0.22135  1.0000
  C   C50       1.0  0.51289  0.55431  0.26144  1.0000
  C   C51       1.0  0.51270  0.44621  0.26015  1.0000
  C   C52       1.0  0.48615  0.44632  0.22066  1.0000
  C   C53       1.0  0.37299  0.37080  0.13568  1.0000
  C   C54       1.0  0.62563  0.37003  0.33843  1.0000
  C   C55       1.0  0.62643  0.62985  0.34223  1.0000
  C   C56       1.0  0.37405  0.63168  0.15725  1.0000
  C   C57       1.0  0.01356  0.00101  0.27713  1.0000
  C   C58       1.0  0.98544  0.00134  0.23789  1.0000
  C   C59       1.0  0.06894  0.00025  0.34406  1.0000
  C   C60       1.0  0.92968  0.00200  0.17707  1.0000
  C   C61       1.0  0.48551  0.50039  0.22035  1.0000
  C   C62       1.0  0.51337  0.50026  0.26366  1.0000
  C   C63       1.0  0.43013  0.50063  0.15200  1.0000
  C   C64       1.0  0.56836  0.50003  0.33779  1.0000
  C   C65       1.0  0.02780  0.97096  0.79725  1.0000
  C   C66       1.0  0.97200  0.97213  0.71287  1.0000
  C   C67       1.0  0.97249  0.02695  0.71997  1.0000
  C   C68       1.0  0.02846  0.02577  0.80084  1.0000
  C   C69       1.0  0.01285  0.94462  0.77322  1.0000
  C   C70       1.0  0.98637  0.94517  0.73275  1.0000
  C   C71       1.0  0.98733  0.05332  0.74497  1.0000
  C   C72       1.0  0.01406  0.05276  0.78204  1.0000
  C   C73       1.0  0.05589  0.97062  0.83172  1.0000
  C   C74       1.0  0.94395  0.97291  0.67727  1.0000
  C   C75       1.0  0.94441  0.02724  0.68522  1.0000
  C   C76       1.0  0.05666  0.02493  0.83375  1.0000
  C   C77       1.0  0.26540  0.78495  0.74181  1.0000
  C   C78       1.0  0.73512  0.78489  0.76080  1.0000
  C   C79       1.0  0.73550  0.21464  0.77411  1.0000
  C   C80       1.0  0.26526  0.21352  0.73696  1.0000
  C   C81       1.0  0.28564  0.76114  0.72731  1.0000
  C   C82       1.0  0.71504  0.76083  0.77409  1.0000
  C   C83       1.0  0.71537  0.23852  0.78590  1.0000
  C   C84       1.0  0.28491  0.23803  0.71733  1.0000
  C   C85       1.0  0.27841  0.73286  0.79074  1.0000
  C   C86       1.0  0.72259  0.73284  0.71166  1.0000
  C   C87       1.0  0.72281  0.26664  0.72058  1.0000
  C   C88       1.0  0.27713  0.26610  0.77793  1.0000
  C   C89       1.0  0.24957  0.72945  0.88042  1.0000
  C   C90       1.0  0.75156  0.73010  0.62359  1.0000
  C   C91       1.0  0.75177  0.26983  0.63253  1.0000
  C   C92       1.0  0.24829  0.26861  0.86830  1.0000
  C   C93       1.0  0.22929  0.75346  0.89716  1.0000
  C   C94       1.0  0.77169  0.75436  0.60865  1.0000
  C   C95       1.0  0.77201  0.24583  0.62001  1.0000
  C   C96       1.0  0.22857  0.24394  0.88860  1.0000
  C   C97       1.0  0.23697  0.78199  0.82450  1.0000
  C   C98       1.0  0.76367  0.78251  0.68057  1.0000
  C   C99       1.0  0.76407  0.21744  0.69378  1.0000
  C   C100      1.0  0.23683  0.21564  0.81975  1.0000
  C   C101      1.0  0.12900  0.87131  0.88377  1.0000
  C   C102      1.0  0.87020  0.87431  0.61426  1.0000
  C   C103      1.0  0.87085  0.12668  0.64183  1.0000
  C   C104      1.0  0.13073  0.12327  0.89076  1.0000
  C   C105      1.0  0.44386  0.52647  0.66813  1.0000
  C   C106      1.0  0.55613  0.52607  0.81861  1.0000
  C   C107      1.0  0.55607  0.47179  0.81644  1.0000
  C   C108      1.0  0.44380  0.47219  0.66575  1.0000
  C   C109      1.0  0.47192  0.52659  0.70320  1.0000
  C   C110      1.0  0.52789  0.52640  0.78566  1.0000
  C   C111      1.0  0.52790  0.47164  0.78285  1.0000
  C   C112      1.0  0.47193  0.47183  0.70038  1.0000
  C   C113      1.0  0.48651  0.55317  0.72725  1.0000
  C   C114      1.0  0.51310  0.55311  0.76616  1.0000
  C   C115      1.0  0.51321  0.44503  0.76065  1.0000
  C   C116      1.0  0.48663  0.44511  0.72150  1.0000
  C   C117      1.0  0.37343  0.36937  0.64071  1.0000
  C   C118      1.0  0.62670  0.36918  0.83651  1.0000
  C   C119      1.0  0.62674  0.62901  0.83859  1.0000
  C   C120      1.0  0.37480  0.63034  0.65071  1.0000
  C   C121      1.0  0.01412  0.99865  0.77914  1.0000
  C   C122      1.0  0.98622  0.99924  0.73666  1.0000
  C   C123      1.0  0.06935  0.99752  0.84805  1.0000
  C   C124      1.0  0.93116  0.00036  0.66533  1.0000
  C   C125      1.0  0.48593  0.49915  0.72204  1.0000
  C   C126      1.0  0.51387  0.49908  0.76417  1.0000
  C   C127      1.0  0.43070  0.49942  0.65146  1.0000
  C   C128      1.0  0.56927  0.49886  0.83217  1.0000
  S   S1        1.0  0.79579  0.28695  0.46378  1.0000
  S   S2        1.0  0.20424  0.28469  0.03790  1.0000
  S   S3        1.0  0.20569  0.71185  0.04899  1.0000
  S   S4        1.0  0.79573  0.71370  0.45688  1.0000
  S   S5        1.0  0.79506  0.28817  0.96272  1.0000
  S   S6        1.0  0.20454  0.28563  0.53898  1.0000
  S   S7        1.0  0.20461  0.71270  0.54593  1.0000
  S   S8        1.0  0.79587  0.71415  0.96058  1.0000
  N   N1        1.0  0.15564  0.87611  0.33404  1.0000
  N   N2        1.0  0.84188  0.87826  0.16804  1.0000
  N   N3        1.0  0.84218  0.12535  0.19753  1.0000
  N   N4        1.0  0.15760  0.12260  0.34715  1.0000
  N   N5        1.0  0.65341  0.62962  0.27847  1.0000
  N   N6        1.0  0.34716  0.63145  0.22299  1.0000
  N   N7        1.0  0.34592  0.37111  0.19631  1.0000
  N   N8        1.0  0.65258  0.37070  0.27417  1.0000
  N   N9        1.0  0.79705  0.25407  0.02484  1.0000
  N   N10       1.0  0.20299  0.25137  0.48303  1.0000
  N   N11       1.0  0.20215  0.74690  0.48662  1.0000
  N   N12       1.0  0.79782  0.74816  0.02018  1.0000
  N   N13       1.0  0.76210  0.29594  0.04725  1.0000
  N   N14       1.0  0.23722  0.29422  0.44998  1.0000
  N   N15       1.0  0.23764  0.70547  0.46031  1.0000
  N   N16       1.0  0.76293  0.70599  0.04554  1.0000
  N   N17       1.0  0.15627  0.87459  0.83732  1.0000
  N   N18       1.0  0.84295  0.87681  0.66398  1.0000
  N   N19       1.0  0.84357  0.12379  0.68958  1.0000
  N   N20       1.0  0.15802  0.12073  0.84351  1.0000
  N   N21       1.0  0.65361  0.62920  0.77236  1.0000
  N   N22       1.0  0.34804  0.63030  0.71938  1.0000
  N   N23       1.0  0.34643  0.36953  0.70353  1.0000
  N   N24       1.0  0.65354  0.36945  0.76967  1.0000
  N   N25       1.0  0.79805  0.25296  0.52732  1.0000
  N   N26       1.0  0.20260  0.25041  0.98275  1.0000
  N   N27       1.0  0.20337  0.74612  0.99068  1.0000
  N   N28       1.0  0.79777  0.74769  0.51655  1.0000
  N   N29       1.0  0.76278  0.29453  0.54797  1.0000
  N   N30       1.0  0.23690  0.29319  0.94823  1.0000
  N   N31       1.0  0.23861  0.70446  0.96181  1.0000
  N   N32       1.0  0.76275  0.70561  0.54175  1.0000
  Cl  Cl1       1.0  0.27611  0.81942  0.14595  1.0000
  Cl  Cl2       1.0  0.72249  0.81775  0.36195  1.0000
  Cl  Cl3       1.0  0.72243  0.18350  0.37763  1.0000
  Cl  Cl4       1.0  0.27846  0.18199  0.14191  1.0000
  Cl  Cl5       1.0  0.31883  0.76942  0.11483  1.0000
  Cl  Cl6       1.0  0.68026  0.76740  0.38133  1.0000
  Cl  Cl7       1.0  0.67971  0.23303  0.38985  1.0000
  Cl  Cl8       1.0  0.32009  0.23310  0.11255  1.0000
  Cl  Cl9       1.0  0.27710  0.81785  0.63982  1.0000
  Cl  Cl10      1.0  0.72300  0.81753  0.85875  1.0000
  Cl  Cl11      1.0  0.72332  0.18168  0.87350  1.0000
  Cl  Cl12      1.0  0.27770  0.18061  0.64381  1.0000
  Cl  Cl13      1.0  0.31998  0.76823  0.61692  1.0000
  Cl  Cl14      1.0  0.68047  0.76733  0.88106  1.0000
  Cl  Cl15      1.0  0.68083  0.23171  0.89417  1.0000
  Cl  Cl16      1.0  0.31922  0.23194  0.60511  1.0000
  C  Sn1       1.0  0.10389  0.93778  0.19428  1.0000
  C   C129      1.0  0.07575  0.94192  0.27938  1.0000
  C  Sn2       1.0  0.06436  0.92467  0.42200  1.0000
  C  Sn3       1.0  0.08145  0.90284  0.48088  1.0000
  C   C130      1.0  0.10957  0.89871  0.39582  1.0000
  C  Sn4       1.0  0.12098  0.91595  0.25315  1.0000
  O  Te1       1.0  0.11484  0.95528  0.05197  1.0000
  O  Te2       1.0  0.03617  0.92921  0.50494  1.0000
  O  Te3       1.0  0.07047  0.88534  0.62331  1.0000
  O  Te4       1.0  0.14915  0.91143  0.17026  1.0000
  Mg  Mg1       1.0  0.03091  0.89985  0.69322  1.0000
  Mg  Mg2       1.0  0.12186  0.93862  0.98203  1.0000
  C  Sn5       1.0  0.92480  0.90058  0.08482  1.0000
  C   C131      1.0  0.89614  0.89679  0.16195  1.0000
  C  Sn6       1.0  0.88019  0.92056  0.23771  1.0000
  C  Sn7       1.0  0.89317  0.94871  0.23626  1.0000
  C   C132      1.0  0.92182  0.95248  0.15914  1.0000
  C  Sn8       1.0  0.93778  0.92873  0.08337  1.0000
  O  Te5       1.0  0.94033  0.87651  0.00985  1.0000
  O  Te6       1.0  0.85157  0.91623  0.31409  1.0000
  O  Te7       1.0  0.87761  0.97278  0.31133  1.0000
  O  Te8       1.0  0.96638  0.93305  0.00700  1.0000
  Mg  Mg3       1.0  0.83930  0.95583  0.39935  1.0000
  Mg  Mg4       1.0  0.94609  0.89131  0.92163  1.0000
  C  Sn9       1.0  0.88947  0.05612  0.24800  1.0000
  C   C133      1.0  0.91801  0.05292  0.16794  1.0000
  C  Sn10      1.0  0.93371  0.07721  0.09209  1.0000
  C  Sn11      1.0  0.92061  0.10528  0.09644  1.0000
  C   C134      1.0  0.89209  0.10846  0.17649  1.0000
  C  Sn12      1.0  0.87637  0.08418  0.25235  1.0000
  O  Te9       1.0  0.87419  0.03153  0.32301  1.0000
  O  Te10      1.0  0.96221  0.07347  0.01276  1.0000
  O  Te11      1.0  0.93592  0.12986  0.02134  1.0000
  O  Te12      1.0  0.84789  0.08791  0.33167  1.0000
  Mg  Mg5       1.0  0.94157  0.11146  0.92870  1.0000
  Mg  Mg6       1.0  0.83594  0.04779  0.41584  1.0000
  C  Sn13      1.0  0.10991  0.05387  0.29763  1.0000
  C   C135      1.0  0.08088  0.05104  0.36867  1.0000
  C  Sn14      1.0  0.06521  0.07543  0.43796  1.0000
  C  Sn15      1.0  0.07883  0.10325  0.43611  1.0000
  C   C136      1.0  0.10784  0.10608  0.36507  1.0000
  C  Sn16      1.0  0.12353  0.08169  0.29578  1.0000
  O  Te13      1.0  0.12516  0.02918  0.22907  1.0000
  O  Te14      1.0  0.03621  0.07205  0.50833  1.0000
  O  Te15      1.0  0.06355  0.12795  0.50475  1.0000
  O  Te16      1.0  0.15251  0.08506  0.22542  1.0000
  Mg  Mg7       1.0  0.02453  0.11222  0.58606  1.0000
  Mg  Mg8       1.0  0.16420  0.04492  0.14758  1.0000
  C  Sn17      1.0  0.21168  0.83776  0.45442  1.0000
  C   C137      1.0  0.21077  0.80928  0.39148  1.0000
  C  Sn18      1.0  0.19183  0.80232  0.28493  1.0000
  C  Sn19      1.0  0.17343  0.82430  0.24025  1.0000
  C   C138      1.0  0.17436  0.85277  0.30315  1.0000
  C  Sn20      1.0  0.19329  0.85974  0.40975  1.0000
  O  Te17      1.0  0.23078  0.84423  0.56075  1.0000
  O  Te18      1.0  0.19130  0.77369  0.22363  1.0000
  O  Te19      1.0  0.15432  0.81782  0.13383  1.0000
  O  Te20      1.0  0.19383  0.88836  0.47100  1.0000
  Mg  Mg9       1.0  0.16157  0.77566  0.08263  1.0000
  Mg  Mg10      1.0  0.22356  0.88642  0.61193  1.0000
  C  Sn21      1.0  0.83143  0.81725  0.17114  1.0000
  C   C139      1.0  0.82875  0.84649  0.12038  1.0000
  C  Sn22      1.0  0.80217  0.85756  0.10306  1.0000
  C  Sn23      1.0  0.77774  0.83902  0.13729  1.0000
  C   C140      1.0  0.78042  0.80979  0.18804  1.0000
  C  Sn24      1.0  0.80700  0.79870  0.20536  1.0000
  O  Te21      1.0  0.85821  0.80665  0.18763  1.0000
  O  Te22      1.0  0.80004  0.88688  0.05209  1.0000
  O  Te23      1.0  0.75095  0.84964  0.12075  1.0000
  O  Te24      1.0  0.80914  0.76941  0.25632  1.0000
  Mg  Mg11      1.0  0.75891  0.89112  0.04786  1.0000
  Mg  Mg12      1.0  0.85025  0.76515  0.26068  1.0000
  C  Sn25      1.0  0.79713  0.14974  0.07785  1.0000
  C   C141      1.0  0.82271  0.15057  0.13782  1.0000
  C  Sn26      1.0  0.82852  0.17387  0.23843  1.0000
  C  Sn27      1.0  0.80832  0.19680  0.28007  1.0000
  C   C142      1.0  0.78275  0.19595  0.22014  1.0000
  C  Sn28      1.0  0.77693  0.17267  0.11948  1.0000
  O  Te25      1.0  0.75919  0.12408  0.97746  1.0000
  O  Te26      1.0  0.85425  0.17422  0.29685  1.0000
  O  Te27      1.0  0.81370  0.22031  0.38054  1.0000
  O  Te28      1.0  0.75121  0.17230  0.06110  1.0000
  Mg  Mg13      1.0  0.85178  0.21093  0.42974  1.0000
  Mg  Mg14      1.0  0.72108  0.13344  0.92828  1.0000
  C  Sn29      1.0  0.18090  0.19628  0.32681  1.0000
  C   C143      1.0  0.20775  0.19530  0.37157  1.0000
  C  Sn30      1.0  0.22056  0.16828  0.39396  1.0000
  C  Sn31      1.0  0.20623  0.14168  0.37104  1.0000
  C   C144      1.0  0.17940  0.14267  0.32627  1.0000
  C  Sn32      1.0  0.16657  0.16969  0.30388  1.0000
  O  Te29      1.0  0.16850  0.22355  0.30508  1.0000
  O  Te30      1.0  0.24742  0.16786  0.43877  1.0000
  O  Te31      1.0  0.21866  0.11440  0.39281  1.0000
  O  Te32      1.0  0.13973  0.17012  0.25907  1.0000
  Mg  Mg15      1.0  0.25553  0.12526  0.45383  1.0000
  Mg  Mg16      1.0  0.13161  0.21270  0.24390  1.0000
  C  Sn33      1.0  0.33494  0.68751  0.35074  1.0000
  C   C145      1.0  0.32963  0.66019  0.28437  1.0000
  C  Sn34      1.0  0.30819  0.65717  0.18938  1.0000
  C  Sn35      1.0  0.29171  0.68198  0.16002  1.0000
  C   C146      1.0  0.29702  0.70928  0.22634  1.0000
  C  Sn36      1.0  0.31846  0.71232  0.32137  1.0000
  O  Te33      1.0  0.35649  0.69002  0.44532  1.0000
  O  Te34      1.0  0.30327  0.62963  0.12438  1.0000
  O  Te35      1.0  0.27014  0.67945  0.06535  1.0000
  O  Te36      1.0  0.32338  0.73984  0.38632  1.0000
  Mg  Mg17      1.0  0.27155  0.63733  0.00337  1.0000
  Mg  Mg18      1.0  0.35511  0.73217  0.50727  1.0000
  C  Sn37      1.0  0.66818  0.70538  0.23290  1.0000
  C   C147      1.0  0.69528  0.70878  0.27193  1.0000
  C  Sn38      1.0  0.71149  0.68411  0.29708  1.0000
  C  Sn39      1.0  0.70039  0.65546  0.28282  1.0000
  C   C148      1.0  0.67331  0.65208  0.24378  1.0000
  C  Sn40      1.0  0.65708  0.67673  0.21864  1.0000
  O  Te37      1.0  0.65236  0.73035  0.20826  1.0000
  O  Te38      1.0  0.73852  0.68806  0.33604  1.0000
  O  Te39      1.0  0.71624  0.63048  0.30750  1.0000
  O  Te40      1.0  0.63007  0.67279  0.17967  1.0000
  Mg  Mg19      1.0  0.75193  0.64722  0.35812  1.0000
  Mg  Mg20      1.0  0.61664  0.71362  0.15748  1.0000
  C  Sn41      1.0  0.70443  0.34370  0.26607  1.0000
  C   C149      1.0  0.67752  0.34705  0.22419  1.0000
  C  Sn42      1.0  0.66122  0.32237  0.20162  1.0000
  C  Sn43      1.0  0.67203  0.29373  0.22143  1.0000
  C   C150      1.0  0.69892  0.29038  0.26331  1.0000
  C  Sn44      1.0  0.71524  0.31505  0.28588  1.0000
  O  Te41      1.0  0.72036  0.36868  0.28804  1.0000
  O  Te42      1.0  0.63439  0.32628  0.15972  1.0000
  O  Te43      1.0  0.65608  0.26873  0.19941  1.0000
  O  Te44      1.0  0.74206  0.31115  0.32777  1.0000
  Mg  Mg21      1.0  0.62073  0.28543  0.14307  1.0000
  Mg  Mg22      1.0  0.75572  0.35199  0.34455  1.0000
  C  Sn45      1.0  0.32414  0.30092  0.34956  1.0000
  C   C151      1.0  0.29774  0.29638  0.30313  1.0000
  C  Sn46      1.0  0.28803  0.31594  0.19123  1.0000
  C  Sn47      1.0  0.30508  0.34054  0.12424  1.0000
  C   C152      1.0  0.33147  0.34507  0.17064  1.0000
  C  Sn48      1.0  0.34119  0.32552  0.28257  1.0000
  O  Te45      1.0  0.33342  0.28108  0.46162  1.0000
  O  Te46      1.0  0.26156  0.31095  0.14673  1.0000
  O  Te47      1.0  0.29577  0.36039  0.01211  1.0000
  O  Te48      1.0  0.36765  0.33050  0.32705  1.0000
  Mg  Mg23      1.0  0.22562  0.34201  0.98965  1.0000
  Mg  Mg24      1.0  0.37104  0.29728  0.48404  1.0000
  C  Sn49      1.0  0.43167  0.41925  0.00822  1.0000
  C   C153      1.0  0.42487  0.44498  0.10125  1.0000
  C  Sn50      1.0  0.40110  0.44575  0.23384  1.0000
  C  Sn51      1.0  0.38376  0.42028  0.27438  1.0000
  C   C154      1.0  0.39057  0.39458  0.18140  1.0000
  C  Sn52      1.0  0.41434  0.39378  0.04876  1.0000
  O  Te49      1.0  0.42297  0.41682  0.87620  1.0000
  O  Te50      1.0  0.39472  0.47173  0.32500  1.0000
  O  Te51      1.0  0.35988  0.42057  0.40652  1.0000
  O  Te52      1.0  0.38814  0.36567  0.95766  1.0000
  Mg  Mg25      1.0  0.35998  0.46117  0.49367  1.0000
  Mg  Mg26      1.0  0.42289  0.37619  0.78903  1.0000
  C  Sn53      1.0  0.61886  0.43069  0.26998  1.0000
  C   C155      1.0  0.61186  0.40399  0.35669  1.0000
  C  Sn54      1.0  0.58336  0.39670  0.42169  1.0000
  C  Sn55      1.0  0.56140  0.41651  0.39947  1.0000
  C   C156      1.0  0.56841  0.44319  0.31279  1.0000
  C  Sn56      1.0  0.59690  0.45050  0.24777  1.0000
  O  Te53      1.0  0.64749  0.43752  0.20607  1.0000
  O  Te54      1.0  0.57689  0.36988  0.50797  1.0000
  O  Te55      1.0  0.53275  0.40966  0.46348  1.0000
  O  Te56      1.0  0.60338  0.47730  0.16151  1.0000
  Mg  Mg27      1.0  0.53470  0.37049  0.57170  1.0000
  Mg  Mg28      1.0  0.64555  0.47670  0.09766  1.0000
  C  Sn57      1.0  0.61366  0.57669  0.19418  1.0000
  C   C157      1.0  0.60736  0.60223  0.28967  1.0000
  C  Sn58      1.0  0.58376  0.60301  0.42345  1.0000
  C  Sn59      1.0  0.56611  0.57774  0.46268  1.0000
  C   C158      1.0  0.57242  0.55222  0.36723  1.0000
  C  Sn60      1.0  0.59600  0.55142  0.23341  1.0000
  O  Te57      1.0  0.63735  0.57641  0.06101  1.0000
  O  Te58      1.0  0.57789  0.62879  0.51707  1.0000
  O  Te59      1.0  0.54240  0.57804  0.59597  1.0000
  O  Te60      1.0  0.60189  0.52565  0.13984  1.0000
  Mg  Mg29      1.0  0.54320  0.61834  0.68650  1.0000
  Mg  Mg30      1.0  0.60399  0.53392  0.97045  1.0000
  C  Sn61      1.0  0.38643  0.57755  0.30323  1.0000
  C   C159      1.0  0.39284  0.60342  0.20704  1.0000
  C  Sn62      1.0  0.41575  0.60430  0.06892  1.0000
  C  Sn63      1.0  0.43259  0.57879  0.02596  1.0000
  C   C160      1.0  0.42618  0.55294  0.12210  1.0000
  C  Sn64      1.0  0.40328  0.55204  0.26027  1.0000
  O  Te61      1.0  0.36343  0.57716  0.44078  1.0000
  O  Te62      1.0  0.38917  0.62826  0.97469  1.0000
  O  Te63      1.0  0.42303  0.57704  0.88829  1.0000
  O  Te64      1.0  0.39727  0.52594  0.35445  1.0000
  Mg  Mg31      1.0  0.42271  0.61782  0.79865  1.0000
  Mg  Mg32      1.0  0.36373  0.53635  0.53045  1.0000
  C  Sn65      1.0  0.06759  0.91586  0.98753  1.0000
  C   C161      1.0  0.07394  0.94197  0.89352  1.0000
  C  Sn66      1.0  0.09817  0.94390  0.76425  1.0000
  C  Sn67      1.0  0.11643  0.91923  0.72811  1.0000
  C   C162      1.0  0.11007  0.89314  0.82206  1.0000
  C  Sn68      1.0  0.08584  0.89119  0.95139  1.0000
  O  Te65      1.0  0.07582  0.91658  0.11618  1.0000
  O  Te66      1.0  0.10409  0.97024  0.67204  1.0000
  O  Te67      1.0  0.14078  0.92069  0.59934  1.0000
  O  Te68      1.0  0.11250  0.86703  0.04355  1.0000
  Mg  Mg33      1.0  0.13976  0.96136  0.50910  1.0000
  Mg  Mg34      1.0  0.07682  0.87588  0.20644  1.0000
  C  Sn69      1.0  0.93175  0.91971  0.51258  1.0000
  C   C163      1.0  0.92543  0.94519  0.60854  1.0000
  C  Sn70      1.0  0.90104  0.94640  0.73678  1.0000
  C  Sn71      1.0  0.88260  0.92161  0.76989  1.0000
  C   C164      1.0  0.88893  0.89614  0.67399  1.0000
  C  Sn72      1.0  0.91331  0.89492  0.54570  1.0000
  O  Te69      1.0  0.95624  0.91900  0.38501  1.0000
  O  Te70      1.0  0.89516  0.97212  0.83097  1.0000
  O  Te71      1.0  0.85809  0.92234  0.89758  1.0000
  O  Te72      1.0  0.91919  0.86922  0.45156  1.0000
  Mg  Mg35      1.0  0.85923  0.96236  0.99138  1.0000
  Mg  Mg36      1.0  0.95513  0.87895  0.29119  1.0000
  C  Sn73      1.0  0.92148  0.09562  0.52718  1.0000
  C   C165      1.0  0.89333  0.09927  0.61331  1.0000
  C  Sn74      1.0  0.88194  0.08093  0.75109  1.0000
  C  Sn75      1.0  0.89905  0.05849  0.80398  1.0000
  C   C166      1.0  0.92718  0.05485  0.71789  1.0000
  C  Sn76      1.0  0.93858  0.07318  0.58007  1.0000
  O  Te73      1.0  0.93242  0.11421  0.38978  1.0000
  O  Te74      1.0  0.85374  0.08499  0.83516  1.0000
  O  Te75      1.0  0.88808  0.03989  0.94149  1.0000
  O  Te76      1.0  0.96677  0.06913  0.49604  1.0000
  Mg  Mg37      1.0  0.88107  0.05628  0.01526  1.0000
  Mg  Mg38      1.0  0.97204  0.09999  0.31599  1.0000
  C  Sn77      1.0  0.11649  0.07297  0.72004  1.0000
  C   C167      1.0  0.11067  0.09797  0.82076  1.0000
  C  Sn78      1.0  0.08658  0.09882  0.95125  1.0000
  C  Sn79      1.0  0.06794  0.07416  0.98179  1.0000
  C   C168      1.0  0.07376  0.04918  0.88112  1.0000
  C  Sn80      1.0  0.09784  0.04831  0.75058  1.0000
  O  Te77      1.0  0.14069  0.07260  0.59030  1.0000
  O  Te78      1.0  0.11378  0.12623  0.05022  1.0000
  O  Te79      1.0  0.07630  0.07671  0.11166  1.0000
  O  Te80      1.0  0.10323  0.02308  0.65167  1.0000
  Mg  Mg39      1.0  0.07809  0.11613  0.21202  1.0000
  Mg  Mg40      1.0  0.13892  0.03315  0.48990  1.0000
  C  Sn81      1.0  0.20996  0.85528  0.85208  1.0000
  C   C169      1.0  0.18324  0.85378  0.80581  1.0000
  C  Sn82      1.0  0.17066  0.82651  0.78759  1.0000
  C  Sn83      1.0  0.18507  0.80019  0.81631  1.0000
  C   C170      1.0  0.21177  0.80170  0.86257  1.0000
  C  Sn84      1.0  0.22437  0.82897  0.88080  1.0000
  O  Te81      1.0  0.22213  0.88278  0.86958  1.0000
  O  Te82      1.0  0.14394  0.82556  0.74117  1.0000
  O  Te83      1.0  0.17287  0.77268  0.79876  1.0000
  O  Te84      1.0  0.25107  0.82992  0.92722  1.0000
  Mg  Mg41      1.0  0.13612  0.78281  0.73344  1.0000
  Mg  Mg42      1.0  0.25890  0.87265  0.93507  1.0000
  C  Sn85      1.0  0.78977  0.85629  0.64287  1.0000
  C   C171      1.0  0.81599  0.85561  0.69576  1.0000
  C  Sn86      1.0  0.82869  0.82874  0.72285  1.0000
  C  Sn87      1.0  0.81492  0.80197  0.69641  1.0000
  C   C172      1.0  0.78872  0.80266  0.64352  1.0000
  C  Sn88      1.0  0.77599  0.82953  0.61643  1.0000
  O  Te85      1.0  0.77746  0.88341  0.61656  1.0000
  O  Te86      1.0  0.85491  0.82862  0.77577  1.0000
  O  Te87      1.0  0.82725  0.77484  0.72277  1.0000
  O  Te88      1.0  0.74980  0.82965  0.56351  1.0000
  Mg  Mg43      1.0  0.86315  0.78612  0.79458  1.0000
  Mg  Mg44      1.0  0.74155  0.87213  0.54458  1.0000
  C  Sn89      1.0  0.82363  0.17941  0.79340  1.0000
  C   C173      1.0  0.82260  0.15082  0.73209  1.0000
  C  Sn90      1.0  0.80371  0.14377  0.62542  1.0000
  C  Sn91      1.0  0.78548  0.16575  0.57897  1.0000
  C   C174      1.0  0.78652  0.19431  0.64024  1.0000
  C  Sn92      1.0  0.80540  0.20139  0.74695  1.0000
  O  Te89      1.0  0.84268  0.18597  0.89988  1.0000
  O  Te90      1.0  0.80306  0.11503  0.56576  1.0000
  O  Te91      1.0  0.76642  0.15916  0.47240  1.0000
  O  Te92      1.0  0.80606  0.23011  0.80656  1.0000
  Mg  Mg45      1.0  0.77346  0.11689  0.42384  1.0000
  Mg  Mg46      1.0  0.83566  0.22828  0.94842  1.0000
  C  Sn93      1.0  0.22217  0.15491  0.86081  1.0000
  C   C175      1.0  0.21996  0.18394  0.80500  1.0000
  C  Sn94      1.0  0.19375  0.19492  0.78020  1.0000
  C  Sn95      1.0  0.16921  0.17651  0.81195  1.0000
  C   C176      1.0  0.17142  0.14750  0.86775  1.0000
  C  Sn96      1.0  0.19763  0.13650  0.89256  1.0000
  O  Te93      1.0  0.24859  0.14439  0.88475  1.0000
  O  Te94      1.0  0.19207  0.22401  0.72428  1.0000
  O  Te95      1.0  0.14277  0.18705  0.78795  1.0000
  O  Te96      1.0  0.19931  0.10742  0.94847  1.0000
  Mg  Mg47      1.0  0.15132  0.22822  0.71044  1.0000
  Mg  Mg48      1.0  0.24005  0.10320  0.96243  1.0000
  C  Sn97      1.0  0.33331  0.70593  0.76646  1.0000
  C   C177      1.0  0.30604  0.70928  0.72985  1.0000
  C  Sn98      1.0  0.28995  0.68462  0.70407  1.0000
  C  Sn99      1.0  0.30136  0.65599  0.71522  1.0000
  C   C178      1.0  0.32861  0.65265  0.75184  1.0000
  C  Sn100     1.0  0.34472  0.67731  0.77760  1.0000
  O  Te97      1.0  0.34901  0.73090  0.79177  1.0000
  O  Te98      1.0  0.26274  0.68853  0.66758  1.0000
  O  Te99      1.0  0.28563  0.63102  0.68987  1.0000
  O  Te100     1.0  0.37191  0.67341  0.81411  1.0000
  Mg  Mg49      1.0  0.24960  0.64770  0.64339  1.0000
  Mg  Mg50      1.0  0.38507  0.71422  0.83840  1.0000
  C  Sn101     1.0  0.69737  0.66147  0.85885  1.0000
  C   C179      1.0  0.67106  0.65760  0.81008  1.0000
  C  Sn102     1.0  0.66138  0.67831  0.70426  1.0000
  C  Sn103     1.0  0.67836  0.70341  0.64586  1.0000
  C   C180      1.0  0.70466  0.70726  0.69460  1.0000
  C  Sn104     1.0  0.71435  0.68656  0.80046  1.0000
  O  Te101     1.0  0.70662  0.64048  0.96471  1.0000
  O  Te102     1.0  0.63500  0.67397  0.65726  1.0000
  O  Te103     1.0  0.66908  0.72440  0.53992  1.0000
  O  Te104     1.0  0.74072  0.69089  0.84742  1.0000
  Mg  Mg51      1.0  0.63164  0.70873  0.51094  1.0000
  Mg  Mg52      1.0  0.74410  0.65614  0.99365  1.0000
  C  Sn105     1.0  0.70511  0.34222  0.76528  1.0000
  C   C181      1.0  0.67820  0.34551  0.72325  1.0000
  C  Sn106     1.0  0.66194  0.32079  0.70093  1.0000
  C  Sn107     1.0  0.67278  0.29217  0.72115  1.0000
  C   C182      1.0  0.69967  0.28889  0.76318  1.0000
  C  Sn108     1.0  0.71595  0.31361  0.78550  1.0000
  O  Te105     1.0  0.72100  0.36725  0.78700  1.0000
  O  Te106     1.0  0.63510  0.32463  0.65889  1.0000
  O  Te107     1.0  0.65686  0.26714  0.69939  1.0000
  O  Te108     1.0  0.74277  0.30977  0.82755  1.0000
  Mg  Mg53      1.0  0.62151  0.28374  0.64269  1.0000
  Mg  Mg54      1.0  0.75637  0.35065  0.84386  1.0000
  C  Sn109     1.0  0.29237  0.32276  0.63458  1.0000
  C   C183      1.0  0.29805  0.29519  0.69972  1.0000
  C  Sn110     1.0  0.31961  0.29202  0.79407  1.0000
  C  Sn111     1.0  0.33582  0.31693  0.82403  1.0000
  C   C184      1.0  0.33014  0.34448  0.75894  1.0000
  C  Sn112     1.0  0.30858  0.34767  0.66454  1.0000
  O  Te109     1.0  0.27072  0.32541  0.54062  1.0000
  O  Te110     1.0  0.32489  0.26424  0.85784  1.0000
  O  Te111     1.0  0.35748  0.31426  0.91807  1.0000
  O  Te112     1.0  0.30329  0.37543  0.60081  1.0000
  Mg  Mg55      1.0  0.35662  0.27182  0.97839  1.0000
  Mg  Mg56      1.0  0.27156  0.36788  0.48033  1.0000
  C  Sn113     1.0  0.42768  0.39682  0.58738  1.0000
  C   C185      1.0  0.39932  0.39249  0.66917  1.0000
  C  Sn114     1.0  0.38256  0.41636  0.73597  1.0000
  C  Sn115     1.0  0.39439  0.44516  0.72061  1.0000
  C   C186      1.0  0.42273  0.44949  0.63883  1.0000
  C  Sn116     1.0  0.43950  0.42563  0.57201  1.0000
  O  Te113     1.0  0.44403  0.37264  0.52154  1.0000
  O  Te114     1.0  0.35426  0.41147  0.81725  1.0000
  O  Te115     1.0  0.37800  0.46935  0.78653  1.0000
  O  Te116     1.0  0.46778  0.43051  0.49075  1.0000
  Mg  Mg57      1.0  0.34055  0.45148  0.88609  1.0000
  Mg  Mg58      1.0  0.48150  0.39052  0.42179  1.0000
  C  Sn117     1.0  0.60368  0.43647  0.68175  1.0000
  C   C187      1.0  0.57591  0.44091  0.77204  1.0000
  C  Sn118     1.0  0.56466  0.42293  0.91172  1.0000
  C  Sn119     1.0  0.58152  0.40003  0.96229  1.0000
  C   C188      1.0  0.60926  0.39560  0.87205  1.0000
  C  Sn120     1.0  0.62053  0.41357  0.73233  1.0000
  O  Te117     1.0  0.61449  0.45471  0.54252  1.0000
  O  Te118     1.0  0.53685  0.42779  0.99996  1.0000
  O  Te119     1.0  0.60326  0.38394  0.10165  1.0000
  O  Te120     1.0  0.64833  0.40872  0.64414  1.0000
  Mg  Mg59      1.0  0.56423  0.39928  0.18118  1.0000
  Mg  Mg60      1.0  0.65356  0.43939  0.46296  1.0000
  C  Sn121     1.0  0.56263  0.58724  0.89457  1.0000
  C   C189      1.0  0.56957  0.56094  0.80762  1.0000
  C  Sn122     1.0  0.59804  0.55409  0.74119  1.0000
  C  Sn123     1.0  0.62002  0.57394  0.76221  1.0000
  C   C190      1.0  0.61307  0.60022  0.84914  1.0000
  C  Sn124     1.0  0.58461  0.60709  0.91559  1.0000
  O  Te121     1.0  0.53402  0.59363  0.95993  1.0000
  O  Te122     1.0  0.60446  0.52767  0.65469  1.0000
  O  Te123     1.0  0.64864  0.56753  0.69676  1.0000
  O  Te124     1.0  0.61077  0.63565  0.00207  1.0000
  Mg  Mg61      1.0  0.64662  0.52881  0.58880  1.0000
  Mg  Mg62      1.0  0.56862  0.63453  0.06808  1.0000
  C  Sn125     1.0  0.38690  0.57640  0.79983  1.0000
  C   C191      1.0  0.39360  0.60229  0.70428  1.0000
  C  Sn126     1.0  0.41687  0.60320  0.56833  1.0000
  C  Sn127     1.0  0.43378  0.57769  0.52692  1.0000
  C   C192      1.0  0.42707  0.55181  0.62241  1.0000
  C  Sn128     1.0  0.40381  0.55089  0.75842  1.0000
  O  Te125     1.0  0.36354  0.57599  0.93520  1.0000
  O  Te126     1.0  0.42316  0.62934  0.47470  1.0000
  O  Te127     1.0  0.45715  0.57811  0.39143  1.0000
  O  Te128     1.0  0.39751  0.52476  0.85199  1.0000
  Mg  Mg63      1.0  0.45714  0.61893  0.30182  1.0000
  Mg  Mg64      1.0  0.39611  0.53731  0.02483  1.0000
