data_image0
_chemical_formula_structural       H120C224S8N32C2Sn2C2HTe2HMgC2Sn2C2HTe2HMgC2Sn2C2HTe2HMgC2Sn2C2HTe2HMgC2Sn2C2HTe2HMgC2Sn2C2HTe2HMgC2Sn2C2HTe2HMgC2Sn2C2HTe2HMgC2Sn2C2HTe2HMgC2Sn2C2HTe2HMgC2Sn2C2HTe2HMgC2Sn2C2HTe2HMgC2Sn2C2HTe2HMgC2Sn2C2HTe2HMgC2Sn2C2HTe2HMgC2Sn2C2HTe2HMg
_chemical_formula_sum              "H152 C288 S8 N32 Sn32 Te32 Mg16"
_cell_length_a       48.079
_cell_length_b       45.0896
_cell_length_c       7.91599
_cell_angle_alpha    91.3242
_cell_angle_beta     79.1081
_cell_angle_gamma    90.0822

_symmetry_space_group_name_H-M    'P1'
_space_group_IT_number       1

loop_
  _space_group_symop_operation_xyz
  'x, y, z'

loop_
  _atom_site_type_symbol
  _atom_site_label
  _atom_site_symmetry_multiplicity
  _atom_site_fract_x
  _atom_site_fract_y
  _atom_site_fract_z
  _atom_site_occupancy
  H   H1        1.0  0.10791  0.96391  0.17082  1.0000
  H   H2        1.0  0.10756  0.03415  0.16103  1.0000
  H   H3        1.0  0.13964  0.92087  0.18211  1.0000
  H   H4        1.0  0.14030  0.07671  0.16876  1.0000
  H   H5        1.0  0.07239  0.87677  0.02015  1.0000
  H   H6        1.0  0.07466  0.12285  0.02716  1.0000
  H   H7        1.0  0.04084  0.91965  0.01186  1.0000
  H   H8        1.0  0.04269  0.07975  0.02373  1.0000
  H   H9        1.0  0.26402  0.79756  0.12324  1.0000
  H   H10       1.0  0.73480  0.79753  0.38202  1.0000
  H   H11       1.0  0.73678  0.20354  0.37559  1.0000
  H   H12       1.0  0.26421  0.20280  0.10475  1.0000
  H   H13       1.0  0.29834  0.75659  0.09474  1.0000
  H   H14       1.0  0.70157  0.75558  0.40977  1.0000
  H   H15       1.0  0.70228  0.24440  0.40799  1.0000
  H   H16       1.0  0.29764  0.24450  0.08265  1.0000
  H   H17       1.0  0.82345  0.77481  0.31131  1.0000
  H   H18       1.0  0.82444  0.22741  0.32308  1.0000
  H   H19       1.0  0.85557  0.81808  0.29884  1.0000
  H   H20       1.0  0.85672  0.18422  0.30973  1.0000
  H   H21       1.0  0.79314  0.87272  0.13346  1.0000
  H   H22       1.0  0.79596  0.12870  0.12237  1.0000
  H   H23       1.0  0.76093  0.82919  0.14388  1.0000
  H   H24       1.0  0.76360  0.17205  0.13424  1.0000
  H   H25       1.0  0.67880  0.72376  0.19693  1.0000
  H   H26       1.0  0.67849  0.27562  0.20037  1.0000
  H   H27       1.0  0.64485  0.68184  0.21478  1.0000
  H   H28       1.0  0.64455  0.31747  0.21642  1.0000
  H   H29       1.0  0.70409  0.62610  0.40288  1.0000
  H   H30       1.0  0.70268  0.37463  0.41763  1.0000
  H   H31       1.0  0.73809  0.66823  0.38725  1.0000
  H   H32       1.0  0.73676  0.33266  0.40221  1.0000
  H   H33       1.0  0.11758  0.85124  0.42662  1.0000
  H   H34       1.0  0.87989  0.85204  0.07446  1.0000
  H   H35       1.0  0.88202  0.14885  0.07203  1.0000
  H   H36       1.0  0.12061  0.14774  0.42365  1.0000
  H   H37       1.0  0.35938  0.42207  0.31742  1.0000
  H   H38       1.0  0.64021  0.42118  0.19280  1.0000
  H   H39       1.0  0.64038  0.57894  0.17867  1.0000
  H   H40       1.0  0.35980  0.57991  0.29743  1.0000
  H   H41       1.0  0.39144  0.46493  0.33547  1.0000
  H   H42       1.0  0.60877  0.46401  0.17040  1.0000
  H   H43       1.0  0.60866  0.53595  0.15655  1.0000
  H   H44       1.0  0.39085  0.53669  0.31969  1.0000
  H   H45       1.0  0.38075  0.35241  0.05082  1.0000
  H   H46       1.0  0.61681  0.35214  0.43855  1.0000
  H   H47       1.0  0.61851  0.64856  0.44101  1.0000
  H   H48       1.0  0.38377  0.64893  0.05301  1.0000
  H   H49       1.0  0.52393  0.57570  0.28085  1.0000
  H   H50       1.0  0.47692  0.57574  0.20888  1.0000
  H   H51       1.0  0.47600  0.42501  0.20663  1.0000
  H   H52       1.0  0.52258  0.42496  0.28565  1.0000
  H   H53       1.0  0.02266  0.92467  0.28746  1.0000
  H   H54       1.0  0.97572  0.92482  0.21345  1.0000
  H   H55       1.0  0.97633  0.07570  0.22718  1.0000
  H   H56       1.0  0.02342  0.07543  0.29875  1.0000
  H   H57       1.0  0.08909  0.99976  0.38288  1.0000
  H   H58       1.0  0.90953  0.00072  0.13505  1.0000
  H   H59       1.0  0.41034  0.50031  0.11730  1.0000
  H   H60       1.0  0.58956  0.50036  0.37085  1.0000
  H   H61       1.0  0.10785  0.96382  0.67375  1.0000
  H   H62       1.0  0.10748  0.03397  0.66395  1.0000
  H   H63       1.0  0.13970  0.92092  0.68609  1.0000
  H   H64       1.0  0.13993  0.07690  0.67246  1.0000
  H   H65       1.0  0.07273  0.87760  0.52508  1.0000
  H   H66       1.0  0.07564  0.12302  0.52531  1.0000
  H   H67       1.0  0.04128  0.92058  0.51620  1.0000
  H   H68       1.0  0.04327  0.08051  0.52127  1.0000
  H   H69       1.0  0.26437  0.79760  0.63342  1.0000
  H   H70       1.0  0.73648  0.79650  0.87932  1.0000
  H   H71       1.0  0.73707  0.20479  0.88803  1.0000
  H   H72       1.0  0.26530  0.20055  0.60666  1.0000
  H   H73       1.0  0.29817  0.75616  0.59900  1.0000
  H   H74       1.0  0.70308  0.75472  0.90810  1.0000
  H   H75       1.0  0.70320  0.24624  0.92082  1.0000
  H   H76       1.0  0.29918  0.24182  0.58649  1.0000
  H   H77       1.0  0.17677  0.77431  0.67995  1.0000
  H   H78       1.0  0.82468  0.77480  0.81582  1.0000
  H   H79       1.0  0.14409  0.81716  0.69510  1.0000
  H   H80       1.0  0.85635  0.81853  0.80069  1.0000
  H   H81       1.0  0.20403  0.87285  0.88926  1.0000
  H   H82       1.0  0.79388  0.87150  0.62363  1.0000
  H   H83       1.0  0.23677  0.82984  0.87648  1.0000
  H   H84       1.0  0.76226  0.82753  0.63620  1.0000
  H   H85       1.0  0.67891  0.72383  0.70778  1.0000
  H   H86       1.0  0.67944  0.27586  0.70393  1.0000
  H   H87       1.0  0.64463  0.68221  0.72884  1.0000
  H   H88       1.0  0.64525  0.31748  0.71671  1.0000
  H   H89       1.0  0.70529  0.62506  0.89312  1.0000
  H   H90       1.0  0.70368  0.37587  0.90605  1.0000
  H   H91       1.0  0.73952  0.66694  0.87535  1.0000
  H   H92       1.0  0.73792  0.33413  0.89403  1.0000
  H   H93       1.0  0.11786  0.85118  0.92943  1.0000
  H   H94       1.0  0.88042  0.85182  0.56668  1.0000
  H   H95       1.0  0.88191  0.14857  0.58479  1.0000
  H   H96       1.0  0.11959  0.14785  0.92477  1.0000
  H   H97       1.0  0.42549  0.37784  0.96035  1.0000
  H   H98       1.0  0.57205  0.37891  0.53067  1.0000
  H   H99       1.0  0.57338  0.62268  0.53184  1.0000
  H   H100      1.0  0.42887  0.62249  0.96829  1.0000
  H   H101      1.0  0.38359  0.34928  0.56286  1.0000
  H   H102      1.0  0.61776  0.35259  0.94176  1.0000
  H   H103      1.0  0.61860  0.64821  0.94493  1.0000
  H   H104      1.0  0.38246  0.64703  0.54750  1.0000
  H   H105      1.0  0.52331  0.57539  0.78493  1.0000
  H   H106      1.0  0.47657  0.57498  0.70819  1.0000
  H   H107      1.0  0.47644  0.42424  0.71131  1.0000
  H   H108      1.0  0.52277  0.42470  0.79289  1.0000
  H   H109      1.0  0.02222  0.92431  0.79057  1.0000
  H   H110      1.0  0.97543  0.92459  0.71523  1.0000
  H   H111      1.0  0.97678  0.07538  0.72057  1.0000
  H   H112      1.0  0.02375  0.07511  0.79306  1.0000
  H   H113      1.0  0.45723  0.42067  0.97545  1.0000
  H   H114      1.0  0.54086  0.42179  0.51160  1.0000
  H   H115      1.0  0.54201  0.57967  0.51309  1.0000
  H   H116      1.0  0.45951  0.57903  0.98496  1.0000
  H   H117      1.0  0.08882  0.99953  0.88666  1.0000
  H   H118      1.0  0.90957  0.00028  0.63394  1.0000
  H   H119      1.0  0.41166  0.49910  0.60016  1.0000
  H   H120      1.0  0.58968  0.50063  0.87114  1.0000
  C   C1        1.0  0.02696  0.97242  0.29894  1.0000
  C   C2        1.0  0.97154  0.97265  0.21198  1.0000
  C   C3        1.0  0.97188  0.02789  0.21612  1.0000
  C   C4        1.0  0.02730  0.02761  0.30130  1.0000
  C   C5        1.0  0.01234  0.94563  0.27347  1.0000
  C   C6        1.0  0.98603  0.94574  0.23214  1.0000
  C   C7        1.0  0.98657  0.05469  0.24059  1.0000
  C   C8        1.0  0.01295  0.05457  0.28079  1.0000
  C   C9        1.0  0.05485  0.97252  0.33497  1.0000
  C   C10       1.0  0.94357  0.97307  0.17725  1.0000
  C   C11       1.0  0.94394  0.02785  0.18110  1.0000
  C   C12       1.0  0.05525  0.02723  0.33574  1.0000
  C   C13       1.0  0.07210  0.94553  0.34280  1.0000
  C   C14       1.0  0.07300  0.05398  0.34198  1.0000
  C   C15       1.0  0.10030  0.94515  0.25047  1.0000
  C   C16       1.0  0.10078  0.05339  0.24390  1.0000
  C   C17       1.0  0.11810  0.92116  0.25555  1.0000
  C   C18       1.0  0.11908  0.07710  0.24658  1.0000
  C   C19       1.0  0.10844  0.89629  0.35351  1.0000
  C   C20       1.0  0.11032  0.10262  0.34779  1.0000
  C   C21       1.0  0.08037  0.89633  0.44488  1.0000
  C   C22       1.0  0.08260  0.10361  0.44399  1.0000
  C   C23       1.0  0.06253  0.92051  0.43934  1.0000
  C   C24       1.0  0.06425  0.07970  0.44112  1.0000
  C   C25       1.0  0.25704  0.77640  0.17957  1.0000
  C   C26       1.0  0.74227  0.77618  0.32391  1.0000
  C   C27       1.0  0.74362  0.22484  0.32060  1.0000
  C   C28       1.0  0.25701  0.22381  0.16842  1.0000
  C   C29       1.0  0.27679  0.75276  0.16261  1.0000
  C   C30       1.0  0.72314  0.75205  0.34008  1.0000
  C   C31       1.0  0.72375  0.24839  0.33936  1.0000
  C   C32       1.0  0.27623  0.24786  0.15508  1.0000
  C   C33       1.0  0.26971  0.72457  0.22315  1.0000
  C   C34       1.0  0.73085  0.72372  0.27601  1.0000
  C   C35       1.0  0.73071  0.27670  0.28057  1.0000
  C   C36       1.0  0.26874  0.27594  0.22412  1.0000
  C   C37       1.0  0.24110  0.72094  0.31094  1.0000
  C   C38       1.0  0.75946  0.72025  0.18689  1.0000
  C   C39       1.0  0.75928  0.28055  0.19266  1.0000
  C   C40       1.0  0.24030  0.27901  0.31699  1.0000
  C   C41       1.0  0.22078  0.74518  0.32788  1.0000
  C   C42       1.0  0.77911  0.74497  0.17065  1.0000
  C   C43       1.0  0.77969  0.25640  0.17364  1.0000
  C   C44       1.0  0.22060  0.25427  0.33171  1.0000
  C   C45       1.0  0.22880  0.77361  0.25821  1.0000
  C   C46       1.0  0.77044  0.77361  0.24259  1.0000
  C   C47       1.0  0.77183  0.22787  0.24195  1.0000
  C   C48       1.0  0.22899  0.22601  0.25304  1.0000
  C   C49       1.0  0.79002  0.79890  0.22768  1.0000
  C   C50       1.0  0.79191  0.20290  0.22681  1.0000
  C   C51       1.0  0.71067  0.69894  0.29174  1.0000
  C   C52       1.0  0.71003  0.30118  0.29963  1.0000
  C   C53       1.0  0.81714  0.79599  0.26726  1.0000
  C   C54       1.0  0.81856  0.20612  0.27313  1.0000
  C   C55       1.0  0.83521  0.82025  0.25937  1.0000
  C   C56       1.0  0.83673  0.18191  0.26544  1.0000
  C   C57       1.0  0.82674  0.84819  0.21093  1.0000
  C   C58       1.0  0.82881  0.15376  0.21024  1.0000
  C   C59       1.0  0.79952  0.85118  0.17223  1.0000
  C   C60       1.0  0.80198  0.15039  0.16606  1.0000
  C   C61       1.0  0.78163  0.82682  0.17886  1.0000
  C   C62       1.0  0.78401  0.17467  0.17304  1.0000
  C   C63       1.0  0.68401  0.70264  0.24717  1.0000
  C   C64       1.0  0.68353  0.29707  0.25260  1.0000
  C   C65       1.0  0.66487  0.67924  0.25783  1.0000
  C   C66       1.0  0.66428  0.32045  0.26299  1.0000
  C   C67       1.0  0.67216  0.65133  0.31266  1.0000
  C   C68       1.0  0.67120  0.34875  0.32136  1.0000
  C   C69       1.0  0.69885  0.64759  0.35777  1.0000
  C   C70       1.0  0.69767  0.35285  0.36988  1.0000
  C   C71       1.0  0.71775  0.67106  0.34838  1.0000
  C   C72       1.0  0.71665  0.32943  0.36046  1.0000
  C   C73       1.0  0.12721  0.87110  0.36142  1.0000
  C   C74       1.0  0.87031  0.87214  0.14323  1.0000
  C   C75       1.0  0.87245  0.12945  0.14243  1.0000
  C   C76       1.0  0.12960  0.12753  0.35358  1.0000
  C   C77       1.0  0.44460  0.52766  0.16465  1.0000
  C   C78       1.0  0.55568  0.52763  0.32278  1.0000
  C   C79       1.0  0.55525  0.47295  0.32554  1.0000
  C   C80       1.0  0.44418  0.47299  0.16512  1.0000
  C   C81       1.0  0.47245  0.52792  0.20096  1.0000
  C   C82       1.0  0.52781  0.52789  0.28712  1.0000
  C   C83       1.0  0.52734  0.47271  0.28972  1.0000
  C   C84       1.0  0.47207  0.47277  0.20077  1.0000
  C   C85       1.0  0.48713  0.55478  0.22395  1.0000
  C   C86       1.0  0.51348  0.55477  0.26460  1.0000
  C   C87       1.0  0.51252  0.44589  0.26780  1.0000
  C   C88       1.0  0.48635  0.44593  0.22435  1.0000
  C   C89       1.0  0.42674  0.44609  0.15555  1.0000
  C   C90       1.0  0.57233  0.44610  0.33895  1.0000
  C   C91       1.0  0.57296  0.55454  0.33415  1.0000
  C   C92       1.0  0.42759  0.55459  0.15304  1.0000
  C   C93       1.0  0.43607  0.42085  0.05341  1.0000
  C   C94       1.0  0.56230  0.42144  0.43742  1.0000
  C   C95       1.0  0.56327  0.57965  0.43649  1.0000
  C   C96       1.0  0.43792  0.57938  0.05677  1.0000
  C   C97       1.0  0.41810  0.39681  0.04438  1.0000
  C   C98       1.0  0.57994  0.39733  0.44857  1.0000
  C   C99       1.0  0.58103  0.60379  0.44770  1.0000
  C   C100      1.0  0.42057  0.60375  0.04648  1.0000
  C   C101      1.0  0.39016  0.39717  0.13751  1.0000
  C   C102      1.0  0.60826  0.39707  0.36155  1.0000
  C   C103      1.0  0.60911  0.60355  0.35698  1.0000
  C   C104      1.0  0.39215  0.60401  0.13167  1.0000
  C   C105      1.0  0.38081  0.42216  0.24237  1.0000
  C   C106      1.0  0.61840  0.42161  0.26203  1.0000
  C   C107      1.0  0.61884  0.57868  0.25213  1.0000
  C   C108      1.0  0.38167  0.57932  0.22905  1.0000
  C   C109      1.0  0.39877  0.44602  0.25103  1.0000
  C   C110      1.0  0.60081  0.44553  0.25135  1.0000
  C   C111      1.0  0.60109  0.55475  0.24130  1.0000
  C   C112      1.0  0.39904  0.55520  0.23951  1.0000
  C   C113      1.0  0.37127  0.37219  0.12369  1.0000
  C   C114      1.0  0.62686  0.37204  0.37587  1.0000
  C   C115      1.0  0.62799  0.62842  0.37242  1.0000
  C   C116      1.0  0.37377  0.62928  0.11883  1.0000
  C   C117      1.0  0.01322  0.00006  0.27948  1.0000
  C   C118      1.0  0.98556  0.00019  0.23515  1.0000
  C   C119      1.0  0.06798  0.99984  0.35211  1.0000
  C   C120      1.0  0.93076  0.00055  0.16399  1.0000
  C   C121      1.0  0.48613  0.50033  0.22211  1.0000
  C   C122      1.0  0.51375  0.50029  0.26684  1.0000
  C   C123      1.0  0.43139  0.50032  0.14888  1.0000
  C   C124      1.0  0.56846  0.50032  0.33989  1.0000
  C   C125      1.0  0.02683  0.97210  0.80000  1.0000
  C   C126      1.0  0.97148  0.97241  0.71278  1.0000
  C   C127      1.0  0.97189  0.02762  0.71538  1.0000
  C   C128      1.0  0.02732  0.02727  0.80125  1.0000
  C   C129      1.0  0.01211  0.94532  0.77542  1.0000
  C   C130      1.0  0.98583  0.94547  0.73368  1.0000
  C   C131      1.0  0.98682  0.05438  0.73706  1.0000
  C   C132      1.0  0.01319  0.05421  0.77749  1.0000
  C   C133      1.0  0.05468  0.97217  0.83664  1.0000
  C   C134      1.0  0.94358  0.97281  0.67725  1.0000
  C   C135      1.0  0.94388  0.02752  0.68130  1.0000
  C   C136      1.0  0.05515  0.02685  0.83753  1.0000
  C   C137      1.0  0.07194  0.94520  0.84384  1.0000
  C   C138      1.0  0.07275  0.05366  0.84429  1.0000
  C   C139      1.0  0.10024  0.94502  0.75308  1.0000
  C   C140      1.0  0.10054  0.05323  0.74635  1.0000
  C   C141      1.0  0.11808  0.92108  0.75830  1.0000
  C   C142      1.0  0.11865  0.07708  0.74961  1.0000
  C   C143      1.0  0.10842  0.89607  0.85491  1.0000
  C   C144      1.0  0.10957  0.10258  0.85045  1.0000
  C   C145      1.0  0.08017  0.89580  0.94305  1.0000
  C   C146      1.0  0.08181  0.10342  0.94637  1.0000
  C   C147      1.0  0.06227  0.91993  0.93760  1.0000
  C   C148      1.0  0.06369  0.07930  0.94338  1.0000
  C   C149      1.0  0.25709  0.77627  0.68621  1.0000
  C   C150      1.0  0.74379  0.77515  0.82065  1.0000
  C   C151      1.0  0.74400  0.22574  0.82868  1.0000
  C   C152      1.0  0.25819  0.22168  0.66923  1.0000
  C   C153      1.0  0.27660  0.75235  0.66648  1.0000
  C   C154      1.0  0.72455  0.75114  0.83694  1.0000
  C   C155      1.0  0.72448  0.24962  0.84775  1.0000
  C   C156      1.0  0.27769  0.24549  0.65696  1.0000
  C   C157      1.0  0.26928  0.72398  0.72343  1.0000
  C   C158      1.0  0.73200  0.72283  0.77165  1.0000
  C   C159      1.0  0.73156  0.27752  0.78280  1.0000
  C   C160      1.0  0.27041  0.27367  0.72536  1.0000
  C   C161      1.0  0.24055  0.72047  0.80995  1.0000
  C   C162      1.0  0.76054  0.71934  0.68064  1.0000
  C   C163      1.0  0.76000  0.28088  0.69198  1.0000
  C   C164      1.0  0.24177  0.27723  0.81424  1.0000
  C   C165      1.0  0.22051  0.74503  0.83033  1.0000
  C   C166      1.0  0.78037  0.74395  0.66499  1.0000
  C   C167      1.0  0.78010  0.25646  0.67344  1.0000
  C   C168      1.0  0.22179  0.25279  0.82716  1.0000
  C   C169      1.0  0.22881  0.77364  0.76430  1.0000
  C   C170      1.0  0.77194  0.77253  0.73905  1.0000
  C   C171      1.0  0.77198  0.22814  0.74430  1.0000
  C   C172      1.0  0.23004  0.22430  0.75114  1.0000
  C   C173      1.0  0.20888  0.79880  0.77996  1.0000
  C   C174      1.0  0.79138  0.79797  0.72506  1.0000
  C   C175      1.0  0.71158  0.69825  0.78961  1.0000
  C   C176      1.0  0.71097  0.30202  0.79893  1.0000
  C   C177      1.0  0.18234  0.79555  0.73196  1.0000
  C   C178      1.0  0.81829  0.79566  0.76834  1.0000
  C   C179      1.0  0.16396  0.81959  0.74081  1.0000
  C   C180      1.0  0.83609  0.82018  0.75948  1.0000
  C   C181      1.0  0.17151  0.84769  0.79898  1.0000
  C   C182      1.0  0.82749  0.84776  0.70661  1.0000
  C   C183      1.0  0.19828  0.85115  0.84408  1.0000
  C   C184      1.0  0.80037  0.85026  0.66603  1.0000
  C   C185      1.0  0.21650  0.82702  0.83601  1.0000
  C   C186      1.0  0.78279  0.82565  0.67379  1.0000
  C   C187      1.0  0.68436  0.70245  0.75378  1.0000
  C   C188      1.0  0.68438  0.29752  0.75382  1.0000
  C   C189      1.0  0.66504  0.67920  0.76642  1.0000
  C   C190      1.0  0.66505  0.32075  0.76217  1.0000
  C   C191      1.0  0.67256  0.65096  0.81541  1.0000
  C   C192      1.0  0.67192  0.34927  0.81731  1.0000
  C   C193      1.0  0.69974  0.64681  0.85302  1.0000
  C   C194      1.0  0.69856  0.35383  0.86270  1.0000
  C   C195      1.0  0.71883  0.67012  0.84180  1.0000
  C   C196      1.0  0.71767  0.33055  0.85485  1.0000
  C   C197      1.0  0.12739  0.87110  0.86430  1.0000
  C   C198      1.0  0.87086  0.87190  0.63549  1.0000
  C   C199      1.0  0.87195  0.12899  0.65152  1.0000
  C   C200      1.0  0.12875  0.12755  0.85638  1.0000
  C   C201      1.0  0.44491  0.52675  0.65885  1.0000
  C   C202      1.0  0.55552  0.52762  0.82491  1.0000
  C   C203      1.0  0.55533  0.47294  0.82914  1.0000
  C   C204      1.0  0.44501  0.47200  0.65770  1.0000
  C   C205      1.0  0.47251  0.52715  0.69919  1.0000
  C   C206      1.0  0.52763  0.52765  0.78937  1.0000
  C   C207      1.0  0.52742  0.47249  0.79340  1.0000
  C   C208      1.0  0.47250  0.47197  0.69951  1.0000
  C   C209      1.0  0.48686  0.55413  0.72441  1.0000
  C   C210      1.0  0.51308  0.55438  0.76699  1.0000
  C   C211      1.0  0.51274  0.44553  0.77272  1.0000
  C   C212      1.0  0.48672  0.44528  0.72732  1.0000
  C   C213      1.0  0.37346  0.36963  0.62555  1.0000
  C   C214      1.0  0.62746  0.37229  0.87499  1.0000
  C   C215      1.0  0.62822  0.62811  0.87645  1.0000
  C   C216      1.0  0.37273  0.62772  0.61831  1.0000
  C   C217      1.0  0.01318  0.99976  0.77978  1.0000
  C   C218      1.0  0.98553  0.99993  0.73533  1.0000
  C   C219      1.0  0.06781  0.99947  0.85446  1.0000
  C   C220      1.0  0.93073  0.00022  0.66390  1.0000
  C   C221      1.0  0.48627  0.49968  0.72191  1.0000
  C   C222      1.0  0.51375  0.49993  0.76880  1.0000
  C   C223      1.0  0.43227  0.49928  0.63788  1.0000
  C   C224      1.0  0.56849  0.50039  0.84159  1.0000
  S   S1        1.0  0.80250  0.29790  0.02349  1.0000
  S   S2        1.0  0.19713  0.29503  0.49850  1.0000
  S   S3        1.0  0.19779  0.70405  0.48153  1.0000
  S   S4        1.0  0.80297  0.70365  0.01190  1.0000
  S   S5        1.0  0.80325  0.29749  0.51968  1.0000
  S   S6        1.0  0.19827  0.29407  0.98847  1.0000
  S   S7        1.0  0.19703  0.70370  0.97904  1.0000
  S   S8        1.0  0.80385  0.70275  0.50264  1.0000
  N   N1        1.0  0.15392  0.87235  0.29727  1.0000
  N   N2        1.0  0.84365  0.87348  0.20930  1.0000
  N   N3        1.0  0.84582  0.12864  0.20910  1.0000
  N   N4        1.0  0.15603  0.12581  0.28254  1.0000
  N   N5        1.0  0.65477  0.62654  0.31127  1.0000
  N   N6        1.0  0.34693  0.62804  0.17823  1.0000
  N   N7        1.0  0.34469  0.37350  0.19100  1.0000
  N   N8        1.0  0.65382  0.37354  0.32057  1.0000
  N   N9        1.0  0.80526  0.26362  0.07928  1.0000
  N   N10       1.0  0.19516  0.26073  0.43244  1.0000
  N   N11       1.0  0.19516  0.73815  0.42240  1.0000
  N   N12       1.0  0.80479  0.73819  0.07373  1.0000
  N   N13       1.0  0.76984  0.30549  0.11230  1.0000
  N   N14       1.0  0.22928  0.30359  0.40675  1.0000
  N   N15       1.0  0.23043  0.69622  0.39333  1.0000
  N   N16       1.0  0.77067  0.69533  0.10163  1.0000
  N   N17       1.0  0.15418  0.87265  0.80262  1.0000
  N   N18       1.0  0.84426  0.87316  0.70295  1.0000
  N   N19       1.0  0.84517  0.12824  0.71430  1.0000
  N   N20       1.0  0.15525  0.12562  0.78742  1.0000
  N   N21       1.0  0.65500  0.62630  0.81510  1.0000
  N   N22       1.0  0.34599  0.62679  0.68143  1.0000
  N   N23       1.0  0.34664  0.37115  0.68605  1.0000
  N   N24       1.0  0.65431  0.37383  0.81584  1.0000
  N   N25       1.0  0.80566  0.26328  0.57748  1.0000
  N   N26       1.0  0.19613  0.25973  0.92385  1.0000
  N   N27       1.0  0.19485  0.73814  0.92482  1.0000
  N   N28       1.0  0.80591  0.73717  0.56638  1.0000
  N   N29       1.0  0.77073  0.30557  0.60930  1.0000
  N   N30       1.0  0.23078  0.30207  0.90133  1.0000
  N   N31       1.0  0.22955  0.69560  0.88941  1.0000
  N   N32       1.0  0.77153  0.69454  0.59300  1.0000
  C   C225      1.0  0.32354  0.70064  0.75440  1.0000
  C   C226      1.0  0.29715  0.70145  0.70497  1.0000
  C  Sn1       1.0  0.28571  0.67567  0.64479  1.0000
  C  Sn2       1.0  0.30103  0.64860  0.63408  1.0000
  C   C227      1.0  0.32741  0.64802  0.68396  1.0000
  C   C228      1.0  0.33866  0.67395  0.74395  1.0000
  H   H121      1.0  0.33224  0.72070  0.80091  1.0000
  O  Te1       1.0  0.25932  0.67688  0.59587  1.0000
  O  Te2       1.0  0.29009  0.62251  0.57445  1.0000
  H   H122      1.0  0.35908  0.67331  0.78231  1.0000
  Mg  Mg1       1.0  0.25331  0.63542  0.52288  1.0000
  C   C229      1.0  0.89133  0.05844  0.77976  1.0000
  C   C230      1.0  0.91891  0.05328  0.69021  1.0000
  C  Sn3       1.0  0.93323  0.07507  0.58500  1.0000
  C  Sn4       1.0  0.91964  0.10251  0.56946  1.0000
  C   C231      1.0  0.89205  0.10746  0.65968  1.0000
  C   C232      1.0  0.87791  0.08550  0.76455  1.0000
  H   H123      1.0  0.88040  0.04146  0.86098  1.0000
  O  Te3       1.0  0.96078  0.06955  0.49638  1.0000
  O  Te4       1.0  0.93346  0.12468  0.46525  1.0000
  H   H124      1.0  0.85657  0.08951  0.83396  1.0000
  Mg  Mg2       1.0  0.97084  0.10666  0.37021  1.0000
  C   C233      1.0  0.60789  0.55841  0.72692  1.0000
  C   C234      1.0  0.58043  0.55344  0.81694  1.0000
  C  Sn5       1.0  0.56643  0.57519  0.93022  1.0000
  C  Sn6       1.0  0.58024  0.60240  0.95351  1.0000
  C   C235      1.0  0.60771  0.60716  0.86276  1.0000
  C   C236      1.0  0.62153  0.58524  0.74977  1.0000
  H   H125      1.0  0.61858  0.54146  0.63942  1.0000
  O  Te5       1.0  0.57010  0.56586  0.01918  1.0000
  O  Te6       1.0  0.59784  0.62051  0.06588  1.0000
  H   H126      1.0  0.64279  0.58910  0.68001  1.0000
  Mg  Mg3       1.0  0.56050  0.60281  0.15801  1.0000
  C   C237      1.0  0.88190  0.07210  0.26954  1.0000
  C   C238      1.0  0.88840  0.09894  0.18646  1.0000
  C  Sn7       1.0  0.91514  0.10333  0.08516  1.0000
  C  Sn8       1.0  0.93571  0.08037  0.06691  1.0000
  C   C239      1.0  0.92900  0.05359  0.15046  1.0000
  C   C240      1.0  0.90218  0.04944  0.25155  1.0000
  H   H127      1.0  0.86115  0.06888  0.34769  1.0000
  O  Te7       1.0  0.92127  0.13029  0.00309  1.0000
  O  Te8       1.0  0.93149  0.08817  0.96639  1.0000
  H   H128      1.0  0.89716  0.02865  0.31577  1.0000
  Mg  Mg4       1.0  0.92977  0.12886  0.88008  1.0000
  C   C241      1.0  0.38238  0.57031  0.74585  1.0000
  C   C242      1.0  0.38874  0.59734  0.66457  1.0000
  C  Sn9       1.0  0.41560  0.60217  0.56581  1.0000
  C  Sn10      1.0  0.43643  0.57948  0.54830  1.0000
  C   C243      1.0  0.42985  0.55251  0.63003  1.0000
  C   C244      1.0  0.40291  0.54792  0.72859  1.0000
  H   H129      1.0  0.36153  0.56675  0.82204  1.0000
  O  Te9       1.0  0.42160  0.62930  0.48552  1.0000
  O  Te10      1.0  0.46345  0.58371  0.45031  1.0000
  H   H130      1.0  0.39799  0.52699  0.79142  1.0000
  Mg  Mg5       1.0  0.46146  0.62449  0.36572  1.0000
  C   C245      1.0  0.20736  0.14972  0.81946  1.0000
  C   C246      1.0  0.17927  0.14903  0.79609  1.0000
  C  Sn11      1.0  0.16669  0.17446  0.74581  1.0000
  C  Sn12      1.0  0.18259  0.20103  0.71847  1.0000
  C   C247      1.0  0.21068  0.20148  0.74208  1.0000
  C   C248      1.0  0.22305  0.17591  0.79246  1.0000
  H   H131      1.0  0.21693  0.12994  0.85835  1.0000
  O  Te11      1.0  0.13861  0.17338  0.72310  1.0000
  O  Te12      1.0  0.17055  0.22675  0.66812  1.0000
  H   H132      1.0  0.24481  0.17645  0.81044  1.0000
  Mg  Mg6       1.0  0.13156  0.21421  0.65375  1.0000
  C   C249      1.0  0.20499  0.84803  0.34283  1.0000
  C   C250      1.0  0.17884  0.84945  0.29074  1.0000
  C  Sn13      1.0  0.16680  0.82383  0.23299  1.0000
  C  Sn14      1.0  0.18126  0.79632  0.22748  1.0000
  C   C251      1.0  0.20740  0.79513  0.27999  1.0000
  C   C252      1.0  0.21926  0.82090  0.33750  1.0000
  H   H133      1.0  0.21416  0.86797  0.38742  1.0000
  O  Te13      1.0  0.14065  0.82565  0.18136  1.0000
  O  Te14      1.0  0.16970  0.77037  0.17038  1.0000
  H   H134      1.0  0.23951  0.81979  0.37793  1.0000
  Mg  Mg7       1.0  0.13356  0.78417  0.11348  1.0000
  C   C253      1.0  0.42697  0.39847  0.52870  1.0000
  C   C254      1.0  0.39956  0.39363  0.61993  1.0000
  C  Sn15      1.0  0.38510  0.41612  0.72539  1.0000
  C  Sn16      1.0  0.39839  0.44395  0.73948  1.0000
  C   C255      1.0  0.42581  0.44857  0.64759  1.0000
  C   C256      1.0  0.44009  0.42591  0.54247  1.0000
  H   H135      1.0  0.43801  0.38094  0.44730  1.0000
  O  Te15      1.0  0.35773  0.41091  0.81569  1.0000
  O  Te16      1.0  0.38442  0.46682  0.84390  1.0000
  H   H136      1.0  0.46130  0.42967  0.47177  1.0000
  Mg  Mg8       1.0  0.34737  0.44899  0.94149  1.0000
  C   C257      1.0  0.29352  0.34955  0.13960  1.0000
  C   C258      1.0  0.31978  0.35088  0.19076  1.0000
  C  Sn17      1.0  0.33156  0.32540  0.24612  1.0000
  C  Sn18      1.0  0.31673  0.29811  0.25016  1.0000
  C   C259      1.0  0.29049  0.29701  0.19860  1.0000
  C   C260      1.0  0.27889  0.32265  0.14348  1.0000
  H   H137      1.0  0.28455  0.36938  0.09685  1.0000
  O  Te17      1.0  0.35781  0.32712  0.29685  1.0000
  O  Te18      1.0  0.32803  0.27231  0.30488  1.0000
  H   H138      1.0  0.25857  0.32161  0.10377  1.0000
  Mg  Mg9       1.0  0.36444  0.28590  0.36137  1.0000
  C   C261      1.0  0.33515  0.68933  0.24136  1.0000
  C   C262      1.0  0.33168  0.65948  0.19881  1.0000
  C  Sn19      1.0  0.30682  0.64997  0.14744  1.0000
  C  Sn20      1.0  0.28507  0.67078  0.13856  1.0000
  C   C263      1.0  0.28875  0.70061  0.18127  1.0000
  C   C264      1.0  0.31371  0.70988  0.23258  1.0000
  H   H139      1.0  0.35446  0.69651  0.28096  1.0000
  O  Te19      1.0  0.30370  0.62005  0.10544  1.0000
  O  Te20      1.0  0.26001  0.66188  0.08755  1.0000
  H   H140      1.0  0.31640  0.73300  0.26540  1.0000
  Mg  Mg10      1.0  0.26569  0.61871  0.04321  1.0000
  C   C265      1.0  0.89044  0.94366  0.26878  1.0000
  C   C266      1.0  0.91919  0.94630  0.19720  1.0000
  C  Sn21      1.0  0.93314  0.92374  0.08999  1.0000
  C  Sn22      1.0  0.91796  0.89808  0.05396  1.0000
  C   C267      1.0  0.88920  0.89566  0.12610  1.0000
  C   C268      1.0  0.87545  0.91836  0.23326  1.0000
  H   H141      1.0  0.87980  0.96123  0.35162  1.0000
  O  Te21      1.0  0.96188  0.92674  0.01959  1.0000
  O  Te22      1.0  0.90027  0.87921  0.94718  1.0000
  H   H142      1.0  0.85319  0.91631  0.28857  1.0000
  Mg  Mg11      1.0  0.93969  0.89357  0.88183  1.0000
  C   C269      1.0  0.57362  0.40126  0.96726  1.0000
  C   C270      1.0  0.60098  0.39559  0.87582  1.0000
  C  Sn23      1.0  0.61526  0.41689  0.76669  1.0000
  C  Sn24      1.0  0.60184  0.44435  0.74908  1.0000
  C   C271      1.0  0.57447  0.44981  0.84123  1.0000
  C   C272      1.0  0.56037  0.42834  0.95003  1.0000
  H   H143      1.0  0.59382  0.38064  0.05152  1.0000
  O  Te23      1.0  0.64259  0.41086  0.67622  1.0000
  O  Te24      1.0  0.61563  0.46603  0.64095  1.0000
  H   H144      1.0  0.57030  0.42873  0.02090  1.0000
  Mg  Mg12      1.0  0.65269  0.44742  0.54467  1.0000
  C   C273      1.0  0.16572  0.18693  0.22248  1.0000
  C   C274      1.0  0.17094  0.15742  0.25710  1.0000
  C  Sn25      1.0  0.19624  0.14956  0.30722  1.0000
  C  Sn26      1.0  0.21664  0.17171  0.32291  1.0000
  C   C275      1.0  0.21121  0.20118  0.28811  1.0000
  C   C276      1.0  0.18583  0.20880  0.23799  1.0000
  H   H145      1.0  0.14608  0.19283  0.18380  1.0000
  O  Te25      1.0  0.20111  0.11997  0.34125  1.0000
  O  Te26      1.0  0.24209  0.16448  0.37284  1.0000
  H   H146      1.0  0.18179  0.23166  0.21131  1.0000
  Mg  Mg13      1.0  0.23900  0.12110  0.40514  1.0000
  C   C277      1.0  0.32506  0.29729  0.75472  1.0000
  C   C278      1.0  0.29708  0.29708  0.72929  1.0000
  C  Sn27      1.0  0.28526  0.32249  0.67338  1.0000
  C  Sn28      1.0  0.30182  0.34856  0.64241  1.0000
  C   C279      1.0  0.32980  0.34855  0.66811  1.0000
  C   C280      1.0  0.34141  0.32300  0.72414  1.0000
  H   H147      1.0  0.33405  0.27752  0.79798  1.0000
  O  Te27      1.0  0.25727  0.32190  0.64868  1.0000
  O  Te28      1.0  0.29054  0.37427  0.58640  1.0000
  H   H148      1.0  0.36309  0.32316  0.74371  1.0000
  Mg  Mg14      1.0  0.25139  0.36249  0.57131  1.0000
  C   C281      1.0  0.83597  0.19024  0.76602  1.0000
  C   C282      1.0  0.83088  0.16035  0.73283  1.0000
  C  Sn29      1.0  0.80544  0.15172  0.68555  1.0000
  C  Sn30      1.0  0.78477  0.17347  0.67129  1.0000
  C   C283      1.0  0.79008  0.20333  0.70465  1.0000
  C   C284      1.0  0.81560  0.21171  0.75193  1.0000
  H   H149      1.0  0.85573  0.19674  0.80251  1.0000
  O  Te29      1.0  0.80069  0.12176  0.65291  1.0000
  O  Te30      1.0  0.75917  0.16546  0.62420  1.0000
  H   H150      1.0  0.81954  0.23486  0.77751  1.0000
  Mg  Mg15      1.0  0.76252  0.12183  0.59288  1.0000
  C   C285      1.0  0.92438  0.90065  0.53487  1.0000
  C   C286      1.0  0.89728  0.89545  0.62965  1.0000
  C  Sn31      1.0  0.88349  0.91722  0.74361  1.0000
  C  Sn32      1.0  0.89713  0.94469  0.76273  1.0000
  C   C287      1.0  0.92423  0.94968  0.66723  1.0000
  C   C288      1.0  0.93784  0.92774  0.55360  1.0000
  H   H151      1.0  0.93491  0.88368  0.44688  1.0000
  O  Te31      1.0  0.85642  0.91165  0.83735  1.0000
  O  Te32      1.0  0.88382  0.96683  0.87567  1.0000
  H   H152      1.0  0.95881  0.93178  0.48016  1.0000
  Mg  Mg16      1.0  0.84698  0.94875  0.97506  1.0000
