data_image0
_chemical_formula_structural       H104C224S8N32Cl16C2Sn2C2HTe2HMgC2Sn2C2HTe2HMgC2Sn2C2HTe2HMgC2Sn2C2HTe2HMgC2Sn2C2HTe2HMgC2Sn2C2HTe2HMgC2Sn2C2HTe2HMgC2Sn2C2HTe2HMgC2Sn2C2HTe2HMgC2Sn2C2HTe2HMgC2Sn2C2HTe2HMgC2Sn2C2HTe2HMgC2Sn2C2HTe2HMgC2Sn2C2HTe2HMgC2Sn2C2HTe2HMgC2Sn2C2HTe2HMg
_chemical_formula_sum              "H136 C288 S8 N32 Cl16 Sn32 Te32 Mg16"
_cell_length_a       47.7437
_cell_length_b       45.4047
_cell_length_c       8.01223
_cell_angle_alpha    89.3161
_cell_angle_beta     78.8076
_cell_angle_gamma    90.0911

_symmetry_space_group_name_H-M    'P1'
_space_group_IT_number       1

loop_
  _space_group_symop_operation_xyz
  'x, y, z'

loop_
  _atom_site_type_symbol
  _atom_site_label
  _atom_site_symmetry_multiplicity
  _atom_site_fract_x
  _atom_site_fract_y
  _atom_site_fract_z
  _atom_site_occupancy
  H   H1        1.0  0.10874  0.96413  0.15217  1.0000
  H   H2        1.0  0.88899  0.96535  0.34649  1.0000
  H   H3        1.0  0.89026  0.03777  0.36750  1.0000
  H   H4        1.0  0.14083  0.92175  0.17719  1.0000
  H   H5        1.0  0.85665  0.92377  0.31446  1.0000
  H   H6        1.0  0.85776  0.07987  0.34489  1.0000
  H   H7        1.0  0.92652  0.12243  0.49440  1.0000
  H   H8        1.0  0.07511  0.11786  0.03942  1.0000
  H   H9        1.0  0.95852  0.07988  0.50761  1.0000
  H   H10       1.0  0.04307  0.07571  0.01957  1.0000
  H   H11       1.0  0.18487  0.78064  0.22299  1.0000
  H   H12       1.0  0.81557  0.78133  0.26937  1.0000
  H   H13       1.0  0.18590  0.21861  0.22862  1.0000
  H   H14       1.0  0.14957  0.82047  0.22933  1.0000
  H   H15       1.0  0.85006  0.82223  0.26121  1.0000
  H   H16       1.0  0.15078  0.17836  0.24054  1.0000
  H   H17       1.0  0.20266  0.87830  0.45548  1.0000
  H   H18       1.0  0.79338  0.88033  0.06073  1.0000
  H   H19       1.0  0.20638  0.11997  0.44892  1.0000
  H   H20       1.0  0.23793  0.83824  0.45259  1.0000
  H   H21       1.0  0.75907  0.83921  0.06466  1.0000
  H   H22       1.0  0.24144  0.16058  0.44011  1.0000
  H   H23       1.0  0.66987  0.72707  0.13073  1.0000
  H   H24       1.0  0.63992  0.68222  0.15844  1.0000
  H   H25       1.0  0.70345  0.63489  0.36538  1.0000
  H   H26       1.0  0.73335  0.68006  0.34177  1.0000
  H   H27       1.0  0.11819  0.85328  0.43992  1.0000
  H   H28       1.0  0.87888  0.85742  0.04216  1.0000
  H   H29       1.0  0.87890  0.14777  0.07570  1.0000
  H   H30       1.0  0.12095  0.14551  0.46006  1.0000
  H   H31       1.0  0.57280  0.62073  0.00892  1.0000
  H   H32       1.0  0.42884  0.62238  0.48013  1.0000
  H   H33       1.0  0.63975  0.42063  0.16436  1.0000
  H   H34       1.0  0.60881  0.46464  0.15756  1.0000
  H   H35       1.0  0.38372  0.35092  0.07751  1.0000
  H   H36       1.0  0.61520  0.35000  0.40062  1.0000
  H   H37       1.0  0.61590  0.64961  0.40317  1.0000
  H   H38       1.0  0.38481  0.65163  0.09611  1.0000
  H   H39       1.0  0.52339  0.57507  0.27607  1.0000
  H   H40       1.0  0.47610  0.57531  0.20527  1.0000
  H   H41       1.0  0.47572  0.42555  0.20542  1.0000
  H   H42       1.0  0.52305  0.42537  0.27535  1.0000
  H   H43       1.0  0.02354  0.92609  0.27751  1.0000
  H   H44       1.0  0.97562  0.92661  0.21364  1.0000
  H   H45       1.0  0.97599  0.07636  0.23154  1.0000
  H   H46       1.0  0.02376  0.07577  0.29585  1.0000
  H   H47       1.0  0.54216  0.57695  0.00386  1.0000
  H   H48       1.0  0.45867  0.57800  0.48356  1.0000
  H   H49       1.0  0.09020  0.99983  0.37400  1.0000
  H   H50       1.0  0.90822  0.00239  0.15022  1.0000
  H   H51       1.0  0.40880  0.50071  0.12295  1.0000
  H   H52       1.0  0.58952  0.49996  0.36929  1.0000
  H   H53       1.0  0.89097  0.03495  0.84878  1.0000
  H   H54       1.0  0.11071  0.03306  0.67553  1.0000
  H   H55       1.0  0.85855  0.07712  0.82916  1.0000
  H   H56       1.0  0.14328  0.07486  0.70199  1.0000
  H   H57       1.0  0.07311  0.87939  0.53025  1.0000
  H   H58       1.0  0.92453  0.88276  0.96490  1.0000
  H   H59       1.0  0.92453  0.12274  0.98812  1.0000
  H   H60       1.0  0.04163  0.92210  0.51089  1.0000
  H   H61       1.0  0.95661  0.92446  0.99232  1.0000
  H   H62       1.0  0.95656  0.08040  0.00512  1.0000
  H   H63       1.0  0.81451  0.78078  0.78142  1.0000
  H   H64       1.0  0.81473  0.21965  0.79562  1.0000
  H   H65       1.0  0.84933  0.82131  0.77449  1.0000
  H   H66       1.0  0.84960  0.17951  0.79576  1.0000
  H   H67       1.0  0.79524  0.87902  0.55032  1.0000
  H   H68       1.0  0.79607  0.12132  0.57509  1.0000
  H   H69       1.0  0.76051  0.83820  0.55347  1.0000
  H   H70       1.0  0.76133  0.16172  0.57119  1.0000
  H   H71       1.0  0.66943  0.72702  0.63118  1.0000
  H   H72       1.0  0.66978  0.27200  0.63721  1.0000
  H   H73       1.0  0.63962  0.68212  0.65707  1.0000
  H   H74       1.0  0.63973  0.31664  0.65946  1.0000
  H   H75       1.0  0.70359  0.63449  0.85857  1.0000
  H   H76       1.0  0.70332  0.36447  0.85932  1.0000
  H   H77       1.0  0.73338  0.67970  0.83632  1.0000
  H   H78       1.0  0.73318  0.31957  0.84216  1.0000
  H   H79       1.0  0.11942  0.85073  0.94317  1.0000
  H   H80       1.0  0.87987  0.85418  0.55320  1.0000
  H   H81       1.0  0.88059  0.14719  0.58224  1.0000
  H   H82       1.0  0.12092  0.14351  0.94960  1.0000
  H   H83       1.0  0.57137  0.37685  0.50411  1.0000
  H   H84       1.0  0.64075  0.57911  0.66259  1.0000
  H   H85       1.0  0.36029  0.58011  0.82728  1.0000
  H   H86       1.0  0.60969  0.53532  0.65424  1.0000
  H   H87       1.0  0.39050  0.53569  0.83413  1.0000
  H   H88       1.0  0.38414  0.34959  0.58094  1.0000
  H   H89       1.0  0.61624  0.34944  0.90198  1.0000
  H   H90       1.0  0.61614  0.64853  0.90217  1.0000
  H   H91       1.0  0.38535  0.65001  0.58518  1.0000
  H   H92       1.0  0.52338  0.57389  0.78309  1.0000
  H   H93       1.0  0.47604  0.57401  0.71385  1.0000
  H   H94       1.0  0.47625  0.42432  0.70618  1.0000
  H   H95       1.0  0.52362  0.42420  0.77561  1.0000
  H   H96       1.0  0.02300  0.92359  0.78659  1.0000
  H   H97       1.0  0.97582  0.92455  0.71556  1.0000
  H   H98       1.0  0.97700  0.07430  0.73278  1.0000
  H   H99       1.0  0.02473  0.07336  0.79792  1.0000
  H   H100      1.0  0.54078  0.42079  0.50102  1.0000
  H   H101      1.0  0.09059  0.99712  0.87818  1.0000
  H   H102      1.0  0.90995  0.00084  0.63478  1.0000
  H   H103      1.0  0.40947  0.49958  0.62113  1.0000
  H   H104      1.0  0.59066  0.49868  0.86046  1.0000
  C   C1        1.0  0.02759  0.97342  0.29166  1.0000
  C   C2        1.0  0.97125  0.97412  0.21575  1.0000
  C   C3        1.0  0.97140  0.02891  0.22299  1.0000
  C   C4        1.0  0.02770  0.02823  0.29982  1.0000
  C   C5        1.0  0.01291  0.94694  0.26668  1.0000
  C   C6        1.0  0.98611  0.94727  0.23070  1.0000
  C   C7        1.0  0.98632  0.05542  0.24459  1.0000
  C   C8        1.0  0.01309  0.05510  0.28110  1.0000
  C   C9        1.0  0.05578  0.97334  0.32451  1.0000
  C   C10       1.0  0.94282  0.97466  0.18605  1.0000
  C   C11       1.0  0.94301  0.02895  0.19350  1.0000
  C   C12       1.0  0.05592  0.02763  0.33287  1.0000
  C   C13       1.0  0.07300  0.94644  0.33258  1.0000
  C   C14       1.0  0.92530  0.94820  0.17092  1.0000
  C   C15       1.0  0.92570  0.05578  0.18587  1.0000
  C   C16       1.0  0.10124  0.94584  0.23840  1.0000
  C   C17       1.0  0.89670  0.94750  0.26046  1.0000
  C   C18       1.0  0.89754  0.05613  0.28150  1.0000
  C   C19       1.0  0.11914  0.92218  0.25064  1.0000
  C   C20       1.0  0.87854  0.92430  0.24384  1.0000
  C   C21       1.0  0.87938  0.07956  0.27041  1.0000
  C   C22       1.0  0.10932  0.89793  0.35701  1.0000
  C   C23       1.0  0.88828  0.90062  0.13678  1.0000
  C   C24       1.0  0.88879  0.10383  0.16351  1.0000
  C   C25       1.0  0.08090  0.89789  0.44616  1.0000
  C   C26       1.0  0.91686  0.90075  0.05037  1.0000
  C   C27       1.0  0.91708  0.10417  0.07243  1.0000
  C   C28       1.0  0.06309  0.92182  0.43477  1.0000
  C   C29       1.0  0.93503  0.92415  0.06693  1.0000
  C   C30       1.0  0.93522  0.08045  0.08289  1.0000
  C   C31       1.0  0.26427  0.78609  0.24188  1.0000
  C   C32       1.0  0.73496  0.78524  0.26347  1.0000
  C   C33       1.0  0.73445  0.21612  0.27344  1.0000
  C   C34       1.0  0.26586  0.21465  0.23781  1.0000
  C   C35       1.0  0.28455  0.76228  0.22608  1.0000
  C   C36       1.0  0.71500  0.76105  0.27657  1.0000
  C   C37       1.0  0.71436  0.23999  0.28387  1.0000
  C   C38       1.0  0.28550  0.23913  0.22069  1.0000
  C   C39       1.0  0.27738  0.73397  0.28931  1.0000
  C   C40       1.0  0.72269  0.73308  0.21462  1.0000
  C   C41       1.0  0.72195  0.26812  0.21915  1.0000
  C   C42       1.0  0.27754  0.26719  0.28031  1.0000
  C   C43       1.0  0.24852  0.73047  0.37853  1.0000
  C   C44       1.0  0.75170  0.73046  0.12732  1.0000
  C   C45       1.0  0.75090  0.27123  0.13095  1.0000
  C   C46       1.0  0.24866  0.26967  0.36988  1.0000
  C   C47       1.0  0.22812  0.75435  0.39421  1.0000
  C   C48       1.0  0.77173  0.75482  0.11218  1.0000
  C   C49       1.0  0.77098  0.24710  0.11767  1.0000
  C   C50       1.0  0.22899  0.24500  0.38897  1.0000
  C   C51       1.0  0.23579  0.78295  0.32297  1.0000
  C   C52       1.0  0.76356  0.78305  0.18306  1.0000
  C   C53       1.0  0.76297  0.21880  0.19238  1.0000
  C   C54       1.0  0.23735  0.21676  0.31919  1.0000
  C   C55       1.0  0.21418  0.80657  0.33576  1.0000
  C   C56       1.0  0.78462  0.80731  0.16933  1.0000
  C   C57       1.0  0.21626  0.19256  0.33342  1.0000
  C   C58       1.0  0.70374  0.70696  0.23500  1.0000
  C   C59       1.0  0.18857  0.80167  0.27863  1.0000
  C   C60       1.0  0.81094  0.80270  0.21884  1.0000
  C   C61       1.0  0.19009  0.19738  0.28241  1.0000
  C   C62       1.0  0.16857  0.82410  0.28256  1.0000
  C   C63       1.0  0.83048  0.82568  0.21341  1.0000
  C   C64       1.0  0.17018  0.17473  0.29000  1.0000
  C   C65       1.0  0.17363  0.85214  0.34381  1.0000
  C   C66       1.0  0.82419  0.85405  0.15866  1.0000
  C   C67       1.0  0.17591  0.14652  0.34965  1.0000
  C   C68       1.0  0.19902  0.85687  0.40422  1.0000
  C   C69       1.0  0.79806  0.85858  0.10615  1.0000
  C   C70       1.0  0.20208  0.14168  0.40121  1.0000
  C   C71       1.0  0.21875  0.83436  0.40205  1.0000
  C   C72       1.0  0.77884  0.83550  0.10941  1.0000
  C   C73       1.0  0.22172  0.16443  0.39521  1.0000
  C   C74       1.0  0.67702  0.70727  0.18674  1.0000
  C   C75       1.0  0.65998  0.68208  0.20352  1.0000
  C   C76       1.0  0.66930  0.65570  0.26845  1.0000
  C   C77       1.0  0.69629  0.65518  0.31407  1.0000
  C   C78       1.0  0.71305  0.68048  0.29946  1.0000
  C   C79       1.0  0.12830  0.87354  0.37898  1.0000
  C   C80       1.0  0.86907  0.87665  0.11274  1.0000
  C   C81       1.0  0.86935  0.12783  0.14335  1.0000
  C   C82       1.0  0.13040  0.12534  0.39827  1.0000
  C   C83       1.0  0.44335  0.52772  0.16704  1.0000
  C   C84       1.0  0.55538  0.52725  0.32146  1.0000
  C   C85       1.0  0.55529  0.47294  0.32034  1.0000
  C   C86       1.0  0.44330  0.47342  0.16578  1.0000
  C   C87       1.0  0.47156  0.52784  0.20026  1.0000
  C   C88       1.0  0.52738  0.52758  0.28503  1.0000
  C   C89       1.0  0.52732  0.47281  0.28369  1.0000
  C   C90       1.0  0.47148  0.47306  0.19952  1.0000
  C   C91       1.0  0.48637  0.55445  0.22135  1.0000
  C   C92       1.0  0.51289  0.55431  0.26144  1.0000
  C   C93       1.0  0.51270  0.44621  0.26015  1.0000
  C   C94       1.0  0.48615  0.44632  0.22066  1.0000
  C   C95       1.0  0.57242  0.44597  0.32863  1.0000
  C   C96       1.0  0.56217  0.42068  0.42416  1.0000
  C   C97       1.0  0.57948  0.39606  0.42688  1.0000
  C   C98       1.0  0.60766  0.39591  0.33448  1.0000
  C   C99       1.0  0.61809  0.42111  0.23845  1.0000
  C   C100      1.0  0.60079  0.44557  0.23599  1.0000
  C   C101      1.0  0.37299  0.37080  0.13568  1.0000
  C   C102      1.0  0.62563  0.37003  0.33843  1.0000
  C   C103      1.0  0.62643  0.62985  0.34223  1.0000
  C   C104      1.0  0.37405  0.63168  0.15725  1.0000
  C   C105      1.0  0.01356  0.00101  0.27713  1.0000
  C   C106      1.0  0.98544  0.00134  0.23789  1.0000
  C   C107      1.0  0.06894  0.00025  0.34406  1.0000
  C   C108      1.0  0.92968  0.00200  0.17707  1.0000
  C   C109      1.0  0.48551  0.50039  0.22035  1.0000
  C   C110      1.0  0.51337  0.50026  0.26366  1.0000
  C   C111      1.0  0.43013  0.50063  0.15200  1.0000
  C   C112      1.0  0.56836  0.50003  0.33779  1.0000
  C   C113      1.0  0.02780  0.97096  0.79725  1.0000
  C   C114      1.0  0.97200  0.97213  0.71287  1.0000
  C   C115      1.0  0.97249  0.02695  0.71997  1.0000
  C   C116      1.0  0.02846  0.02577  0.80084  1.0000
  C   C117      1.0  0.01285  0.94462  0.77322  1.0000
  C   C118      1.0  0.98637  0.94517  0.73275  1.0000
  C   C119      1.0  0.98733  0.05332  0.74497  1.0000
  C   C120      1.0  0.01406  0.05276  0.78204  1.0000
  C   C121      1.0  0.05589  0.97062  0.83172  1.0000
  C   C122      1.0  0.94395  0.97291  0.67727  1.0000
  C   C123      1.0  0.94441  0.02724  0.68522  1.0000
  C   C124      1.0  0.05666  0.02493  0.83375  1.0000
  C   C125      1.0  0.92714  0.05414  0.67811  1.0000
  C   C126      1.0  0.07440  0.05128  0.84597  1.0000
  C   C127      1.0  0.89861  0.05390  0.76835  1.0000
  C   C128      1.0  0.10305  0.05143  0.75762  1.0000
  C   C129      1.0  0.88047  0.07741  0.75899  1.0000
  C   C130      1.0  0.12127  0.07473  0.77080  1.0000
  C   C131      1.0  0.89021  0.10244  0.65948  1.0000
  C   C132      1.0  0.11145  0.09907  0.87210  1.0000
  C   C133      1.0  0.91881  0.10331  0.57349  1.0000
  C   C134      1.0  0.08284  0.09941  0.95778  1.0000
  C   C135      1.0  0.93693  0.07949  0.58204  1.0000
  C   C136      1.0  0.06468  0.07581  0.94550  1.0000
  C   C137      1.0  0.26540  0.78495  0.74181  1.0000
  C   C138      1.0  0.73512  0.78489  0.76080  1.0000
  C   C139      1.0  0.73550  0.21464  0.77411  1.0000
  C   C140      1.0  0.26526  0.21352  0.73696  1.0000
  C   C141      1.0  0.28564  0.76114  0.72731  1.0000
  C   C142      1.0  0.71504  0.76083  0.77409  1.0000
  C   C143      1.0  0.71537  0.23852  0.78590  1.0000
  C   C144      1.0  0.28491  0.23803  0.71733  1.0000
  C   C145      1.0  0.27841  0.73286  0.79074  1.0000
  C   C146      1.0  0.72259  0.73284  0.71166  1.0000
  C   C147      1.0  0.72281  0.26664  0.72058  1.0000
  C   C148      1.0  0.27713  0.26610  0.77793  1.0000
  C   C149      1.0  0.24957  0.72945  0.88042  1.0000
  C   C150      1.0  0.75156  0.73010  0.62359  1.0000
  C   C151      1.0  0.75177  0.26983  0.63253  1.0000
  C   C152      1.0  0.24829  0.26861  0.86830  1.0000
  C   C153      1.0  0.22929  0.75346  0.89716  1.0000
  C   C154      1.0  0.77169  0.75436  0.60865  1.0000
  C   C155      1.0  0.77201  0.24583  0.62001  1.0000
  C   C156      1.0  0.22857  0.24394  0.88860  1.0000
  C   C157      1.0  0.23697  0.78199  0.82450  1.0000
  C   C158      1.0  0.76367  0.78251  0.68057  1.0000
  C   C159      1.0  0.76407  0.21744  0.69378  1.0000
  C   C160      1.0  0.23683  0.21564  0.81975  1.0000
  C   C161      1.0  0.78489  0.80657  0.66870  1.0000
  C   C162      1.0  0.78540  0.19360  0.68423  1.0000
  C   C163      1.0  0.70355  0.70678  0.73244  1.0000
  C   C164      1.0  0.70366  0.29244  0.73822  1.0000
  C   C165      1.0  0.81057  0.80193  0.72562  1.0000
  C   C166      1.0  0.81095  0.19846  0.74207  1.0000
  C   C167      1.0  0.83029  0.82469  0.72109  1.0000
  C   C168      1.0  0.83071  0.17589  0.74137  1.0000
  C   C169      1.0  0.82485  0.85279  0.65892  1.0000
  C   C170      1.0  0.82546  0.14775  0.68210  1.0000
  C   C171      1.0  0.79922  0.85742  0.60072  1.0000
  C   C172      1.0  0.79995  0.14293  0.62316  1.0000
  C   C173      1.0  0.77980  0.83454  0.60334  1.0000
  C   C174      1.0  0.78049  0.16560  0.62190  1.0000
  C   C175      1.0  0.67671  0.70713  0.68558  1.0000
  C   C176      1.0  0.67690  0.29188  0.69048  1.0000
  C   C177      1.0  0.65974  0.68189  0.70152  1.0000
  C   C178      1.0  0.65986  0.31693  0.70390  1.0000
  C   C179      1.0  0.66927  0.65540  0.76402  1.0000
  C   C180      1.0  0.66930  0.34343  0.76401  1.0000
  C   C181      1.0  0.69628  0.65489  0.80924  1.0000
  C   C182      1.0  0.69620  0.34413  0.81048  1.0000
  C   C183      1.0  0.71297  0.68023  0.79539  1.0000
  C   C184      1.0  0.71293  0.31897  0.79946  1.0000
  C   C185      1.0  0.12900  0.87131  0.88377  1.0000
  C   C186      1.0  0.87020  0.87431  0.61426  1.0000
  C   C187      1.0  0.87085  0.12668  0.64183  1.0000
  C   C188      1.0  0.13073  0.12327  0.89076  1.0000
  C   C189      1.0  0.44386  0.52647  0.66813  1.0000
  C   C190      1.0  0.55613  0.52607  0.81861  1.0000
  C   C191      1.0  0.55607  0.47179  0.81644  1.0000
  C   C192      1.0  0.44380  0.47219  0.66575  1.0000
  C   C193      1.0  0.47192  0.52659  0.70320  1.0000
  C   C194      1.0  0.52789  0.52640  0.78566  1.0000
  C   C195      1.0  0.52790  0.47164  0.78285  1.0000
  C   C196      1.0  0.47193  0.47183  0.70038  1.0000
  C   C197      1.0  0.48651  0.55317  0.72725  1.0000
  C   C198      1.0  0.51310  0.55311  0.76616  1.0000
  C   C199      1.0  0.51321  0.44503  0.76065  1.0000
  C   C200      1.0  0.48663  0.44511  0.72150  1.0000
  C   C201      1.0  0.57346  0.55289  0.82803  1.0000
  C   C202      1.0  0.42694  0.55357  0.65978  1.0000
  C   C203      1.0  0.56347  0.57753  0.92600  1.0000
  C   C204      1.0  0.43739  0.57853  0.56185  1.0000
  C   C205      1.0  0.58085  0.60211  0.92954  1.0000
  C   C206      1.0  0.42047  0.60344  0.55902  1.0000
  C   C207      1.0  0.60893  0.60291  0.83544  1.0000
  C   C208      1.0  0.39246  0.60417  0.65378  1.0000
  C   C209      1.0  0.61918  0.57825  0.73790  1.0000
  C   C210      1.0  0.38181  0.57923  0.75154  1.0000
  C   C211      1.0  0.60178  0.55383  0.73456  1.0000
  C   C212      1.0  0.39873  0.55450  0.75418  1.0000
  C   C213      1.0  0.37343  0.36937  0.64071  1.0000
  C   C214      1.0  0.62670  0.36918  0.83651  1.0000
  C   C215      1.0  0.62674  0.62901  0.83859  1.0000
  C   C216      1.0  0.37480  0.63034  0.65071  1.0000
  C   C217      1.0  0.01412  0.99865  0.77914  1.0000
  C   C218      1.0  0.98622  0.99924  0.73666  1.0000
  C   C219      1.0  0.06935  0.99752  0.84805  1.0000
  C   C220      1.0  0.93116  0.00036  0.66533  1.0000
  C   C221      1.0  0.48593  0.49915  0.72204  1.0000
  C   C222      1.0  0.51387  0.49908  0.76417  1.0000
  C   C223      1.0  0.43070  0.49942  0.65146  1.0000
  C   C224      1.0  0.56927  0.49886  0.83217  1.0000
  S   S1        1.0  0.79579  0.28695  0.46378  1.0000
  S   S2        1.0  0.20424  0.28469  0.03790  1.0000
  S   S3        1.0  0.20569  0.71185  0.04899  1.0000
  S   S4        1.0  0.79573  0.71370  0.45688  1.0000
  S   S5        1.0  0.79506  0.28817  0.96272  1.0000
  S   S6        1.0  0.20454  0.28563  0.53898  1.0000
  S   S7        1.0  0.20461  0.71270  0.54593  1.0000
  S   S8        1.0  0.79587  0.71415  0.96058  1.0000
  N   N1        1.0  0.15564  0.87611  0.33404  1.0000
  N   N2        1.0  0.84188  0.87826  0.16804  1.0000
  N   N3        1.0  0.84218  0.12535  0.19753  1.0000
  N   N4        1.0  0.15760  0.12260  0.34715  1.0000
  N   N5        1.0  0.65341  0.62962  0.27847  1.0000
  N   N6        1.0  0.34716  0.63145  0.22299  1.0000
  N   N7        1.0  0.34592  0.37111  0.19631  1.0000
  N   N8        1.0  0.65258  0.37070  0.27417  1.0000
  N   N9        1.0  0.79705  0.25407  0.02484  1.0000
  N   N10       1.0  0.20299  0.25137  0.48303  1.0000
  N   N11       1.0  0.20215  0.74690  0.48662  1.0000
  N   N12       1.0  0.79782  0.74816  0.02018  1.0000
  N   N13       1.0  0.76210  0.29594  0.04725  1.0000
  N   N14       1.0  0.23722  0.29422  0.44998  1.0000
  N   N15       1.0  0.23764  0.70547  0.46031  1.0000
  N   N16       1.0  0.76293  0.70599  0.04554  1.0000
  N   N17       1.0  0.15627  0.87459  0.83732  1.0000
  N   N18       1.0  0.84295  0.87681  0.66398  1.0000
  N   N19       1.0  0.84357  0.12379  0.68958  1.0000
  N   N20       1.0  0.15802  0.12073  0.84351  1.0000
  N   N21       1.0  0.65361  0.62920  0.77236  1.0000
  N   N22       1.0  0.34804  0.63030  0.71938  1.0000
  N   N23       1.0  0.34643  0.36953  0.70353  1.0000
  N   N24       1.0  0.65354  0.36945  0.76967  1.0000
  N   N25       1.0  0.79805  0.25296  0.52732  1.0000
  N   N26       1.0  0.20260  0.25041  0.98275  1.0000
  N   N27       1.0  0.20337  0.74612  0.99068  1.0000
  N   N28       1.0  0.79777  0.74769  0.51655  1.0000
  N   N29       1.0  0.76278  0.29453  0.54797  1.0000
  N   N30       1.0  0.23690  0.29319  0.94823  1.0000
  N   N31       1.0  0.23861  0.70446  0.96181  1.0000
  N   N32       1.0  0.76275  0.70561  0.54175  1.0000
  Cl  Cl1       1.0  0.27611  0.81942  0.14595  1.0000
  Cl  Cl2       1.0  0.72249  0.81775  0.36195  1.0000
  Cl  Cl3       1.0  0.72243  0.18350  0.37763  1.0000
  Cl  Cl4       1.0  0.27846  0.18199  0.14191  1.0000
  Cl  Cl5       1.0  0.31883  0.76942  0.11483  1.0000
  Cl  Cl6       1.0  0.68026  0.76740  0.38133  1.0000
  Cl  Cl7       1.0  0.67971  0.23303  0.38985  1.0000
  Cl  Cl8       1.0  0.32009  0.23310  0.11255  1.0000
  Cl  Cl9       1.0  0.27710  0.81785  0.63982  1.0000
  Cl  Cl10      1.0  0.72300  0.81753  0.85875  1.0000
  Cl  Cl11      1.0  0.72332  0.18168  0.87350  1.0000
  Cl  Cl12      1.0  0.27770  0.18061  0.64381  1.0000
  Cl  Cl13      1.0  0.31998  0.76823  0.61692  1.0000
  Cl  Cl14      1.0  0.68047  0.76733  0.88106  1.0000
  Cl  Cl15      1.0  0.68083  0.23171  0.89417  1.0000
  Cl  Cl16      1.0  0.31922  0.23194  0.60511  1.0000
  C   C225      1.0  0.93561  0.91412  0.54932  1.0000
  C   C226      1.0  0.92903  0.94105  0.62990  1.0000
  C  Sn1       1.0  0.90171  0.94604  0.72495  1.0000
  C  Sn2       1.0  0.88063  0.92360  0.73941  1.0000
  C   C227      1.0  0.88743  0.89672  0.65841  1.0000
  C   C228      1.0  0.91484  0.89196  0.56357  1.0000
  H   H105      1.0  0.95681  0.91043  0.47602  1.0000
  O  Te1       1.0  0.89550  0.97309  0.80459  1.0000
  O  Te2       1.0  0.85316  0.92799  0.83367  1.0000
  H   H106      1.0  0.91993  0.87110  0.50129  1.0000
  Mg  Mg1       1.0  0.85501  0.96857  0.91881  1.0000
  C   C229      1.0  0.39076  0.44119  0.75509  1.0000
  C   C230      1.0  0.41973  0.44510  0.68560  1.0000
  C  Sn3       1.0  0.43473  0.42349  0.58232  1.0000
  C  Sn4       1.0  0.42039  0.39750  0.54816  1.0000
  C   C231      1.0  0.39140  0.39381  0.61819  1.0000
  C   C232      1.0  0.37660  0.41557  0.72141  1.0000
  H   H107      1.0  0.37930  0.45803  0.83488  1.0000
  O  Te3       1.0  0.46367  0.42774  0.51397  1.0000
  O  Te4       1.0  0.43486  0.37555  0.44531  1.0000
  H   H108      1.0  0.35416  0.41254  0.77510  1.0000
  Mg  Mg2       1.0  0.47416  0.39150  0.38151  1.0000
  C   C233      1.0  0.38170  0.57248  0.26900  1.0000
  C   C234      1.0  0.38867  0.59966  0.18780  1.0000
  C  Sn5       1.0  0.41522  0.60389  0.08083  1.0000
  C  Sn6       1.0  0.43512  0.58042  0.05489  1.0000
  C   C235      1.0  0.42794  0.55330  0.13661  1.0000
  C   C236      1.0  0.40131  0.54932  0.24343  1.0000
  H   H109      1.0  0.36110  0.56939  0.35158  1.0000
  O  Te5       1.0  0.42184  0.63119  0.00074  1.0000
  O  Te6       1.0  0.42923  0.58188  0.94859  1.0000
  H   H110      1.0  0.39592  0.52826  0.30620  1.0000
  Mg  Mg3       1.0  0.42835  0.62319  0.86783  1.0000
  C   C237      1.0  0.17206  0.18091  0.77690  1.0000
  C   C238      1.0  0.17421  0.15151  0.82640  1.0000
  C  Sn7       1.0  0.19769  0.14214  0.89316  1.0000
  C  Sn8       1.0  0.21937  0.16263  0.91058  1.0000
  C   C239      1.0  0.21701  0.19199  0.86080  1.0000
  C   C240      1.0  0.19344  0.20114  0.79410  1.0000
  H   H111      1.0  0.15382  0.18799  0.72538  1.0000
  O  Te7       1.0  0.19950  0.11269  0.94193  1.0000
  O  Te8       1.0  0.24306  0.15386  0.97697  1.0000
  H   H112      1.0  0.19177  0.22390  0.75588  1.0000
  Mg  Mg4       1.0  0.26848  0.11351  0.02545  1.0000
  C   C241      1.0  0.34106  0.69051  0.80343  1.0000
  C   C242      1.0  0.33500  0.66237  0.75095  1.0000
  C  Sn9       1.0  0.30953  0.65695  0.69508  1.0000
  C  Sn10      1.0  0.28981  0.68020  0.69178  1.0000
  C   C243      1.0  0.29609  0.70829  0.74443  1.0000
  C   C244      1.0  0.32163  0.71346  0.80016  1.0000
  H   H113      1.0  0.36083  0.69452  0.84647  1.0000
  O  Te9       1.0  0.30381  0.62870  0.64315  1.0000
  O  Te10      1.0  0.26421  0.67540  0.63647  1.0000
  H   H114      1.0  0.32632  0.73526  0.84068  1.0000
  Mg  Mg5       1.0  0.26604  0.63310  0.57835  1.0000
  C   C245      1.0  0.07464  0.09896  0.47036  1.0000
  C   C246      1.0  0.10381  0.10205  0.40373  1.0000
  C  Sn11      1.0  0.11822  0.08063  0.29633  1.0000
  C  Sn12      1.0  0.10309  0.05569  0.25505  1.0000
  C   C247      1.0  0.07391  0.05281  0.32227  1.0000
  C   C248      1.0  0.05970  0.07437  0.42966  1.0000
  H   H115      1.0  0.06365  0.11565  0.55338  1.0000
  O  Te11      1.0  0.14737  0.08406  0.23092  1.0000
  O  Te12      1.0  0.11696  0.03395  0.14796  1.0000
  H   H116      1.0  0.03711  0.07198  0.48114  1.0000
  Mg  Mg6       1.0  0.15683  0.04850  0.09056  1.0000
  C   C249      1.0  0.20740  0.85368  0.90883  1.0000
  C   C250      1.0  0.18197  0.85356  0.84703  1.0000
  C  Sn13      1.0  0.17232  0.82769  0.78383  1.0000
  C  Sn14      1.0  0.18848  0.80147  0.78269  1.0000
  C   C251      1.0  0.21389  0.80180  0.84491  1.0000
  C   C252      1.0  0.22335  0.82782  0.90781  1.0000
  H   H117      1.0  0.21471  0.87380  0.95758  1.0000
  O  Te13      1.0  0.14687  0.82797  0.72252  1.0000
  O  Te14      1.0  0.17933  0.77529  0.72031  1.0000
  H   H118      1.0  0.24303  0.82790  0.95575  1.0000
  Mg  Mg7       1.0  0.14327  0.78678  0.65044  1.0000
  C   C253      1.0  0.34016  0.69188  0.30381  1.0000
  C   C254      1.0  0.33410  0.66353  0.25449  1.0000
  C  Sn15      1.0  0.30857  0.65778  0.20007  1.0000
  C  Sn16      1.0  0.28878  0.68090  0.19503  1.0000
  C   C255      1.0  0.29505  0.70920  0.24452  1.0000
  C   C256      1.0  0.32066  0.71470  0.29881  1.0000
  H   H119      1.0  0.35998  0.69614  0.34573  1.0000
  O  Te15      1.0  0.30285  0.62932  0.15130  1.0000
  O  Te16      1.0  0.26311  0.67578  0.14111  1.0000
  H   H120      1.0  0.32536  0.73666  0.33688  1.0000
  Mg  Mg8       1.0  0.26497  0.63329  0.08737  1.0000
  C   C257      1.0  0.66907  0.29677  0.18807  1.0000
  C   C258      1.0  0.69680  0.29344  0.21765  1.0000
  C  Sn17      1.0  0.71043  0.31680  0.28166  1.0000
  C  Sn18      1.0  0.69597  0.34398  0.31663  1.0000
  C   C259      1.0  0.66823  0.34708  0.28673  1.0000
  C   C260      1.0  0.65479  0.32356  0.22260  1.0000
  H   H121      1.0  0.65867  0.27857  0.13854  1.0000
  O  Te17      1.0  0.73814  0.31310  0.31041  1.0000
  O  Te18      1.0  0.70908  0.36768  0.38073  1.0000
  H   H122      1.0  0.63332  0.32614  0.19982  1.0000
  Mg  Mg9       1.0  0.74702  0.35187  0.39877  1.0000
  C   C261      1.0  0.07394  0.89828  0.96421  1.0000
  C   C262      1.0  0.10171  0.89339  0.87523  1.0000
  C  Sn19      1.0  0.11620  0.91528  0.76800  1.0000
  C  Sn20      1.0  0.10259  0.94257  0.74981  1.0000
  C   C263      1.0  0.07481  0.94725  0.83948  1.0000
  C   C264      1.0  0.06051  0.92518  0.94640  1.0000
  H   H123      1.0  0.09546  0.88337  0.04702  1.0000
  O  Te19      1.0  0.14393  0.91003  0.67999  1.0000
  O  Te20      1.0  0.11658  0.96483  0.64354  1.0000
  H   H124      1.0  0.07159  0.93115  0.01536  1.0000
  Mg  Mg10      1.0  0.15418  0.94718  0.55032  1.0000
  C   C265      1.0  0.56369  0.58617  0.44686  1.0000
  C   C266      1.0  0.56923  0.56072  0.34972  1.0000
  C  Sn21      1.0  0.59603  0.55650  0.24640  1.0000
  C  Sn22      1.0  0.61764  0.57819  0.24053  1.0000
  C   C267      1.0  0.61189  0.60356  0.33829  1.0000
  C   C268      1.0  0.58500  0.60756  0.44120  1.0000
  H   H125      1.0  0.54289  0.58926  0.52656  1.0000
  O  Te21      1.0  0.60119  0.53096  0.15011  1.0000
  O  Te22      1.0  0.64461  0.57452  0.13841  1.0000
  H   H126      1.0  0.58073  0.62726  0.51648  1.0000
  Mg  Mg11      1.0  0.64133  0.53599  0.03046  1.0000
  C   C269      1.0  0.43601  0.41408  0.04452  1.0000
  C   C270      1.0  0.42880  0.44115  0.12217  1.0000
  C  Sn23      1.0  0.40171  0.44536  0.22202  1.0000
  C  Sn24      1.0  0.38152  0.42199  0.24435  1.0000
  C   C271      1.0  0.38895  0.39498  0.16623  1.0000
  C   C272      1.0  0.41611  0.39101  0.06653  1.0000
  H   H127      1.0  0.42446  0.40884  0.96745  1.0000
  O  Te23      1.0  0.39485  0.47255  0.29863  1.0000
  O  Te24      1.0  0.35429  0.42559  0.34354  1.0000
  H   H128      1.0  0.42169  0.37004  0.00652  1.0000
  Mg  Mg12      1.0  0.35503  0.46673  0.42186  1.0000
  C   C273      1.0  0.61766  0.42709  0.71085  1.0000
  C   C274      1.0  0.61259  0.40188  0.81413  1.0000
  C  Sn25      1.0  0.58614  0.39761  0.92217  1.0000
  C  Sn26      1.0  0.56441  0.41903  0.92659  1.0000
  C   C275      1.0  0.56968  0.44417  0.82268  1.0000
  C   C276      1.0  0.59623  0.44822  0.71508  1.0000
  H   H129      1.0  0.63819  0.43022  0.62753  1.0000
  O  Te25      1.0  0.61402  0.37446  0.02456  1.0000
  O  Te26      1.0  0.57035  0.41747  0.03334  1.0000
  H   H130      1.0  0.60014  0.46773  0.63505  1.0000
  Mg  Mg13      1.0  0.57422  0.37933  0.14891  1.0000
  C   C277      1.0  0.33017  0.29535  0.79952  1.0000
  C   C278      1.0  0.30224  0.29188  0.77375  1.0000
  C  Sn27      1.0  0.28845  0.31515  0.70785  1.0000
  C  Sn28      1.0  0.30296  0.34237  0.66706  1.0000
  C   C279      1.0  0.33091  0.34561  0.69319  1.0000
  C   C280      1.0  0.34450  0.32218  0.75926  1.0000
  H   H131      1.0  0.34069  0.27722  0.85055  1.0000
  O  Te27      1.0  0.26054  0.31132  0.68295  1.0000
  O  Te28      1.0  0.28969  0.36598  0.60096  1.0000
  H   H132      1.0  0.36613  0.32487  0.77910  1.0000
  Mg  Mg14      1.0  0.25150  0.35000  0.58982  1.0000
  C   C281      1.0  0.81670  0.19754  0.25199  1.0000
  C   C282      1.0  0.79151  0.19754  0.18756  1.0000
  C  Sn29      1.0  0.78180  0.17163  0.12510  1.0000
  C  Sn30      1.0  0.79764  0.14526  0.12739  1.0000
  C   C283      1.0  0.82280  0.14548  0.19223  1.0000
  C   C284      1.0  0.83232  0.17154  0.25436  1.0000
  H   H133      1.0  0.82406  0.21769  0.30016  1.0000
  O  Te29      1.0  0.75661  0.17202  0.06111  1.0000
  O  Te30      1.0  0.78842  0.11905  0.06581  1.0000
  H   H134      1.0  0.85181  0.17153  0.30434  1.0000
  Mg  Mg15      1.0  0.72020  0.12857  0.99143  1.0000
  C   C285      1.0  0.29700  0.34069  0.15342  1.0000
  C   C286      1.0  0.32256  0.34631  0.20789  1.0000
  C  Sn31      1.0  0.33601  0.32389  0.28331  1.0000
  C  Sn32      1.0  0.32360  0.29534  0.30438  1.0000
  C   C287      1.0  0.29804  0.28994  0.24935  1.0000
  C   C288      1.0  0.28475  0.31254  0.17409  1.0000
  H   H135      1.0  0.28672  0.35817  0.09511  1.0000
  O  Te31      1.0  0.36153  0.32988  0.33707  1.0000
  O  Te32      1.0  0.33660  0.27253  0.37930  1.0000
  H   H136      1.0  0.26497  0.30818  0.13183  1.0000
  Mg  Mg16      1.0  0.37115  0.29156  0.43201  1.0000
