data_image0
_chemical_formula_structural       H40C128S8N32F16SnCSn2CSnTe4Mg2SnCSn2CSnTe4Mg2SnCSn2CSnTe4Mg2SnCSn2CSnTe4Mg2SnCSn2CSnTe4Mg2SnCSn2CSnTe4Mg2SnCSn2CSnTe4Mg2SnCSn2CSnTe4Mg2SnCSn2CSnTe4Mg2SnCSn2CSnTe4Mg2SnCSn2CSnTe4Mg2SnCSn2CSnTe4Mg2SnCSn2CSnTe4Mg2SnCSn2CSnTe4Mg2SnCSn2CSnTe4Mg2SnCSn2CSnTe4Mg2SnCSn2CSnTe4Mg2SnCSn2CSnTe4Mg2SnCSn2CSnTe4Mg2SnCSn2CSnTe4Mg2SnCSn2CSnTe4Mg2SnCSn2CSnTe4Mg2SnCSn2CSnTe4Mg2SnCSn2CSnTe4Mg2SnCSn2CSnTe4Mg2SnCSn2CSnTe4Mg2SnCSn2CSnTe4Mg2SnCSn2CSnTe4Mg2SnCSn2CSnTe4Mg2SnCSn2CSnTe4Mg2SnCSn2CSnTe4Mg2SnCSn2CSnTe4Mg2
_chemical_formula_sum              "H40 C192 S8 N32 F16 Sn128 Te128 Mg64"
_cell_length_a       48.1754
_cell_length_b       45.0302
_cell_length_c       7.89559
_cell_angle_alpha    89.1392
_cell_angle_beta     79.7856
_cell_angle_gamma    90.0991

_symmetry_space_group_name_H-M    'P1'
_space_group_IT_number       1

loop_
  _space_group_symop_operation_xyz
  'x, y, z'

loop_
  _atom_site_type_symbol
  _atom_site_label
  _atom_site_symmetry_multiplicity
  _atom_site_fract_x
  _atom_site_fract_y
  _atom_site_fract_z
  _atom_site_occupancy
  H   H1        1.0  0.11799  0.85167  0.42309  1.0000
  H   H2        1.0  0.88026  0.85553  0.05920  1.0000
  H   H3        1.0  0.87852  0.15044  0.09974  1.0000
  H   H4        1.0  0.12034  0.14744  0.44229  1.0000
  H   H5        1.0  0.38087  0.35294  0.05183  1.0000
  H   H6        1.0  0.61726  0.35135  0.41886  1.0000
  H   H7        1.0  0.61861  0.64913  0.41807  1.0000
  H   H8        1.0  0.38265  0.65113  0.06950  1.0000
  H   H9        1.0  0.52289  0.57620  0.28031  1.0000
  H   H10       1.0  0.47611  0.57632  0.20415  1.0000
  H   H11       1.0  0.47607  0.42529  0.20286  1.0000
  H   H12       1.0  0.52303  0.42516  0.27573  1.0000
  H   H13       1.0  0.02300  0.92579  0.28122  1.0000
  H   H14       1.0  0.97588  0.92661  0.20823  1.0000
  H   H15       1.0  0.97645  0.07761  0.23037  1.0000
  H   H16       1.0  0.02364  0.07668  0.30130  1.0000
  H   H17       1.0  0.08909  0.99969  0.38529  1.0000
  H   H18       1.0  0.90948  0.00323  0.13847  1.0000
  H   H19       1.0  0.40997  0.50111  0.11235  1.0000
  H   H20       1.0  0.58829  0.50038  0.38066  1.0000
  H   H21       1.0  0.11739  0.84894  0.93593  1.0000
  H   H22       1.0  0.88062  0.85259  0.57049  1.0000
  H   H23       1.0  0.88000  0.14873  0.60190  1.0000
  H   H24       1.0  0.12020  0.14477  0.93723  1.0000
  H   H25       1.0  0.38198  0.35112  0.54870  1.0000
  H   H26       1.0  0.61934  0.35120  0.92183  1.0000
  H   H27       1.0  0.61793  0.64824  0.92520  1.0000
  H   H28       1.0  0.38279  0.64919  0.56010  1.0000
  H   H29       1.0  0.52286  0.57498  0.78554  1.0000
  H   H30       1.0  0.47591  0.57503  0.71253  1.0000
  H   H31       1.0  0.47640  0.42405  0.70321  1.0000
  H   H32       1.0  0.52323  0.42396  0.77848  1.0000
  H   H33       1.0  0.02232  0.92309  0.78794  1.0000
  H   H34       1.0  0.97572  0.92422  0.70929  1.0000
  H   H35       1.0  0.97687  0.07518  0.73153  1.0000
  H   H36       1.0  0.02412  0.07404  0.80159  1.0000
  H   H37       1.0  0.08902  0.99704  0.88859  1.0000
  H   H38       1.0  0.91081  0.00133  0.62164  1.0000
  H   H39       1.0  0.41016  0.49991  0.61358  1.0000
  H   H40       1.0  0.58946  0.49923  0.86899  1.0000
  C   C1        1.0  0.02711  0.97348  0.29613  1.0000
  C   C2        1.0  0.97169  0.97453  0.21090  1.0000
  C   C3        1.0  0.97189  0.02982  0.21917  1.0000
  C   C4        1.0  0.02745  0.02871  0.30403  1.0000
  C   C5        1.0  0.01260  0.94687  0.26867  1.0000
  C   C6        1.0  0.98623  0.94737  0.22810  1.0000
  C   C7        1.0  0.98665  0.05644  0.24408  1.0000
  C   C8        1.0  0.01310  0.05591  0.28401  1.0000
  C   C9        1.0  0.05493  0.97317  0.33243  1.0000
  C   C10       1.0  0.94365  0.97526  0.17742  1.0000
  C   C11       1.0  0.94388  0.02999  0.18563  1.0000
  C   C12       1.0  0.05533  0.02784  0.34013  1.0000
  C   C13       1.0  0.25693  0.77881  0.19219  1.0000
  C   C14       1.0  0.74218  0.77788  0.28299  1.0000
  C   C15       1.0  0.74067  0.22365  0.32018  1.0000
  C   C16       1.0  0.25776  0.22235  0.19112  1.0000
  C   C17       1.0  0.27678  0.75520  0.17789  1.0000
  C   C18       1.0  0.72289  0.75378  0.29124  1.0000
  C   C19       1.0  0.72102  0.24732  0.32646  1.0000
  C   C20       1.0  0.27688  0.24674  0.17181  1.0000
  C   C21       1.0  0.27048  0.72670  0.24087  1.0000
  C   C22       1.0  0.73042  0.72520  0.24091  1.0000
  C   C23       1.0  0.72801  0.27553  0.26082  1.0000
  C   C24       1.0  0.27003  0.27495  0.23191  1.0000
  C   C25       1.0  0.24194  0.72285  0.32780  1.0000
  C   C26       1.0  0.75964  0.72229  0.16595  1.0000
  C   C27       1.0  0.75680  0.27880  0.17707  1.0000
  C   C28       1.0  0.24163  0.27773  0.32168  1.0000
  C   C29       1.0  0.22162  0.74696  0.34291  1.0000
  C   C30       1.0  0.77937  0.74709  0.15413  1.0000
  C   C31       1.0  0.77686  0.25454  0.16879  1.0000
  C   C32       1.0  0.22202  0.25282  0.34219  1.0000
  C   C33       1.0  0.22906  0.77595  0.27200  1.0000
  C   C34       1.0  0.77078  0.77593  0.21809  1.0000
  C   C35       1.0  0.76881  0.22598  0.24433  1.0000
  C   C36       1.0  0.23002  0.22421  0.27350  1.0000
  C   C37       1.0  0.12759  0.87217  0.36054  1.0000
  C   C38       1.0  0.87076  0.87488  0.13093  1.0000
  C   C39       1.0  0.86973  0.13006  0.16776  1.0000
  C   C40       1.0  0.12940  0.12720  0.37837  1.0000
  C   C41       1.0  0.44400  0.52830  0.16129  1.0000
  C   C42       1.0  0.55462  0.52799  0.32855  1.0000
  C   C43       1.0  0.55468  0.47323  0.32595  1.0000
  C   C44       1.0  0.44394  0.47352  0.16014  1.0000
  C   C45       1.0  0.47180  0.52846  0.19838  1.0000
  C   C46       1.0  0.52693  0.52830  0.28930  1.0000
  C   C47       1.0  0.52699  0.47302  0.28694  1.0000
  C   C48       1.0  0.47176  0.47318  0.19741  1.0000
  C   C49       1.0  0.48632  0.55532  0.22166  1.0000
  C   C50       1.0  0.51255  0.55525  0.26459  1.0000
  C   C51       1.0  0.51264  0.44618  0.26120  1.0000
  C   C52       1.0  0.48633  0.44624  0.21966  1.0000
  C   C53       1.0  0.37116  0.37292  0.11566  1.0000
  C   C54       1.0  0.62677  0.37186  0.35634  1.0000
  C   C55       1.0  0.62808  0.62867  0.35903  1.0000
  C   C56       1.0  0.37289  0.63078  0.13312  1.0000
  C   C57       1.0  0.01337  0.00138  0.27942  1.0000
  C   C58       1.0  0.98568  0.00192  0.23561  1.0000
  C   C59       1.0  0.06803  0.00020  0.35357  1.0000
  C   C60       1.0  0.93075  0.00284  0.16676  1.0000
  C   C61       1.0  0.48560  0.50077  0.21992  1.0000
  C   C62       1.0  0.51313  0.50070  0.26630  1.0000
  C   C63       1.0  0.43104  0.50099  0.14393  1.0000
  C   C64       1.0  0.56743  0.50053  0.34614  1.0000
  C   C65       1.0  0.02706  0.97085  0.79856  1.0000
  C   C66       1.0  0.97214  0.97221  0.70609  1.0000
  C   C67       1.0  0.97245  0.02746  0.71623  1.0000
  C   C68       1.0  0.02776  0.02610  0.80297  1.0000
  C   C69       1.0  0.01236  0.94430  0.77190  1.0000
  C   C70       1.0  0.98625  0.94494  0.72770  1.0000
  C   C71       1.0  0.98708  0.05399  0.74393  1.0000
  C   C72       1.0  0.01353  0.05335  0.78343  1.0000
  C   C73       1.0  0.05474  0.97047  0.83707  1.0000
  C   C74       1.0  0.94448  0.97315  0.66709  1.0000
  C   C75       1.0  0.94467  0.02784  0.67897  1.0000
  C   C76       1.0  0.05561  0.02515  0.83910  1.0000
  C   C77       1.0  0.25727  0.77793  0.67498  1.0000
  C   C78       1.0  0.74296  0.77793  0.81759  1.0000
  C   C79       1.0  0.74178  0.22339  0.82341  1.0000
  C   C80       1.0  0.25640  0.22109  0.68348  1.0000
  C   C81       1.0  0.27734  0.75464  0.66021  1.0000
  C   C82       1.0  0.72308  0.75428  0.82851  1.0000
  C   C83       1.0  0.72275  0.24754  0.82297  1.0000
  C   C84       1.0  0.27599  0.24513  0.65858  1.0000
  C   C85       1.0  0.27161  0.72642  0.72910  1.0000
  C   C86       1.0  0.72927  0.72644  0.76066  1.0000
  C   C87       1.0  0.73034  0.27546  0.75506  1.0000
  C   C88       1.0  0.26992  0.27315  0.72440  1.0000
  C   C89       1.0  0.24338  0.72255  0.82162  1.0000
  C   C90       1.0  0.75776  0.72329  0.67297  1.0000
  C   C91       1.0  0.75924  0.27805  0.67408  1.0000
  C   C92       1.0  0.24187  0.27631  0.81933  1.0000
  C   C93       1.0  0.22296  0.74649  0.83854  1.0000
  C   C94       1.0  0.77811  0.74742  0.66098  1.0000
  C   C95       1.0  0.77876  0.25341  0.67182  1.0000
  C   C96       1.0  0.22166  0.25194  0.84119  1.0000
  C   C97       1.0  0.22983  0.77516  0.76197  1.0000
  C   C98       1.0  0.77068  0.77572  0.73534  1.0000
  C   C99       1.0  0.77009  0.22508  0.74940  1.0000
  C   C100      1.0  0.22905  0.22327  0.77226  1.0000
  C   C101      1.0  0.12675  0.86933  0.87077  1.0000
  C   C102      1.0  0.87126  0.87296  0.63115  1.0000
  C   C103      1.0  0.87082  0.12841  0.66874  1.0000
  C   C104      1.0  0.12956  0.12476  0.87208  1.0000
  C   C105      1.0  0.44405  0.52707  0.66492  1.0000
  C   C106      1.0  0.55538  0.52681  0.82339  1.0000
  C   C107      1.0  0.55530  0.47198  0.82237  1.0000
  C   C108      1.0  0.44407  0.47226  0.66174  1.0000
  C   C109      1.0  0.47188  0.52722  0.70206  1.0000
  C   C110      1.0  0.52736  0.52709  0.78883  1.0000
  C   C111      1.0  0.52738  0.47179  0.78694  1.0000
  C   C112      1.0  0.47195  0.47194  0.69871  1.0000
  C   C113      1.0  0.48633  0.55404  0.72695  1.0000
  C   C114      1.0  0.51269  0.55401  0.76793  1.0000
  C   C115      1.0  0.51287  0.44496  0.76295  1.0000
  C   C116      1.0  0.48658  0.44502  0.72079  1.0000
  C   C117      1.0  0.37205  0.37068  0.61622  1.0000
  C   C118      1.0  0.62867  0.37153  0.85569  1.0000
  C   C119      1.0  0.62758  0.62867  0.85643  1.0000
  C   C120      1.0  0.37301  0.62943  0.63048  1.0000
  C   C121      1.0  0.01360  0.99881  0.77898  1.0000
  C   C122      1.0  0.98609  0.99950  0.73288  1.0000
  C   C123      1.0  0.06804  0.99751  0.85579  1.0000
  C   C124      1.0  0.93177  0.00081  0.65472  1.0000
  C   C125      1.0  0.48579  0.49953  0.72196  1.0000
  C   C126      1.0  0.51347  0.49948  0.76686  1.0000
  C   C127      1.0  0.43116  0.49976  0.64632  1.0000
  C   C128      1.0  0.56830  0.49934  0.83875  1.0000
  S   S1        1.0  0.80046  0.29588  0.01108  1.0000
  S   S2        1.0  0.19838  0.29398  0.49157  1.0000
  S   S3        1.0  0.19886  0.70479  0.49622  1.0000
  S   S4        1.0  0.80415  0.70571  0.01309  1.0000
  S   S5        1.0  0.80364  0.29396  0.51286  1.0000
  S   S6        1.0  0.19932  0.29355  0.99277  1.0000
  S   S7        1.0  0.20112  0.70482  0.00096  1.0000
  S   S8        1.0  0.80080  0.70668  0.50251  1.0000
  N   N1        1.0  0.15433  0.87427  0.30360  1.0000
  N   N2        1.0  0.84434  0.87552  0.19802  1.0000
  N   N3        1.0  0.84335  0.12787  0.23467  1.0000
  N   N4        1.0  0.15594  0.12520  0.31591  1.0000
  N   N5        1.0  0.65481  0.62671  0.30192  1.0000
  N   N6        1.0  0.34631  0.62923  0.19537  1.0000
  N   N7        1.0  0.34446  0.37427  0.17474  1.0000
  N   N8        1.0  0.65342  0.37383  0.29604  1.0000
  N   N9        1.0  0.80258  0.26160  0.07713  1.0000
  N   N10       1.0  0.19661  0.25933  0.43715  1.0000
  N   N11       1.0  0.19622  0.73936  0.43644  1.0000
  N   N12       1.0  0.80547  0.74031  0.06949  1.0000
  N   N13       1.0  0.76779  0.30358  0.09165  1.0000
  N   N14       1.0  0.23059  0.30249  0.40171  1.0000
  N   N15       1.0  0.23144  0.69765  0.41045  1.0000
  N   N16       1.0  0.77134  0.69746  0.09024  1.0000
  N   N17       1.0  0.15333  0.87154  0.80933  1.0000
  N   N18       1.0  0.84462  0.87490  0.69054  1.0000
  N   N19       1.0  0.84434  0.12650  0.73363  1.0000
  N   N20       1.0  0.15616  0.12323  0.81022  1.0000
  N   N21       1.0  0.65406  0.62805  0.79067  1.0000
  N   N22       1.0  0.34653  0.62852  0.69600  1.0000
  N   N23       1.0  0.34544  0.37134  0.67895  1.0000
  N   N24       1.0  0.65523  0.37347  0.79296  1.0000
  N   N25       1.0  0.80486  0.25988  0.58366  1.0000
  N   N26       1.0  0.19650  0.25907  0.93742  1.0000
  N   N27       1.0  0.19803  0.73915  0.93868  1.0000
  N   N28       1.0  0.80353  0.74064  0.56671  1.0000
  N   N29       1.0  0.77091  0.30241  0.58710  1.0000
  N   N30       1.0  0.23162  0.30120  0.90133  1.0000
  N   N31       1.0  0.23334  0.69756  0.90866  1.0000
  N   N32       1.0  0.76821  0.69884  0.58711  1.0000
  F   F1        1.0  0.26666  0.80501  0.11670  1.0000
  F   F2        1.0  0.73063  0.80357  0.35000  1.0000
  F   F3        1.0  0.73054  0.19794  0.40000  1.0000
  F   F4        1.0  0.26800  0.19661  0.11690  1.0000
  F   F5        1.0  0.30294  0.76191  0.09113  1.0000
  F   F6        1.0  0.69577  0.76036  0.35891  1.0000
  F   F7        1.0  0.69440  0.24108  0.40862  1.0000
  F   F8        1.0  0.30297  0.24106  0.08273  1.0000
  F   F9        1.0  0.26661  0.80363  0.59189  1.0000
  F   F10       1.0  0.73338  0.80331  0.89925  1.0000
  F   F11       1.0  0.73069  0.19824  0.90733  1.0000
  F   F12       1.0  0.26537  0.19507  0.60818  1.0000
  F   F13       1.0  0.30294  0.76178  0.56643  1.0000
  F   F14       1.0  0.69702  0.76039  0.91707  1.0000
  F   F15       1.0  0.69574  0.24244  0.90086  1.0000
  F   F16       1.0  0.30138  0.23957  0.55867  1.0000
  C  Sn1       1.0  0.06822  0.91803  0.48601  1.0000
  C   C129      1.0  0.07367  0.94435  0.38972  1.0000
  C  Sn2       1.0  0.09640  0.94621  0.25285  1.0000
  C  Sn3       1.0  0.11405  0.92123  0.21126  1.0000
  C   C130      1.0  0.10860  0.89492  0.30749  1.0000
  C  Sn4       1.0  0.08587  0.89305  0.44442  1.0000
  O  Te1       1.0  0.04538  0.91667  0.62229  1.0000
  O  Te2       1.0  0.10142  0.97277  0.15850  1.0000
  O  Te3       1.0  0.13690  0.92261  0.07486  1.0000
  O  Te4       1.0  0.08084  0.86651  0.53872  1.0000
  Mg  Mg1       1.0  0.10606  0.96098  0.98449  1.0000
  Mg  Mg2       1.0  0.04714  0.87558  0.71268  1.0000
  C  Sn5       1.0  0.89556  0.94003  0.30229  1.0000
  C   C131      1.0  0.92324  0.94430  0.21589  1.0000
  C  Sn6       1.0  0.93402  0.92712  0.07361  1.0000
  C  Sn7       1.0  0.91676  0.90521  0.01641  1.0000
  C   C132      1.0  0.88910  0.90095  0.10277  1.0000
  C  Sn8       1.0  0.87831  0.91813  0.24509  1.0000
  O  Te5       1.0  0.88523  0.95747  0.44422  1.0000
  O  Te6       1.0  0.93269  0.92910  0.98936  1.0000
  O  Te7       1.0  0.89806  0.88508  0.87436  1.0000
  O  Te8       1.0  0.85059  0.91346  0.32930  1.0000
  Mg  Mg3       1.0  0.93717  0.89978  0.80222  1.0000
  Mg  Mg4       1.0  0.84608  0.94278  0.51639  1.0000
  C  Sn9       1.0  0.91888  0.09863  0.03145  1.0000
  C   C133      1.0  0.89161  0.10200  0.12484  1.0000
  C  Sn10      1.0  0.88174  0.08334  0.26568  1.0000
  C  Sn11      1.0  0.89950  0.06087  0.31426  1.0000
  C   C134      1.0  0.92676  0.05751  0.22092  1.0000
  C  Sn12      1.0  0.93664  0.07615  0.08004  1.0000
  O  Te9       1.0  0.89924  0.11485  0.89112  1.0000
  O  Te10      1.0  0.85440  0.08713  0.35702  1.0000
  O  Te11      1.0  0.89005  0.04196  0.45473  1.0000
  O  Te12      1.0  0.93490  0.06969  0.98875  1.0000
  Mg  Mg5       1.0  0.85117  0.05589  0.53866  1.0000
  Mg  Mg6       1.0  0.93816  0.10093  0.80715  1.0000
  C  Sn13      1.0  0.11464  0.07531  0.22161  1.0000
  C   C135      1.0  0.10938  0.10102  0.31892  1.0000
  C  Sn14      1.0  0.08585  0.10261  0.45031  1.0000
  C  Sn15      1.0  0.06721  0.07799  0.48524  1.0000
  C   C136      1.0  0.07248  0.05230  0.38798  1.0000
  C  Sn16      1.0  0.09600  0.05069  0.25654  1.0000
  O  Te13      1.0  0.13829  0.07421  0.09089  1.0000
  O  Te14      1.0  0.08102  0.12855  0.54582  1.0000
  O  Te15      1.0  0.04354  0.07911  0.61608  1.0000
  O  Te16      1.0  0.10083  0.02477  0.16109  1.0000
  Mg  Mg7       1.0  0.04597  0.11930  0.71061  1.0000
  Mg  Mg8       1.0  0.10682  0.03130  0.99634  1.0000
  C  Sn17      1.0  0.18105  0.80406  0.18375  1.0000
  C   C137      1.0  0.20734  0.80301  0.23526  1.0000
  C  Sn18      1.0  0.21521  0.82503  0.34038  1.0000
  C  Sn19      1.0  0.19641  0.84859  0.39528  1.0000
  C   C138      1.0  0.17014  0.84963  0.34381  1.0000
  C  Sn20      1.0  0.16225  0.82762  0.23865  1.0000
  O  Te17      1.0  0.17363  0.78180  0.07864  1.0000
  O  Te18      1.0  0.24160  0.82351  0.39015  1.0000
  O  Te19      1.0  0.20386  0.87086  0.50047  1.0000
  O  Te20      1.0  0.13588  0.82913  0.18891  1.0000
  Mg  Mg9       1.0  0.24209  0.85906  0.53411  1.0000
  Mg  Mg10      1.0  0.13536  0.79359  0.04503  1.0000
  C  Sn21      1.0  0.81877  0.80376  0.30935  1.0000
  C   C139      1.0  0.79216  0.80291  0.26218  1.0000
  C  Sn22      1.0  0.78344  0.82602  0.16421  1.0000
  C  Sn23      1.0  0.80170  0.85050  0.11219  1.0000
  C   C140      1.0  0.82829  0.85134  0.15932  1.0000
  C  Sn24      1.0  0.83703  0.82823  0.25733  1.0000
  O  Te21      1.0  0.82706  0.78040  0.40732  1.0000
  O  Te22      1.0  0.75673  0.82468  0.11868  1.0000
  O  Te23      1.0  0.79339  0.87386  0.01414  1.0000
  O  Te24      1.0  0.86372  0.82956  0.30283  1.0000
  Mg  Mg11      1.0  0.72596  0.85920  0.98412  1.0000
  Mg  Mg12      1.0  0.86545  0.79237  0.43730  1.0000
  C  Sn25      1.0  0.79780  0.15466  0.13382  1.0000
  C   C141      1.0  0.82388  0.15398  0.18811  1.0000
  C  Sn26      1.0  0.83172  0.17687  0.28765  1.0000
  C  Sn27      1.0  0.81311  0.20094  0.33398  1.0000
  C   C142      1.0  0.78705  0.20162  0.27973  1.0000
  C  Sn28      1.0  0.77919  0.17873  0.18016  1.0000
  O  Te25      1.0  0.79040  0.13154  0.03441  1.0000
  O  Te26      1.0  0.85790  0.17570  0.34035  1.0000
  O  Te27      1.0  0.82053  0.22408  0.43347  1.0000
  O  Te28      1.0  0.75303  0.17989  0.12749  1.0000
  Mg  Mg13      1.0  0.85844  0.21247  0.47413  1.0000
  Mg  Mg14      1.0  0.72339  0.14044  0.99378  1.0000
  C  Sn29      1.0  0.20189  0.15278  0.40685  1.0000
  C   C143      1.0  0.17536  0.15172  0.35875  1.0000
  C  Sn30      1.0  0.16684  0.17440  0.25692  1.0000
  C  Sn31      1.0  0.18524  0.19864  0.20192  1.0000
  C   C144      1.0  0.21176  0.19969  0.24999  1.0000
  C  Sn32      1.0  0.22029  0.17702  0.35185  1.0000
  O  Te29      1.0  0.20996  0.12986  0.50870  1.0000
  O  Te30      1.0  0.14021  0.17285  0.21052  1.0000
  O  Te31      1.0  0.17715  0.22157  0.10000  1.0000
  O  Te32      1.0  0.24690  0.17856  0.39821  1.0000
  Mg  Mg15      1.0  0.13881  0.20945  0.07025  1.0000
  Mg  Mg16      1.0  0.24833  0.14196  0.53840  1.0000
  C  Sn33      1.0  0.32642  0.70449  0.22176  1.0000
  C   C145      1.0  0.29915  0.70481  0.18419  1.0000
  C  Sn34      1.0  0.28512  0.67821  0.16540  1.0000
  C  Sn35      1.0  0.29863  0.65072  0.18466  1.0000
  C   C146      1.0  0.32589  0.65041  0.22223  1.0000
  C  Sn36      1.0  0.33993  0.67700  0.24102  1.0000
  O  Te33      1.0  0.34005  0.73135  0.24000  1.0000
  O  Te34      1.0  0.25787  0.67909  0.12778  1.0000
  O  Te35      1.0  0.28499  0.62385  0.16638  1.0000
  O  Te36      1.0  0.36717  0.67613  0.27864  1.0000
  Mg  Mg17      1.0  0.24801  0.63658  0.11516  1.0000
  Mg  Mg18      1.0  0.37704  0.71862  0.29138  1.0000
  C  Sn37      1.0  0.67491  0.70192  0.25841  1.0000
  C   C147      1.0  0.70199  0.70281  0.29887  1.0000
  C  Sn38      1.0  0.71602  0.67651  0.32589  1.0000
  C  Sn39      1.0  0.70272  0.64874  0.31209  1.0000
  C   C148      1.0  0.67566  0.64787  0.27162  1.0000
  C  Sn40      1.0  0.66161  0.67416  0.24460  1.0000
  O  Te37      1.0  0.66128  0.72849  0.23191  1.0000
  O  Te38      1.0  0.74308  0.67796  0.36626  1.0000
  O  Te39      1.0  0.71638  0.62217  0.33863  1.0000
  O  Te40      1.0  0.63458  0.67272  0.20423  1.0000
  Mg  Mg19      1.0  0.75303  0.63566  0.39066  1.0000
  Mg  Mg20      1.0  0.62461  0.71500  0.17971  1.0000
  C  Sn41      1.0  0.67949  0.30338  0.17532  1.0000
  C   C149      1.0  0.70598  0.30227  0.22398  1.0000
  C  Sn42      1.0  0.71436  0.32450  0.32598  1.0000
  C  Sn43      1.0  0.69586  0.34832  0.38058  1.0000
  C   C150      1.0  0.66938  0.34942  0.33194  1.0000
  C  Sn44      1.0  0.66099  0.32720  0.22991  1.0000
  O  Te41      1.0  0.67155  0.28092  0.07331  1.0000
  O  Te42      1.0  0.74096  0.32292  0.37294  1.0000
  O  Te43      1.0  0.70382  0.37079  0.48266  1.0000
  O  Te44      1.0  0.63441  0.32877  0.18298  1.0000
  Mg  Mg21      1.0  0.74216  0.35882  0.51322  1.0000
  Mg  Mg22      1.0  0.63318  0.29288  0.04279  1.0000
  C  Sn45      1.0  0.31895  0.30332  0.30285  1.0000
  C   C151      1.0  0.29226  0.30191  0.25712  1.0000
  C  Sn46      1.0  0.28349  0.32412  0.15320  1.0000
  C  Sn47      1.0  0.30180  0.34823  0.09363  1.0000
  C   C152      1.0  0.32847  0.34962  0.13933  1.0000
  C  Sn48      1.0  0.33725  0.32743  0.24328  1.0000
  O  Te45      1.0  0.32727  0.28087  0.40686  1.0000
  O  Te46      1.0  0.25671  0.32224  0.10924  1.0000
  O  Te47      1.0  0.26439  0.36800  0.98955  1.0000
  O  Te48      1.0  0.36402  0.32930  0.28721  1.0000
  Mg  Mg23      1.0  0.22591  0.35556  0.96455  1.0000
  Mg  Mg24      1.0  0.36578  0.29330  0.43182  1.0000
  C  Sn49      1.0  0.39533  0.43883  0.28182  1.0000
  C   C153      1.0  0.42343  0.44245  0.20154  1.0000
  C  Sn50      1.0  0.43493  0.42439  0.06471  1.0000
  C  Sn51      1.0  0.41799  0.40225  0.00683  1.0000
  C   C154      1.0  0.38990  0.39864  0.08707  1.0000
  C  Sn52      1.0  0.37838  0.41669  0.22394  1.0000
  O  Te49      1.0  0.38427  0.45713  0.41837  1.0000
  O  Te50      1.0  0.43402  0.42574  0.98653  1.0000
  O  Te51      1.0  0.40001  0.38125  0.87017  1.0000
  O  Te52      1.0  0.35025  0.41267  0.30208  1.0000
  Mg  Mg25      1.0  0.43946  0.39532  0.80527  1.0000
  Mg  Mg26      1.0  0.34478  0.44308  0.48328  1.0000
  C  Sn53      1.0  0.61820  0.43239  0.28362  1.0000
  C   C155      1.0  0.61182  0.40535  0.37122  1.0000
  C  Sn54      1.0  0.58379  0.39717  0.43190  1.0000
  C  Sn55      1.0  0.56169  0.41641  0.40437  1.0000
  C   C156      1.0  0.56807  0.44342  0.31680  1.0000
  C  Sn56      1.0  0.59609  0.45162  0.25609  1.0000
  O  Te53      1.0  0.64636  0.44011  0.22408  1.0000
  O  Te54      1.0  0.57794  0.37003  0.51917  1.0000
  O  Te55      1.0  0.53350  0.40866  0.46400  1.0000
  O  Te56      1.0  0.60195  0.47874  0.16884  1.0000
  Mg  Mg27      1.0  0.53622  0.36938  0.57561  1.0000
  Mg  Mg28      1.0  0.64365  0.47941  0.11227  1.0000
  C  Sn57      1.0  0.61353  0.57603  0.20582  1.0000
  C   C157      1.0  0.60809  0.60202  0.30035  1.0000
  C  Sn58      1.0  0.58460  0.60378  0.43182  1.0000
  C  Sn59      1.0  0.56615  0.57905  0.46967  1.0000
  C   C158      1.0  0.57159  0.55308  0.37519  1.0000
  C  Sn60      1.0  0.59508  0.55130  0.24367  1.0000
  O  Te57      1.0  0.63714  0.57476  0.07497  1.0000
  O  Te58      1.0  0.57960  0.63000  0.52451  1.0000
  O  Te59      1.0  0.54252  0.58034  0.60064  1.0000
  O  Te60      1.0  0.60009  0.52509  0.15103  1.0000
  Mg  Mg29      1.0  0.54466  0.62091  0.69070  1.0000
  Mg  Mg30      1.0  0.60595  0.53147  0.98488  1.0000
  C  Sn61      1.0  0.42124  0.59759  0.00056  1.0000
  C   C159      1.0  0.39388  0.60184  0.09084  1.0000
  C  Sn62      1.0  0.38300  0.58338  0.23070  1.0000
  C  Sn63      1.0  0.39980  0.56020  0.28146  1.0000
  C   C160      1.0  0.42714  0.55596  0.19123  1.0000
  C  Sn64      1.0  0.43804  0.57441  0.05132  1.0000
  O  Te61      1.0  0.40262  0.61363  0.86115  1.0000
  O  Te62      1.0  0.35559  0.58806  0.31892  1.0000
  O  Te63      1.0  0.38932  0.54147  0.42099  1.0000
  O  Te64      1.0  0.43637  0.56706  0.96315  1.0000
  Mg  Mg31      1.0  0.35077  0.55671  0.50042  1.0000
  Mg  Mg32      1.0  0.44121  0.59840  0.78169  1.0000
  C  Sn65      1.0  0.10253  0.93614  0.70813  1.0000
  C   C161      1.0  0.07462  0.93951  0.79143  1.0000
  C  Sn66      1.0  0.06325  0.92058  0.92808  1.0000
  C  Sn67      1.0  0.08014  0.89783  0.98271  1.0000
  C   C162      1.0  0.10803  0.89447  0.89946  1.0000
  C  Sn68      1.0  0.11941  0.91338  0.76276  1.0000
  O  Te65      1.0  0.11345  0.95531  0.57181  1.0000
  O  Te66      1.0  0.06437  0.92707  0.00931  1.0000
  O  Te67      1.0  0.09825  0.88134  0.11914  1.0000
  O  Te68      1.0  0.14735  0.90959  0.68157  1.0000
  Mg  Mg33      1.0  0.05905  0.89540  0.18892  1.0000
  Mg  Mg34      1.0  0.15269  0.94126  0.50202  1.0000
  C  Sn69      1.0  0.88048  0.93313  0.70243  1.0000
  C   C163      1.0  0.88644  0.90655  0.61445  1.0000
  C  Sn70      1.0  0.91434  0.89826  0.55442  1.0000
  C  Sn71      1.0  0.93675  0.91692  0.58300  1.0000
  C   C164      1.0  0.93078  0.94348  0.67095  1.0000
  C  Sn72      1.0  0.90289  0.95179  0.73101  1.0000
  O  Te69      1.0  0.85243  0.94097  0.76132  1.0000
  O  Te70      1.0  0.91977  0.87159  0.46675  1.0000
  O  Te71      1.0  0.96481  0.90906  0.52402  1.0000
  O  Te72      1.0  0.89745  0.97844  0.81865  1.0000
  Mg  Mg35      1.0  0.96148  0.87055  0.41151  1.0000
  Mg  Mg36      1.0  0.85575  0.97949  0.87403  1.0000
  C  Sn73      1.0  0.93648  0.09058  0.61797  1.0000
  C   C165      1.0  0.93088  0.06302  0.70083  1.0000
  C  Sn74      1.0  0.90313  0.05414  0.76387  1.0000
  C  Sn75      1.0  0.88050  0.07320  0.74359  1.0000
  C   C166      1.0  0.88610  0.10074  0.66075  1.0000
  C  Sn76      1.0  0.91385  0.10964  0.59768  1.0000
  O  Te73      1.0  0.96439  0.09900  0.55594  1.0000
  O  Te74      1.0  0.89805  0.02649  0.84631  1.0000
  O  Te75      1.0  0.85257  0.06475  0.80570  1.0000
  O  Te76      1.0  0.91893  0.13727  0.51527  1.0000
  Mg  Mg37      1.0  0.85641  0.02496  0.90868  1.0000
  Mg  Mg38      1.0  0.96056  0.13882  0.45277  1.0000
  C  Sn77      1.0  0.10938  0.05132  0.79240  1.0000
  C   C167      1.0  0.08107  0.04854  0.87023  1.0000
  C  Sn78      1.0  0.06589  0.07339  0.93743  1.0000
  C  Sn79      1.0  0.07928  0.10160  0.92653  1.0000
  C   C168      1.0  0.10757  0.10437  0.84872  1.0000
  C  Sn80      1.0  0.12277  0.07953  0.78151  1.0000
  O  Te77      1.0  0.12415  0.02618  0.72608  1.0000
  O  Te78      1.0  0.06668  0.07275  0.01469  1.0000
  O  Te79      1.0  0.06448  0.12675  0.99294  1.0000
  O  Te80      1.0  0.15103  0.08285  0.70426  1.0000
  Mg  Mg39      1.0  0.05546  0.11360  0.08599  1.0000
  Mg  Mg40      1.0  0.16227  0.04202  0.63284  1.0000
  C  Sn81      1.0  0.20665  0.84986  0.79391  1.0000
  C   C169      1.0  0.17896  0.84954  0.76330  1.0000
  C  Sn82      1.0  0.16490  0.82262  0.75379  1.0000
  C  Sn83      1.0  0.17882  0.79545  0.77542  1.0000
  C   C170      1.0  0.20649  0.79579  0.80603  1.0000
  C  Sn84      1.0  0.22056  0.82270  0.81554  1.0000
  O  Te81      1.0  0.22029  0.87703  0.80291  1.0000
  O  Te82      1.0  0.13722  0.82286  0.72301  1.0000
  O  Te83      1.0  0.16515  0.76827  0.76638  1.0000
  O  Te84      1.0  0.24822  0.82247  0.84633  1.0000
  Mg  Mg41      1.0  0.12752  0.78013  0.72198  1.0000
  Mg  Mg42      1.0  0.25794  0.86518  0.84746  1.0000
  C  Sn85      1.0  0.81841  0.80439  0.82266  1.0000
  C   C171      1.0  0.79218  0.80285  0.77089  1.0000
  C  Sn86      1.0  0.78414  0.82478  0.66245  1.0000
  C  Sn87      1.0  0.80272  0.84874  0.60444  1.0000
  C   C172      1.0  0.82894  0.85027  0.65617  1.0000
  C  Sn88      1.0  0.83699  0.82835  0.76465  1.0000
  O  Te85      1.0  0.82601  0.78223  0.93111  1.0000
  O  Te86      1.0  0.75780  0.82276  0.61248  1.0000
  O  Te87      1.0  0.79511  0.87092  0.49590  1.0000
  O  Te88      1.0  0.86332  0.83036  0.81458  1.0000
  Mg  Mg43      1.0  0.75703  0.85839  0.46336  1.0000
  Mg  Mg44      1.0  0.86412  0.79474  0.96362  1.0000
  C  Sn89      1.0  0.82498  0.20182  0.74446  1.0000
  C   C173      1.0  0.79775  0.20205  0.70607  1.0000
  C  Sn90      1.0  0.78334  0.17542  0.69450  1.0000
  C  Sn91      1.0  0.79640  0.14799  0.72199  1.0000
  C   C174      1.0  0.82361  0.14777  0.76039  1.0000
  C  Sn92      1.0  0.83804  0.17440  0.77195  1.0000
  O  Te89      1.0  0.83899  0.22871  0.75539  1.0000
  O  Te90      1.0  0.75614  0.17621  0.65590  1.0000
  O  Te91      1.0  0.78236  0.12109  0.71103  1.0000
  O  Te92      1.0  0.86522  0.17362  0.81056  1.0000
  Mg  Mg45      1.0  0.74565  0.13369  0.65517  1.0000
  Mg  Mg46      1.0  0.87573  0.21612  0.81140  1.0000
  C  Sn93      1.0  0.17414  0.19894  0.78928  1.0000
  C   C175      1.0  0.20125  0.19997  0.82913  1.0000
  C  Sn94      1.0  0.21604  0.17376  0.84637  1.0000
  C  Sn95      1.0  0.20348  0.14595  0.82320  1.0000
  C   C176      1.0  0.17639  0.14493  0.78335  1.0000
  C  Sn96      1.0  0.16158  0.17113  0.76611  1.0000
  O  Te93      1.0  0.15974  0.22542  0.77265  1.0000
  O  Te94      1.0  0.24311  0.17535  0.88632  1.0000
  O  Te95      1.0  0.21790  0.11946  0.83987  1.0000
  O  Te96      1.0  0.13452  0.16955  0.72616  1.0000
  Mg  Mg47      1.0  0.25427  0.13314  0.89543  1.0000
  Mg  Mg48      1.0  0.12335  0.21175  0.71694  1.0000
  C  Sn97      1.0  0.30084  0.65622  0.59892  1.0000
  C   C177      1.0  0.32756  0.65541  0.64462  1.0000
  C  Sn98      1.0  0.33628  0.67810  0.74222  1.0000
  C  Sn99      1.0  0.31790  0.70209  0.79536  1.0000
  C   C178      1.0  0.29120  0.70288  0.74969  1.0000
  C  Sn100     1.0  0.28247  0.68020  0.65206  1.0000
  O  Te97      1.0  0.29257  0.63329  0.50129  1.0000
  O  Te98      1.0  0.36310  0.67682  0.78628  1.0000
  O  Te99      1.0  0.32620  0.72502  0.89306  1.0000
  O  Te100     1.0  0.25567  0.68147  0.60803  1.0000
  Mg  Mg49      1.0  0.36474  0.71332  0.92092  1.0000
  Mg  Mg50      1.0  0.25399  0.64498  0.47347  1.0000
  C  Sn101     1.0  0.71715  0.66514  0.78588  1.0000
  C   C179      1.0  0.71284  0.69463  0.73963  1.0000
  C  Sn102     1.0  0.68574  0.70471  0.73022  1.0000
  C  Sn103     1.0  0.66246  0.68491  0.76792  1.0000
  C   C180      1.0  0.66678  0.65544  0.81416  1.0000
  C  Sn104     1.0  0.69388  0.64534  0.82358  1.0000
  O  Te101     1.0  0.74443  0.65555  0.79447  1.0000
  O  Te102     1.0  0.68195  0.73429  0.68365  1.0000
  O  Te103     1.0  0.63517  0.69452  0.75929  1.0000
  O  Te104     1.0  0.69767  0.61579  0.87015  1.0000
  Mg  Mg51      1.0  0.64076  0.73684  0.68995  1.0000
  Mg  Mg52      1.0  0.73885  0.61321  0.86398  1.0000
  C  Sn105     1.0  0.66415  0.31199  0.77639  1.0000
  C   C181      1.0  0.66838  0.34102  0.82697  1.0000
  C  Sn106     1.0  0.69547  0.35112  0.83674  1.0000
  C  Sn107     1.0  0.71883  0.33181  0.79499  1.0000
  C   C182      1.0  0.71460  0.30281  0.74442  1.0000
  C  Sn108     1.0  0.68751  0.29269  0.73464  1.0000
  O  Te105     1.0  0.63688  0.30237  0.76752  1.0000
  O  Te106     1.0  0.69917  0.38023  0.88769  1.0000
  O  Te107     1.0  0.74612  0.34146  0.80391  1.0000
  O  Te108     1.0  0.68381  0.26360  0.68370  1.0000
  Mg  Mg53      1.0  0.74039  0.38303  0.87999  1.0000
  Mg  Mg54      1.0  0.64260  0.26078  0.69128  1.0000
  C  Sn109     1.0  0.31973  0.29978  0.79292  1.0000
  C   C183      1.0  0.29269  0.29941  0.75186  1.0000
  C  Sn110     1.0  0.28378  0.32263  0.65534  1.0000
  C  Sn111     1.0  0.30229  0.34670  0.59858  1.0000
  C   C184      1.0  0.32932  0.34706  0.63961  1.0000
  C  Sn112     1.0  0.33825  0.32386  0.73616  1.0000
  O  Te109     1.0  0.32820  0.27634  0.88955  1.0000
  O  Te110     1.0  0.25663  0.32177  0.61594  1.0000
  O  Te111     1.0  0.29380  0.37015  0.50188  1.0000
  O  Te112     1.0  0.36537  0.32470  0.77553  1.0000
  Mg  Mg55      1.0  0.25483  0.35890  0.48090  1.0000
  Mg  Mg56      1.0  0.36720  0.28758  0.91048  1.0000
  C  Sn113     1.0  0.42651  0.39652  0.57822  1.0000
  C   C185      1.0  0.39822  0.39290  0.65473  1.0000
  C  Sn114     1.0  0.38226  0.41731  0.72097  1.0000
  C  Sn115     1.0  0.39482  0.44594  0.71041  1.0000
  C   C186      1.0  0.42309  0.44955  0.63392  1.0000
  C  Sn116     1.0  0.43907  0.42515  0.56767  1.0000
  O  Te113     1.0  0.44208  0.37180  0.51285  1.0000
  O  Te114     1.0  0.35401  0.41314  0.79692  1.0000
  O  Te115     1.0  0.37923  0.47067  0.77587  1.0000
  O  Te116     1.0  0.46730  0.42931  0.49173  1.0000
  Mg  Mg57      1.0  0.34153  0.45369  0.86728  1.0000
  Mg  Mg58      1.0  0.47980  0.38879  0.42125  1.0000
  C  Sn117     1.0  0.61911  0.43166  0.77503  1.0000
  C   C187      1.0  0.61342  0.40492  0.86685  1.0000
  C  Sn118     1.0  0.58563  0.39644  0.93231  1.0000
  C  Sn119     1.0  0.56306  0.41508  0.90535  1.0000
  C   C188      1.0  0.56875  0.44180  0.81356  1.0000
  C  Sn120     1.0  0.59653  0.45029  0.74807  1.0000
  O  Te117     1.0  0.64704  0.43969  0.71075  1.0000
  O  Te118     1.0  0.60954  0.37230  0.02375  1.0000
  O  Te119     1.0  0.53511  0.40702  0.96973  1.0000
  O  Te120     1.0  0.60170  0.47711  0.65666  1.0000
  Mg  Mg59      1.0  0.56789  0.37103  0.08587  1.0000
  Mg  Mg60      1.0  0.64334  0.47838  0.59441  1.0000
  C  Sn121     1.0  0.60883  0.55446  0.77769  1.0000
  C   C189      1.0  0.58063  0.55091  0.85625  1.0000
  C  Sn122     1.0  0.56486  0.57535  0.92409  1.0000
  C  Sn123     1.0  0.57753  0.60393  0.91309  1.0000
  C   C190      1.0  0.60571  0.60746  0.83455  1.0000
  C  Sn124     1.0  0.62150  0.58304  0.76669  1.0000
  O  Te121     1.0  0.62419  0.52971  0.71075  1.0000
  O  Te122     1.0  0.56578  0.57394  0.00208  1.0000
  O  Te123     1.0  0.56214  0.62868  0.98013  1.0000
  O  Te124     1.0  0.64964  0.58712  0.68872  1.0000
  Mg  Mg61      1.0  0.55357  0.61450  0.07406  1.0000
  Mg  Mg62      1.0  0.66186  0.54659  0.61662  1.0000
  C  Sn125     1.0  0.42157  0.59646  0.50440  1.0000
  C   C191      1.0  0.39403  0.60056  0.59210  1.0000
  C  Sn126     1.0  0.38282  0.58194  0.73054  1.0000
  C  Sn127     1.0  0.39950  0.55874  0.78248  1.0000
  C   C192      1.0  0.42702  0.55465  0.69482  1.0000
  C  Sn128     1.0  0.43825  0.57326  0.55634  1.0000
  O  Te125     1.0  0.43235  0.61534  0.36637  1.0000
  O  Te126     1.0  0.35523  0.58647  0.81619  1.0000
  O  Te127     1.0  0.38870  0.53985  0.92063  1.0000
  O  Te128     1.0  0.46582  0.56874  0.47073  1.0000
  Mg  Mg63      1.0  0.35000  0.55493  0.99662  1.0000
  Mg  Mg64      1.0  0.47108  0.60027  0.29036  1.0000
