data_image0
_chemical_formula_structural       H56C128S8N32C2Sn2C2HTe2HMgC2Sn2C2HTe2HMgC2Sn2C2HTe2HMgC2Sn2C2HTe2HMgC2Sn2C2HTe2HMgC2Sn2C2HTe2HMgC2Sn2C2HTe2HMgC2Sn2C2HTe2HMgC2Sn2C2HTe2HMgC2Sn2C2HTe2HMgC2Sn2C2HTe2HMgC2Sn2C2HTe2HMgC2Sn2C2HTe2HMgC2Sn2C2HTe2HMgC2Sn2C2HTe2HMgC2Sn2C2HTe2HMgC2Sn2C2HTe2HMgC2Sn2C2HTe2HMgC2Sn2C2HTe2HMgC2Sn2C2HTe2HMgC2Sn2C2HTe2HMgC2Sn2C2HTe2HMgC2Sn2C2HTe2HMgC2Sn2C2HTe2HMgC2Sn2C2HTe2HMgC2Sn2C2HTe2HMgC2Sn2C2HTe2HMgC2Sn2C2HTe2HMgC2Sn2C2HTe2HMgC2Sn2C2HTe2HMgC2Sn2C2HTe2HMgC2Sn2C2HTe2HMg
_chemical_formula_sum              "H120 C256 S8 N32 Sn64 Te64 Mg32"
_cell_length_a       48.079
_cell_length_b       45.0896
_cell_length_c       7.91599
_cell_angle_alpha    91.3242
_cell_angle_beta     79.1081
_cell_angle_gamma    90.0822

_symmetry_space_group_name_H-M    'P1'
_space_group_IT_number       1

loop_
  _space_group_symop_operation_xyz
  'x, y, z'

loop_
  _atom_site_type_symbol
  _atom_site_label
  _atom_site_symmetry_multiplicity
  _atom_site_fract_x
  _atom_site_fract_y
  _atom_site_fract_z
  _atom_site_occupancy
  H   H1        1.0  0.26402  0.79756  0.12324  1.0000
  H   H2        1.0  0.73480  0.79753  0.38202  1.0000
  H   H3        1.0  0.73678  0.20354  0.37559  1.0000
  H   H4        1.0  0.26421  0.20280  0.10475  1.0000
  H   H5        1.0  0.29834  0.75659  0.09474  1.0000
  H   H6        1.0  0.70157  0.75558  0.40977  1.0000
  H   H7        1.0  0.70228  0.24440  0.40799  1.0000
  H   H8        1.0  0.29764  0.24450  0.08265  1.0000
  H   H9        1.0  0.11758  0.85124  0.42662  1.0000
  H   H10       1.0  0.87989  0.85204  0.07446  1.0000
  H   H11       1.0  0.88202  0.14885  0.07203  1.0000
  H   H12       1.0  0.12061  0.14774  0.42365  1.0000
  H   H13       1.0  0.38075  0.35241  0.05082  1.0000
  H   H14       1.0  0.61681  0.35214  0.43855  1.0000
  H   H15       1.0  0.61851  0.64856  0.44101  1.0000
  H   H16       1.0  0.38377  0.64893  0.05301  1.0000
  H   H17       1.0  0.52393  0.57570  0.28085  1.0000
  H   H18       1.0  0.47692  0.57574  0.20888  1.0000
  H   H19       1.0  0.47600  0.42501  0.20663  1.0000
  H   H20       1.0  0.52258  0.42496  0.28565  1.0000
  H   H21       1.0  0.02266  0.92467  0.28746  1.0000
  H   H22       1.0  0.97572  0.92482  0.21345  1.0000
  H   H23       1.0  0.97633  0.07570  0.22718  1.0000
  H   H24       1.0  0.02342  0.07543  0.29875  1.0000
  H   H25       1.0  0.08909  0.99976  0.38288  1.0000
  H   H26       1.0  0.90953  0.00072  0.13505  1.0000
  H   H27       1.0  0.41034  0.50031  0.11730  1.0000
  H   H28       1.0  0.58956  0.50036  0.37085  1.0000
  H   H29       1.0  0.26437  0.79760  0.63342  1.0000
  H   H30       1.0  0.73648  0.79650  0.87932  1.0000
  H   H31       1.0  0.73707  0.20479  0.88803  1.0000
  H   H32       1.0  0.26530  0.20055  0.60666  1.0000
  H   H33       1.0  0.29817  0.75616  0.59900  1.0000
  H   H34       1.0  0.70308  0.75472  0.90810  1.0000
  H   H35       1.0  0.70320  0.24624  0.92082  1.0000
  H   H36       1.0  0.29918  0.24182  0.58649  1.0000
  H   H37       1.0  0.11786  0.85118  0.92943  1.0000
  H   H38       1.0  0.88042  0.85182  0.56668  1.0000
  H   H39       1.0  0.88191  0.14857  0.58479  1.0000
  H   H40       1.0  0.11959  0.14785  0.92477  1.0000
  H   H41       1.0  0.38359  0.34928  0.56286  1.0000
  H   H42       1.0  0.61776  0.35259  0.94176  1.0000
  H   H43       1.0  0.61860  0.64821  0.94493  1.0000
  H   H44       1.0  0.38246  0.64703  0.54750  1.0000
  H   H45       1.0  0.52331  0.57539  0.78493  1.0000
  H   H46       1.0  0.47657  0.57498  0.70819  1.0000
  H   H47       1.0  0.47644  0.42424  0.71131  1.0000
  H   H48       1.0  0.52277  0.42470  0.79289  1.0000
  H   H49       1.0  0.02222  0.92431  0.79057  1.0000
  H   H50       1.0  0.97543  0.92459  0.71523  1.0000
  H   H51       1.0  0.97678  0.07538  0.72057  1.0000
  H   H52       1.0  0.02375  0.07511  0.79306  1.0000
  H   H53       1.0  0.08882  0.99953  0.88666  1.0000
  H   H54       1.0  0.90957  0.00028  0.63394  1.0000
  H   H55       1.0  0.41166  0.49910  0.60016  1.0000
  H   H56       1.0  0.58968  0.50063  0.87114  1.0000
  C   C1        1.0  0.02696  0.97242  0.29894  1.0000
  C   C2        1.0  0.97154  0.97265  0.21198  1.0000
  C   C3        1.0  0.97188  0.02789  0.21612  1.0000
  C   C4        1.0  0.02730  0.02761  0.30130  1.0000
  C   C5        1.0  0.01234  0.94563  0.27347  1.0000
  C   C6        1.0  0.98603  0.94574  0.23214  1.0000
  C   C7        1.0  0.98657  0.05469  0.24059  1.0000
  C   C8        1.0  0.01295  0.05457  0.28079  1.0000
  C   C9        1.0  0.05485  0.97252  0.33497  1.0000
  C   C10       1.0  0.94357  0.97307  0.17725  1.0000
  C   C11       1.0  0.94394  0.02785  0.18110  1.0000
  C   C12       1.0  0.05525  0.02723  0.33574  1.0000
  C   C13       1.0  0.25704  0.77640  0.17957  1.0000
  C   C14       1.0  0.74227  0.77618  0.32391  1.0000
  C   C15       1.0  0.74362  0.22484  0.32060  1.0000
  C   C16       1.0  0.25701  0.22381  0.16842  1.0000
  C   C17       1.0  0.27679  0.75276  0.16261  1.0000
  C   C18       1.0  0.72314  0.75205  0.34008  1.0000
  C   C19       1.0  0.72375  0.24839  0.33936  1.0000
  C   C20       1.0  0.27623  0.24786  0.15508  1.0000
  C   C21       1.0  0.26971  0.72457  0.22315  1.0000
  C   C22       1.0  0.73085  0.72372  0.27601  1.0000
  C   C23       1.0  0.73071  0.27670  0.28057  1.0000
  C   C24       1.0  0.26874  0.27594  0.22412  1.0000
  C   C25       1.0  0.24110  0.72094  0.31094  1.0000
  C   C26       1.0  0.75946  0.72025  0.18689  1.0000
  C   C27       1.0  0.75928  0.28055  0.19266  1.0000
  C   C28       1.0  0.24030  0.27901  0.31699  1.0000
  C   C29       1.0  0.22078  0.74518  0.32788  1.0000
  C   C30       1.0  0.77911  0.74497  0.17065  1.0000
  C   C31       1.0  0.77969  0.25640  0.17364  1.0000
  C   C32       1.0  0.22060  0.25427  0.33171  1.0000
  C   C33       1.0  0.22880  0.77361  0.25821  1.0000
  C   C34       1.0  0.77044  0.77361  0.24259  1.0000
  C   C35       1.0  0.77183  0.22787  0.24195  1.0000
  C   C36       1.0  0.22899  0.22601  0.25304  1.0000
  C   C37       1.0  0.12721  0.87110  0.36142  1.0000
  C   C38       1.0  0.87031  0.87214  0.14323  1.0000
  C   C39       1.0  0.87245  0.12945  0.14243  1.0000
  C   C40       1.0  0.12960  0.12753  0.35358  1.0000
  C   C41       1.0  0.44460  0.52766  0.16465  1.0000
  C   C42       1.0  0.55568  0.52763  0.32278  1.0000
  C   C43       1.0  0.55525  0.47295  0.32554  1.0000
  C   C44       1.0  0.44418  0.47299  0.16512  1.0000
  C   C45       1.0  0.47245  0.52792  0.20096  1.0000
  C   C46       1.0  0.52781  0.52789  0.28712  1.0000
  C   C47       1.0  0.52734  0.47271  0.28972  1.0000
  C   C48       1.0  0.47207  0.47277  0.20077  1.0000
  C   C49       1.0  0.48713  0.55478  0.22395  1.0000
  C   C50       1.0  0.51348  0.55477  0.26460  1.0000
  C   C51       1.0  0.51252  0.44589  0.26780  1.0000
  C   C52       1.0  0.48635  0.44593  0.22435  1.0000
  C   C53       1.0  0.37127  0.37219  0.12369  1.0000
  C   C54       1.0  0.62686  0.37204  0.37587  1.0000
  C   C55       1.0  0.62799  0.62842  0.37242  1.0000
  C   C56       1.0  0.37377  0.62928  0.11883  1.0000
  C   C57       1.0  0.01322  0.00006  0.27948  1.0000
  C   C58       1.0  0.98556  0.00019  0.23515  1.0000
  C   C59       1.0  0.06798  0.99984  0.35211  1.0000
  C   C60       1.0  0.93076  0.00055  0.16399  1.0000
  C   C61       1.0  0.48613  0.50033  0.22211  1.0000
  C   C62       1.0  0.51375  0.50029  0.26684  1.0000
  C   C63       1.0  0.43139  0.50032  0.14888  1.0000
  C   C64       1.0  0.56846  0.50032  0.33989  1.0000
  C   C65       1.0  0.02683  0.97210  0.80000  1.0000
  C   C66       1.0  0.97148  0.97241  0.71278  1.0000
  C   C67       1.0  0.97189  0.02762  0.71538  1.0000
  C   C68       1.0  0.02732  0.02727  0.80125  1.0000
  C   C69       1.0  0.01211  0.94532  0.77542  1.0000
  C   C70       1.0  0.98583  0.94547  0.73368  1.0000
  C   C71       1.0  0.98682  0.05438  0.73706  1.0000
  C   C72       1.0  0.01319  0.05421  0.77749  1.0000
  C   C73       1.0  0.05468  0.97217  0.83664  1.0000
  C   C74       1.0  0.94358  0.97281  0.67725  1.0000
  C   C75       1.0  0.94388  0.02752  0.68130  1.0000
  C   C76       1.0  0.05515  0.02685  0.83753  1.0000
  C   C77       1.0  0.25709  0.77627  0.68621  1.0000
  C   C78       1.0  0.74379  0.77515  0.82065  1.0000
  C   C79       1.0  0.74400  0.22574  0.82868  1.0000
  C   C80       1.0  0.25819  0.22168  0.66923  1.0000
  C   C81       1.0  0.27660  0.75235  0.66648  1.0000
  C   C82       1.0  0.72455  0.75114  0.83694  1.0000
  C   C83       1.0  0.72448  0.24962  0.84775  1.0000
  C   C84       1.0  0.27769  0.24549  0.65696  1.0000
  C   C85       1.0  0.26928  0.72398  0.72343  1.0000
  C   C86       1.0  0.73200  0.72283  0.77165  1.0000
  C   C87       1.0  0.73156  0.27752  0.78280  1.0000
  C   C88       1.0  0.27041  0.27367  0.72536  1.0000
  C   C89       1.0  0.24055  0.72047  0.80995  1.0000
  C   C90       1.0  0.76054  0.71934  0.68064  1.0000
  C   C91       1.0  0.76000  0.28088  0.69198  1.0000
  C   C92       1.0  0.24177  0.27723  0.81424  1.0000
  C   C93       1.0  0.22051  0.74503  0.83033  1.0000
  C   C94       1.0  0.78037  0.74395  0.66499  1.0000
  C   C95       1.0  0.78010  0.25646  0.67344  1.0000
  C   C96       1.0  0.22179  0.25279  0.82716  1.0000
  C   C97       1.0  0.22881  0.77364  0.76430  1.0000
  C   C98       1.0  0.77194  0.77253  0.73905  1.0000
  C   C99       1.0  0.77198  0.22814  0.74430  1.0000
  C   C100      1.0  0.23004  0.22430  0.75114  1.0000
  C   C101      1.0  0.12739  0.87110  0.86430  1.0000
  C   C102      1.0  0.87086  0.87190  0.63549  1.0000
  C   C103      1.0  0.87195  0.12899  0.65152  1.0000
  C   C104      1.0  0.12875  0.12755  0.85638  1.0000
  C   C105      1.0  0.44491  0.52675  0.65885  1.0000
  C   C106      1.0  0.55552  0.52762  0.82491  1.0000
  C   C107      1.0  0.55533  0.47294  0.82914  1.0000
  C   C108      1.0  0.44501  0.47200  0.65770  1.0000
  C   C109      1.0  0.47251  0.52715  0.69919  1.0000
  C   C110      1.0  0.52763  0.52765  0.78937  1.0000
  C   C111      1.0  0.52742  0.47249  0.79340  1.0000
  C   C112      1.0  0.47250  0.47197  0.69951  1.0000
  C   C113      1.0  0.48686  0.55413  0.72441  1.0000
  C   C114      1.0  0.51308  0.55438  0.76699  1.0000
  C   C115      1.0  0.51274  0.44553  0.77272  1.0000
  C   C116      1.0  0.48672  0.44528  0.72732  1.0000
  C   C117      1.0  0.37346  0.36963  0.62555  1.0000
  C   C118      1.0  0.62746  0.37229  0.87499  1.0000
  C   C119      1.0  0.62822  0.62811  0.87645  1.0000
  C   C120      1.0  0.37273  0.62772  0.61831  1.0000
  C   C121      1.0  0.01318  0.99976  0.77978  1.0000
  C   C122      1.0  0.98553  0.99993  0.73533  1.0000
  C   C123      1.0  0.06781  0.99947  0.85446  1.0000
  C   C124      1.0  0.93073  0.00022  0.66390  1.0000
  C   C125      1.0  0.48627  0.49968  0.72191  1.0000
  C   C126      1.0  0.51375  0.49993  0.76880  1.0000
  C   C127      1.0  0.43227  0.49928  0.63788  1.0000
  C   C128      1.0  0.56849  0.50039  0.84159  1.0000
  S   S1        1.0  0.80250  0.29790  0.02349  1.0000
  S   S2        1.0  0.19713  0.29503  0.49850  1.0000
  S   S3        1.0  0.19779  0.70405  0.48153  1.0000
  S   S4        1.0  0.80297  0.70365  0.01190  1.0000
  S   S5        1.0  0.80325  0.29749  0.51968  1.0000
  S   S6        1.0  0.19827  0.29407  0.98847  1.0000
  S   S7        1.0  0.19703  0.70370  0.97904  1.0000
  S   S8        1.0  0.80385  0.70275  0.50264  1.0000
  N   N1        1.0  0.15392  0.87235  0.29727  1.0000
  N   N2        1.0  0.84365  0.87348  0.20930  1.0000
  N   N3        1.0  0.84582  0.12864  0.20910  1.0000
  N   N4        1.0  0.15603  0.12581  0.28254  1.0000
  N   N5        1.0  0.65477  0.62654  0.31127  1.0000
  N   N6        1.0  0.34693  0.62804  0.17823  1.0000
  N   N7        1.0  0.34469  0.37350  0.19100  1.0000
  N   N8        1.0  0.65382  0.37354  0.32057  1.0000
  N   N9        1.0  0.80526  0.26362  0.07928  1.0000
  N   N10       1.0  0.19516  0.26073  0.43244  1.0000
  N   N11       1.0  0.19516  0.73815  0.42240  1.0000
  N   N12       1.0  0.80479  0.73819  0.07373  1.0000
  N   N13       1.0  0.76984  0.30549  0.11230  1.0000
  N   N14       1.0  0.22928  0.30359  0.40675  1.0000
  N   N15       1.0  0.23043  0.69622  0.39333  1.0000
  N   N16       1.0  0.77067  0.69533  0.10163  1.0000
  N   N17       1.0  0.15418  0.87265  0.80262  1.0000
  N   N18       1.0  0.84426  0.87316  0.70295  1.0000
  N   N19       1.0  0.84517  0.12824  0.71430  1.0000
  N   N20       1.0  0.15525  0.12562  0.78742  1.0000
  N   N21       1.0  0.65500  0.62630  0.81510  1.0000
  N   N22       1.0  0.34599  0.62679  0.68143  1.0000
  N   N23       1.0  0.34664  0.37115  0.68605  1.0000
  N   N24       1.0  0.65431  0.37383  0.81584  1.0000
  N   N25       1.0  0.80566  0.26328  0.57748  1.0000
  N   N26       1.0  0.19613  0.25973  0.92385  1.0000
  N   N27       1.0  0.19485  0.73814  0.92482  1.0000
  N   N28       1.0  0.80591  0.73717  0.56638  1.0000
  N   N29       1.0  0.77073  0.30557  0.60930  1.0000
  N   N30       1.0  0.23078  0.30207  0.90133  1.0000
  N   N31       1.0  0.22955  0.69560  0.88941  1.0000
  N   N32       1.0  0.77153  0.69454  0.59300  1.0000
  C   C129      1.0  0.07355  0.90023  0.46295  1.0000
  C   C130      1.0  0.10080  0.89476  0.36919  1.0000
  C  Sn1       1.0  0.11484  0.91631  0.26096  1.0000
  C  Sn2       1.0  0.10130  0.94383  0.24664  1.0000
  C   C131      1.0  0.07405  0.94910  0.34107  1.0000
  C   C132      1.0  0.06019  0.92737  0.44894  1.0000
  H   H57       1.0  0.06283  0.88343  0.54649  1.0000
  O  Te1       1.0  0.14205  0.91047  0.16816  1.0000
  O  Te2       1.0  0.11486  0.96576  0.13947  1.0000
  H   H58       1.0  0.03910  0.93163  0.52160  1.0000
  Mg  Mg1       1.0  0.15183  0.94734  0.03911  1.0000
  C   C133      1.0  0.93440  0.91281  0.05335  1.0000
  C   C134      1.0  0.92839  0.94061  0.13362  1.0000
  C  Sn3       1.0  0.90185  0.94631  0.23601  1.0000
  C  Sn4       1.0  0.88098  0.92372  0.25824  1.0000
  C   C135      1.0  0.88721  0.89598  0.17748  1.0000
  C   C136      1.0  0.91384  0.89052  0.07526  1.0000
  H   H59       1.0  0.92390  0.91258  0.97433  1.0000
  O  Te3       1.0  0.89619  0.97421  0.31524  1.0000
  O  Te4       1.0  0.85429  0.92882  0.35993  1.0000
  H   H60       1.0  0.91849  0.86899  0.01321  1.0000
  Mg  Mg2       1.0  0.85668  0.97044  0.44129  1.0000
  C   C137      1.0  0.93574  0.08682  0.05233  1.0000
  C   C138      1.0  0.93049  0.06176  0.15407  1.0000
  C  Sn5       1.0  0.90389  0.05758  0.25740  1.0000
  C  Sn6       1.0  0.88217  0.07890  0.25860  1.0000
  C   C139      1.0  0.88763  0.10388  0.15627  1.0000
  C   C140      1.0  0.91433  0.10786  0.05339  1.0000
  H   H61       1.0  0.92529  0.09390  0.97265  1.0000
  O  Te5       1.0  0.89901  0.03242  0.35831  1.0000
  O  Te6       1.0  0.85539  0.07526  0.36063  1.0000
  H   H62       1.0  0.88728  0.13126  0.97454  1.0000
  Mg  Mg3       1.0  0.85904  0.03733  0.47588  1.0000
  C   C141      1.0  0.10764  0.05703  0.22518  1.0000
  C   C142      1.0  0.08055  0.05270  0.32220  1.0000
  C  Sn7       1.0  0.06737  0.07513  0.43368  1.0000
  C  Sn8       1.0  0.08164  0.10238  0.44798  1.0000
  C   C143      1.0  0.10873  0.10650  0.35028  1.0000
  C   C144      1.0  0.12172  0.08390  0.23917  1.0000
  H   H63       1.0  0.11769  0.03956  0.13914  1.0000
  O  Te7       1.0  0.04030  0.07043  0.52971  1.0000
  O  Te8       1.0  0.06896  0.12517  0.55836  1.0000
  H   H64       1.0  0.14269  0.08727  0.16398  1.0000
  Mg  Mg4       1.0  0.03184  0.10818  0.66243  1.0000
  C   C145      1.0  0.21554  0.83529  0.32914  1.0000
  C   C146      1.0  0.21091  0.80537  0.29378  1.0000
  C  Sn9       1.0  0.18564  0.79644  0.24550  1.0000
  C  Sn10      1.0  0.16465  0.81791  0.23245  1.0000
  C   C147      1.0  0.16948  0.84779  0.26798  1.0000
  C   C148      1.0  0.19485  0.85648  0.31623  1.0000
  H   H65       1.0  0.23517  0.84203  0.36639  1.0000
  O  Te9       1.0  0.18136  0.76645  0.21069  1.0000
  O  Te10      1.0  0.13920  0.80959  0.18441  1.0000
  H   H66       1.0  0.19843  0.87965  0.34350  1.0000
  Mg  Mg5       1.0  0.14323  0.76605  0.15008  1.0000
  C   C149      1.0  0.82440  0.79885  0.26885  1.0000
  C   C150      1.0  0.79639  0.79775  0.24428  1.0000
  C  Sn11      1.0  0.78359  0.82294  0.19295  1.0000
  C  Sn12      1.0  0.79918  0.84970  0.16577  1.0000
  C   C151      1.0  0.82721  0.85058  0.19058  1.0000
  C   C152      1.0  0.83980  0.82524  0.24201  1.0000
  H   H67       1.0  0.83416  0.77925  0.30855  1.0000
  O  Te11      1.0  0.75558  0.82145  0.16904  1.0000
  O  Te12      1.0  0.78691  0.87521  0.11437  1.0000
  H   H68       1.0  0.86150  0.82610  0.26091  1.0000
  Mg  Mg6       1.0  0.74815  0.86211  0.09857  1.0000
  C   C153      1.0  0.79477  0.15322  0.16327  1.0000
  C   C154      1.0  0.82243  0.15231  0.19410  1.0000
  C  Sn13      1.0  0.83468  0.17774  0.25246  1.0000
  C  Sn14      1.0  0.81890  0.20455  0.28040  1.0000
  C   C155      1.0  0.79123  0.20523  0.24929  1.0000
  C   C156      1.0  0.77918  0.17965  0.19086  1.0000
  H   H69       1.0  0.78543  0.13343  0.11815  1.0000
  O  Te13      1.0  0.86234  0.17644  0.28255  1.0000
  O  Te14      1.0  0.83062  0.23029  0.33874  1.0000
  H   H70       1.0  0.75776  0.18036  0.16711  1.0000
  Mg  Mg7       1.0  0.86907  0.21739  0.36132  1.0000
  C   C157      1.0  0.17606  0.19984  0.21002  1.0000
  C   C158      1.0  0.20208  0.20231  0.26348  1.0000
  C  Sn15      1.0  0.21461  0.17740  0.32003  1.0000
  C  Sn16      1.0  0.20080  0.14954  0.32293  1.0000
  C   C159      1.0  0.17479  0.14730  0.26908  1.0000
  C   C160      1.0  0.16243  0.17237  0.21278  1.0000
  H   H71       1.0  0.16651  0.21923  0.16637  1.0000
  O  Te15      1.0  0.24060  0.18026  0.37305  1.0000
  O  Te16      1.0  0.21286  0.12429  0.37879  1.0000
  H   H72       1.0  0.14230  0.17045  0.17130  1.0000
  Mg  Mg8       1.0  0.24855  0.13943  0.43839  1.0000
  C   C161      1.0  0.32396  0.70157  0.25677  1.0000
  C   C162      1.0  0.29765  0.70224  0.20625  1.0000
  C  Sn17      1.0  0.28645  0.67641  0.14496  1.0000
  C  Sn18      1.0  0.30192  0.64945  0.13422  1.0000
  C   C163      1.0  0.32822  0.64900  0.18519  1.0000
  C   C164      1.0  0.33923  0.67498  0.24629  1.0000
  H   H73       1.0  0.33247  0.72166  0.30413  1.0000
  O  Te17      1.0  0.26013  0.67748  0.09497  1.0000
  O  Te18      1.0  0.29122  0.62331  0.07350  1.0000
  H   H74       1.0  0.35959  0.67444  0.28549  1.0000
  Mg  Mg9       1.0  0.25446  0.63602  0.02070  1.0000
  C   C165      1.0  0.71584  0.66337  0.36327  1.0000
  C   C166      1.0  0.71376  0.69164  0.29788  1.0000
  C  Sn19      1.0  0.68914  0.70024  0.24226  1.0000
  C  Sn20      1.0  0.66620  0.68012  0.25250  1.0000
  C   C167      1.0  0.66847  0.65189  0.31824  1.0000
  C   C168      1.0  0.69321  0.64352  0.37348  1.0000
  H   H75       1.0  0.73497  0.65690  0.40611  1.0000
  O  Te19      1.0  0.68742  0.72856  0.17721  1.0000
  O  Te20      1.0  0.64133  0.68814  0.19787  1.0000
  H   H76       1.0  0.69481  0.62163  0.42421  1.0000
  Mg  Mg10      1.0  0.64914  0.72919  0.11887  1.0000
  C   C169      1.0  0.71528  0.33758  0.36735  1.0000
  C   C170      1.0  0.71177  0.30779  0.32357  1.0000
  C  Sn21      1.0  0.68726  0.29859  0.26681  1.0000
  C  Sn22      1.0  0.66592  0.31965  0.25371  1.0000
  C   C171      1.0  0.66965  0.34941  0.29769  1.0000
  C   C172      1.0  0.69425  0.35837  0.35441  1.0000
  H   H77       1.0  0.73432  0.34452  0.41114  1.0000
  O  Te21      1.0  0.68409  0.26874  0.22365  1.0000
  O  Te22      1.0  0.64123  0.31106  0.19728  1.0000
  H   H78       1.0  0.69697  0.38145  0.38818  1.0000
  Mg  Mg11      1.0  0.64668  0.26785  0.15340  1.0000
  C   C173      1.0  0.32341  0.29949  0.24785  1.0000
  C   C174      1.0  0.29526  0.29946  0.22563  1.0000
  C  Sn23      1.0  0.28324  0.32511  0.17384  1.0000
  C  Sn24      1.0  0.29977  0.35122  0.14380  1.0000
  C   C175      1.0  0.32792  0.35101  0.16627  1.0000
  C   C176      1.0  0.33973  0.32523  0.21818  1.0000
  H   H79       1.0  0.33256  0.27954  0.28792  1.0000
  O  Te23      1.0  0.25508  0.32470  0.15231  1.0000
  O  Te24      1.0  0.28829  0.37715  0.09189  1.0000
  H   H80       1.0  0.36153  0.32525  0.23526  1.0000
  Mg  Mg12      1.0  0.24895  0.36557  0.08003  1.0000
  C   C177      1.0  0.38215  0.42930  0.26454  1.0000
  C   C178      1.0  0.38664  0.40399  0.15757  1.0000
  C  Sn25      1.0  0.41291  0.39907  0.05032  1.0000
  C  Sn26      1.0  0.43505  0.41991  0.05048  1.0000
  C   C179      1.0  0.43034  0.44515  0.15806  1.0000
  C   C180      1.0  0.40397  0.44986  0.26482  1.0000
  H   H81       1.0  0.36175  0.43294  0.34722  1.0000
  O  Te25      1.0  0.38594  0.37768  0.94420  1.0000
  O  Te26      1.0  0.43041  0.41954  0.94461  1.0000
  H   H82       1.0  0.40050  0.46945  0.34771  1.0000
  Mg  Mg13      1.0  0.42572  0.38154  0.82282  1.0000
  C   C181      1.0  0.57309  0.40127  0.46517  1.0000
  C   C182      1.0  0.60059  0.39555  0.37601  1.0000
  C  Sn27      1.0  0.61508  0.41675  0.26703  1.0000
  C  Sn28      1.0  0.60173  0.44416  0.24723  1.0000
  C   C183      1.0  0.57422  0.44968  0.33709  1.0000
  C   C184      1.0  0.55991  0.42831  0.44577  1.0000
  H   H83       1.0  0.56202  0.38475  0.54933  1.0000
  O  Te27      1.0  0.64254  0.41067  0.17887  1.0000
  O  Te28      1.0  0.61573  0.46574  0.13919  1.0000
  H   H84       1.0  0.53862  0.43275  0.51487  1.0000
  Mg  Mg14      1.0  0.65290  0.44710  0.04649  1.0000
  C   C185      1.0  0.60794  0.55858  0.22456  1.0000
  C   C186      1.0  0.58058  0.55341  0.31565  1.0000
  C  Sn29      1.0  0.56650  0.57512  0.42886  1.0000
  C  Sn30      1.0  0.58010  0.60249  0.45100  1.0000
  C   C187      1.0  0.60747  0.60745  0.35919  1.0000
  C   C188      1.0  0.62137  0.58557  0.24627  1.0000
  H   H85       1.0  0.61869  0.54165  0.13712  1.0000
  O  Te29      1.0  0.53917  0.56958  0.51890  1.0000
  O  Te30      1.0  0.56651  0.62457  0.56328  1.0000
  H   H86       1.0  0.64255  0.58959  0.17568  1.0000
  Mg  Mg15      1.0  0.52938  0.60657  0.65713  1.0000
  C   C189      1.0  0.42784  0.60042  0.03707  1.0000
  C   C190      1.0  0.39903  0.60434  0.10459  1.0000
  C  Sn31      1.0  0.38406  0.58279  0.20863  1.0000
  C  Sn32      1.0  0.39826  0.55685  0.24557  1.0000
  C   C191      1.0  0.42710  0.55314  0.17750  1.0000
  C   C192      1.0  0.44187  0.57485  0.07350  1.0000
  H   H87       1.0  0.40818  0.62123  0.95668  1.0000
  O  Te31      1.0  0.35527  0.58706  0.27498  1.0000
  O  Te32      1.0  0.38381  0.53496  0.34923  1.0000
  H   H88       1.0  0.46419  0.57181  0.02133  1.0000
  Mg  Mg16      1.0  0.34475  0.55090  0.40956  1.0000
  C   C193      1.0  0.11683  0.92823  0.73776  1.0000
  C   C194      1.0  0.11196  0.90290  0.83748  1.0000
  C  Sn33      1.0  0.08535  0.89801  0.93925  1.0000
  C  Sn34      1.0  0.06325  0.91890  0.94091  1.0000
  C   C195      1.0  0.06833  0.94415  0.84059  1.0000
  C   C196      1.0  0.09503  0.94883  0.73927  1.0000
  H   H89       1.0  0.13748  0.93185  0.65928  1.0000
  O  Te33      1.0  0.11196  0.86859  0.03816  1.0000
  O  Te34      1.0  0.06756  0.91054  0.04140  1.0000
  H   H90       1.0  0.09879  0.96843  0.66198  1.0000
  Mg  Mg17      1.0  0.07181  0.87251  0.15415  1.0000
  C   C197      1.0  0.92438  0.90065  0.53487  1.0000
  C   C198      1.0  0.89728  0.89545  0.62965  1.0000
  C  Sn35      1.0  0.88349  0.91722  0.74361  1.0000
  C  Sn36      1.0  0.89713  0.94469  0.76273  1.0000
  C   C199      1.0  0.92423  0.94968  0.66723  1.0000
  C   C200      1.0  0.93784  0.92774  0.55360  1.0000
  H   H91       1.0  0.93491  0.88368  0.44688  1.0000
  O  Te35      1.0  0.85642  0.91165  0.83735  1.0000
  O  Te36      1.0  0.88382  0.96683  0.87567  1.0000
  H   H92       1.0  0.95881  0.93178  0.48016  1.0000
  Mg  Mg18      1.0  0.84698  0.94875  0.97506  1.0000
  C   C201      1.0  0.88126  0.07081  0.77030  1.0000
  C   C202      1.0  0.88760  0.09805  0.69151  1.0000
  C  Sn37      1.0  0.91441  0.10304  0.59255  1.0000
  C  Sn38      1.0  0.93522  0.08029  0.57229  1.0000
  C   C203      1.0  0.92866  0.05311  0.65155  1.0000
  C   C204      1.0  0.90177  0.04836  0.75033  1.0000
  H   H93       1.0  0.86045  0.06712  0.84666  1.0000
  O  Te37      1.0  0.92039  0.13039  0.51477  1.0000
  O  Te38      1.0  0.96218  0.08469  0.47404  1.0000
  H   H94       1.0  0.89686  0.02726  0.81123  1.0000
  Mg  Mg19      1.0  0.96018  0.12574  0.39350  1.0000
  C   C205      1.0  0.11773  0.06921  0.73560  1.0000
  C   C206      1.0  0.11214  0.09681  0.81905  1.0000
  C  Sn39      1.0  0.08594  0.10239  0.92571  1.0000
  C  Sn40      1.0  0.06500  0.07989  0.94906  1.0000
  C   C207      1.0  0.07081  0.05235  0.86510  1.0000
  C   C208      1.0  0.09709  0.04700  0.75861  1.0000
  H   H95       1.0  0.13807  0.06506  0.65328  1.0000
  O  Te39      1.0  0.11181  0.12609  0.00806  1.0000
  O  Te40      1.0  0.06975  0.08087  0.05499  1.0000
  H   H96       1.0  0.10142  0.02562  0.69411  1.0000
  Mg  Mg20      1.0  0.07266  0.12222  0.13946  1.0000
  C   C209      1.0  0.16575  0.81177  0.72570  1.0000
  C   C210      1.0  0.16823  0.84039  0.79271  1.0000
  C  Sn41      1.0  0.19282  0.84881  0.85101  1.0000
  C  Sn42      1.0  0.21532  0.82815  0.84185  1.0000
  C   C211      1.0  0.21264  0.79957  0.77448  1.0000
  C   C212      1.0  0.18793  0.79138  0.71655  1.0000
  H   H97       1.0  0.14664  0.80544  0.68079  1.0000
  O  Te41      1.0  0.19495  0.87749  0.91765  1.0000
  O  Te42      1.0  0.24014  0.83598  0.89915  1.0000
  H   H98       1.0  0.18602  0.76922  0.66457  1.0000
  Mg  Mg21      1.0  0.23299  0.87767  0.97951  1.0000
  C   C213      1.0  0.78367  0.83385  0.66849  1.0000
  C   C214      1.0  0.78908  0.80446  0.70483  1.0000
  C  Sn43      1.0  0.81447  0.79693  0.75486  1.0000
  C  Sn44      1.0  0.83477  0.81928  0.76870  1.0000
  C   C215      1.0  0.82915  0.84862  0.73218  1.0000
  C   C216      1.0  0.80368  0.85591  0.68217  1.0000
  H   H99       1.0  0.76396  0.83949  0.62988  1.0000
  O  Te43      1.0  0.81954  0.76746  0.79063  1.0000
  O  Te44      1.0  0.86032  0.81237  0.81849  1.0000
  H   H100      1.0  0.79949  0.87867  0.65415  1.0000
  Mg  Mg22      1.0  0.85749  0.76906  0.85358  1.0000
  C   C217      1.0  0.82559  0.20317  0.77821  1.0000
  C   C218      1.0  0.79929  0.20482  0.72806  1.0000
  C  Sn45      1.0  0.78669  0.17923  0.67437  1.0000
  C  Sn46      1.0  0.80073  0.15150  0.67099  1.0000
  C   C219      1.0  0.82702  0.15008  0.72153  1.0000
  C   C220      1.0  0.83944  0.17583  0.77498  1.0000
  H   H101      1.0  0.83520  0.22309  0.81966  1.0000
  O  Te45      1.0  0.76041  0.18127  0.62464  1.0000
  O  Te46      1.0  0.78861  0.12557  0.61795  1.0000
  H   H102      1.0  0.85979  0.17454  0.81390  1.0000
  Mg  Mg23      1.0  0.75250  0.13973  0.56232  1.0000
  C   C221      1.0  0.21669  0.16318  0.82354  1.0000
  C   C222      1.0  0.21348  0.19186  0.76649  1.0000
  C  Sn47      1.0  0.18813  0.20034  0.71931  1.0000
  C  Sn48      1.0  0.16560  0.17970  0.72962  1.0000
  C   C223      1.0  0.16902  0.15107  0.78697  1.0000
  C   C224      1.0  0.19448  0.14281  0.83381  1.0000
  H   H103      1.0  0.23639  0.15679  0.85987  1.0000
  O  Te47      1.0  0.18528  0.22907  0.66253  1.0000
  O  Te48      1.0  0.14003  0.18760  0.68333  1.0000
  H   H104      1.0  0.19695  0.12062  0.87808  1.0000
  Mg  Mg24      1.0  0.14636  0.22934  0.61379  1.0000
  C   C225      1.0  0.28471  0.66308  0.63223  1.0000
  C   C226      1.0  0.28694  0.69204  0.69494  1.0000
  C  Sn49      1.0  0.31175  0.70134  0.74779  1.0000
  C  Sn50      1.0  0.33471  0.68123  0.73746  1.0000
  C   C227      1.0  0.33228  0.65231  0.67443  1.0000
  C   C228      1.0  0.30736  0.64323  0.62195  1.0000
  H   H105      1.0  0.26544  0.65605  0.59154  1.0000
  O  Te49      1.0  0.31361  0.73035  0.81018  1.0000
  O  Te50      1.0  0.35975  0.68996  0.78935  1.0000
  H   H106      1.0  0.30564  0.62081  0.57330  1.0000
  Mg  Mg25      1.0  0.35211  0.73179  0.86533  1.0000
  C   C229      1.0  0.66638  0.68732  0.76044  1.0000
  C   C230      1.0  0.67026  0.65763  0.79746  1.0000
  C  Sn51      1.0  0.69554  0.64842  0.84286  1.0000
  C  Sn52      1.0  0.71730  0.66939  0.85130  1.0000
  C   C231      1.0  0.71321  0.69905  0.81415  1.0000
  C   C232      1.0  0.68783  0.70802  0.76880  1.0000
  H   H107      1.0  0.64675  0.69427  0.72545  1.0000
  O  Te51      1.0  0.69907  0.61867  0.87938  1.0000
  O  Te52      1.0  0.74277  0.66079  0.89640  1.0000
  H   H108      1.0  0.68483  0.73102  0.74025  1.0000
  Mg  Mg26      1.0  0.73755  0.61774  0.93465  1.0000
  C   C233      1.0  0.67705  0.30000  0.75114  1.0000
  C   C234      1.0  0.70474  0.30045  0.78174  1.0000
  C  Sn53      1.0  0.71591  0.32650  0.84050  1.0000
  C  Sn54      1.0  0.69899  0.35255  0.86909  1.0000
  C   C235      1.0  0.67131  0.35186  0.83822  1.0000
  C   C236      1.0  0.66034  0.32568  0.77937  1.0000
  H   H109      1.0  0.66856  0.27973  0.70571  1.0000
  O  Te53      1.0  0.74362  0.32657  0.87036  1.0000
  O  Te54      1.0  0.70962  0.37888  0.92786  1.0000
  H   H110      1.0  0.63890  0.32533  0.75580  1.0000
  Mg  Mg27      1.0  0.74861  0.36787  0.94988  1.0000
  C   C237      1.0  0.28475  0.33451  0.65235  1.0000
  C   C238      1.0  0.28887  0.30487  0.68958  1.0000
  C  Sn55      1.0  0.31395  0.29606  0.73893  1.0000
  C  Sn56      1.0  0.33527  0.31736  0.75116  1.0000
  C   C239      1.0  0.33094  0.34696  0.71375  1.0000
  C   C240      1.0  0.30576  0.35554  0.66444  1.0000
  H   H111      1.0  0.26526  0.34115  0.61428  1.0000
  O  Te55      1.0  0.31773  0.26635  0.77561  1.0000
  O  Te56      1.0  0.36054  0.30916  0.80024  1.0000
  H   H112      1.0  0.30257  0.37849  0.63573  1.0000
  Mg  Mg28      1.0  0.35580  0.26602  0.83706  1.0000
  C   C241      1.0  0.42697  0.39847  0.52870  1.0000
  C   C242      1.0  0.39956  0.39363  0.61993  1.0000
  C  Sn57      1.0  0.38510  0.41612  0.72539  1.0000
  C  Sn58      1.0  0.39839  0.44395  0.73948  1.0000
  C   C243      1.0  0.42581  0.44857  0.64759  1.0000
  C   C244      1.0  0.44009  0.42591  0.54247  1.0000
  H   H113      1.0  0.43801  0.38094  0.44730  1.0000
  O  Te57      1.0  0.35773  0.41091  0.81569  1.0000
  O  Te58      1.0  0.38442  0.46682  0.84390  1.0000
  H   H114      1.0  0.46130  0.42967  0.47177  1.0000
  Mg  Mg29      1.0  0.34737  0.44899  0.94149  1.0000
  C   C245      1.0  0.60822  0.44244  0.74300  1.0000
  C   C246      1.0  0.57939  0.44592  0.81167  1.0000
  C  Sn59      1.0  0.56494  0.42435  0.91803  1.0000
  C  Sn60      1.0  0.57967  0.39886  0.95616  1.0000
  C   C247      1.0  0.60852  0.39560  0.88694  1.0000
  C   C248      1.0  0.62277  0.41731  0.78061  1.0000
  H   H115      1.0  0.61926  0.45924  0.66081  1.0000
  O  Te59      1.0  0.53613  0.42817  0.98550  1.0000
  O  Te60      1.0  0.59685  0.37297  0.06215  1.0000
  H   H116      1.0  0.64510  0.41462  0.72756  1.0000
  Mg  Mg30      1.0  0.55754  0.38820  0.12325  1.0000
  C   C249      1.0  0.60789  0.55841  0.72692  1.0000
  C   C250      1.0  0.58043  0.55344  0.81694  1.0000
  C  Sn61      1.0  0.56643  0.57519  0.93022  1.0000
  C  Sn62      1.0  0.58024  0.60240  0.95351  1.0000
  C   C251      1.0  0.60771  0.60716  0.86276  1.0000
  C   C252      1.0  0.62153  0.58524  0.74977  1.0000
  H   H117      1.0  0.61858  0.54146  0.63942  1.0000
  O  Te61      1.0  0.57010  0.56586  0.01918  1.0000
  O  Te62      1.0  0.59784  0.62051  0.06588  1.0000
  H   H118      1.0  0.64279  0.58910  0.68001  1.0000
  Mg  Mg31      1.0  0.56050  0.60281  0.15801  1.0000
  C   C253      1.0  0.39245  0.55800  0.75670  1.0000
  C   C254      1.0  0.42006  0.55272  0.66797  1.0000
  C  Sn63      1.0  0.43438  0.57423  0.56065  1.0000
  C  Sn64      1.0  0.42075  0.60153  0.54211  1.0000
  C   C255      1.0  0.39313  0.60662  0.63152  1.0000
  C   C256      1.0  0.37900  0.58493  0.73853  1.0000
  H   H119      1.0  0.38152  0.54123  0.83957  1.0000
  O  Te63      1.0  0.46195  0.56859  0.47290  1.0000
  O  Te64      1.0  0.43457  0.62343  0.43573  1.0000
  H   H120      1.0  0.35763  0.58903  0.80730  1.0000
  Mg  Mg32      1.0  0.47199  0.60532  0.34296  1.0000
