data_image0
_chemical_formula_structural       H88C152N16C2Sn2C2HTe2HMgC2Sn2C2HTe2HMgC2Sn2C2HTe2HMgC2Sn2C2HTe2HMgC2Sn2C2HTe2HMgC2Sn2C2HTe2HMgC2Sn2C2HTe2HMgC2Sn2C2HTe2HMgC2Sn2C2HTe2HMgC2Sn2C2HTe2HMgC2Sn2C2HTe2HMgC2Sn2C2HTe2HMg
_chemical_formula_sum              "H112 C200 N16 Sn24 Te24 Mg12"
_cell_length_a       33.5593
_cell_length_b       34.7385
_cell_length_c       7.44134
_cell_angle_alpha    88.1198
_cell_angle_beta     71.0572
_cell_angle_gamma    88.9578

_symmetry_space_group_name_H-M    'P1'
_space_group_IT_number       1

loop_
  _space_group_symop_operation_xyz
  'x, y, z'

loop_
  _atom_site_type_symbol
  _atom_site_label
  _atom_site_symmetry_multiplicity
  _atom_site_fract_x
  _atom_site_fract_y
  _atom_site_fract_z
  _atom_site_occupancy
  H   H1        1.0  0.82360  0.30587  0.55778  1.0000
  H   H2        1.0  0.71682  0.37317  0.52896  1.0000
  H   H3        1.0  0.07732  0.72173  0.28143  1.0000
  H   H4        1.0  0.00429  0.71487  0.28622  1.0000
  H   H5        1.0  0.08462  0.53117  0.50285  1.0000
  H   H6        1.0  0.01120  0.52456  0.51761  1.0000
  H   H7        1.0  0.90292  0.61333  0.46863  1.0000
  H   H8        1.0  0.17857  0.63706  0.42319  1.0000
  H   H9        1.0  0.15053  0.53468  0.20741  1.0000
  H   H10       1.0  0.20069  0.48170  0.21764  1.0000
  H   H11       1.0  0.22409  0.53414  0.68895  1.0000
  H   H12       1.0  0.17395  0.58724  0.67860  1.0000
  H   H13       1.0  0.20578  0.68454  0.21448  1.0000
  H   H14       1.0  0.24250  0.74516  0.22166  1.0000
  H   H15       1.0  0.12569  0.79596  0.55900  1.0000
  H   H16       1.0  0.08891  0.73416  0.56190  1.0000
  H   H17       1.0  0.20636  0.43039  0.42802  1.0000
  H   H18       1.0  0.81351  0.46572  0.57158  1.0000
  H   H19       1.0  0.85989  0.36582  0.59569  1.0000
  H   H20       1.0  0.31531  0.84630  0.05854  1.0000
  H   H21       1.0  0.21334  0.86987  0.57175  1.0000
  H   H22       1.0  0.75295  0.43299  0.56807  1.0000
  H   H23       1.0  0.25326  0.80666  0.14315  1.0000
  H   H24       1.0  0.87955  0.81566  0.29639  1.0000
  H   H25       1.0  0.35628  0.90062  0.12269  1.0000
  H   H26       1.0  0.25415  0.92414  0.63386  1.0000
  H   H27       1.0  0.76646  0.27377  0.51462  1.0000
  H   H28       1.0  0.69038  0.91700  0.48485  1.0000
  H   H29       1.0  0.37634  0.32829  0.55417  1.0000
  H   H30       1.0  0.41579  0.28085  0.34745  1.0000
  H   H31       1.0  0.46486  0.22559  0.32138  1.0000
  H   H32       1.0  0.36997  0.16426  0.76326  1.0000
  H   H33       1.0  0.32034  0.21968  0.78801  1.0000
  H   H34       1.0  0.34688  0.00104  0.64281  1.0000
  H   H35       1.0  0.38654  0.05685  0.68406  1.0000
  H   H36       1.0  0.47917  0.03928  0.13611  1.0000
  H   H37       1.0  0.43831  0.98314  0.09232  1.0000
  H   H38       1.0  0.39983  0.12074  0.48661  1.0000
  H   H39       1.0  0.56233  0.21883  0.58945  1.0000
  H   H40       1.0  0.48867  0.21661  0.60547  1.0000
  H   H41       1.0  0.51192  0.02762  0.38037  1.0000
  H   H42       1.0  0.58527  0.02946  0.38066  1.0000
  H   H43       1.0  0.67813  0.12775  0.41844  1.0000
  H   H44       1.0  0.31380  0.96323  0.55270  1.0000
  H   H45       1.0  0.21252  0.19770  0.08262  1.0000
  H   H46       1.0  0.11217  0.26591  0.99264  1.0000
  H   H47       1.0  0.22351  0.82907  0.80230  1.0000
  H   H48       1.0  0.11948  0.75042  0.94635  1.0000
  H   H49       1.0  0.47809  0.61226  0.73501  1.0000
  H   H50       1.0  0.40309  0.60627  0.76946  1.0000
  H   H51       1.0  0.49325  0.41757  0.81810  1.0000
  H   H52       1.0  0.41942  0.41202  0.84481  1.0000
  H   H53       1.0  0.30402  0.50353  0.94631  1.0000
  H   H54       1.0  0.58526  0.52429  0.79320  1.0000
  H   H55       1.0  0.29239  0.45590  0.80854  1.0000
  H   H56       1.0  0.25046  0.39804  0.86526  1.0000
  H   H57       1.0  0.33121  0.34362  0.14485  1.0000
  H   H58       1.0  0.37283  0.40312  0.09705  1.0000
  H   H59       1.0  0.61028  0.31626  0.86685  1.0000
  H   H60       1.0  0.20978  0.35766  0.03154  1.0000
  H   H61       1.0  0.25200  0.25775  0.09241  1.0000
  H   H62       1.0  0.15175  0.32586  0.00101  1.0000
  H   H63       1.0  0.67271  0.67062  0.73813  1.0000
  H   H64       1.0  0.27356  0.77314  0.75201  1.0000
  H   H65       1.0  0.16942  0.69463  0.89524  1.0000
  H   H66       1.0  0.28744  0.70664  0.77460  1.0000
  H   H67       1.0  0.15426  0.16561  0.04485  1.0000
  H   H68       1.0  0.10480  0.81625  0.94551  1.0000
  H   H69       1.0  0.77866  0.21561  0.01552  1.0000
  H   H70       1.0  0.81249  0.16250  0.75152  1.0000
  H   H71       1.0  0.86161  0.10674  0.71796  1.0000
  H   H72       1.0  0.78126  0.05788  0.24664  1.0000
  H   H73       1.0  0.73154  0.11245  0.27536  1.0000
  H   H74       1.0  0.74279  0.89647  0.02079  1.0000
  H   H75       1.0  0.77933  0.95328  0.06965  1.0000
  H   H76       1.0  0.89464  0.91361  0.66196  1.0000
  H   H77       1.0  0.85852  0.85334  0.63354  1.0000
  H   H78       1.0  0.80529  0.00719  0.91302  1.0000
  H   H79       1.0  0.96337  0.11013  0.02346  1.0000
  H   H80       1.0  0.89024  0.10620  0.02327  1.0000
  H   H81       1.0  0.91242  0.91270  0.91958  1.0000
  H   H82       1.0  0.98473  0.91627  0.92402  1.0000
  H   H83       1.0  0.07682  0.01986  0.94028  1.0000
  H   H84       1.0  0.07263  0.86419  0.13447  1.0000
  H   H85       1.0  0.01952  0.91608  0.16193  1.0000
  H   H86       1.0  0.10269  0.97343  0.66449  1.0000
  H   H87       1.0  0.15591  0.92089  0.63447  1.0000
  H   H88       1.0  0.72024  0.86044  0.84679  1.0000
  C   C1        1.0  0.80826  0.33385  0.56021  1.0000
  C   C2        1.0  0.76804  0.33572  0.53747  1.0000
  C   C3        1.0  0.74809  0.37193  0.54292  1.0000
  C   C4        1.0  0.76838  0.40505  0.56504  1.0000
  C   C5        1.0  0.74828  0.30029  0.51065  1.0000
  C   C6        1.0  0.72368  0.92543  0.42542  1.0000
  C   C7        1.0  0.06101  0.69461  0.32769  1.0000
  C   C8        1.0  0.02030  0.69079  0.33073  1.0000
  C   C9        1.0  0.99802  0.65545  0.38968  1.0000
  C   C10       1.0  0.02079  0.62227  0.42521  1.0000
  C   C11       1.0  0.06393  0.62607  0.41561  1.0000
  C   C12       1.0  0.08337  0.66322  0.38101  1.0000
  C   C13       1.0  0.08753  0.59278  0.44203  1.0000
  C   C14       1.0  0.06695  0.55636  0.48028  1.0000
  C   C15       1.0  0.02568  0.55277  0.49146  1.0000
  C   C16       1.0  0.00088  0.58531  0.46827  1.0000
  C   C17       1.0  0.95496  0.65172  0.40490  1.0000
  C   C18       1.0  0.93628  0.61547  0.45083  1.0000
  C   C19       1.0  0.95770  0.58232  0.48245  1.0000
  C   C20       1.0  0.12445  0.66724  0.39381  1.0000
  C   C21       1.0  0.14678  0.63405  0.41756  1.0000
  C   C22       1.0  0.13010  0.59710  0.43406  1.0000
  C   C23       1.0  0.14459  0.70486  0.38603  1.0000
  C   C24       1.0  0.15783  0.56413  0.44550  1.0000
  C   C25       1.0  0.16571  0.53393  0.31643  1.0000
  C   C26       1.0  0.19367  0.50410  0.32266  1.0000
  C   C27       1.0  0.21448  0.50362  0.45957  1.0000
  C   C28       1.0  0.20761  0.53439  0.58496  1.0000
  C   C29       1.0  0.17951  0.56394  0.57879  1.0000
  C   C30       1.0  0.18814  0.70883  0.29148  1.0000
  C   C31       1.0  0.20864  0.74315  0.29185  1.0000
  C   C32       1.0  0.18612  0.77520  0.38631  1.0000
  C   C33       1.0  0.14259  0.77134  0.48232  1.0000
  C   C34       1.0  0.12223  0.73694  0.48187  1.0000
  C   C35       1.0  0.23539  0.43918  0.45329  1.0000
  C   C36       1.0  0.83030  0.43917  0.59061  1.0000
  C   C37       1.0  0.80904  0.40330  0.58269  1.0000
  C   C38       1.0  0.82856  0.36700  0.58218  1.0000
  C   C39       1.0  0.30203  0.86353  0.18412  1.0000
  C   C40       1.0  0.26167  0.85449  0.31152  1.0000
  C   C41       1.0  0.24459  0.87682  0.47412  1.0000
  C   C42       1.0  0.26754  0.90693  0.50817  1.0000
  C   C43       1.0  0.23921  0.82134  0.27857  1.0000
  C   C44       1.0  0.84776  0.80519  0.31205  1.0000
  C   C45       1.0  0.30815  0.91574  0.38212  1.0000
  C   C46       1.0  0.32504  0.89355  0.21899  1.0000
  C   C47       1.0  0.34484  0.31870  0.55974  1.0000
  C   C48       1.0  0.36474  0.25423  0.57264  1.0000
  C   C49       1.0  0.40614  0.25586  0.44296  1.0000
  C   C50       1.0  0.43368  0.22473  0.42782  1.0000
  C   C51       1.0  0.42113  0.19107  0.54139  1.0000
  C   C52       1.0  0.38002  0.18991  0.67296  1.0000
  C   C53       1.0  0.35222  0.22071  0.68774  1.0000
  C   C54       1.0  0.44879  0.15665  0.51258  1.0000
  C   C55       1.0  0.33107  0.94757  0.42414  1.0000
  C   C56       1.0  0.38940  0.98835  0.36046  1.0000
  C   C57       1.0  0.37535  0.00935  0.52905  1.0000
  C   C58       1.0  0.39777  0.04088  0.55336  1.0000
  C   C59       1.0  0.43555  0.05246  0.41328  1.0000
  C   C60       1.0  0.45026  0.03087  0.24741  1.0000
  C   C61       1.0  0.42751  0.99951  0.22172  1.0000
  C   C62       1.0  0.49146  0.15819  0.50659  1.0000
  C   C63       1.0  0.51715  0.12413  0.46406  1.0000
  C   C64       1.0  0.49960  0.08856  0.43251  1.0000
  C   C65       1.0  0.45662  0.08766  0.44292  1.0000
  C   C66       1.0  0.43241  0.12146  0.48408  1.0000
  C   C67       1.0  0.56023  0.12540  0.45788  1.0000
  C   C68       1.0  0.57845  0.16102  0.48471  1.0000
  C   C69       1.0  0.55054  0.19320  0.54474  1.0000
  C   C70       1.0  0.50914  0.19190  0.55501  1.0000
  C   C71       1.0  0.52544  0.05462  0.40115  1.0000
  C   C72       1.0  0.56610  0.05554  0.40165  1.0000
  C   C73       1.0  0.58466  0.09057  0.42912  1.0000
  C   C74       1.0  0.62237  0.16223  0.46085  1.0000
  C   C75       1.0  0.64488  0.12717  0.43421  1.0000
  C   C76       1.0  0.62697  0.09173  0.42619  1.0000
  C   C77       1.0  0.19943  0.22592  0.06474  1.0000
  C   C78       1.0  0.15999  0.22807  0.03494  1.0000
  C   C79       1.0  0.14276  0.26455  0.01374  1.0000
  C   C80       1.0  0.16483  0.29764  0.01906  1.0000
  C   C81       1.0  0.13840  0.19260  0.02406  1.0000
  C   C82       1.0  0.13816  0.82469  0.89757  1.0000
  C   C83       1.0  0.16842  0.79329  0.87721  1.0000
  C   C84       1.0  0.46292  0.58434  0.76786  1.0000
  C   C85       1.0  0.42120  0.58106  0.78736  1.0000
  C   C86       1.0  0.40029  0.54481  0.83071  1.0000
  C   C87       1.0  0.42478  0.51068  0.83441  1.0000
  C   C88       1.0  0.46883  0.51405  0.80978  1.0000
  C   C89       1.0  0.48755  0.55148  0.78820  1.0000
  C   C90       1.0  0.49383  0.48017  0.81226  1.0000
  C   C91       1.0  0.47431  0.44350  0.82447  1.0000
  C   C92       1.0  0.43254  0.44038  0.84343  1.0000
  C   C93       1.0  0.40551  0.47335  0.86169  1.0000
  C   C94       1.0  0.35637  0.54134  0.86449  1.0000
  C   C95       1.0  0.33812  0.50499  0.90562  1.0000
  C   C96       1.0  0.36100  0.47075  0.90390  1.0000
  C   C97       1.0  0.53003  0.55477  0.78294  1.0000
  C   C98       1.0  0.55312  0.52123  0.79224  1.0000
  C   C99       1.0  0.53643  0.48419  0.80532  1.0000
  C   C100      1.0  0.33673  0.43459  0.94551  1.0000
  C   C101      1.0  0.30055  0.43216  0.88931  1.0000
  C   C102      1.0  0.27631  0.39919  0.92278  1.0000
  C   C103      1.0  0.28721  0.36645  0.01381  1.0000
  C   C104      1.0  0.32309  0.36850  0.07097  1.0000
  C   C105      1.0  0.34676  0.40199  0.04117  1.0000
  C   C106      1.0  0.63719  0.32631  0.90635  1.0000
  C   C107      1.0  0.22742  0.33099  0.03979  1.0000
  C   C108      1.0  0.20466  0.29548  0.04512  1.0000
  C   C109      1.0  0.22156  0.25903  0.06979  1.0000
  C   C110      1.0  0.65305  0.69685  0.77049  1.0000
  C   C111      1.0  0.21209  0.79963  0.82265  1.0000
  C   C112      1.0  0.23969  0.76850  0.79482  1.0000
  C   C113      1.0  0.22455  0.73044  0.82063  1.0000
  C   C114      1.0  0.18086  0.72408  0.87488  1.0000
  C   C115      1.0  0.15333  0.75519  0.90341  1.0000
  C   C116      1.0  0.25426  0.69867  0.80385  1.0000
  C   C117      1.0  0.74754  0.20611  0.01539  1.0000
  C   C118      1.0  0.76854  0.14155  0.01700  1.0000
  C   C119      1.0  0.80605  0.13983  0.86114  1.0000
  C   C120      1.0  0.83341  0.10834  0.84197  1.0000
  C   C121      1.0  0.82462  0.07806  0.97849  1.0000
  C   C122      1.0  0.78804  0.08061  0.13711  1.0000
  C   C123      1.0  0.76023  0.11147  0.15462  1.0000
  C   C124      1.0  0.85195  0.04330  0.95623  1.0000
  C   C125      1.0  0.74036  0.83448  0.82080  1.0000
  C   C126      1.0  0.79804  0.87068  0.82143  1.0000
  C   C127      1.0  0.77595  0.90006  0.93980  1.0000
  C   C128      1.0  0.79666  0.93260  0.96548  1.0000
  C   C129      1.0  0.83998  0.93812  0.87094  1.0000
  C   C130      1.0  0.86170  0.90939  0.74531  1.0000
  C   C131      1.0  0.84142  0.87599  0.72573  1.0000
  C   C132      1.0  0.89344  0.04536  0.96361  1.0000
  C   C133      1.0  0.91834  0.01086  0.94465  1.0000
  C   C134      1.0  0.90111  0.97446  0.92225  1.0000
  C   C135      1.0  0.85993  0.97341  0.90641  1.0000
  C   C136      1.0  0.83651  0.00789  0.92703  1.0000
  C   C137      1.0  0.96057  0.01299  0.94966  1.0000
  C   C138      1.0  0.97783  0.04970  0.96620  1.0000
  C   C139      1.0  0.95103  0.08297  0.99682  1.0000
  C   C140      1.0  0.91047  0.08081  0.99662  1.0000
  C   C141      1.0  0.92617  0.94064  0.92219  1.0000
  C   C142      1.0  0.96649  0.94258  0.92746  1.0000
  C   C143      1.0  0.98552  0.97861  0.93750  1.0000
  C   C144      1.0  0.02043  0.05186  0.95974  1.0000
  C   C145      1.0  0.04421  0.01795  0.94420  1.0000
  C   C146      1.0  0.02790  0.98158  0.93454  1.0000
  C   C147      1.0  0.11764  0.88851  0.87902  1.0000
  C   C148      1.0  0.07874  0.88746  0.02776  1.0000
  C   C149      1.0  0.04896  0.91677  0.04383  1.0000
  C   C150      1.0  0.05710  0.94828  0.91387  1.0000
  C   C151      1.0  0.09613  0.94931  0.76659  1.0000
  C   C152      1.0  0.12599  0.92016  0.74967  1.0000
  N   N1        1.0  0.24286  0.47475  0.47610  1.0000
  N   N2        1.0  0.20475  0.80968  0.40463  1.0000
  N   N3        1.0  0.83960  0.76882  0.32465  1.0000
  N   N4        1.0  0.86695  0.44051  0.61276  1.0000
  N   N5        1.0  0.33448  0.28283  0.58046  1.0000
  N   N6        1.0  0.36862  0.95697  0.31675  1.0000
  N   N7        1.0  0.73472  0.96047  0.37182  1.0000
  N   N8        1.0  0.71193  0.30006  0.48502  1.0000
  N   N9        1.0  0.64297  0.36235  0.92693  1.0000
  N   N10       1.0  0.61280  0.69600  0.80378  1.0000
  N   N11       1.0  0.24264  0.66309  0.82624  1.0000
  N   N12       1.0  0.26588  0.33141  0.04059  1.0000
  N   N13       1.0  0.73791  0.17014  0.02793  1.0000
  N   N14       1.0  0.78013  0.83589  0.79871  1.0000
  N   N15       1.0  0.14913  0.86019  0.85424  1.0000
  N   N16       1.0  0.10326  0.19266  0.98758  1.0000
  C   C153      1.0  0.65700  0.24671  0.93595  1.0000
  C   C154      1.0  0.66076  0.28655  0.94485  1.0000
  C  Sn1       1.0  0.69600  0.30197  0.97642  1.0000
  C  Sn2       1.0  0.72801  0.27697  0.99939  1.0000
  C   C155      1.0  0.72396  0.23716  0.99011  1.0000
  C   C156      1.0  0.68857  0.22204  0.95852  1.0000
  H   H89       1.0  0.62962  0.23501  0.91141  1.0000
  O  Te1       1.0  0.69925  0.34183  0.98497  1.0000
  O  Te2       1.0  0.83544  0.29738  0.03103  1.0000
  H   H90       1.0  0.68568  0.19120  0.95152  1.0000
  Mg  Mg1       1.0  0.82553  0.35374  0.03110  1.0000
  C   C157      1.0  0.74608  0.84563  0.38151  1.0000
  C   C158      1.0  0.75089  0.88496  0.40166  1.0000
  C  Sn3       1.0  0.79089  0.90013  0.37147  1.0000
  C  Sn4       1.0  0.82668  0.87538  0.32012  1.0000
  C   C159      1.0  0.82153  0.83608  0.30018  1.0000
  C   C160      1.0  0.78136  0.82120  0.33079  1.0000
  H   H91       1.0  0.71500  0.83412  0.40508  1.0000
  O  Te3       1.0  0.79513  0.93949  0.39228  1.0000
  O  Te4       1.0  0.86702  0.88978  0.28903  1.0000
  H   H92       1.0  0.77764  0.79075  0.31506  1.0000
  Mg  Mg2       1.0  0.85664  0.94546  0.33481  1.0000
  C   C161      1.0  0.54310  0.64863  0.93607  1.0000
  C   C162      1.0  0.58349  0.66009  0.82440  1.0000
  C  Sn5       1.0  0.60760  0.63715  0.67687  1.0000
  C  Sn6       1.0  0.59086  0.60211  0.64078  1.0000
  C   C163      1.0  0.55041  0.59092  0.75322  1.0000
  C   C164      1.0  0.52657  0.61408  0.90052  1.0000
  H   H93       1.0  0.59651  0.67233  0.04998  1.0000
  O  Te5       1.0  0.64790  0.64902  0.56672  1.0000
  O  Te6       1.0  0.61427  0.57864  0.49419  1.0000
  H   H94       1.0  0.49528  0.60522  0.98688  1.0000
  Mg  Mg3       1.0  0.66762  0.60717  0.38326  1.0000
  C   C165      1.0  0.59207  0.39320  0.71258  1.0000
  C   C166      1.0  0.61392  0.39039  0.84359  1.0000
  C  Sn7       1.0  0.60842  0.41844  0.98008  1.0000
  C  Sn8       1.0  0.58049  0.44985  0.98520  1.0000
  C   C167      1.0  0.55876  0.45240  0.85360  1.0000
  C   C168      1.0  0.56451  0.42417  0.71758  1.0000
  H   H95       1.0  0.59650  0.37136  0.60739  1.0000
  O  Te7       1.0  0.70238  0.42096  0.10987  1.0000
  O  Te8       1.0  0.64626  0.48405  0.12017  1.0000
  H   H96       1.0  0.54757  0.42635  0.61624  1.0000
  Mg  Mg4       1.0  0.68350  0.46695  0.26680  1.0000
  C   C169      1.0  0.68361  0.00517  0.59181  1.0000
  C   C170      1.0  0.69551  0.99021  0.43354  1.0000
  C  Sn9       1.0  0.72498  0.00990  0.25782  1.0000
  C  Sn10      1.0  0.70443  0.04521  0.24068  1.0000
  C   C171      1.0  0.67375  0.05995  0.39990  1.0000
  C   C172      1.0  0.66334  0.04001  0.57505  1.0000
  H   H97       1.0  0.65673  0.98976  0.72735  1.0000
  O  Te9       1.0  0.73692  0.99453  0.10112  1.0000
  O  Te10      1.0  0.71448  0.06549  0.06676  1.0000
  H   H98       1.0  0.63956  0.05162  0.69759  1.0000
  Mg  Mg5       1.0  0.68663  0.02706  0.89435  1.0000
  C   C173      1.0  0.90324  0.52954  0.39218  1.0000
  C   C174      1.0  0.92579  0.54503  0.50059  1.0000
  C  Sn11      1.0  0.93088  0.52402  0.65511  1.0000
  C  Sn12      1.0  0.91305  0.48681  0.70158  1.0000
  C   C175      1.0  0.89057  0.47156  0.59215  1.0000
  C   C176      1.0  0.88565  0.49283  0.43787  1.0000
  H   H99       1.0  0.89945  0.54599  0.27274  1.0000
  O  Te11      1.0  0.95349  0.53994  0.76197  1.0000
  O  Te12      1.0  0.91767  0.46519  0.85522  1.0000
  H   H100      1.0  0.86821  0.48082  0.35388  1.0000
  Mg  Mg6       1.0  0.95119  0.49929  0.95800  1.0000
  C   C177      1.0  0.25115  0.35948  0.51137  1.0000
  C   C178      1.0  0.25831  0.39913  0.49009  1.0000
  C  Sn13      1.0  0.29714  0.41385  0.48509  1.0000
  C  Sn14      1.0  0.32933  0.38833  0.50168  1.0000
  C   C179      1.0  0.32187  0.34871  0.52279  1.0000
  C   C180      1.0  0.28290  0.33429  0.52767  1.0000
  H   H101      1.0  0.22101  0.34831  0.51504  1.0000
  O  Te13      1.0  0.30376  0.45354  0.46381  1.0000
  O  Te14      1.0  0.36843  0.40227  0.49707  1.0000
  H   H102      1.0  0.27738  0.30358  0.54403  1.0000
  Mg  Mg7       1.0  0.36231  0.45866  0.46564  1.0000
  C   C181      1.0  0.65300  0.77815  0.83422  1.0000
  C   C182      1.0  0.66902  0.74131  0.78111  1.0000
  C  Sn15      1.0  0.71170  0.73312  0.74730  1.0000
  C  Sn16      1.0  0.73877  0.76241  0.76720  1.0000
  C   C183      1.0  0.72243  0.79916  0.82053  1.0000
  C   C184      1.0  0.67967  0.80705  0.85395  1.0000
  H   H103      1.0  0.61991  0.78424  0.86019  1.0000
  O  Te15      1.0  0.72719  0.69617  0.69428  1.0000
  O  Te16      1.0  0.78155  0.75500  0.73435  1.0000
  H   H104      1.0  0.66727  0.83556  0.89519  1.0000
  Mg  Mg8       1.0  0.78779  0.70015  0.66502  1.0000
  C   C185      1.0  0.90388  0.74413  0.47539  1.0000
  C   C186      1.0  0.87871  0.74550  0.35806  1.0000
  C  Sn17      1.0  0.87726  0.71396  0.24863  1.0000
  C  Sn18      1.0  0.90150  0.68047  0.25714  1.0000
  C   C187      1.0  0.92656  0.67938  0.37506  1.0000
  C   C188      1.0  0.92778  0.71111  0.48393  1.0000
  H   H105      1.0  0.90481  0.76867  0.55970  1.0000
  O  Te17      1.0  0.85196  0.71581  0.13211  1.0000
  O  Te18      1.0  0.90063  0.64853  0.14932  1.0000
  H   H106      1.0  0.94726  0.71003  0.57484  1.0000
  Mg  Mg9       1.0  0.86129  0.66492  0.01204  1.0000
  C   C189      1.0  0.70157  0.21851  0.54604  1.0000
  C   C190      1.0  0.69854  0.25573  0.47415  1.0000
  C  Sn19      1.0  0.66647  0.26515  0.39842  1.0000
  C  Sn20      1.0  0.63693  0.23673  0.39483  1.0000
  C   C191      1.0  0.64021  0.19959  0.46722  1.0000
  C   C192      1.0  0.67244  0.19047  0.54262  1.0000
  H   H107      1.0  0.72649  0.21146  0.60448  1.0000
  O  Te19      1.0  0.66391  0.30246  0.32712  1.0000
  O  Te20      1.0  0.60455  0.24537  0.32001  1.0000
  H   H108      1.0  0.67476  0.16166  0.59839  1.0000
  Mg  Mg10      1.0  0.61420  0.30026  0.23974  1.0000
  C   C193      1.0  0.27880  0.59100  0.71644  1.0000
  C   C194      1.0  0.26916  0.62483  0.81897  1.0000
  C  Sn21      1.0  0.29144  0.63437  0.94036  1.0000
  C  Sn22      1.0  0.32397  0.60951  0.95912  1.0000
  C   C195      1.0  0.33339  0.57575  0.85582  1.0000
  C   C196      1.0  0.31089  0.56648  0.73480  1.0000
  H   H109      1.0  0.26141  0.58384  0.62272  1.0000
  O  Te21      1.0  0.35327  0.67404  0.04181  1.0000
  O  Te22      1.0  0.41862  0.62412  0.07939  1.0000
  H   H110      1.0  0.31838  0.54029  0.65534  1.0000
  Mg  Mg11      1.0  0.39324  0.67358  0.18777  1.0000
  C   C197      1.0  0.04359  0.13037  0.82783  1.0000
  C   C198      1.0  0.04220  0.09559  0.92951  1.0000
  C  Sn23      1.0  0.13183  0.09851  0.07527  1.0000
  C  Sn24      1.0  0.15131  0.13114  0.11976  1.0000
  C   C199      1.0  0.15251  0.16580  0.01728  1.0000
  C   C200      1.0  0.06278  0.16256  0.87166  1.0000
  H   H111      1.0  0.02975  0.13233  0.71523  1.0000
  O  Te23      1.0  0.13018  0.06355  0.17540  1.0000
  O  Te24      1.0  0.16929  0.12910  0.26479  1.0000
  H   H112      1.0  0.06383  0.18949  0.79304  1.0000
  Mg  Mg12      1.0  0.15912  0.07510  0.36065  1.0000
