data_image0
_chemical_formula_structural       H24C36N12SnCSn2CSnTe4Mg2SnCSn2CSnTe4Mg2SnCSn2CSnTe4Mg2SnCSn2CSnTe4Mg2SnCSn2CSnTe4Mg2SnCSn2CSnTe4Mg2SnCSn2CSnTe4Mg2SnCSn2CSnTe4Mg2SnCSn2CSnTe4Mg2SnCSn2CSnTe4Mg2SnCSn2CSnTe4Mg2SnCSn2CSnTe4Mg2SnCSn2CSnTe4Mg2SnCSn2CSnTe4Mg2SnCSn2CSnTe4Mg2SnCSn2CSnTe4Mg2SnCSn2CSnTe4Mg2SnCSn2CSnTe4Mg2
_chemical_formula_sum              "H24 C72 N12 Sn72 Te72 Mg36"
_cell_length_a       36.9961
_cell_length_b       36.7606
_cell_length_c       7.42026
_cell_angle_alpha    70.085
_cell_angle_beta     87.7164
_cell_angle_gamma    118.699

_symmetry_space_group_name_H-M    'P1'
_space_group_IT_number       1

loop_
  _space_group_symop_operation_xyz
  'x, y, z'

loop_
  _atom_site_type_symbol
  _atom_site_label
  _atom_site_symmetry_multiplicity
  _atom_site_fract_x
  _atom_site_fract_y
  _atom_site_fract_z
  _atom_site_occupancy
  H   H1        1.0  0.48482  0.62073  0.27056  1.0000
  H   H2        1.0  0.46870  0.72886  0.26468  1.0000
  H   H3        1.0  0.36447  0.60938  0.24408  1.0000
  H   H4        1.0  0.35590  0.81110  0.17453  1.0000
  H   H5        1.0  0.18393  0.83646  0.32381  1.0000
  H   H6        1.0  0.06866  0.91331  0.28585  1.0000
  H   H7        1.0  0.05506  0.02454  0.26088  1.0000
  H   H8        1.0  0.17779  0.03934  0.22861  1.0000
  H   H9        1.0  0.86397  0.90904  0.35190  1.0000
  H   H10       1.0  0.67159  0.73958  0.30588  1.0000
  H   H11       1.0  0.29777  0.43665  0.13978  1.0000
  H   H12       1.0  0.25546  0.22910  0.15440  1.0000
  H   H13       1.0  0.74034  0.36767  0.76232  1.0000
  H   H14       1.0  0.72224  0.47491  0.76003  1.0000
  H   H15       1.0  0.62057  0.35730  0.71189  1.0000
  H   H16       1.0  0.60163  0.54493  0.76608  1.0000
  H   H17       1.0  0.43616  0.58444  0.67386  1.0000
  H   H18       1.0  0.32023  0.66151  0.76188  1.0000
  H   H19       1.0  0.31037  0.77282  0.76163  1.0000
  H   H20       1.0  0.43003  0.78077  0.75738  1.0000
  H   H21       1.0  0.11649  0.65168  0.82692  1.0000
  H   H22       1.0  0.92182  0.47817  0.81629  1.0000
  H   H23       1.0  0.55763  0.18070  0.64805  1.0000
  H   H24       1.0  0.50958  0.96905  0.70969  1.0000
  C   C1        1.0  0.32148  0.78634  0.21932  1.0000
  C   C2        1.0  0.42222  0.60933  0.26238  1.0000
  C   C3        1.0  0.46484  0.63487  0.26680  1.0000
  C   C4        1.0  0.48226  0.67843  0.26432  1.0000
  C   C5        1.0  0.45562  0.69575  0.26051  1.0000
  C   C6        1.0  0.41301  0.67170  0.25351  1.0000
  C   C7        1.0  0.39697  0.62844  0.25456  1.0000
  C   C8        1.0  0.21847  0.86056  0.28331  1.0000
  C   C9        1.0  0.12644  0.97400  0.25680  1.0000
  C   C10       1.0  0.08275  0.94829  0.26901  1.0000
  C   C11       1.0  0.05649  0.96587  0.27195  1.0000
  C   C12       1.0  0.07494  0.01037  0.26021  1.0000
  C   C13       1.0  0.11842  0.03695  0.24771  1.0000
  C   C14       1.0  0.14378  0.01834  0.24588  1.0000
  C   C15       1.0  0.85289  0.87530  0.35241  1.0000
  C   C16       1.0  0.67987  0.77153  0.31853  1.0000
  C   C17       1.0  0.31646  0.42024  0.16359  1.0000
  C   C18       1.0  0.23520  0.24337  0.15426  1.0000
  C   C19       1.0  0.57079  0.52593  0.73434  1.0000
  C   C20       1.0  0.67871  0.35752  0.73487  1.0000
  C   C21       1.0  0.72019  0.38180  0.75521  1.0000
  C   C22       1.0  0.73622  0.42421  0.76348  1.0000
  C   C23       1.0  0.70985  0.44199  0.75387  1.0000
  C   C24       1.0  0.66812  0.41833  0.73470  1.0000
  C   C25       1.0  0.65292  0.37602  0.72599  1.0000
  C   C26       1.0  0.46513  0.60064  0.72354  1.0000
  C   C27       1.0  0.37877  0.71821  0.75842  1.0000
  C   C28       1.0  0.33568  0.69569  0.75571  1.0000
  C   C29       1.0  0.31045  0.71436  0.75873  1.0000
  C   C30       1.0  0.32934  0.75770  0.75853  1.0000
  C   C31       1.0  0.37246  0.78158  0.75862  1.0000
  C   C32       1.0  0.39660  0.76152  0.75979  1.0000
  C   C33       1.0  0.10710  0.61928  0.81645  1.0000
  C   C34       1.0  0.93206  0.51129  0.82112  1.0000
  C   C35       1.0  0.57774  0.16604  0.65922  1.0000
  C   C36       1.0  0.49010  0.98429  0.70654  1.0000
  N   N1        1.0  0.30594  0.74415  0.25005  1.0000
  N   N2        1.0  0.23417  0.90278  0.25284  1.0000
  N   N3        1.0  0.87823  0.86103  0.33857  1.0000
  N   N4        1.0  0.65320  0.78495  0.31389  1.0000
  N   N5        1.0  0.35310  0.43860  0.20326  1.0000
  N   N6        1.0  0.19492  0.22025  0.16618  1.0000
  N   N7        1.0  0.56063  0.49076  0.69709  1.0000
  N   N8        1.0  0.47621  0.63498  0.76897  1.0000
  N   N9        1.0  0.13437  0.60769  0.79231  1.0000
  N   N10       1.0  0.90715  0.52686  0.81152  1.0000
  N   N11       1.0  0.61653  0.18793  0.67210  1.0000
  N   N12       1.0  0.44996  0.96214  0.71520  1.0000
  C  Sn1       1.0  0.34385  0.68190  0.14699  1.0000
  C   C37       1.0  0.38327  0.69564  0.19356  1.0000
  C  Sn2       1.0  0.39735  0.72406  0.29368  1.0000
  C  Sn3       1.0  0.37149  0.73903  0.34850  1.0000
  C   C38       1.0  0.33209  0.72529  0.30196  1.0000
  C  Sn4       1.0  0.31798  0.69688  0.20181  1.0000
  O  Te1       1.0  0.33040  0.65348  0.04684  1.0000
  O  Te2       1.0  0.43689  0.73735  0.33856  1.0000
  O  Te3       1.0  0.38497  0.76748  0.44872  1.0000
  O  Te4       1.0  0.27847  0.68358  0.15696  1.0000
  Mg  Mg1       1.0  0.44126  0.77630  0.47681  1.0000
  Mg  Mg2       1.0  0.27406  0.64462  0.01881  1.0000
  C  Sn5       1.0  0.58697  0.70313  0.31568  1.0000
  C   C39       1.0  0.61181  0.74985  0.26518  1.0000
  C  Sn6       1.0  0.59332  0.77621  0.22624  1.0000
  C  Sn7       1.0  0.54908  0.75543  0.23815  1.0000
  C   C40       1.0  0.52428  0.70873  0.28866  1.0000
  C  Sn8       1.0  0.54274  0.68235  0.32758  1.0000
  O  Te5       1.0  0.60613  0.67744  0.35399  1.0000
  O  Te6       1.0  0.61880  0.82286  0.17598  1.0000
  O  Te7       1.0  0.52994  0.78116  0.19977  1.0000
  O  Te8       1.0  0.51728  0.63573  0.37785  1.0000
  Mg  Mg3       1.0  0.57798  0.84344  0.13722  1.0000
  Mg  Mg4       1.0  0.55806  0.61511  0.41674  1.0000
  C  Sn9       1.0  0.42076  0.51339  0.22826  1.0000
  C   C41       1.0  0.37801  0.47871  0.28201  1.0000
  C  Sn10      1.0  0.34597  0.48723  0.31548  1.0000
  C  Sn11      1.0  0.35688  0.53134  0.29469  1.0000
  C   C42       1.0  0.39962  0.56599  0.24093  1.0000
  C  Sn12      1.0  0.43168  0.55750  0.20746  1.0000
  O  Te9       1.0  0.45227  0.50410  0.19551  1.0000
  O  Te10      1.0  0.30344  0.45202  0.36915  1.0000
  O  Te11      1.0  0.32533  0.54061  0.32749  1.0000
  O  Te12      1.0  0.47418  0.59268  0.15379  1.0000
  Mg  Mg5       1.0  0.27198  0.48148  0.39773  1.0000
  Mg  Mg6       1.0  0.50566  0.56327  0.12508  1.0000
  C  Sn13      1.0  0.31216  0.85566  0.24863  1.0000
  C   C43       1.0  0.29817  0.81059  0.28345  1.0000
  C  Sn14      1.0  0.25569  0.78022  0.29722  1.0000
  C  Sn15      1.0  0.22658  0.79521  0.27561  1.0000
  C   C44       1.0  0.24058  0.84025  0.24078  1.0000
  C  Sn16      1.0  0.28306  0.87064  0.22703  1.0000
  O  Te13      1.0  0.35477  0.88543  0.23541  1.0000
  O  Te14      1.0  0.24244  0.73533  0.33217  1.0000
  O  Te15      1.0  0.18394  0.76539  0.28886  1.0000
  O  Te16      1.0  0.29630  0.91551  0.19206  1.0000
  Mg  Mg7       1.0  0.18119  0.70760  0.33802  1.0000
  Mg  Mg8       1.0  0.35755  0.94328  0.18608  1.0000
  C  Sn17      1.0  0.72630  0.97591  0.29665  1.0000
  C   C45       1.0  0.16718  0.96625  0.22352  1.0000
  C  Sn18      1.0  0.14758  0.92901  0.17355  1.0000
  C  Sn19      1.0  0.16458  0.90081  0.19728  1.0000
  C   C46       1.0  0.20083  0.91047  0.27039  1.0000
  C  Sn20      1.0  0.22045  0.94771  0.32037  1.0000
  O  Te17      1.0  0.74537  0.01332  0.34566  1.0000
  O  Te18      1.0  0.11136  0.92005  0.10067  1.0000
  O  Te19      1.0  0.14548  0.86338  0.14819  1.0000
  O  Te20      1.0  0.25665  0.95667  0.39325  1.0000
  Mg  Mg9       1.0  0.09674  0.86513  0.05469  1.0000
  Mg  Mg10      1.0  0.79413  0.01156  0.43937  1.0000
  C  Sn21      1.0  0.98528  0.90997  0.15318  1.0000
  C   C47       1.0  0.00726  0.94106  0.23483  1.0000
  C  Sn22      1.0  0.98562  0.94214  0.38967  1.0000
  C  Sn23      1.0  0.94107  0.91149  0.46457  1.0000
  C   C48       1.0  0.91911  0.88042  0.38296  1.0000
  C  Sn24      1.0  0.94073  0.87932  0.22808  1.0000
  O  Te21      1.0  0.95454  0.81511  0.99846  1.0000
  O  Te22      1.0  0.53114  0.97354  0.46885  1.0000
  O  Te23      1.0  0.91879  0.91199  0.61941  1.0000
  O  Te24      1.0  0.91809  0.84794  0.14894  1.0000
  Mg  Mg11      1.0  0.48660  0.96100  0.67820  1.0000
  Mg  Mg12      1.0  0.90957  0.76605  0.93967  1.0000
  C  Sn25      1.0  0.19429  0.13936  0.28404  1.0000
  C   C49       1.0  0.18579  0.17250  0.17524  1.0000
  C  Sn26      1.0  0.14910  0.16034  0.10460  1.0000
  C  Sn27      1.0  0.12027  0.11407  0.14361  1.0000
  C   C50       1.0  0.12877  0.08095  0.25238  1.0000
  C  Sn28      1.0  0.16546  0.09309  0.32305  1.0000
  O  Te25      1.0  0.23117  0.15229  0.35322  1.0000
  O  Te26      1.0  0.08827  0.09970  0.99611  1.0000
  O  Te27      1.0  0.08337  0.10115  0.07432  1.0000
  O  Te28      1.0  0.17327  0.05937  0.43150  1.0000
  Mg  Mg13      1.0  0.03369  0.06514  0.93353  1.0000
  Mg  Mg14      1.0  0.22782  0.09389  0.49424  1.0000
  C  Sn29      1.0  0.76829  0.85743  0.40576  1.0000
  C   C51       1.0  0.79905  0.84558  0.41198  1.0000
  C  Sn30      1.0  0.79302  0.80989  0.36318  1.0000
  C  Sn31      1.0  0.75548  0.78555  0.30687  1.0000
  C   C52       1.0  0.72475  0.79741  0.30064  1.0000
  C  Sn32      1.0  0.73075  0.83309  0.34945  1.0000
  O  Te29      1.0  0.77499  0.89323  0.45514  1.0000
  O  Te30      1.0  0.82421  0.79866  0.37056  1.0000
  O  Te31      1.0  0.74880  0.74972  0.25748  1.0000
  O  Te32      1.0  0.69959  0.84433  0.34206  1.0000
  Mg  Mg15      1.0  0.80054  0.74726  0.28985  1.0000
  Mg  Mg16      1.0  0.72324  0.89574  0.42263  1.0000
  C  Sn33      1.0  0.30256  0.31493  0.20964  1.0000
  C   C53       1.0  0.26123  0.28940  0.19252  1.0000
  C  Sn34      1.0  0.23762  0.30972  0.13240  1.0000
  C  Sn35      1.0  0.25569  0.35656  0.08836  1.0000
  C   C54       1.0  0.29700  0.38207  0.10546  1.0000
  C  Sn36      1.0  0.32063  0.36177  0.16561  1.0000
  O  Te33      1.0  0.32558  0.29391  0.26999  1.0000
  O  Te34      1.0  0.19637  0.28349  0.11643  1.0000
  O  Te35      1.0  0.23263  0.37757  0.02798  1.0000
  O  Te36      1.0  0.36186  0.38797  0.18155  1.0000
  Mg  Mg17      1.0  0.17769  0.32757  0.02839  1.0000
  Mg  Mg18      1.0  0.38058  0.34394  0.26947  1.0000
  C  Sn37      1.0  0.58144  0.43321  0.63026  1.0000
  C   C55       1.0  0.57914  0.45768  0.73423  1.0000
  C  Sn38      1.0  0.61132  0.47662  0.82560  1.0000
  C  Sn39      1.0  0.64654  0.47100  0.81269  1.0000
  C   C56       1.0  0.64882  0.44655  0.70875  1.0000
  C  Sn40      1.0  0.61666  0.42759  0.61735  1.0000
  O  Te37      1.0  0.54891  0.41457  0.54005  1.0000
  O  Te38      1.0  0.60831  0.50094  0.92877  1.0000
  O  Te39      1.0  0.67908  0.48966  0.90302  1.0000
  O  Te40      1.0  0.61965  0.40329  0.51421  1.0000
  Mg  Mg19      1.0  0.71366  0.61430  0.02659  1.0000
  Mg  Mg20      1.0  0.56737  0.38432  0.41625  1.0000
  C  Sn41      1.0  0.83451  0.44258  0.88421  1.0000
  C   C57       1.0  0.86373  0.48932  0.78550  1.0000
  C  Sn42      1.0  0.85014  0.51879  0.69111  1.0000
  C  Sn43      1.0  0.80642  0.50118  0.69557  1.0000
  C   C58       1.0  0.77723  0.45447  0.79426  1.0000
  C  Sn44      1.0  0.79079  0.42497  0.88867  1.0000
  O  Te41      1.0  0.84881  0.41375  0.97756  1.0000
  O  Te42      1.0  0.87995  0.56539  0.59332  1.0000
  O  Te43      1.0  0.79214  0.53005  0.60211  1.0000
  O  Te44      1.0  0.76101  0.37840  0.98644  1.0000
  Mg  Mg21      1.0  0.84491  0.59092  0.48829  1.0000
  Mg  Mg22      1.0  0.84903  0.44722  0.09160  1.0000
  C  Sn45      1.0  0.61801  0.26295  0.86996  1.0000
  C   C59       1.0  0.65839  0.30225  0.78126  1.0000
  C  Sn46      1.0  0.68557  0.30699  0.62730  1.0000
  C  Sn47      1.0  0.67210  0.27172  0.56051  1.0000
  C   C60       1.0  0.63175  0.23245  0.64917  1.0000
  C  Sn48      1.0  0.60455  0.22768  0.80317  1.0000
  O  Te45      1.0  0.64439  0.35332  0.02364  1.0000
  O  Te46      1.0  0.72579  0.34658  0.54098  1.0000
  O  Te47      1.0  0.69879  0.27576  0.40670  1.0000
  O  Te48      1.0  0.56434  0.18811  0.88945  1.0000
  Mg  Mg23      1.0  0.75059  0.33615  0.33627  1.0000
  Mg  Mg24      1.0  0.59254  0.29291  0.09408  1.0000
  C  Sn49      1.0  0.50324  0.53648  0.61576  1.0000
  C   C61       1.0  0.54116  0.54859  0.67613  1.0000
  C  Sn50      1.0  0.55318  0.57533  0.78409  1.0000
  C  Sn51      1.0  0.52674  0.59026  0.83285  1.0000
  C   C62       1.0  0.48885  0.57815  0.77252  1.0000
  C  Sn52      1.0  0.47680  0.55141  0.66451  1.0000
  O  Te49      1.0  0.49184  0.50971  0.50796  1.0000
  O  Te50      1.0  0.59124  0.58702  0.84275  1.0000
  O  Te51      1.0  0.53817  0.61705  0.94073  1.0000
  O  Te52      1.0  0.43876  0.53972  0.60590  1.0000
  Mg  Mg25      1.0  0.59302  0.62405  0.98719  1.0000
  Mg  Mg26      1.0  0.43694  0.50267  0.46155  1.0000
  C  Sn53      1.0  0.45937  0.69183  0.86010  1.0000
  C   C63       1.0  0.44830  0.65394  0.81897  1.0000
  C  Sn54      1.0  0.41534  0.63841  0.72634  1.0000
  C  Sn55      1.0  0.39298  0.66126  0.67360  1.0000
  C   C64       1.0  0.40405  0.69913  0.71471  1.0000
  C  Sn56      1.0  0.43701  0.71467  0.80737  1.0000
  O  Te53      1.0  0.49244  0.70676  0.95280  1.0000
  O  Te54      1.0  0.40484  0.60045  0.68679  1.0000
  O  Te55      1.0  0.35989  0.64629  0.58084  1.0000
  O  Te56      1.0  0.44751  0.75262  0.84688  1.0000
  Mg  Mg27      1.0  0.35741  0.59309  0.55796  1.0000
  Mg  Mg28      1.0  0.49495  0.76001  0.97560  1.0000
  C  Sn57      1.0  0.21621  0.62806  0.70824  1.0000
  C   C65       1.0  0.18217  0.62487  0.81603  1.0000
  C  Sn58      1.0  0.18934  0.65708  0.89172  1.0000
  C  Sn59      1.0  0.23141  0.69326  0.85890  1.0000
  C   C66       1.0  0.26542  0.69644  0.75114  1.0000
  C  Sn60      1.0  0.25828  0.66424  0.67542  1.0000
  O  Te57      1.0  0.20830  0.59548  0.63395  1.0000
  O  Te58      1.0  0.15480  0.65316  0.99908  1.0000
  O  Te59      1.0  0.23930  0.72585  0.93331  1.0000
  O  Te60      1.0  0.29279  0.66814  0.56809  1.0000
  Mg  Mg29      1.0  0.23484  0.80034  0.07017  1.0000
  Mg  Mg30      1.0  0.26581  0.61539  0.49685  1.0000
  C  Sn61      1.0  0.39301  0.87288  0.58286  1.0000
  C   C67       1.0  0.39884  0.83784  0.69571  1.0000
  C  Sn62      1.0  0.41778  0.84025  0.85378  1.0000
  C  Sn63      1.0  0.43115  0.87847  0.90011  1.0000
  C   C68       1.0  0.42531  0.91347  0.78732  1.0000
  C  Sn64      1.0  0.40638  0.91110  0.62919  1.0000
  O  Te61      1.0  0.37400  0.86975  0.42551  1.0000
  O  Te62      1.0  0.42328  0.80481  0.96441  1.0000
  O  Te63      1.0  0.50320  0.97595  0.05760  1.0000
  O  Te64      1.0  0.40087  0.94651  0.51862  1.0000
  Mg  Mg31      1.0  0.50378  0.91907  0.16460  1.0000
  Mg  Mg32      1.0  0.37338  0.92666  0.31847  1.0000
  C  Sn65      1.0  0.01049  0.51899  0.87390  1.0000
  C   C69       1.0  0.97888  0.52929  0.88344  1.0000
  C  Sn66      1.0  0.98977  0.57367  0.84588  1.0000
  C  Sn67      1.0  0.03315  0.60848  0.79766  1.0000
  C   C70       1.0  0.06473  0.59818  0.78811  1.0000
  C  Sn68      1.0  0.05388  0.55381  0.82569  1.0000
  O  Te65      1.0  0.99888  0.47440  0.91200  1.0000
  O  Te66      1.0  0.95760  0.58314  0.85637  1.0000
  O  Te67      1.0  0.04474  0.65311  0.75956  1.0000
  O  Te68      1.0  0.08601  0.54433  0.81518  1.0000
  Mg  Mg33      1.0  0.98941  0.64911  0.79204  1.0000
  Mg  Mg34      1.0  0.05424  0.47838  0.87937  1.0000
  C  Sn69      1.0  0.57941  0.09277  0.61303  1.0000
  C   C71       1.0  0.56308  0.12028  0.60818  1.0000
  C  Sn70      1.0  0.51921  0.10138  0.66137  1.0000
  C  Sn71      1.0  0.49109  0.05398  0.72078  1.0000
  C   C72       1.0  0.50742  0.02650  0.72564  1.0000
  C  Sn72      1.0  0.55129  0.04538  0.67243  1.0000
  O  Te69      1.0  0.62338  0.11240  0.55923  1.0000
  O  Te70      1.0  0.50363  0.12957  0.65528  1.0000
  O  Te71      1.0  0.44709  0.03437  0.77458  1.0000
  O  Te72      1.0  0.56687  0.01721  0.67853  1.0000
  Mg  Mg35      1.0  0.44124  0.08686  0.74237  1.0000
  Mg  Mg36      1.0  0.62925  0.05988  0.59158  1.0000
