data_image0
_chemical_formula_structural       H72C84N12O12SnCSn2CSnTe4Mg2SnCSn2CSnTe4Mg2SnCSn2CSnTe4Mg2SnCSn2CSnTe4Mg2SnCSn2CSnTe4Mg2SnCSn2CSnTe4Mg2SnCSn2CSnTe4Mg2SnCSn2CSnTe4Mg2SnCSn2CSnTe4Mg2SnCSn2CSnTe4Mg2SnCSn2CSnTe4Mg2SnCSn2CSnTe4Mg2
_chemical_formula_sum              "H72 C108 N12 O12 Sn48 Te48 Mg24"
_cell_length_a       36.1784
_cell_length_b       38.2071
_cell_length_c       6.89874
_cell_angle_alpha    59.1264
_cell_angle_beta     92.2737
_cell_angle_gamma    121.431

_symmetry_space_group_name_H-M    'P1'
_space_group_IT_number       1

loop_
  _space_group_symop_operation_xyz
  'x, y, z'

loop_
  _atom_site_type_symbol
  _atom_site_label
  _atom_site_symmetry_multiplicity
  _atom_site_fract_x
  _atom_site_fract_y
  _atom_site_fract_z
  _atom_site_occupancy
  H   H1        1.0  0.71161  0.84738  0.12441  1.0000
  H   H2        1.0  0.68470  0.92810  0.28792  1.0000
  H   H3        1.0  0.57438  0.79960  0.32334  1.0000
  H   H4        1.0  0.57259  0.99158  0.33231  1.0000
  H   H5        1.0  0.41420  0.98200  0.34017  1.0000
  H   H6        1.0  0.57549  0.05343  0.29735  1.0000
  H   H7        1.0  0.41885  0.04751  0.27922  1.0000
  H   H8        1.0  0.31370  0.13087  0.25284  1.0000
  H   H9        1.0  0.29666  0.22366  0.35713  1.0000
  H   H10       1.0  0.41463  0.22323  0.44470  1.0000
  H   H11       1.0  0.11706  0.14149  0.10012  1.0000
  H   H12       1.0  0.91252  0.98386  0.04324  1.0000
  H   H13       1.0  0.51825  0.62395  0.26332  1.0000
  H   H14       1.0  0.61118  0.13473  0.07571  1.0000
  H   H15       1.0  0.60290  0.11226  0.38580  1.0000
  H   H16       1.0  0.61078  0.17038  0.17105  1.0000
  H   H17       1.0  0.37856  0.86473  0.46159  1.0000
  H   H18       1.0  0.38399  0.92242  0.30508  1.0000
  H   H19       1.0  0.37638  0.88942  0.62030  1.0000
  H   H20       1.0  0.46307  0.56109  0.25723  1.0000
  H   H21       1.0  0.54738  0.48844  0.35666  1.0000
  H   H22       1.0  0.48747  0.41623  0.44877  1.0000
  H   H23       1.0  0.98008  0.99941  0.98044  1.0000
  H   H24       1.0  0.05311  0.13485  0.10030  1.0000
  H   H25       1.0  0.62138  0.54800  0.19544  1.0000
  H   H26       1.0  0.60317  0.52134  0.50449  1.0000
  H   H27       1.0  0.65440  0.58369  0.30834  1.0000
  H   H28       1.0  0.35307  0.45993  0.37457  1.0000
  H   H29       1.0  0.40015  0.52470  0.17385  1.0000
  H   H30       1.0  0.38991  0.49383  0.48808  1.0000
  H   H31       1.0  0.07485  0.99896  0.87130  1.0000
  H   H32       1.0  0.03666  0.01422  0.74934  1.0000
  H   H33       1.0  0.01892  0.96531  0.06004  1.0000
  H   H34       1.0  0.02175  0.17645  0.93158  1.0000
  H   H35       1.0  0.00167  0.13652  0.25087  1.0000
  H   H36       1.0  0.96728  0.15353  0.08805  1.0000
  H   H37       1.0  0.69252  0.30026  0.64005  1.0000
  H   H38       1.0  0.67281  0.39004  0.75951  1.0000
  H   H39       1.0  0.56121  0.27292  0.72811  1.0000
  H   H40       1.0  0.55862  0.44921  0.88423  1.0000
  H   H41       1.0  0.40561  0.45009  0.86207  1.0000
  H   H42       1.0  0.56471  0.51255  0.84597  1.0000
  H   H43       1.0  0.41171  0.51329  0.83347  1.0000
  H   H44       1.0  0.30990  0.59792  0.69465  1.0000
  H   H45       1.0  0.27878  0.67708  0.84871  1.0000
  H   H46       1.0  0.41047  0.70563  0.81567  1.0000
  H   H47       1.0  0.09889  0.57824  0.65694  1.0000
  H   H48       1.0  0.89084  0.42172  0.62261  1.0000
  H   H49       1.0  0.49633  0.08208  0.72291  1.0000
  H   H50       1.0  0.60553  0.60690  0.56638  1.0000
  H   H51       1.0  0.59802  0.57325  0.88116  1.0000
  H   H52       1.0  0.60455  0.63141  0.72856  1.0000
  H   H53       1.0  0.36602  0.33277  0.97023  1.0000
  H   H54       1.0  0.37784  0.39305  0.75532  1.0000
  H   H55       1.0  0.36532  0.36765  0.06923  1.0000
  H   H56       1.0  0.43893  0.01113  0.80817  1.0000
  H   H57       1.0  0.52465  0.93946  0.92147  1.0000
  H   H58       1.0  0.46831  0.87365  0.93101  1.0000
  H   H59       1.0  0.95700  0.43393  0.56685  1.0000
  H   H60       1.0  0.03440  0.56746  0.69958  1.0000
  H   H61       1.0  0.59924  0.00954  0.68539  1.0000
  H   H62       1.0  0.58808  0.97776  0.00079  1.0000
  H   H63       1.0  0.63451  0.04293  0.80423  1.0000
  H   H64       1.0  0.33182  0.91329  0.86859  1.0000
  H   H65       1.0  0.38174  0.97656  0.68218  1.0000
  H   H66       1.0  0.36295  0.94652  0.99541  1.0000
  H   H67       1.0  0.04958  0.42881  0.46752  1.0000
  H   H68       1.0  0.01085  0.44332  0.34582  1.0000
  H   H69       1.0  0.99498  0.39784  0.65975  1.0000
  H   H70       1.0  0.99877  0.60562  0.59879  1.0000
  H   H71       1.0  0.98092  0.55942  0.91357  1.0000
  H   H72       1.0  0.94385  0.57593  0.78276  1.0000
  C   C1        1.0  0.53524  0.96649  0.37727  1.0000
  C   C2        1.0  0.64151  0.82036  0.21239  1.0000
  C   C3        1.0  0.68816  0.85335  0.17230  1.0000
  C   C4        1.0  0.70438  0.89162  0.20582  1.0000
  C   C5        1.0  0.67266  0.89688  0.27551  1.0000
  C   C6        1.0  0.62579  0.86429  0.31960  1.0000
  C   C7        1.0  0.61055  0.82575  0.28898  1.0000
  C   C8        1.0  0.51250  0.98991  0.35333  1.0000
  C   C9        1.0  0.46592  0.96920  0.36478  1.0000
  C   C10       1.0  0.44964  0.99728  0.33130  1.0000
  C   C11       1.0  0.47643  0.04383  0.30023  1.0000
  C   C12       1.0  0.52292  0.06429  0.29020  1.0000
  C   C13       1.0  0.53988  0.03772  0.30891  1.0000
  C   C14       1.0  0.45369  0.06648  0.29070  1.0000
  C   C15       1.0  0.36822  0.17578  0.34192  1.0000
  C   C16       1.0  0.32653  0.15847  0.29271  1.0000
  C   C17       1.0  0.30023  0.17506  0.29877  1.0000
  C   C18       1.0  0.31557  0.20862  0.36340  1.0000
  C   C19       1.0  0.35659  0.22592  0.41933  1.0000
  C   C20       1.0  0.38239  0.20909  0.40734  1.0000
  C   C21       1.0  0.10793  0.11307  0.06679  1.0000
  C   C22       1.0  0.92221  0.01414  0.06305  1.0000
  C   C23       1.0  0.52781  0.57364  0.25582  1.0000
  C   C24       1.0  0.54519  0.62109  0.22156  1.0000
  C   C25       1.0  0.59644  0.13251  0.22120  1.0000
  C   C26       1.0  0.39160  0.89893  0.45102  1.0000
  C   C27       1.0  0.48158  0.54517  0.27448  1.0000
  C   C28       1.0  0.45888  0.49782  0.32093  1.0000
  C   C29       1.0  0.48293  0.47659  0.35089  1.0000
  C   C30       1.0  0.52941  0.50533  0.33053  1.0000
  C   C31       1.0  0.55212  0.55267  0.28428  1.0000
  C   C32       1.0  0.46345  0.42648  0.41407  1.0000
  C   C33       1.0  0.97025  0.04412  0.04131  1.0000
  C   C34       1.0  0.99672  0.02989  0.00224  1.0000
  C   C35       1.0  0.04221  0.05222  0.99740  1.0000
  C   C36       1.0  0.06276  0.09000  0.04065  1.0000
  C   C37       1.0  0.03691  0.10561  0.07000  1.0000
  C   C38       1.0  0.99202  0.08473  0.06500  1.0000
  C   C39       1.0  0.61976  0.55637  0.32433  1.0000
  C   C40       1.0  0.38829  0.48889  0.34334  1.0000
  C   C41       1.0  0.04780  0.00203  0.90736  1.0000
  C   C42       1.0  0.99145  0.14444  0.08931  1.0000
  C   C43       1.0  0.52282  0.42914  0.88674  1.0000
  C   C44       1.0  0.62540  0.28356  0.66686  1.0000
  C   C45       1.0  0.67103  0.31078  0.66093  1.0000
  C   C46       1.0  0.68851  0.34878  0.69726  1.0000
  C   C47       1.0  0.65925  0.35938  0.74074  1.0000
  C   C48       1.0  0.61320  0.33220  0.75366  1.0000
  C   C49       1.0  0.59695  0.29475  0.71452  1.0000
  C   C50       1.0  0.50132  0.45285  0.87890  1.0000
  C   C51       1.0  0.45535  0.43475  0.88242  1.0000
  C   C52       1.0  0.44050  0.46328  0.86081  1.0000
  C   C53       1.0  0.46929  0.51028  0.82399  1.0000
  C   C54       1.0  0.51532  0.52867  0.81797  1.0000
  C   C55       1.0  0.52965  0.49910  0.85014  1.0000
  C   C56       1.0  0.44904  0.53628  0.79522  1.0000
  C   C57       1.0  0.36447  0.65074  0.74642  1.0000
  C   C58       1.0  0.32054  0.62601  0.72890  1.0000
  C   C59       1.0  0.28924  0.63500  0.76290  1.0000
  C   C60       1.0  0.30199  0.66858  0.82568  1.0000
  C   C61       1.0  0.34565  0.69393  0.84516  1.0000
  C   C62       1.0  0.37662  0.68513  0.80274  1.0000
  C   C63       1.0  0.08902  0.54885  0.62981  1.0000
  C   C64       1.0  0.90144  0.45100  0.65181  1.0000
  C   C65       1.0  0.50315  0.02316  0.82324  1.0000
  C   C66       1.0  0.52147  0.07340  0.75492  1.0000
  C   C67       1.0  0.59072  0.59735  0.73651  1.0000
  C   C68       1.0  0.38144  0.37044  0.92570  1.0000
  C   C69       1.0  0.45689  0.99402  0.84174  1.0000
  C   C70       1.0  0.43470  0.94661  0.88987  1.0000
  C   C71       1.0  0.45945  0.92597  0.92203  1.0000
  C   C72       1.0  0.50569  0.95495  0.90428  1.0000
  C   C73       1.0  0.52789  0.00251  0.85533  1.0000
  C   C74       1.0  0.44192  0.87875  0.95390  1.0000
  C   C75       1.0  0.94904  0.47803  0.64154  1.0000
  C   C76       1.0  0.97460  0.46377  0.59311  1.0000
  C   C77       1.0  0.02041  0.48573  0.58151  1.0000
  C   C78       1.0  0.04244  0.52375  0.62290  1.0000
  C   C79       1.0  0.01699  0.53825  0.66924  1.0000
  C   C80       1.0  0.97139  0.51687  0.67777  1.0000
  C   C81       1.0  0.59973  0.01367  0.83234  1.0000
  C   C82       1.0  0.36583  0.94070  0.85784  1.0000
  C   C83       1.0  0.02341  0.43325  0.50005  1.0000
  C   C84       1.0  0.96949  0.57037  0.75543  1.0000
  N   N1        1.0  0.51549  0.92145  0.43495  1.0000
  N   N2        1.0  0.58767  0.65790  0.15040  1.0000
  N   N3        1.0  0.89202  0.01960  0.11048  1.0000
  N   N4        1.0  0.47072  0.10397  0.30661  1.0000
  N   N5        1.0  0.42203  0.39560  0.43196  1.0000
  N   N6        1.0  0.13557  0.10176  0.05747  1.0000
  N   N7        1.0  0.50432  0.39001  0.88318  1.0000
  N   N8        1.0  0.56292  0.10646  0.72632  1.0000
  N   N9        1.0  0.87274  0.45866  0.69404  1.0000
  N   N10       1.0  0.47077  0.58159  0.73737  1.0000
  N   N11       1.0  0.39959  0.84495  0.99775  1.0000
  N   N12       1.0  0.11749  0.53904  0.61179  1.0000
  O   O1        1.0  0.54830  0.10899  0.26167  1.0000
  O   O2        1.0  0.43993  0.92327  0.40554  1.0000
  O   O3        1.0  0.59674  0.57969  0.27576  1.0000
  O   O4        1.0  0.41373  0.47028  0.34031  1.0000
  O   O5        1.0  0.06822  0.03902  0.95833  1.0000
  O   O6        1.0  0.96762  0.10128  0.08276  1.0000
  O   O7        1.0  0.54252  0.57403  0.78274  1.0000
  O   O8        1.0  0.42870  0.39066  0.90620  1.0000
  O   O9        1.0  0.57303  0.03113  0.83468  1.0000
  O   O10       1.0  0.39039  0.91941  0.89535  1.0000
  O   O11       1.0  0.04580  0.47272  0.53431  1.0000
  O   O12       1.0  0.94676  0.53121  0.71907  1.0000
  C  Sn1       1.0  0.59545  0.92546  0.45559  1.0000
  C   C85       1.0  0.55613  0.91789  0.39177  1.0000
  C  Sn2       1.0  0.53126  0.88184  0.34501  1.0000
  C  Sn3       1.0  0.54599  0.85272  0.36254  1.0000
  C   C86       1.0  0.58528  0.86028  0.42636  1.0000
  C  Sn4       1.0  0.61017  0.89633  0.47312  1.0000
  O  Te1       1.0  0.06906  0.96170  0.50155  1.0000
  O  Te2       1.0  0.49207  0.87497  0.28145  1.0000
  O  Te3       1.0  0.52162  0.81645  0.31651  1.0000
  O  Te4       1.0  0.64934  0.90320  0.53668  1.0000
  Mg  Mg1       1.0  0.47045  0.82099  0.23634  1.0000
  Mg  Mg2       1.0  0.12025  0.95716  0.58195  1.0000
  C  Sn5       1.0  0.77644  0.96850  0.23736  1.0000
  C   C87       1.0  0.75732  0.94088  0.14118  1.0000
  C  Sn6       1.0  0.78334  0.93372  0.04112  1.0000
  C  Sn7       1.0  0.82942  0.95457  0.03724  1.0000
  C   C88       1.0  0.84852  0.98216  0.13341  1.0000
  C  Sn8       1.0  0.27181  0.98935  0.23348  1.0000
  O  Te5       1.0  0.19907  0.97518  0.33649  1.0000
  O  Te6       1.0  0.70378  0.78386  0.94598  1.0000
  O  Te7       1.0  0.79638  0.82574  0.93799  1.0000
  O  Te8       1.0  0.29164  0.01706  0.32861  1.0000
  Mg  Mg3       1.0  0.75398  0.78507  0.83079  1.0000
  Mg  Mg4       1.0  0.24148  0.01584  0.44395  1.0000
  C  Sn9       1.0  0.64838  0.75631  0.99566  1.0000
  C   C89       1.0  0.67264  0.82763  0.15798  1.0000
  C  Sn10      1.0  0.63884  0.81284  0.33166  1.0000
  C  Sn11      1.0  0.64046  0.84960  0.34328  1.0000
  C   C90       1.0  0.67586  0.90037  0.18100  1.0000
  C  Sn12      1.0  0.70969  0.91520  0.00727  1.0000
  O  Te9       1.0  0.68181  0.77024  0.82350  1.0000
  O  Te10      1.0  0.60377  0.76182  0.49204  1.0000
  O  Te11      1.0  0.60699  0.83563  0.51563  1.0000
  O  Te12      1.0  0.68504  0.84405  0.84694  1.0000
  Mg  Mg5       1.0  0.56613  0.76153  0.69427  1.0000
  Mg  Mg6       1.0  0.72269  0.84439  0.64457  1.0000
  C  Sn13      1.0  0.44084  0.13497  0.49492  1.0000
  C   C91       1.0  0.43952  0.11651  0.36270  1.0000
  C  Sn14      1.0  0.41890  0.12378  0.18358  1.0000
  C  Sn15      1.0  0.39922  0.15007  0.13548  1.0000
  C   C92       1.0  0.40055  0.16852  0.26763  1.0000
  C  Sn16      1.0  0.42116  0.16126  0.44683  1.0000
  O  Te13      1.0  0.46163  0.12727  0.67314  1.0000
  O  Te14      1.0  0.41798  0.10497  0.05383  1.0000
  O  Te15      1.0  0.31872  0.03563  0.95709  1.0000
  O  Te16      1.0  0.42209  0.18007  0.57650  1.0000
  Mg  Mg7       1.0  0.32608  0.00289  0.82895  1.0000
  Mg  Mg8       1.0  0.45430  0.16005  0.80132  1.0000
  C  Sn17      1.0  0.20579  0.13341  0.39074  1.0000
  C   C93       1.0  0.24684  0.14471  0.29372  1.0000
  C  Sn18      1.0  0.25462  0.14884  0.08390  1.0000
  C  Sn19      1.0  0.16099  0.01941  0.96855  1.0000
  C   C94       1.0  0.17967  0.13025  0.06554  1.0000
  C  Sn20      1.0  0.17185  0.12611  0.27540  1.0000
  O  Te17      1.0  0.19874  0.12947  0.60065  1.0000
  O  Te18      1.0  0.23623  0.03802  0.99034  1.0000
  O  Te19      1.0  0.16807  0.02336  0.75848  1.0000
  O  Te20      1.0  0.13059  0.11481  0.36892  1.0000
  Mg  Mg9       1.0  0.22984  0.03945  0.70047  1.0000
  Mg  Mg10      1.0  0.13694  0.11340  0.65870  1.0000
  C  Sn21      1.0  0.42794  0.30266  0.46372  1.0000
  C   C95       1.0  0.38251  0.26373  0.52498  1.0000
  C  Sn22      1.0  0.34771  0.26870  0.55025  1.0000
  C  Sn23      1.0  0.35856  0.31352  0.51338  1.0000
  C   C96       1.0  0.40397  0.35242  0.45212  1.0000
  C  Sn24      1.0  0.43879  0.34749  0.42685  1.0000
  O  Te21      1.0  0.46217  0.29688  0.43940  1.0000
  O  Te22      1.0  0.30254  0.22926  0.61169  1.0000
  O  Te23      1.0  0.32428  0.31927  0.53775  1.0000
  O  Te24      1.0  0.48393  0.38690  0.36541  1.0000
  Mg  Mg11      1.0  0.26793  0.25501  0.62373  1.0000
  Mg  Mg12      1.0  0.51857  0.36120  0.35320  1.0000
  C  Sn25      1.0  0.58200  0.38977  0.91724  1.0000
  C   C97       1.0  0.54480  0.38639  0.83890  1.0000
  C  Sn26      1.0  0.52199  0.35565  0.76099  1.0000
  C  Sn27      1.0  0.53665  0.32767  0.76152  1.0000
  C   C98       1.0  0.57383  0.33105  0.83985  1.0000
  C  Sn28      1.0  0.59666  0.36179  0.91776  1.0000
  O  Te25      1.0  0.60429  0.42074  0.99436  1.0000
  O  Te26      1.0  0.48489  0.35290  0.68342  1.0000
  O  Te27      1.0  0.51433  0.29669  0.68430  1.0000
  O  Te28      1.0  0.63373  0.36454  0.99533  1.0000
  Mg  Mg13      1.0  0.46558  0.30545  0.59534  1.0000
  Mg  Mg14      1.0  0.71275  0.53408  0.08356  1.0000
  C  Sn29      1.0  0.77964  0.37687  0.60060  1.0000
  C   C99       1.0  0.74149  0.36635  0.72379  1.0000
  C  Sn30      1.0  0.74680  0.39300  0.81737  1.0000
  C  Sn31      1.0  0.79117  0.43098  0.78708  1.0000
  C   C100      1.0  0.82929  0.44148  0.66393  1.0000
  C  Sn32      1.0  0.82401  0.41484  0.57031  1.0000
  O  Te29      1.0  0.77353  0.34976  0.50854  1.0000
  O  Te30      1.0  0.70815  0.38181  0.93993  1.0000
  O  Te31      1.0  0.79725  0.45809  0.87928  1.0000
  O  Te32      1.0  0.86263  0.42603  0.44779  1.0000
  Mg  Mg15      1.0  0.79377  0.55122  0.03245  1.0000
  Mg  Mg16      1.0  0.83675  0.37878  0.35509  1.0000
  C  Sn33      1.0  0.55768  0.18380  0.82967  1.0000
  C   C101      1.0  0.60162  0.22853  0.71515  1.0000
  C  Sn34      1.0  0.63305  0.23874  0.54826  1.0000
  C  Sn35      1.0  0.62029  0.20351  0.49458  1.0000
  C   C102      1.0  0.57636  0.15881  0.60903  1.0000
  C  Sn36      1.0  0.54491  0.14857  0.77599  1.0000
  O  Te33      1.0  0.52681  0.17438  0.99590  1.0000
  O  Te34      1.0  0.67679  0.28371  0.43615  1.0000
  O  Te35      1.0  0.65120  0.21297  0.32820  1.0000
  O  Te36      1.0  0.50119  0.10363  0.88804  1.0000
  Mg  Mg17      1.0  0.70672  0.27950  0.22263  1.0000
  Mg  Mg18      1.0  0.53092  0.22995  0.10148  1.0000
  C  Sn37      1.0  0.44739  0.65755  0.75991  1.0000
  C   C103      1.0  0.41006  0.65136  0.67680  1.0000
  C  Sn38      1.0  0.38811  0.61696  0.61828  1.0000
  C  Sn39      1.0  0.40378  0.58813  0.64348  1.0000
  C   C104      1.0  0.44108  0.59433  0.72658  1.0000
  C  Sn40      1.0  0.46306  0.62872  0.78511  1.0000
  O  Te37      1.0  0.46882  0.69215  0.81736  1.0000
  O  Te38      1.0  0.35087  0.61144  0.53547  1.0000
  O  Te39      1.0  0.38232  0.55351  0.58594  1.0000
  O  Te40      1.0  0.50027  0.63424  0.86791  1.0000
  Mg  Mg19      1.0  0.33298  0.55946  0.48046  1.0000
  Mg  Mg20      1.0  0.51817  0.68619  0.92308  1.0000
  C  Sn41      1.0  0.23443  0.60436  0.49866  1.0000
  C   C105      1.0  0.24504  0.61906  0.65300  1.0000
  C  Sn42      1.0  0.21042  0.60040  0.83676  1.0000
  C  Sn43      1.0  0.16422  0.56631  0.86700  1.0000
  C   C106      1.0  0.15363  0.55162  0.71275  1.0000
  C  Sn44      1.0  0.18823  0.57027  0.52890  1.0000
  O  Te41      1.0  0.26959  0.62349  0.31619  1.0000
  O  Te42      1.0  0.22186  0.61566  0.98876  1.0000
  O  Te43      1.0  0.18875  0.66931  0.04965  1.0000
  O  Te44      1.0  0.17680  0.55502  0.37699  1.0000
  Mg  Mg21      1.0  0.22155  0.70131  0.21088  1.0000
  Mg  Mg22      1.0  0.23678  0.59145  0.15490  1.0000
  C  Sn45      1.0  0.40930  0.81533  0.72550  1.0000
  C   C107      1.0  0.38799  0.81162  0.90640  1.0000
  C  Sn46      1.0  0.41325  0.88674  0.10781  1.0000
  C  Sn47      1.0  0.39985  0.84250  0.12894  1.0000
  C   C108      1.0  0.36147  0.72408  0.94814  1.0000
  C  Sn48      1.0  0.39590  0.77109  0.74663  1.0000
  O  Te45      1.0  0.44365  0.86272  0.52574  1.0000
  O  Te46      1.0  0.39244  0.88399  0.28628  1.0000
  O  Te47      1.0  0.36547  0.79508  0.32892  1.0000
  O  Te48      1.0  0.41671  0.77385  0.56826  1.0000
  Mg  Mg23      1.0  0.34737  0.81079  0.52433  1.0000
  Mg  Mg24      1.0  0.46181  0.84702  0.33020  1.0000
