data_image0
_chemical_formula_structural       H96C120N12O12C2Sn2C2HTe2HMgC2Sn2C2HTe2HMgC2Sn2C2HTe2HMgC2Sn2C2HTe2HMgC2Sn2C2HTe2HMgC2Sn2C2HTe2HMg
_chemical_formula_sum              "H108 C144 N12 O12 Sn12 Te12 Mg6"
_cell_length_a       36.1784
_cell_length_b       38.2071
_cell_length_c       6.89874
_cell_angle_alpha    59.1264
_cell_angle_beta     92.2737
_cell_angle_gamma    121.431

_symmetry_space_group_name_H-M    'P1'
_space_group_IT_number       1

loop_
  _space_group_symop_operation_xyz
  'x, y, z'

loop_
  _atom_site_type_symbol
  _atom_site_label
  _atom_site_symmetry_multiplicity
  _atom_site_fract_x
  _atom_site_fract_y
  _atom_site_fract_z
  _atom_site_occupancy
  H   H1        1.0  0.71161  0.84738  0.12441  1.0000
  H   H2        1.0  0.68470  0.92810  0.28792  1.0000
  H   H3        1.0  0.57438  0.79960  0.32334  1.0000
  H   H4        1.0  0.63428  0.90544  0.56111  1.0000
  H   H5        1.0  0.58987  0.93459  0.59955  1.0000
  H   H6        1.0  0.49695  0.86493  0.29908  1.0000
  H   H7        1.0  0.54421  0.84028  0.23574  1.0000
  H   H8        1.0  0.77894  0.91734  0.93014  1.0000
  H   H9        1.0  0.85934  0.97251  0.88231  1.0000
  H   H10       1.0  0.82255  0.99935  0.35240  1.0000
  H   H11       1.0  0.74108  0.94277  0.40525  1.0000
  H   H12       1.0  0.57259  0.99158  0.33231  1.0000
  H   H13       1.0  0.41420  0.98200  0.34017  1.0000
  H   H14       1.0  0.57549  0.05343  0.29735  1.0000
  H   H15       1.0  0.41885  0.04751  0.27922  1.0000
  H   H16       1.0  0.40834  0.10781  0.06553  1.0000
  H   H17       1.0  0.36675  0.14080  0.08165  1.0000
  H   H18       1.0  0.43633  0.17715  0.54225  1.0000
  H   H19       1.0  0.48042  0.14697  0.51116  1.0000
  H   H20       1.0  0.31370  0.13087  0.25284  1.0000
  H   H21       1.0  0.29666  0.22366  0.35713  1.0000
  H   H22       1.0  0.41463  0.22323  0.44470  1.0000
  H   H23       1.0  0.11706  0.14149  0.10012  1.0000
  H   H24       1.0  0.91252  0.98386  0.04324  1.0000
  H   H25       1.0  0.51825  0.62395  0.26332  1.0000
  H   H26       1.0  0.61118  0.13473  0.07571  1.0000
  H   H27       1.0  0.60290  0.11226  0.38580  1.0000
  H   H28       1.0  0.61078  0.17038  0.17105  1.0000
  H   H29       1.0  0.37856  0.86473  0.46159  1.0000
  H   H30       1.0  0.38399  0.92242  0.30508  1.0000
  H   H31       1.0  0.37638  0.88942  0.62030  1.0000
  H   H32       1.0  0.46307  0.56109  0.25723  1.0000
  H   H33       1.0  0.54738  0.48844  0.35666  1.0000
  H   H34       1.0  0.48747  0.41623  0.44877  1.0000
  H   H35       1.0  0.98008  0.99941  0.98044  1.0000
  H   H36       1.0  0.05311  0.13485  0.10030  1.0000
  H   H37       1.0  0.62138  0.54800  0.19544  1.0000
  H   H38       1.0  0.60317  0.52134  0.50449  1.0000
  H   H39       1.0  0.65440  0.58369  0.30834  1.0000
  H   H40       1.0  0.35307  0.45993  0.37457  1.0000
  H   H41       1.0  0.40015  0.52470  0.17385  1.0000
  H   H42       1.0  0.38991  0.49383  0.48808  1.0000
  H   H43       1.0  0.07485  0.99896  0.87130  1.0000
  H   H44       1.0  0.03666  0.01422  0.74934  1.0000
  H   H45       1.0  0.01892  0.96531  0.06004  1.0000
  H   H46       1.0  0.02175  0.17645  0.93158  1.0000
  H   H47       1.0  0.00167  0.13652  0.25087  1.0000
  H   H48       1.0  0.96728  0.15353  0.08805  1.0000
  H   H49       1.0  0.69252  0.30026  0.64005  1.0000
  H   H50       1.0  0.67281  0.39004  0.75951  1.0000
  H   H51       1.0  0.56121  0.27292  0.72811  1.0000
  H   H52       1.0  0.61802  0.36569  0.02487  1.0000
  H   H53       1.0  0.57338  0.39293  0.08175  1.0000
  H   H54       1.0  0.48973  0.34319  0.69410  1.0000
  H   H55       1.0  0.53709  0.31969  0.61860  1.0000
  H   H56       1.0  0.76319  0.37020  0.44781  1.0000
  H   H57       1.0  0.84261  0.41853  0.43855  1.0000
  H   H58       1.0  0.80282  0.43992  0.92632  1.0000
  H   H59       1.0  0.72239  0.39044  0.93999  1.0000
  H   H60       1.0  0.55862  0.44921  0.88423  1.0000
  H   H61       1.0  0.40561  0.45009  0.86207  1.0000
  H   H62       1.0  0.56471  0.51255  0.84597  1.0000
  H   H63       1.0  0.41171  0.51329  0.83347  1.0000
  H   H64       1.0  0.30990  0.59792  0.69465  1.0000
  H   H65       1.0  0.27878  0.67708  0.84871  1.0000
  H   H66       1.0  0.41047  0.70563  0.81567  1.0000
  H   H67       1.0  0.26844  0.60407  0.47186  1.0000
  H   H68       1.0  0.19379  0.56164  0.41246  1.0000
  H   H69       1.0  0.13406  0.56598  0.91991  1.0000
  H   H70       1.0  0.20821  0.60882  0.97706  1.0000
  H   H71       1.0  0.09889  0.57824  0.65694  1.0000
  H   H72       1.0  0.89084  0.42172  0.62261  1.0000
  H   H73       1.0  0.49633  0.08208  0.72291  1.0000
  H   H74       1.0  0.60553  0.60690  0.56638  1.0000
  H   H75       1.0  0.59802  0.57325  0.88116  1.0000
  H   H76       1.0  0.60455  0.63141  0.72856  1.0000
  H   H77       1.0  0.36602  0.33277  0.97023  1.0000
  H   H78       1.0  0.37784  0.39305  0.75532  1.0000
  H   H79       1.0  0.36532  0.36765  0.06923  1.0000
  H   H80       1.0  0.43893  0.01113  0.80817  1.0000
  H   H81       1.0  0.52465  0.93946  0.92147  1.0000
  H   H82       1.0  0.46831  0.87365  0.93101  1.0000
  H   H83       1.0  0.95700  0.43393  0.56685  1.0000
  H   H84       1.0  0.03440  0.56746  0.69958  1.0000
  H   H85       1.0  0.59924  0.00954  0.68539  1.0000
  H   H86       1.0  0.58808  0.97776  0.00079  1.0000
  H   H87       1.0  0.63451  0.04293  0.80423  1.0000
  H   H88       1.0  0.33182  0.91329  0.86859  1.0000
  H   H89       1.0  0.38174  0.97656  0.68218  1.0000
  H   H90       1.0  0.36295  0.94652  0.99541  1.0000
  H   H91       1.0  0.04958  0.42881  0.46752  1.0000
  H   H92       1.0  0.01085  0.44332  0.34582  1.0000
  H   H93       1.0  0.99498  0.39784  0.65975  1.0000
  H   H94       1.0  0.99877  0.60562  0.59879  1.0000
  H   H95       1.0  0.98092  0.55942  0.91357  1.0000
  H   H96       1.0  0.94385  0.57593  0.78276  1.0000
  C   C1        1.0  0.53524  0.96649  0.37727  1.0000
  C   C2        1.0  0.64151  0.82036  0.21239  1.0000
  C   C3        1.0  0.68816  0.85335  0.17230  1.0000
  C   C4        1.0  0.70438  0.89162  0.20582  1.0000
  C   C5        1.0  0.67266  0.89688  0.27551  1.0000
  C   C6        1.0  0.62579  0.86429  0.31960  1.0000
  C   C7        1.0  0.61055  0.82575  0.28898  1.0000
  C   C8        1.0  0.59464  0.87364  0.38058  1.0000
  C   C9        1.0  0.75323  0.92514  0.17340  1.0000
  C   C10       1.0  0.60545  0.89853  0.49239  1.0000
  C   C11       1.0  0.58003  0.91437  0.51775  1.0000
  C   C12       1.0  0.54149  0.90408  0.43838  1.0000
  C   C13       1.0  0.52769  0.87429  0.35148  1.0000
  C   C14       1.0  0.55423  0.86047  0.31766  1.0000
  C   C15       1.0  0.78785  0.93414  0.02804  1.0000
  C   C16       1.0  0.83358  0.96502  0.00304  1.0000
  C   C17       1.0  0.84688  0.98813  0.12435  1.0000
  C   C18       1.0  0.81253  0.98066  0.26328  1.0000
  C   C19       1.0  0.76686  0.94933  0.28935  1.0000
  C   C20       1.0  0.51250  0.98991  0.35333  1.0000
  C   C21       1.0  0.46592  0.96920  0.36478  1.0000
  C   C22       1.0  0.44964  0.99728  0.33130  1.0000
  C   C23       1.0  0.47643  0.04383  0.30023  1.0000
  C   C24       1.0  0.52292  0.06429  0.29020  1.0000
  C   C25       1.0  0.53988  0.03772  0.30891  1.0000
  C   C26       1.0  0.45369  0.06648  0.29070  1.0000
  C   C27       1.0  0.44578  0.12254  0.29954  1.0000
  C   C28       1.0  0.41381  0.12180  0.17483  1.0000
  C   C29       1.0  0.38999  0.14019  0.18610  1.0000
  C   C30       1.0  0.39594  0.15898  0.32420  1.0000
  C   C31       1.0  0.42954  0.16173  0.43880  1.0000
  C   C32       1.0  0.45433  0.14459  0.42384  1.0000
  C   C33       1.0  0.36822  0.17578  0.34192  1.0000
  C   C34       1.0  0.32653  0.15847  0.29271  1.0000
  C   C35       1.0  0.30023  0.17506  0.29877  1.0000
  C   C36       1.0  0.31557  0.20862  0.36340  1.0000
  C   C37       1.0  0.35659  0.22592  0.41933  1.0000
  C   C38       1.0  0.38239  0.20909  0.40734  1.0000
  C   C39       1.0  0.10793  0.11307  0.06679  1.0000
  C   C40       1.0  0.92221  0.01414  0.06305  1.0000
  C   C41       1.0  0.52781  0.57364  0.25582  1.0000
  C   C42       1.0  0.54519  0.62109  0.22156  1.0000
  C   C43       1.0  0.59644  0.13251  0.22120  1.0000
  C   C44       1.0  0.39160  0.89893  0.45102  1.0000
  C   C45       1.0  0.48158  0.54517  0.27448  1.0000
  C   C46       1.0  0.45888  0.49782  0.32093  1.0000
  C   C47       1.0  0.48293  0.47659  0.35089  1.0000
  C   C48       1.0  0.52941  0.50533  0.33053  1.0000
  C   C49       1.0  0.55212  0.55267  0.28428  1.0000
  C   C50       1.0  0.46345  0.42648  0.41407  1.0000
  C   C51       1.0  0.97025  0.04412  0.04131  1.0000
  C   C52       1.0  0.99672  0.02989  0.00224  1.0000
  C   C53       1.0  0.04221  0.05222  0.99740  1.0000
  C   C54       1.0  0.06276  0.09000  0.04065  1.0000
  C   C55       1.0  0.03691  0.10561  0.07000  1.0000
  C   C56       1.0  0.99202  0.08473  0.06500  1.0000
  C   C57       1.0  0.61976  0.55637  0.32433  1.0000
  C   C58       1.0  0.38829  0.48889  0.34334  1.0000
  C   C59       1.0  0.04780  0.00203  0.90736  1.0000
  C   C60       1.0  0.99145  0.14444  0.08931  1.0000
  C   C61       1.0  0.52282  0.42914  0.88674  1.0000
  C   C62       1.0  0.62540  0.28356  0.66686  1.0000
  C   C63       1.0  0.67103  0.31078  0.66093  1.0000
  C   C64       1.0  0.68851  0.34878  0.69726  1.0000
  C   C65       1.0  0.65925  0.35938  0.74074  1.0000
  C   C66       1.0  0.61320  0.33220  0.75366  1.0000
  C   C67       1.0  0.59695  0.29475  0.71452  1.0000
  C   C68       1.0  0.58315  0.34377  0.80413  1.0000
  C   C69       1.0  0.73634  0.37658  0.69445  1.0000
  C   C70       1.0  0.59144  0.36311  0.94113  1.0000
  C   C71       1.0  0.56598  0.37809  0.97525  1.0000
  C   C72       1.0  0.53014  0.37313  0.87609  1.0000
  C   C73       1.0  0.51901  0.34944  0.75830  1.0000
  C   C74       1.0  0.54541  0.33589  0.71929  1.0000
  C   C75       1.0  0.77120  0.38436  0.55735  1.0000
  C   C76       1.0  0.81613  0.41122  0.55387  1.0000
  C   C77       1.0  0.82821  0.43097  0.68996  1.0000
  C   C78       1.0  0.79366  0.42410  0.82396  1.0000
  C   C79       1.0  0.74872  0.39685  0.82826  1.0000
  C   C80       1.0  0.50132  0.45285  0.87890  1.0000
  C   C81       1.0  0.45535  0.43475  0.88242  1.0000
  C   C82       1.0  0.44050  0.46328  0.86081  1.0000
  C   C83       1.0  0.46929  0.51028  0.82399  1.0000
  C   C84       1.0  0.51532  0.52867  0.81797  1.0000
  C   C85       1.0  0.52965  0.49910  0.85014  1.0000
  C   C86       1.0  0.44904  0.53628  0.79522  1.0000
  C   C87       1.0  0.36447  0.65074  0.74642  1.0000
  C   C88       1.0  0.32054  0.62601  0.72890  1.0000
  C   C89       1.0  0.28924  0.63500  0.76290  1.0000
  C   C90       1.0  0.30199  0.66858  0.82568  1.0000
  C   C91       1.0  0.34565  0.69393  0.84516  1.0000
  C   C92       1.0  0.37662  0.68513  0.80274  1.0000
  C   C93       1.0  0.24445  0.61023  0.72771  1.0000
  C   C94       1.0  0.23906  0.59597  0.56999  1.0000
  C   C95       1.0  0.19731  0.57246  0.53432  1.0000
  C   C96       1.0  0.15902  0.56318  0.65157  1.0000
  C   C97       1.0  0.16392  0.57621  0.81398  1.0000
  C   C98       1.0  0.20577  0.59971  0.84885  1.0000
  C   C99       1.0  0.08902  0.54885  0.62981  1.0000
  C   C100      1.0  0.90144  0.45100  0.65181  1.0000
  C   C101      1.0  0.50315  0.02316  0.82324  1.0000
  C   C102      1.0  0.52147  0.07340  0.75492  1.0000
  C   C103      1.0  0.59072  0.59735  0.73651  1.0000
  C   C104      1.0  0.38144  0.37044  0.92570  1.0000
  C   C105      1.0  0.45689  0.99402  0.84174  1.0000
  C   C106      1.0  0.43470  0.94661  0.88987  1.0000
  C   C107      1.0  0.45945  0.92597  0.92203  1.0000
  C   C108      1.0  0.50569  0.95495  0.90428  1.0000
  C   C109      1.0  0.52789  0.00251  0.85533  1.0000
  C   C110      1.0  0.44192  0.87875  0.95390  1.0000
  C   C111      1.0  0.94904  0.47803  0.64154  1.0000
  C   C112      1.0  0.97460  0.46377  0.59311  1.0000
  C   C113      1.0  0.02041  0.48573  0.58151  1.0000
  C   C114      1.0  0.04244  0.52375  0.62290  1.0000
  C   C115      1.0  0.01699  0.53825  0.66924  1.0000
  C   C116      1.0  0.97139  0.51687  0.67777  1.0000
  C   C117      1.0  0.59973  0.01367  0.83234  1.0000
  C   C118      1.0  0.36583  0.94070  0.85784  1.0000
  C   C119      1.0  0.02341  0.43325  0.50005  1.0000
  C   C120      1.0  0.96949  0.57037  0.75543  1.0000
  N   N1        1.0  0.51549  0.92145  0.43495  1.0000
  N   N2        1.0  0.58767  0.65790  0.15040  1.0000
  N   N3        1.0  0.89202  0.01960  0.11048  1.0000
  N   N4        1.0  0.47072  0.10397  0.30661  1.0000
  N   N5        1.0  0.42203  0.39560  0.43196  1.0000
  N   N6        1.0  0.13557  0.10176  0.05747  1.0000
  N   N7        1.0  0.50432  0.39001  0.88318  1.0000
  N   N8        1.0  0.56292  0.10646  0.72632  1.0000
  N   N9        1.0  0.87274  0.45866  0.69404  1.0000
  N   N10       1.0  0.47077  0.58159  0.73737  1.0000
  N   N11       1.0  0.39959  0.84495  0.99775  1.0000
  N   N12       1.0  0.11749  0.53904  0.61179  1.0000
  O   O1        1.0  0.54830  0.10899  0.26167  1.0000
  O   O2        1.0  0.43993  0.92327  0.40554  1.0000
  O   O3        1.0  0.59674  0.57969  0.27576  1.0000
  O   O4        1.0  0.41373  0.47028  0.34031  1.0000
  O   O5        1.0  0.06822  0.03902  0.95833  1.0000
  O   O6        1.0  0.96762  0.10128  0.08276  1.0000
  O   O7        1.0  0.54252  0.57403  0.78274  1.0000
  O   O8        1.0  0.42870  0.39066  0.90620  1.0000
  O   O9        1.0  0.57303  0.03113  0.83468  1.0000
  O   O10       1.0  0.39039  0.91941  0.89535  1.0000
  O   O11       1.0  0.04580  0.47272  0.53431  1.0000
  O   O12       1.0  0.94676  0.53121  0.71907  1.0000
  C   C121      1.0  0.40265  0.59680  0.58853  1.0000
  C   C122      1.0  0.43933  0.60135  0.67535  1.0000
  C  Sn1       1.0  0.45427  0.62468  0.79309  1.0000
  C  Sn2       1.0  0.43201  0.64376  0.82429  1.0000
  C   C123      1.0  0.39533  0.63898  0.73693  1.0000
  C   C124      1.0  0.38066  0.61559  0.61930  1.0000
  H   H97       1.0  0.39128  0.57868  0.49763  1.0000
  O  Te1       1.0  0.49098  0.62893  0.87864  1.0000
  O  Te2       1.0  0.44623  0.66722  0.94138  1.0000
  H   H98       1.0  0.35224  0.61204  0.55224  1.0000
  Mg  Mg1       1.0  0.55751  0.78611  0.02616  1.0000
  C   C125      1.0  0.64994  0.78243  0.95817  1.0000
  C   C126      1.0  0.68951  0.90506  0.12465  1.0000
  C  Sn3       1.0  0.65274  0.86015  0.32456  1.0000
  C  Sn4       1.0  0.63589  0.81394  0.35795  1.0000
  C   C127      1.0  0.65627  0.81383  0.19045  1.0000
  C   C128      1.0  0.63335  0.73686  0.99102  1.0000
  H   H99       1.0  0.67840  0.81736  0.80392  1.0000
  O  Te3       1.0  0.63303  0.86133  0.48910  1.0000
  O  Te4       1.0  0.59920  0.76850  0.55620  1.0000
  H   H100      1.0  0.64893  0.73646  0.86223  1.0000
  Mg  Mg2       1.0  0.58376  0.78954  0.73065  1.0000
  C   C129      1.0  0.40996  0.79280  0.72886  1.0000
  C   C130      1.0  0.37256  0.74233  0.86738  1.0000
  C  Sn5       1.0  0.40083  0.84592  0.06553  1.0000
  C  Sn6       1.0  0.40706  0.87860  0.12565  1.0000
  C   C131      1.0  0.38488  0.80692  0.98584  1.0000
  C   C132      1.0  0.41612  0.82507  0.78798  1.0000
  H   H101      1.0  0.43412  0.80686  0.57570  1.0000
  O  Te5       1.0  0.36366  0.79538  0.20205  1.0000
  O  Te6       1.0  0.37618  0.86106  0.32270  1.0000
  H   H102      1.0  0.44506  0.86416  0.68068  1.0000
  Mg  Mg3       1.0  0.33090  0.78919  0.45368  1.0000
  C   C133      1.0  0.44017  0.33415  0.39850  1.0000
  C   C134      1.0  0.41662  0.34872  0.45726  1.0000
  C  Sn7       1.0  0.36902  0.31768  0.54181  1.0000
  C  Sn8       1.0  0.34464  0.27122  0.56791  1.0000
  C   C135      1.0  0.36851  0.25697  0.50880  1.0000
  C   C136      1.0  0.41614  0.28832  0.42427  1.0000
  H   H103      1.0  0.47702  0.35839  0.33322  1.0000
  O  Te7       1.0  0.34603  0.33281  0.59961  1.0000
  O  Te8       1.0  0.29706  0.23947  0.65211  1.0000
  H   H104      1.0  0.43437  0.27702  0.37894  1.0000
  Mg  Mg4       1.0  0.28108  0.27662  0.70722  1.0000
  C   C137      1.0  0.16612  0.01183  0.99255  1.0000
  C   C138      1.0  0.18368  0.11966  0.09663  1.0000
  C  Sn9       1.0  0.17912  0.12751  0.26835  1.0000
  C  Sn10      1.0  0.21752  0.15012  0.33672  1.0000
  C   C139      1.0  0.25953  0.16432  0.23142  1.0000
  C   C140      1.0  0.26371  0.15628  0.05982  1.0000
  H   H105      1.0  0.16936  0.00564  0.85968  1.0000
  O  Te9       1.0  0.13678  0.11298  0.37061  1.0000
  O  Te10      1.0  0.21393  0.15841  0.50785  1.0000
  H   H106      1.0  0.23664  0.04526  0.97915  1.0000
  Mg  Mg5       1.0  0.14901  0.13211  0.59604  1.0000
  C   C141      1.0  0.63886  0.23094  0.52356  1.0000
  C   C142      1.0  0.61431  0.24334  0.59338  1.0000
  C  Sn11      1.0  0.56793  0.20739  0.72177  1.0000
  C  Sn12      1.0  0.54582  0.15815  0.78115  1.0000
  C   C143      1.0  0.57070  0.14610  0.71061  1.0000
  C   C144      1.0  0.61709  0.18237  0.58213  1.0000
  H   H107      1.0  0.67476  0.25898  0.42426  1.0000
  O  Te11      1.0  0.54390  0.22042  0.79006  1.0000
  O  Te12      1.0  0.49951  0.12149  0.90941  1.0000
  H   H108      1.0  0.63610  0.17275  0.52823  1.0000
  Mg  Mg6       1.0  0.48137  0.15741  0.96238  1.0000
