data_image0
_chemical_formula_structural       H40C80N16C2Sn2C2HTe2HMgC2Sn2C2HTe2HMgC2Sn2C2HTe2HMgC2Sn2C2HTe2HMgC2Sn2C2HTe2HMgC2Sn2C2HTe2HMgC2Sn2C2HTe2HMgC2Sn2C2HTe2HMgC2Sn2C2HTe2HMgC2Sn2C2HTe2HMgC2Sn2C2HTe2HMgC2Sn2C2HTe2HMgC2Sn2C2HTe2HMgC2Sn2C2HTe2HMgC2Sn2C2HTe2HMgC2Sn2C2HTe2HMgC2Sn2C2HTe2HMgC2Sn2C2HTe2HMgC2Sn2C2HTe2HMgC2Sn2C2HTe2HMgC2Sn2C2HTe2HMgC2Sn2C2HTe2HMgC2Sn2C2HTe2HMgC2Sn2C2HTe2HMg
_chemical_formula_sum              "H88 C176 N16 Sn48 Te48 Mg24"
_cell_length_a       33.5593
_cell_length_b       34.7385
_cell_length_c       7.44134
_cell_angle_alpha    88.1198
_cell_angle_beta     71.0572
_cell_angle_gamma    88.9578

_symmetry_space_group_name_H-M    'P1'
_space_group_IT_number       1

loop_
  _space_group_symop_operation_xyz
  'x, y, z'

loop_
  _atom_site_type_symbol
  _atom_site_label
  _atom_site_symmetry_multiplicity
  _atom_site_fract_x
  _atom_site_fract_y
  _atom_site_fract_z
  _atom_site_occupancy
  H   H1        1.0  0.07732  0.72173  0.28143  1.0000
  H   H2        1.0  0.00429  0.71487  0.28622  1.0000
  H   H3        1.0  0.08462  0.53117  0.50285  1.0000
  H   H4        1.0  0.01120  0.52456  0.51761  1.0000
  H   H5        1.0  0.90292  0.61333  0.46863  1.0000
  H   H6        1.0  0.17857  0.63706  0.42319  1.0000
  H   H7        1.0  0.20636  0.43039  0.42802  1.0000
  H   H8        1.0  0.81351  0.46572  0.57158  1.0000
  H   H9        1.0  0.25326  0.80666  0.14315  1.0000
  H   H10       1.0  0.87955  0.81566  0.29639  1.0000
  H   H11       1.0  0.76646  0.27377  0.51462  1.0000
  H   H12       1.0  0.69038  0.91700  0.48485  1.0000
  H   H13       1.0  0.37634  0.32829  0.55417  1.0000
  H   H14       1.0  0.39983  0.12074  0.48661  1.0000
  H   H15       1.0  0.56233  0.21883  0.58945  1.0000
  H   H16       1.0  0.48867  0.21661  0.60547  1.0000
  H   H17       1.0  0.51192  0.02762  0.38037  1.0000
  H   H18       1.0  0.58527  0.02946  0.38066  1.0000
  H   H19       1.0  0.67813  0.12775  0.41844  1.0000
  H   H20       1.0  0.31380  0.96323  0.55270  1.0000
  H   H21       1.0  0.47809  0.61226  0.73501  1.0000
  H   H22       1.0  0.40309  0.60627  0.76946  1.0000
  H   H23       1.0  0.49325  0.41757  0.81810  1.0000
  H   H24       1.0  0.41942  0.41202  0.84481  1.0000
  H   H25       1.0  0.30402  0.50353  0.94631  1.0000
  H   H26       1.0  0.58526  0.52429  0.79320  1.0000
  H   H27       1.0  0.61028  0.31626  0.86685  1.0000
  H   H28       1.0  0.20978  0.35766  0.03154  1.0000
  H   H29       1.0  0.67271  0.67062  0.73813  1.0000
  H   H30       1.0  0.28744  0.70664  0.77460  1.0000
  H   H31       1.0  0.15426  0.16561  0.04485  1.0000
  H   H32       1.0  0.10480  0.81625  0.94551  1.0000
  H   H33       1.0  0.77866  0.21561  0.01552  1.0000
  H   H34       1.0  0.80529  0.00719  0.91302  1.0000
  H   H35       1.0  0.96337  0.11013  0.02346  1.0000
  H   H36       1.0  0.89024  0.10620  0.02327  1.0000
  H   H37       1.0  0.91242  0.91270  0.91958  1.0000
  H   H38       1.0  0.98473  0.91627  0.92402  1.0000
  H   H39       1.0  0.07682  0.01986  0.94028  1.0000
  H   H40       1.0  0.72024  0.86044  0.84679  1.0000
  C   C1        1.0  0.74828  0.30029  0.51065  1.0000
  C   C2        1.0  0.72368  0.92543  0.42542  1.0000
  C   C3        1.0  0.06101  0.69461  0.32769  1.0000
  C   C4        1.0  0.02030  0.69079  0.33073  1.0000
  C   C5        1.0  0.99802  0.65545  0.38968  1.0000
  C   C6        1.0  0.02079  0.62227  0.42521  1.0000
  C   C7        1.0  0.06393  0.62607  0.41561  1.0000
  C   C8        1.0  0.08337  0.66322  0.38101  1.0000
  C   C9        1.0  0.08753  0.59278  0.44203  1.0000
  C   C10       1.0  0.06695  0.55636  0.48028  1.0000
  C   C11       1.0  0.02568  0.55277  0.49146  1.0000
  C   C12       1.0  0.00088  0.58531  0.46827  1.0000
  C   C13       1.0  0.95496  0.65172  0.40490  1.0000
  C   C14       1.0  0.93628  0.61547  0.45083  1.0000
  C   C15       1.0  0.95770  0.58232  0.48245  1.0000
  C   C16       1.0  0.12445  0.66724  0.39381  1.0000
  C   C17       1.0  0.14678  0.63405  0.41756  1.0000
  C   C18       1.0  0.13010  0.59710  0.43406  1.0000
  C   C19       1.0  0.23539  0.43918  0.45329  1.0000
  C   C20       1.0  0.83030  0.43917  0.59061  1.0000
  C   C21       1.0  0.23921  0.82134  0.27857  1.0000
  C   C22       1.0  0.84776  0.80519  0.31205  1.0000
  C   C23       1.0  0.34484  0.31870  0.55974  1.0000
  C   C24       1.0  0.44879  0.15665  0.51258  1.0000
  C   C25       1.0  0.33107  0.94757  0.42414  1.0000
  C   C26       1.0  0.49146  0.15819  0.50659  1.0000
  C   C27       1.0  0.51715  0.12413  0.46406  1.0000
  C   C28       1.0  0.49960  0.08856  0.43251  1.0000
  C   C29       1.0  0.45662  0.08766  0.44292  1.0000
  C   C30       1.0  0.43241  0.12146  0.48408  1.0000
  C   C31       1.0  0.56023  0.12540  0.45788  1.0000
  C   C32       1.0  0.57845  0.16102  0.48471  1.0000
  C   C33       1.0  0.55054  0.19320  0.54474  1.0000
  C   C34       1.0  0.50914  0.19190  0.55501  1.0000
  C   C35       1.0  0.52544  0.05462  0.40115  1.0000
  C   C36       1.0  0.56610  0.05554  0.40165  1.0000
  C   C37       1.0  0.58466  0.09057  0.42912  1.0000
  C   C38       1.0  0.62237  0.16223  0.46085  1.0000
  C   C39       1.0  0.64488  0.12717  0.43421  1.0000
  C   C40       1.0  0.62697  0.09173  0.42619  1.0000
  C   C41       1.0  0.13840  0.19260  0.02406  1.0000
  C   C42       1.0  0.13816  0.82469  0.89757  1.0000
  C   C43       1.0  0.46292  0.58434  0.76786  1.0000
  C   C44       1.0  0.42120  0.58106  0.78736  1.0000
  C   C45       1.0  0.40029  0.54481  0.83071  1.0000
  C   C46       1.0  0.42478  0.51068  0.83441  1.0000
  C   C47       1.0  0.46883  0.51405  0.80978  1.0000
  C   C48       1.0  0.48755  0.55148  0.78820  1.0000
  C   C49       1.0  0.49383  0.48017  0.81226  1.0000
  C   C50       1.0  0.47431  0.44350  0.82447  1.0000
  C   C51       1.0  0.43254  0.44038  0.84343  1.0000
  C   C52       1.0  0.40551  0.47335  0.86169  1.0000
  C   C53       1.0  0.35637  0.54134  0.86449  1.0000
  C   C54       1.0  0.33812  0.50499  0.90562  1.0000
  C   C55       1.0  0.36100  0.47075  0.90390  1.0000
  C   C56       1.0  0.53003  0.55477  0.78294  1.0000
  C   C57       1.0  0.55312  0.52123  0.79224  1.0000
  C   C58       1.0  0.53643  0.48419  0.80532  1.0000
  C   C59       1.0  0.63719  0.32631  0.90635  1.0000
  C   C60       1.0  0.22742  0.33099  0.03979  1.0000
  C   C61       1.0  0.65305  0.69685  0.77049  1.0000
  C   C62       1.0  0.25426  0.69867  0.80385  1.0000
  C   C63       1.0  0.74754  0.20611  0.01539  1.0000
  C   C64       1.0  0.85195  0.04330  0.95623  1.0000
  C   C65       1.0  0.74036  0.83448  0.82080  1.0000
  C   C66       1.0  0.89344  0.04536  0.96361  1.0000
  C   C67       1.0  0.91834  0.01086  0.94465  1.0000
  C   C68       1.0  0.90111  0.97446  0.92225  1.0000
  C   C69       1.0  0.85993  0.97341  0.90641  1.0000
  C   C70       1.0  0.83651  0.00789  0.92703  1.0000
  C   C71       1.0  0.96057  0.01299  0.94966  1.0000
  C   C72       1.0  0.97783  0.04970  0.96620  1.0000
  C   C73       1.0  0.95103  0.08297  0.99682  1.0000
  C   C74       1.0  0.91047  0.08081  0.99662  1.0000
  C   C75       1.0  0.92617  0.94064  0.92219  1.0000
  C   C76       1.0  0.96649  0.94258  0.92746  1.0000
  C   C77       1.0  0.98552  0.97861  0.93750  1.0000
  C   C78       1.0  0.02043  0.05186  0.95974  1.0000
  C   C79       1.0  0.04421  0.01795  0.94420  1.0000
  C   C80       1.0  0.02790  0.98158  0.93454  1.0000
  N   N1        1.0  0.24286  0.47475  0.47610  1.0000
  N   N2        1.0  0.20475  0.80968  0.40463  1.0000
  N   N3        1.0  0.83960  0.76882  0.32465  1.0000
  N   N4        1.0  0.86695  0.44051  0.61276  1.0000
  N   N5        1.0  0.33448  0.28283  0.58046  1.0000
  N   N6        1.0  0.36862  0.95697  0.31675  1.0000
  N   N7        1.0  0.73472  0.96047  0.37182  1.0000
  N   N8        1.0  0.71193  0.30006  0.48502  1.0000
  N   N9        1.0  0.64297  0.36235  0.92693  1.0000
  N   N10       1.0  0.61280  0.69600  0.80378  1.0000
  N   N11       1.0  0.24264  0.66309  0.82624  1.0000
  N   N12       1.0  0.26588  0.33141  0.04059  1.0000
  N   N13       1.0  0.73791  0.17014  0.02793  1.0000
  N   N14       1.0  0.78013  0.83589  0.79871  1.0000
  N   N15       1.0  0.14913  0.86019  0.85424  1.0000
  N   N16       1.0  0.10326  0.19266  0.98758  1.0000
  C   C81       1.0  0.82839  0.35622  0.58372  1.0000
  C   C82       1.0  0.81557  0.39454  0.57523  1.0000
  C  Sn1       1.0  0.77620  0.40324  0.55736  1.0000
  C  Sn2       1.0  0.74922  0.37295  0.54790  1.0000
  C   C83       1.0  0.76232  0.33470  0.55664  1.0000
  C   C84       1.0  0.80179  0.32632  0.57447  1.0000
  H   H41       1.0  0.85892  0.34973  0.59762  1.0000
  O  Te1       1.0  0.76389  0.44169  0.54901  1.0000
  O  Te2       1.0  0.70970  0.38082  0.53009  1.0000
  H   H42       1.0  0.81170  0.29664  0.58116  1.0000
  Mg  Mg1       1.0  0.70707  0.43782  0.52451  1.0000
  C   C85       1.0  0.18612  0.55903  0.60481  1.0000
  C   C86       1.0  0.16495  0.56617  0.47331  1.0000
  C  Sn3       1.0  0.16797  0.53996  0.33093  1.0000
  C  Sn4       1.0  0.19267  0.50599  0.32038  1.0000
  C   C87       1.0  0.21370  0.49911  0.45268  1.0000
  C   C88       1.0  0.21047  0.52553  0.59455  1.0000
  H   H43       1.0  0.18361  0.57946  0.71464  1.0000
  O  Te3       1.0  0.14662  0.54754  0.20066  1.0000
  O  Te4       1.0  0.19622  0.47931  0.17956  1.0000
  H   H44       1.0  0.22685  0.51999  0.69641  1.0000
  Mg  Mg2       1.0  0.16123  0.50248  0.03463  1.0000
  C   C89       1.0  0.19799  0.71465  0.27284  1.0000
  C   C90       1.0  0.15604  0.70477  0.36730  1.0000
  C  Sn5       1.0  0.12771  0.73207  0.47298  1.0000
  C  Sn6       1.0  0.14172  0.76994  0.48399  1.0000
  C   C91       1.0  0.18375  0.77954  0.38886  1.0000
  C   C92       1.0  0.21183  0.75200  0.28356  1.0000
  H   H45       1.0  0.21971  0.69336  0.19128  1.0000
  O  Te5       1.0  0.08591  0.72170  0.56654  1.0000
  O  Te6       1.0  0.11407  0.79778  0.58855  1.0000
  H   H46       1.0  0.24430  0.75967  0.21034  1.0000
  Mg  Mg3       1.0  0.06017  0.76977  0.69119  1.0000
  C   C93       1.0  0.93039  0.51065  0.70274  1.0000
  C   C94       1.0  0.93602  0.53881  0.55835  1.0000
  C  Sn7       1.0  0.91545  0.53584  0.42359  1.0000
  C  Sn8       1.0  0.88875  0.50405  0.43398  1.0000
  C   C95       1.0  0.88330  0.47605  0.57906  1.0000
  C   C96       1.0  0.90405  0.47930  0.71313  1.0000
  H   H47       1.0  0.94643  0.51317  0.80654  1.0000
  O  Te7       1.0  0.92144  0.56422  0.28023  1.0000
  O  Te8       1.0  0.86779  0.50038  0.30118  1.0000
  H   H48       1.0  0.89966  0.45751  0.82498  1.0000
  Mg  Mg4       1.0  0.88604  0.54646  0.13232  1.0000
  C   C97       1.0  0.90388  0.74413  0.47539  1.0000
  C   C98       1.0  0.87871  0.74550  0.35806  1.0000
  C  Sn9       1.0  0.87726  0.71396  0.24863  1.0000
  C  Sn10      1.0  0.90150  0.68047  0.25714  1.0000
  C   C99       1.0  0.92656  0.67938  0.37506  1.0000
  C   C100      1.0  0.92778  0.71111  0.48393  1.0000
  H   H49       1.0  0.90481  0.76867  0.55970  1.0000
  O  Te9       1.0  0.85196  0.71581  0.13211  1.0000
  O  Te10      1.0  0.90063  0.64853  0.14932  1.0000
  H   H50       1.0  0.94726  0.71003  0.57484  1.0000
  Mg  Mg5       1.0  0.86129  0.66492  0.01204  1.0000
  C   C101      1.0  0.31483  0.41372  0.48077  1.0000
  C   C102      1.0  0.27503  0.41100  0.46047  1.0000
  C  Sn11      1.0  0.25449  0.37559  0.48876  1.0000
  C  Sn12      1.0  0.27425  0.34234  0.53834  1.0000
  C   C103      1.0  0.31406  0.34536  0.55844  1.0000
  C   C104      1.0  0.33434  0.38094  0.52974  1.0000
  H   H51       1.0  0.33051  0.44124  0.45868  1.0000
  O  Te11      1.0  0.21473  0.37339  0.46783  1.0000
  O  Te12      1.0  0.25442  0.30659  0.56751  1.0000
  H   H52       1.0  0.36514  0.38304  0.54559  1.0000
  Mg  Mg6       1.0  0.20042  0.31822  0.52235  1.0000
  C   C105      1.0  0.32495  0.88495  0.19010  1.0000
  C   C106      1.0  0.31242  0.91182  0.33393  1.0000
  C  Sn13      1.0  0.27330  0.90853  0.47613  1.0000
  C  Sn14      1.0  0.24629  0.87772  0.47395  1.0000
  C   C107      1.0  0.25913  0.85097  0.32952  1.0000
  C   C108      1.0  0.29833  0.85455  0.18789  1.0000
  H   H53       1.0  0.35529  0.88770  0.08057  1.0000
  O  Te13      1.0  0.26128  0.93564  0.61873  1.0000
  O  Te14      1.0  0.20703  0.87374  0.61437  1.0000
  H   H54       1.0  0.30803  0.83372  0.07662  1.0000
  Mg  Mg7       1.0  0.20474  0.91796  0.77881  1.0000
  C   C109      1.0  0.82559  0.88449  0.32038  1.0000
  C   C110      1.0  0.81998  0.84464  0.32750  1.0000
  C  Sn15      1.0  0.77989  0.82942  0.36076  1.0000
  C  Sn16      1.0  0.74483  0.85463  0.38729  1.0000
  C   C111      1.0  0.75079  0.89446  0.37977  1.0000
  C   C112      1.0  0.79104  0.90938  0.34645  1.0000
  H   H55       1.0  0.85674  0.89604  0.29450  1.0000
  O  Te15      1.0  0.77483  0.78953  0.36750  1.0000
  O  Te16      1.0  0.70442  0.84019  0.42069  1.0000
  H   H56       1.0  0.79538  0.94024  0.34083  1.0000
  Mg  Mg8       1.0  0.71355  0.78371  0.41716  1.0000
  C   C113      1.0  0.41712  0.25197  0.42299  1.0000
  C   C114      1.0  0.37471  0.25508  0.53324  1.0000
  C  Sn17      1.0  0.35533  0.22542  0.66148  1.0000
  C  Sn18      1.0  0.37895  0.19206  0.67939  1.0000
  C   C115      1.0  0.42137  0.18924  0.56855  1.0000
  C   C116      1.0  0.44044  0.21909  0.44063  1.0000
  H   H57       1.0  0.43189  0.27507  0.32409  1.0000
  O  Te17      1.0  0.31292  0.22899  0.77048  1.0000
  O  Te18      1.0  0.36037  0.16200  0.80650  1.0000
  H   H58       1.0  0.47329  0.21668  0.35538  1.0000
  Mg  Mg9       1.0  0.30167  0.18029  0.92385  1.0000
  C   C117      1.0  0.44981  0.02230  0.21895  1.0000
  C   C118      1.0  0.43957  0.04839  0.36642  1.0000
  C  Sn19      1.0  0.40352  0.04299  0.52450  1.0000
  C  Sn20      1.0  0.37731  0.01084  0.53475  1.0000
  C   C119      1.0  0.36902  0.98489  0.38653  1.0000
  C   C120      1.0  0.40515  0.99057  0.22898  1.0000
  H   H59       1.0  0.47777  0.02668  0.09709  1.0000
  O  Te19      1.0  0.39375  0.06934  0.67055  1.0000
  O  Te20      1.0  0.34111  0.00475  0.69114  1.0000
  H   H60       1.0  0.41309  0.97036  0.11488  1.0000
  Mg  Mg10      1.0  0.34106  0.04867  0.85424  1.0000
  C   C121      1.0  0.69402  0.04175  0.21393  1.0000
  C   C122      1.0  0.65851  0.05289  0.36294  1.0000
  C  Sn21      1.0  0.64727  0.03273  0.53751  1.0000
  C  Sn22      1.0  0.67211  0.00084  0.56296  1.0000
  C   C123      1.0  0.68877  0.98994  0.41305  1.0000
  C   C124      1.0  0.71855  0.01031  0.23894  1.0000
  H   H61       1.0  0.70251  0.05752  0.07924  1.0000
  O  Te21      1.0  0.61169  0.04424  0.68486  1.0000
  O  Te22      1.0  0.64278  0.98019  0.73598  1.0000
  H   H62       1.0  0.74606  0.00168  0.12363  1.0000
  Mg  Mg11      1.0  0.61022  0.00697  0.89411  1.0000
  C   C125      1.0  0.70157  0.21851  0.54604  1.0000
  C   C126      1.0  0.69854  0.25573  0.47415  1.0000
  C  Sn23      1.0  0.66647  0.26515  0.39842  1.0000
  C  Sn24      1.0  0.63693  0.23673  0.39483  1.0000
  C   C127      1.0  0.64021  0.19959  0.46722  1.0000
  C   C128      1.0  0.67244  0.19047  0.54262  1.0000
  H   H63       1.0  0.72649  0.21146  0.60448  1.0000
  O  Te23      1.0  0.66391  0.30246  0.32712  1.0000
  O  Te24      1.0  0.60455  0.24537  0.32001  1.0000
  H   H64       1.0  0.67476  0.16166  0.59839  1.0000
  Mg  Mg12      1.0  0.61420  0.30026  0.23974  1.0000
  C   C129      1.0  0.20948  0.23036  0.06513  1.0000
  C   C130      1.0  0.16903  0.22662  0.05323  1.0000
  C  Sn25      1.0  0.14614  0.25924  0.02901  1.0000
  C  Sn26      1.0  0.16417  0.29627  0.01648  1.0000
  C   C131      1.0  0.20467  0.29971  0.02842  1.0000
  C   C132      1.0  0.22729  0.26687  0.05271  1.0000
  H   H65       1.0  0.22700  0.20496  0.08383  1.0000
  O  Te25      1.0  0.10576  0.25498  0.01746  1.0000
  O  Te26      1.0  0.07012  0.32360  0.99220  1.0000
  H   H66       1.0  0.25862  0.26978  0.06180  1.0000
  Mg  Mg13      1.0  0.01613  0.30294  0.98433  1.0000
  C   C133      1.0  0.65816  0.45331  0.00887  1.0000
  C   C134      1.0  0.56888  0.45290  0.86278  1.0000
  C  Sn27      1.0  0.57486  0.42511  0.72468  1.0000
  C  Sn28      1.0  0.59871  0.39137  0.73341  1.0000
  C   C135      1.0  0.61597  0.38628  0.88022  1.0000
  C   C136      1.0  0.68168  0.42004  0.01763  1.0000
  H   H67       1.0  0.65338  0.47496  0.11526  1.0000
  O  Te27      1.0  0.55726  0.43092  0.57965  1.0000
  O  Te28      1.0  0.60515  0.36314  0.59728  1.0000
  H   H68       1.0  0.69514  0.41588  0.13080  1.0000
  Mg  Mg14      1.0  0.57482  0.38417  0.42721  1.0000
  C   C137      1.0  0.61209  0.62419  0.62875  1.0000
  C   C138      1.0  0.59820  0.65586  0.74452  1.0000
  C  Sn29      1.0  0.55937  0.65484  0.88978  1.0000
  C  Sn30      1.0  0.53406  0.62145  0.91938  1.0000
  C   C139      1.0  0.54826  0.58990  0.80287  1.0000
  C   C140      1.0  0.58715  0.59124  0.65789  1.0000
  H   H69       1.0  0.64219  0.62521  0.51664  1.0000
  O  Te29      1.0  0.61784  0.69251  0.00409  1.0000
  O  Te30      1.0  0.56701  0.62542  0.06357  1.0000
  H   H70       1.0  0.59791  0.56670  0.56836  1.0000
  Mg  Mg15      1.0  0.56241  0.67623  0.18203  1.0000
  C   C141      1.0  0.29202  0.42661  0.87978  1.0000
  C   C142      1.0  0.32583  0.43542  0.94157  1.0000
  C  Sn31      1.0  0.41395  0.41340  0.03947  1.0000
  C  Sn32      1.0  0.39596  0.37614  0.07592  1.0000
  C   C143      1.0  0.36217  0.36760  0.01340  1.0000
  C   C144      1.0  0.27427  0.38985  0.91561  1.0000
  H   H71       1.0  0.27964  0.44828  0.80403  1.0000
  O  Te31      1.0  0.44773  0.42269  0.10026  1.0000
  O  Te32      1.0  0.41160  0.34782  0.17340  1.0000
  H   H72       1.0  0.24811  0.38302  0.86768  1.0000
  Mg  Mg16      1.0  0.45799  0.37435  0.22762  1.0000
  C   C145      1.0  0.27880  0.59100  0.71644  1.0000
  C   C146      1.0  0.26916  0.62483  0.81897  1.0000
  C  Sn33      1.0  0.29144  0.63437  0.94036  1.0000
  C  Sn34      1.0  0.32397  0.60951  0.95912  1.0000
  C   C147      1.0  0.33339  0.57575  0.85582  1.0000
  C   C148      1.0  0.31089  0.56648  0.73480  1.0000
  H   H73       1.0  0.26141  0.58384  0.62272  1.0000
  O  Te33      1.0  0.35327  0.67404  0.04181  1.0000
  O  Te34      1.0  0.41862  0.62412  0.07939  1.0000
  H   H74       1.0  0.31838  0.54029  0.65534  1.0000
  Mg  Mg17      1.0  0.39324  0.67358  0.18777  1.0000
  C   C149      1.0  0.71217  0.30210  0.98949  1.0000
  C   C150      1.0  0.67508  0.29942  0.94395  1.0000
  C  Sn35      1.0  0.65833  0.26340  0.93272  1.0000
  C  Sn36      1.0  0.67915  0.22948  0.96785  1.0000
  C   C151      1.0  0.78810  0.23824  0.01343  1.0000
  C   C152      1.0  0.80460  0.27443  0.02423  1.0000
  H   H75       1.0  0.72493  0.33010  0.99795  1.0000
  O  Te35      1.0  0.62125  0.26123  0.88698  1.0000
  O  Te36      1.0  0.66309  0.19311  0.95764  1.0000
  H   H76       1.0  0.83330  0.27650  0.05961  1.0000
  Mg  Mg18      1.0  0.61170  0.20508  0.89018  1.0000
  C   C153      1.0  0.72899  0.73542  0.74523  1.0000
  C   C154      1.0  0.68582  0.73050  0.78154  1.0000
  C  Sn37      1.0  0.65836  0.76211  0.82477  1.0000
  C  Sn38      1.0  0.67452  0.79930  0.83162  1.0000
  C   C155      1.0  0.71776  0.80392  0.79494  1.0000
  C   C156      1.0  0.74495  0.77209  0.75188  1.0000
  H   H77       1.0  0.75003  0.71080  0.71181  1.0000
  O  Te37      1.0  0.61532  0.75668  0.86074  1.0000
  O  Te38      1.0  0.64779  0.83139  0.87440  1.0000
  H   H78       1.0  0.77838  0.77591  0.72365  1.0000
  Mg  Mg19      1.0  0.59154  0.80932  0.91278  1.0000
  C   C157      1.0  0.15502  0.74454  0.89854  1.0000
  C   C158      1.0  0.16335  0.78388  0.89473  1.0000
  C  Sn39      1.0  0.20486  0.79677  0.84271  1.0000
  C  Sn40      1.0  0.23858  0.76971  0.79362  1.0000
  C   C159      1.0  0.22991  0.73042  0.79775  1.0000
  C   C160      1.0  0.18826  0.71783  0.85008  1.0000
  H   H79       1.0  0.12279  0.73480  0.93892  1.0000
  O  Te39      1.0  0.21263  0.83618  0.83972  1.0000
  O  Te40      1.0  0.28036  0.78181  0.74103  1.0000
  H   H80       1.0  0.18181  0.68737  0.85290  1.0000
  Mg  Mg20      1.0  0.27492  0.83852  0.75855  1.0000
  C   C161      1.0  0.76244  0.10172  0.17237  1.0000
  C   C162      1.0  0.76640  0.13498  0.05731  1.0000
  C  Sn41      1.0  0.72898  0.13355  0.89135  1.0000
  C  Sn42      1.0  0.75999  0.10398  0.83996  1.0000
  C   C163      1.0  0.75573  0.07080  0.95595  1.0000
  C   C164      1.0  0.79300  0.07253  0.12175  1.0000
  H   H81       1.0  0.73566  0.09858  0.30060  1.0000
  O  Te41      1.0  0.73246  0.16698  0.77806  1.0000
  O  Te42      1.0  0.79474  0.10756  0.67482  1.0000
  H   H82       1.0  0.78993  0.04676  0.21074  1.0000
  Mg  Mg21      1.0  0.78553  0.15850  0.56680  1.0000
  C   C165      1.0  0.86263  0.89931  0.72792  1.0000
  C   C166      1.0  0.84552  0.93272  0.82418  1.0000
  C  Sn43      1.0  0.80305  0.93413  0.93526  1.0000
  C  Sn44      1.0  0.77733  0.90143  0.95001  1.0000
  C   C167      1.0  0.79476  0.86814  0.85326  1.0000
  C   C168      1.0  0.83729  0.86705  0.74245  1.0000
  H   H83       1.0  0.89555  0.89846  0.64226  1.0000
  O  Te43      1.0  0.85833  0.97350  0.03044  1.0000
  O  Te44      1.0  0.80666  0.90782  0.06011  1.0000
  H   H84       1.0  0.85054  0.84117  0.66803  1.0000
  Mg  Mg22      1.0  0.79858  0.96029  0.16295  1.0000
  C   C169      1.0  0.05153  0.90701  0.06017  1.0000
  C   C170      1.0  0.98295  0.93550  0.95271  1.0000
  C  Sn45      1.0  0.01885  0.94275  0.79620  1.0000
  C  Sn46      1.0  0.05201  0.91512  0.74668  1.0000
  C   C171      1.0  0.04840  0.88093  0.85502  1.0000
  C   C172      1.0  0.08422  0.87974  0.01139  1.0000
  H   H85       1.0  0.02362  0.90162  0.18109  1.0000
  O  Te45      1.0  0.02164  0.97713  0.69041  1.0000
  O  Te46      1.0  0.08824  0.92162  0.59092  1.0000
  H   H86       1.0  0.08166  0.85321  0.09449  1.0000
  Mg  Mg23      1.0  0.07731  0.97282  0.49072  1.0000
  C   C173      1.0  0.07766  0.11731  0.13861  1.0000
  C   C174      1.0  0.08547  0.14957  0.01533  1.0000
  C  Sn47      1.0  0.99663  0.14633  0.86688  1.0000
  C  Sn48      1.0  0.97139  0.11597  0.84177  1.0000
  C   C175      1.0  0.96375  0.08383  0.96596  1.0000
  C   C176      1.0  0.05276  0.08736  0.11400  1.0000
  H   H87       1.0  0.09090  0.11558  0.25322  1.0000
  O  Te47      1.0  0.00476  0.17876  0.74496  1.0000
  O  Te48      1.0  0.95404  0.11776  0.69462  1.0000
  H   H88       1.0  0.04668  0.06239  0.20950  1.0000
  Mg  Mg24      1.0  0.97412  0.16788  0.56547  1.0000
