data_image0
_chemical_formula_structural       H40C80N16SnCSn2CSnTe4Mg2SnCSn2CSnTe4Mg2SnCSn2CSnTe4Mg2SnCSn2CSnTe4Mg2SnCSn2CSnTe4Mg2SnCSn2CSnTe4Mg2SnCSn2CSnTe4Mg2SnCSn2CSnTe4Mg2SnCSn2CSnTe4Mg2SnCSn2CSnTe4Mg2SnCSn2CSnTe4Mg2SnCSn2CSnTe4Mg2SnCSn2CSnTe4Mg2SnCSn2CSnTe4Mg2SnCSn2CSnTe4Mg2SnCSn2CSnTe4Mg2SnCSn2CSnTe4Mg2SnCSn2CSnTe4Mg2SnCSn2CSnTe4Mg2SnCSn2CSnTe4Mg2SnCSn2CSnTe4Mg2SnCSn2CSnTe4Mg2SnCSn2CSnTe4Mg2SnCSn2CSnTe4Mg2
_chemical_formula_sum              "H40 C128 N16 Sn96 Te96 Mg48"
_cell_length_a       33.5593
_cell_length_b       34.7385
_cell_length_c       7.44134
_cell_angle_alpha    88.1198
_cell_angle_beta     71.0572
_cell_angle_gamma    88.9578

_symmetry_space_group_name_H-M    'P1'
_space_group_IT_number       1

loop_
  _space_group_symop_operation_xyz
  'x, y, z'

loop_
  _atom_site_type_symbol
  _atom_site_label
  _atom_site_symmetry_multiplicity
  _atom_site_fract_x
  _atom_site_fract_y
  _atom_site_fract_z
  _atom_site_occupancy
  H   H1        1.0  0.07732  0.72173  0.28143  1.0000
  H   H2        1.0  0.00429  0.71487  0.28622  1.0000
  H   H3        1.0  0.08462  0.53117  0.50285  1.0000
  H   H4        1.0  0.01120  0.52456  0.51761  1.0000
  H   H5        1.0  0.90292  0.61333  0.46863  1.0000
  H   H6        1.0  0.17857  0.63706  0.42319  1.0000
  H   H7        1.0  0.20636  0.43039  0.42802  1.0000
  H   H8        1.0  0.81351  0.46572  0.57158  1.0000
  H   H9        1.0  0.25326  0.80666  0.14315  1.0000
  H   H10       1.0  0.87955  0.81566  0.29639  1.0000
  H   H11       1.0  0.76646  0.27377  0.51462  1.0000
  H   H12       1.0  0.69038  0.91700  0.48485  1.0000
  H   H13       1.0  0.37634  0.32829  0.55417  1.0000
  H   H14       1.0  0.39983  0.12074  0.48661  1.0000
  H   H15       1.0  0.56233  0.21883  0.58945  1.0000
  H   H16       1.0  0.48867  0.21661  0.60547  1.0000
  H   H17       1.0  0.51192  0.02762  0.38037  1.0000
  H   H18       1.0  0.58527  0.02946  0.38066  1.0000
  H   H19       1.0  0.67813  0.12775  0.41844  1.0000
  H   H20       1.0  0.31380  0.96323  0.55270  1.0000
  H   H21       1.0  0.47809  0.61226  0.73501  1.0000
  H   H22       1.0  0.40309  0.60627  0.76946  1.0000
  H   H23       1.0  0.49325  0.41757  0.81810  1.0000
  H   H24       1.0  0.41942  0.41202  0.84481  1.0000
  H   H25       1.0  0.30402  0.50353  0.94631  1.0000
  H   H26       1.0  0.58526  0.52429  0.79320  1.0000
  H   H27       1.0  0.61028  0.31626  0.86685  1.0000
  H   H28       1.0  0.20978  0.35766  0.03154  1.0000
  H   H29       1.0  0.67271  0.67062  0.73813  1.0000
  H   H30       1.0  0.28744  0.70664  0.77460  1.0000
  H   H31       1.0  0.15426  0.16561  0.04485  1.0000
  H   H32       1.0  0.10480  0.81625  0.94551  1.0000
  H   H33       1.0  0.77866  0.21561  0.01552  1.0000
  H   H34       1.0  0.80529  0.00719  0.91302  1.0000
  H   H35       1.0  0.96337  0.11013  0.02346  1.0000
  H   H36       1.0  0.89024  0.10620  0.02327  1.0000
  H   H37       1.0  0.91242  0.91270  0.91958  1.0000
  H   H38       1.0  0.98473  0.91627  0.92402  1.0000
  H   H39       1.0  0.07682  0.01986  0.94028  1.0000
  H   H40       1.0  0.72024  0.86044  0.84679  1.0000
  C   C1        1.0  0.74828  0.30029  0.51065  1.0000
  C   C2        1.0  0.72368  0.92543  0.42542  1.0000
  C   C3        1.0  0.06101  0.69461  0.32769  1.0000
  C   C4        1.0  0.02030  0.69079  0.33073  1.0000
  C   C5        1.0  0.99802  0.65545  0.38968  1.0000
  C   C6        1.0  0.02079  0.62227  0.42521  1.0000
  C   C7        1.0  0.06393  0.62607  0.41561  1.0000
  C   C8        1.0  0.08337  0.66322  0.38101  1.0000
  C   C9        1.0  0.08753  0.59278  0.44203  1.0000
  C   C10       1.0  0.06695  0.55636  0.48028  1.0000
  C   C11       1.0  0.02568  0.55277  0.49146  1.0000
  C   C12       1.0  0.00088  0.58531  0.46827  1.0000
  C   C13       1.0  0.95496  0.65172  0.40490  1.0000
  C   C14       1.0  0.93628  0.61547  0.45083  1.0000
  C   C15       1.0  0.95770  0.58232  0.48245  1.0000
  C   C16       1.0  0.12445  0.66724  0.39381  1.0000
  C   C17       1.0  0.14678  0.63405  0.41756  1.0000
  C   C18       1.0  0.13010  0.59710  0.43406  1.0000
  C   C19       1.0  0.23539  0.43918  0.45329  1.0000
  C   C20       1.0  0.83030  0.43917  0.59061  1.0000
  C   C21       1.0  0.23921  0.82134  0.27857  1.0000
  C   C22       1.0  0.84776  0.80519  0.31205  1.0000
  C   C23       1.0  0.34484  0.31870  0.55974  1.0000
  C   C24       1.0  0.44879  0.15665  0.51258  1.0000
  C   C25       1.0  0.33107  0.94757  0.42414  1.0000
  C   C26       1.0  0.49146  0.15819  0.50659  1.0000
  C   C27       1.0  0.51715  0.12413  0.46406  1.0000
  C   C28       1.0  0.49960  0.08856  0.43251  1.0000
  C   C29       1.0  0.45662  0.08766  0.44292  1.0000
  C   C30       1.0  0.43241  0.12146  0.48408  1.0000
  C   C31       1.0  0.56023  0.12540  0.45788  1.0000
  C   C32       1.0  0.57845  0.16102  0.48471  1.0000
  C   C33       1.0  0.55054  0.19320  0.54474  1.0000
  C   C34       1.0  0.50914  0.19190  0.55501  1.0000
  C   C35       1.0  0.52544  0.05462  0.40115  1.0000
  C   C36       1.0  0.56610  0.05554  0.40165  1.0000
  C   C37       1.0  0.58466  0.09057  0.42912  1.0000
  C   C38       1.0  0.62237  0.16223  0.46085  1.0000
  C   C39       1.0  0.64488  0.12717  0.43421  1.0000
  C   C40       1.0  0.62697  0.09173  0.42619  1.0000
  C   C41       1.0  0.13840  0.19260  0.02406  1.0000
  C   C42       1.0  0.13816  0.82469  0.89757  1.0000
  C   C43       1.0  0.46292  0.58434  0.76786  1.0000
  C   C44       1.0  0.42120  0.58106  0.78736  1.0000
  C   C45       1.0  0.40029  0.54481  0.83071  1.0000
  C   C46       1.0  0.42478  0.51068  0.83441  1.0000
  C   C47       1.0  0.46883  0.51405  0.80978  1.0000
  C   C48       1.0  0.48755  0.55148  0.78820  1.0000
  C   C49       1.0  0.49383  0.48017  0.81226  1.0000
  C   C50       1.0  0.47431  0.44350  0.82447  1.0000
  C   C51       1.0  0.43254  0.44038  0.84343  1.0000
  C   C52       1.0  0.40551  0.47335  0.86169  1.0000
  C   C53       1.0  0.35637  0.54134  0.86449  1.0000
  C   C54       1.0  0.33812  0.50499  0.90562  1.0000
  C   C55       1.0  0.36100  0.47075  0.90390  1.0000
  C   C56       1.0  0.53003  0.55477  0.78294  1.0000
  C   C57       1.0  0.55312  0.52123  0.79224  1.0000
  C   C58       1.0  0.53643  0.48419  0.80532  1.0000
  C   C59       1.0  0.63719  0.32631  0.90635  1.0000
  C   C60       1.0  0.22742  0.33099  0.03979  1.0000
  C   C61       1.0  0.65305  0.69685  0.77049  1.0000
  C   C62       1.0  0.25426  0.69867  0.80385  1.0000
  C   C63       1.0  0.74754  0.20611  0.01539  1.0000
  C   C64       1.0  0.85195  0.04330  0.95623  1.0000
  C   C65       1.0  0.74036  0.83448  0.82080  1.0000
  C   C66       1.0  0.89344  0.04536  0.96361  1.0000
  C   C67       1.0  0.91834  0.01086  0.94465  1.0000
  C   C68       1.0  0.90111  0.97446  0.92225  1.0000
  C   C69       1.0  0.85993  0.97341  0.90641  1.0000
  C   C70       1.0  0.83651  0.00789  0.92703  1.0000
  C   C71       1.0  0.96057  0.01299  0.94966  1.0000
  C   C72       1.0  0.97783  0.04970  0.96620  1.0000
  C   C73       1.0  0.95103  0.08297  0.99682  1.0000
  C   C74       1.0  0.91047  0.08081  0.99662  1.0000
  C   C75       1.0  0.92617  0.94064  0.92219  1.0000
  C   C76       1.0  0.96649  0.94258  0.92746  1.0000
  C   C77       1.0  0.98552  0.97861  0.93750  1.0000
  C   C78       1.0  0.02043  0.05186  0.95974  1.0000
  C   C79       1.0  0.04421  0.01795  0.94420  1.0000
  C   C80       1.0  0.02790  0.98158  0.93454  1.0000
  N   N1        1.0  0.24286  0.47475  0.47610  1.0000
  N   N2        1.0  0.20475  0.80968  0.40463  1.0000
  N   N3        1.0  0.83960  0.76882  0.32465  1.0000
  N   N4        1.0  0.86695  0.44051  0.61276  1.0000
  N   N5        1.0  0.33448  0.28283  0.58046  1.0000
  N   N6        1.0  0.36862  0.95697  0.31675  1.0000
  N   N7        1.0  0.73472  0.96047  0.37182  1.0000
  N   N8        1.0  0.71193  0.30006  0.48502  1.0000
  N   N9        1.0  0.64297  0.36235  0.92693  1.0000
  N   N10       1.0  0.61280  0.69600  0.80378  1.0000
  N   N11       1.0  0.24264  0.66309  0.82624  1.0000
  N   N12       1.0  0.26588  0.33141  0.04059  1.0000
  N   N13       1.0  0.73791  0.17014  0.02793  1.0000
  N   N14       1.0  0.78013  0.83589  0.79871  1.0000
  N   N15       1.0  0.14913  0.86019  0.85424  1.0000
  N   N16       1.0  0.10326  0.19266  0.98758  1.0000
  C  Sn1       1.0  0.75643  0.39839  0.61697  1.0000
  C   C81       1.0  0.79658  0.40189  0.63270  1.0000
  C  Sn2       1.0  0.82552  0.37146  0.58414  1.0000
  C  Sn3       1.0  0.81411  0.33682  0.51838  1.0000
  C   C82       1.0  0.77399  0.33333  0.50265  1.0000
  C  Sn4       1.0  0.74502  0.36374  0.55121  1.0000
  O  Te1       1.0  0.72800  0.42918  0.66629  1.0000
  O  Te2       1.0  0.86547  0.37564  0.60111  1.0000
  O  Te3       1.0  0.84259  0.30602  0.46906  1.0000
  O  Te4       1.0  0.70510  0.35958  0.53424  1.0000
  Mg  Mg1       1.0  0.89320  0.32558  0.51645  1.0000
  Mg  Mg2       1.0  0.67735  0.40963  0.61876  1.0000
  C  Sn5       1.0  0.19264  0.53576  0.63101  1.0000
  C   C83       1.0  0.20483  0.50452  0.51097  1.0000
  C  Sn6       1.0  0.19651  0.50463  0.33881  1.0000
  C  Sn7       1.0  0.17558  0.53665  0.28545  1.0000
  C   C84       1.0  0.16340  0.56786  0.40543  1.0000
  C  Sn8       1.0  0.17170  0.56777  0.57765  1.0000
  O  Te5       1.0  0.20128  0.53503  0.80245  1.0000
  O  Te6       1.0  0.20900  0.47307  0.22119  1.0000
  O  Te7       1.0  0.16693  0.53736  0.11385  1.0000
  O  Te8       1.0  0.15924  0.59932  0.69521  1.0000
  Mg  Mg3       1.0  0.19017  0.48757  0.00188  1.0000
  Mg  Mg4       1.0  0.17806  0.58486  0.91450  1.0000
  C  Sn9       1.0  0.13824  0.76156  0.53781  1.0000
  C   C85       1.0  0.18048  0.77054  0.44405  1.0000
  C  Sn10      1.0  0.20547  0.74703  0.30142  1.0000
  C  Sn11      1.0  0.18786  0.71385  0.25137  1.0000
  C   C86       1.0  0.14565  0.70489  0.34508  1.0000
  C  Sn12      1.0  0.12064  0.72839  0.48776  1.0000
  O  Te9       1.0  0.11385  0.78549  0.67996  1.0000
  O  Te10      1.0  0.24762  0.75659  0.20974  1.0000
  O  Te11      1.0  0.21230  0.68992  0.10910  1.0000
  O  Te12      1.0  0.07851  0.71885  0.57938  1.0000
  Mg  Mg5       1.0  0.26807  0.71503  0.02540  1.0000
  Mg  Mg6       1.0  0.05803  0.76039  0.76367  1.0000
  C  Sn13      1.0  0.89353  0.53524  0.44141  1.0000
  C   C87       1.0  0.91947  0.54829  0.54006  1.0000
  C  Sn14      1.0  0.93333  0.52299  0.65751  1.0000
  C  Sn15      1.0  0.92103  0.48382  0.67666  1.0000
  C   C88       1.0  0.89512  0.47079  0.57802  1.0000
  C  Sn16      1.0  0.88124  0.49607  0.46056  1.0000
  O  Te13      1.0  0.88005  0.56105  0.32478  1.0000
  O  Te14      1.0  0.95922  0.53671  0.75475  1.0000
  O  Te15      1.0  0.93454  0.45802  0.79341  1.0000
  O  Te16      1.0  0.85536  0.48237  0.36333  1.0000
  Mg  Mg7       1.0  0.96945  0.49043  0.89654  1.0000
  Mg  Mg8       1.0  0.84514  0.52862  0.22143  1.0000
  C  Sn17      1.0  0.90409  0.68800  0.20538  1.0000
  C   C89       1.0  0.93150  0.68860  0.31212  1.0000
  C  Sn18      1.0  0.92553  0.71527  0.45522  1.0000
  C  Sn19      1.0  0.89144  0.74186  0.49250  1.0000
  C   C90       1.0  0.86406  0.74125  0.38582  1.0000
  C  Sn20      1.0  0.87001  0.71460  0.24266  1.0000
  O  Te17      1.0  0.91066  0.66109  0.06303  1.0000
  O  Te18      1.0  0.95335  0.71533  0.55999  1.0000
  O  Te19      1.0  0.88489  0.76878  0.63498  1.0000
  O  Te20      1.0  0.84221  0.71452  0.13795  1.0000
  Mg  Mg9       1.0  0.93127  0.75750  0.73913  1.0000
  Mg  Mg10      1.0  0.79237  0.66658  0.95886  1.0000
  C  Sn21      1.0  0.31717  0.41024  0.42014  1.0000
  C   C91       1.0  0.27569  0.40740  0.41996  1.0000
  C  Sn22      1.0  0.25193  0.37472  0.49794  1.0000
  C  Sn23      1.0  0.26999  0.34424  0.57789  1.0000
  C   C92       1.0  0.31143  0.34708  0.57808  1.0000
  C  Sn24      1.0  0.33522  0.37976  0.50009  1.0000
  O  Te21      1.0  0.34034  0.44319  0.34142  1.0000
  O  Te22      1.0  0.21054  0.37254  0.49605  1.0000
  O  Te23      1.0  0.24677  0.31127  0.65664  1.0000
  O  Te24      1.0  0.37659  0.38195  0.50199  1.0000
  Mg  Mg11      1.0  0.19167  0.32178  0.62046  1.0000
  Mg  Mg12      1.0  0.39548  0.43270  0.37771  1.0000
  C  Sn25      1.0  0.26569  0.89374  0.54201  1.0000
  C   C93       1.0  0.30527  0.90715  0.43025  1.0000
  C  Sn26      1.0  0.32276  0.89603  0.24190  1.0000
  C  Sn27      1.0  0.30021  0.87101  0.16355  1.0000
  C   C94       1.0  0.26065  0.85762  0.27526  1.0000
  C  Sn28      1.0  0.24314  0.86872  0.46366  1.0000
  O  Te25      1.0  0.24880  0.90522  0.72996  1.0000
  O  Te26      1.0  0.36239  0.90980  0.13298  1.0000
  O  Te27      1.0  0.24526  0.85377  0.97543  1.0000
  O  Te28      1.0  0.20353  0.85496  0.57253  1.0000
  Mg  Mg13      1.0  0.30025  0.88022  0.88409  1.0000
  Mg  Mg14      1.0  0.19376  0.87878  0.82139  1.0000
  C  Sn29      1.0  0.80838  0.90007  0.29032  1.0000
  C   C95       1.0  0.76480  0.89668  0.33415  1.0000
  C  Sn30      1.0  0.74540  0.86100  0.38931  1.0000
  C  Sn31      1.0  0.77007  0.82801  0.40100  1.0000
  C   C96       1.0  0.81362  0.83141  0.35722  1.0000
  C  Sn32      1.0  0.83305  0.86708  0.30202  1.0000
  O  Te29      1.0  0.82710  0.93602  0.23551  1.0000
  O  Te30      1.0  0.70179  0.85832  0.43237  1.0000
  O  Te31      1.0  0.75131  0.79203  0.45586  1.0000
  O  Te32      1.0  0.87663  0.86976  0.25900  1.0000
  Mg  Mg15      1.0  0.69084  0.80304  0.50027  1.0000
  Mg  Mg16      1.0  0.88761  0.92503  0.19119  1.0000
  C  Sn33      1.0  0.36782  0.19042  0.64606  1.0000
  C   C97       1.0  0.40969  0.18737  0.52849  1.0000
  C  Sn34      1.0  0.43173  0.22012  0.43815  1.0000
  C  Sn35      1.0  0.41153  0.25670  0.46598  1.0000
  C   C98       1.0  0.36969  0.25974  0.58351  1.0000
  C  Sn36      1.0  0.34762  0.22700  0.67389  1.0000
  O  Te33      1.0  0.34639  0.15730  0.73495  1.0000
  O  Te34      1.0  0.47356  0.21634  0.32123  1.0000
  O  Te35      1.0  0.43300  0.28983  0.37696  1.0000
  O  Te36      1.0  0.30582  0.23076  0.79077  1.0000
  Mg  Mg17      1.0  0.48951  0.26992  0.23127  1.0000
  Mg  Mg18      1.0  0.28984  0.17722  0.88088  1.0000
  C  Sn37      1.0  0.45984  0.99868  0.23922  1.0000
  C   C99       1.0  0.40278  0.98445  0.36139  1.0000
  C  Sn38      1.0  0.39659  0.00664  0.50993  1.0000
  C  Sn39      1.0  0.41003  0.04385  0.53685  1.0000
  C   C100      1.0  0.44824  0.05807  0.41471  1.0000
  C  Sn40      1.0  0.47329  0.03589  0.26615  1.0000
  O  Te37      1.0  0.46552  0.97599  0.09166  1.0000
  O  Te38      1.0  0.33967  0.99179  0.63026  1.0000
  O  Te39      1.0  0.38549  0.06654  0.68456  1.0000
  O  Te40      1.0  0.51135  0.05072  0.14584  1.0000
  Mg  Mg19      1.0  0.33613  0.03368  0.81084  1.0000
  Mg  Mg20      1.0  0.46186  0.00311  0.96517  1.0000
  C  Sn41      1.0  0.71454  0.02924  0.23595  1.0000
  C   C101      1.0  0.71339  0.00182  0.37921  1.0000
  C  Sn42      1.0  0.67796  0.99884  0.54186  1.0000
  C  Sn43      1.0  0.64294  0.02377  0.56169  1.0000
  C   C102      1.0  0.64410  0.05116  0.41848  1.0000
  C  Sn44      1.0  0.67952  0.05417  0.25578  1.0000
  O  Te41      1.0  0.75029  0.03170  0.07457  1.0000
  O  Te42      1.0  0.65871  0.97121  0.68319  1.0000
  O  Te43      1.0  0.60717  0.02128  0.72325  1.0000
  O  Te44      1.0  0.67995  0.08177  0.11450  1.0000
  Mg  Mg21      1.0  0.60280  0.97900  0.87660  1.0000
  Mg  Mg22      1.0  0.66396  0.06823  0.92099  1.0000
  C  Sn45      1.0  0.70863  0.21817  0.48298  1.0000
  C   C103      1.0  0.70224  0.25602  0.42814  1.0000
  C  Sn46      1.0  0.66416  0.26692  0.40227  1.0000
  C  Sn47      1.0  0.63176  0.23941  0.43194  1.0000
  C   C104      1.0  0.63816  0.20158  0.48678  1.0000
  C  Sn48      1.0  0.67624  0.19066  0.51265  1.0000
  O  Te45      1.0  0.74695  0.20791  0.50802  1.0000
  O  Te46      1.0  0.65851  0.30493  0.34735  1.0000
  O  Te47      1.0  0.59342  0.24969  0.40684  1.0000
  O  Te48      1.0  0.68189  0.15268  0.56757  1.0000
  Mg  Mg23      1.0  0.60076  0.30495  0.33138  1.0000
  Mg  Mg24      1.0  0.73961  0.15262  0.58367  1.0000
  C  Sn49      1.0  0.22501  0.25004  0.01376  1.0000
  C   C105      1.0  0.14033  0.28243  0.99903  1.0000
  C  Sn50      1.0  0.17016  0.29689  0.01998  1.0000
  C  Sn51      1.0  0.14028  0.26684  0.05654  1.0000
  C   C106      1.0  0.15308  0.22872  0.07128  1.0000
  C  Sn52      1.0  0.19512  0.21999  0.05031  1.0000
  O  Te49      1.0  0.19533  0.23624  0.99232  1.0000
  O  Te50      1.0  0.15811  0.33525  0.00459  1.0000
  O  Te51      1.0  0.09806  0.27491  0.07797  1.0000
  O  Te52      1.0  0.20717  0.18167  0.06572  1.0000
  Mg  Mg25      1.0  0.09700  0.33164  0.04484  1.0000
  Mg  Mg26      1.0  0.26827  0.18524  0.02559  1.0000
  C  Sn53      1.0  0.59652  0.45303  0.95962  1.0000
  C   C107      1.0  0.57597  0.45572  0.82364  1.0000
  C  Sn54      1.0  0.57293  0.42350  0.72150  1.0000
  C  Sn55      1.0  0.59078  0.38784  0.75606  1.0000
  C   C108      1.0  0.61131  0.38516  0.89199  1.0000
  C  Sn56      1.0  0.61438  0.41737  0.99419  1.0000
  O  Te53      1.0  0.67106  0.49137  0.06007  1.0000
  O  Te54      1.0  0.55224  0.42689  0.58622  1.0000
  O  Te55      1.0  0.58810  0.35524  0.65547  1.0000
  O  Te56      1.0  0.70692  0.41975  0.12941  1.0000
  Mg  Mg27      1.0  0.55678  0.37433  0.48588  1.0000
  Mg  Mg28      1.0  0.70237  0.47228  0.22990  1.0000
  C  Sn57      1.0  0.60284  0.60123  0.66966  1.0000
  C   C109      1.0  0.56290  0.58987  0.78723  1.0000
  C  Sn58      1.0  0.53507  0.61666  0.89978  1.0000
  C  Sn59      1.0  0.54741  0.65563  0.89462  1.0000
  C   C110      1.0  0.58733  0.66697  0.77709  1.0000
  C  Sn60      1.0  0.61518  0.64019  0.66451  1.0000
  O  Te57      1.0  0.63014  0.57396  0.55835  1.0000
  O  Te58      1.0  0.56718  0.61039  0.01623  1.0000
  O  Te59      1.0  0.59194  0.68866  0.00607  1.0000
  O  Te60      1.0  0.65492  0.65222  0.54809  1.0000
  Mg  Mg29      1.0  0.54114  0.65827  0.14157  1.0000
  Mg  Mg30      1.0  0.68097  0.60437  0.42263  1.0000
  C  Sn61      1.0  0.32207  0.37836  0.12169  1.0000
  C   C111      1.0  0.28784  0.37051  0.06106  1.0000
  C  Sn62      1.0  0.20705  0.38846  0.92347  1.0000
  C  Sn63      1.0  0.23290  0.42069  0.84474  1.0000
  C   C112      1.0  0.26711  0.42853  0.90534  1.0000
  C  Sn64      1.0  0.34791  0.41059  0.04295  1.0000
  O  Te61      1.0  0.33039  0.35426  0.25939  1.0000
  O  Te62      1.0  0.17266  0.38003  0.86517  1.0000
  O  Te63      1.0  0.22454  0.44480  0.70694  1.0000
  O  Te64      1.0  0.38229  0.41900  0.10123  1.0000
  Mg  Mg31      1.0  0.17415  0.42140  0.67368  1.0000
  Mg  Mg32      1.0  0.38084  0.37765  0.29263  1.0000
  C  Sn65      1.0  0.26954  0.58757  0.77373  1.0000
  C   C113      1.0  0.26355  0.62301  0.86278  1.0000
  C  Sn66      1.0  0.29326  0.63647  0.94015  1.0000
  C  Sn67      1.0  0.32973  0.61405  0.92817  1.0000
  C   C114      1.0  0.33571  0.57863  0.83914  1.0000
  C  Sn68      1.0  0.30601  0.56515  0.76175  1.0000
  O  Te65      1.0  0.23943  0.57469  0.69737  1.0000
  O  Te66      1.0  0.35845  0.67774  0.02854  1.0000
  O  Te67      1.0  0.43172  0.63273  0.00463  1.0000
  O  Te68      1.0  0.31268  0.52967  0.67338  1.0000
  Mg  Mg33      1.0  0.40853  0.68296  0.11089  1.0000
  Mg  Mg34      1.0  0.26264  0.52443  0.59090  1.0000
  C  Sn69      1.0  0.67924  0.23200  0.90273  1.0000
  C   C115      1.0  0.71641  0.23549  0.94689  1.0000
  C  Sn70      1.0  0.79871  0.27633  0.00605  1.0000
  C  Sn71      1.0  0.77139  0.30859  0.02152  1.0000
  C   C116      1.0  0.66237  0.29932  0.97741  1.0000
  C  Sn72      1.0  0.65193  0.26426  0.91820  1.0000
  O  Te69      1.0  0.66946  0.19666  0.84388  1.0000
  O  Te70      1.0  0.83605  0.27912  0.04936  1.0000
  O  Te71      1.0  0.78121  0.34395  0.08042  1.0000
  O  Te72      1.0  0.61461  0.26146  0.87494  1.0000
  Mg  Mg35      1.0  0.83561  0.33338  0.12350  1.0000
  Mg  Mg36      1.0  0.61501  0.20721  0.80089  1.0000
  C  Sn73      1.0  0.74100  0.75725  0.70421  1.0000
  C   C117      1.0  0.72456  0.79429  0.74866  1.0000
  C  Sn74      1.0  0.68114  0.80009  0.82835  1.0000
  C  Sn75      1.0  0.65358  0.76820  0.86448  1.0000
  C   C118      1.0  0.67002  0.73118  0.82006  1.0000
  C  Sn76      1.0  0.71343  0.72536  0.74033  1.0000
  O  Te73      1.0  0.78451  0.75213  0.62464  1.0000
  O  Te74      1.0  0.66545  0.83739  0.87153  1.0000
  O  Te75      1.0  0.61004  0.77335  0.94411  1.0000
  O  Te76      1.0  0.72913  0.68809  0.69720  1.0000
  Mg  Mg37      1.0  0.60383  0.82966  0.97822  1.0000
  Mg  Mg38      1.0  0.79075  0.69578  0.59060  1.0000
  C  Sn77      1.0  0.22108  0.79472  0.75804  1.0000
  C   C119      1.0  0.17709  0.79383  0.81700  1.0000
  C  Sn78      1.0  0.15562  0.76013  0.89715  1.0000
  C  Sn79      1.0  0.17859  0.72663  0.91895  1.0000
  C   C120      1.0  0.22255  0.72753  0.86004  1.0000
  C  Sn80      1.0  0.24405  0.76121  0.77984  1.0000
  O  Te77      1.0  0.24189  0.82873  0.67829  1.0000
  O  Te78      1.0  0.11163  0.75994  0.95497  1.0000
  O  Te79      1.0  0.15774  0.69261  0.99877  1.0000
  O  Te80      1.0  0.28802  0.76141  0.72207  1.0000
  Mg  Mg39      1.0  0.16945  0.71244  0.05576  1.0000
  Mg  Mg40      1.0  0.30211  0.81467  0.62136  1.0000
  C  Sn81      1.0  0.83575  0.12170  0.86323  1.0000
  C   C121      1.0  0.83149  0.08910  0.98293  1.0000
  C  Sn82      1.0  0.86451  0.08610  0.11857  1.0000
  C  Sn83      1.0  0.82917  0.11040  0.13483  1.0000
  C   C122      1.0  0.83343  0.14297  0.01516  1.0000
  C  Sn84      1.0  0.80040  0.14600  0.87949  1.0000
  O  Te81      1.0  0.87488  0.12990  0.72864  1.0000
  O  Te82      1.0  0.86104  0.05336  0.23669  1.0000
  O  Te83      1.0  0.79001  0.10217  0.26956  1.0000
  O  Te84      1.0  0.80388  0.17871  0.76140  1.0000
  Mg  Mg41      1.0  0.80110  0.05431  0.39784  1.0000
  Mg  Mg42      1.0  0.86380  0.17778  0.60014  1.0000
  C  Sn85      1.0  0.85171  0.87727  0.76284  1.0000
  C   C123      1.0  0.80970  0.86695  0.85255  1.0000
  C  Sn86      1.0  0.77975  0.89470  0.94134  1.0000
  C  Sn87      1.0  0.79204  0.93358  0.94035  1.0000
  C   C124      1.0  0.83402  0.94388  0.85065  1.0000
  C  Sn88      1.0  0.86399  0.91615  0.76184  1.0000
  O  Te85      1.0  0.88111  0.84905  0.67495  1.0000
  O  Te86      1.0  0.80982  0.88946  0.03017  1.0000
  O  Te87      1.0  0.83446  0.96757  0.02834  1.0000
  O  Te88      1.0  0.90577  0.92714  0.67303  1.0000
  Mg  Mg43      1.0  0.78135  0.93839  0.13041  1.0000
  Mg  Mg44      1.0  0.93426  0.87824  0.57267  1.0000
  C  Sn89      1.0  0.05854  0.91526  0.08473  1.0000
  C   C125      1.0  0.98898  0.94157  0.96351  1.0000
  C  Sn90      1.0  0.01925  0.94307  0.78294  1.0000
  C  Sn91      1.0  0.04779  0.91184  0.72220  1.0000
  C   C126      1.0  0.04547  0.87979  0.84336  1.0000
  C  Sn92      1.0  0.08708  0.88403  0.02398  1.0000
  O  Te89      1.0  0.02802  0.91438  0.26464  1.0000
  O  Te90      1.0  0.02096  0.97545  0.66431  1.0000
  O  Te91      1.0  0.07832  0.91275  0.54213  1.0000
  O  Te92      1.0  0.08536  0.85167  0.14256  1.0000
  Mg  Mg45      1.0  0.06810  0.96313  0.43214  1.0000
  Mg  Mg46      1.0  0.03822  0.86395  0.37471  1.0000
  C  Sn93      1.0  0.05540  0.10342  0.15607  1.0000
  C   C127      1.0  0.03468  0.09446  0.02763  1.0000
  C  Sn94      1.0  0.96931  0.11084  0.86060  1.0000
  C  Sn95      1.0  0.99713  0.14257  0.82104  1.0000
  C   C128      1.0  0.01785  0.15151  0.94941  1.0000
  C  Sn96      1.0  0.08323  0.13515  0.11650  1.0000
  O  Te93      1.0  0.04843  0.08089  0.32216  1.0000
  O  Te94      1.0  0.94822  0.10134  0.73439  1.0000
  O  Te95      1.0  0.00409  0.16511  0.65478  1.0000
  O  Te96      1.0  0.10431  0.14464  0.24264  1.0000
  Mg  Mg47      1.0  0.96809  0.14068  0.52709  1.0000
  Mg  Mg48      1.0  0.08447  0.10530  0.44993  1.0000
