data_image0
_chemical_formula_structural       H88C152N16SnCSn2CSnTe4Mg2SnCSn2CSnTe4Mg2SnCSn2CSnTe4Mg2SnCSn2CSnTe4Mg2SnCSn2CSnTe4Mg2SnCSn2CSnTe4Mg2SnCSn2CSnTe4Mg2SnCSn2CSnTe4Mg2SnCSn2CSnTe4Mg2SnCSn2CSnTe4Mg2SnCSn2CSnTe4Mg2SnCSn2CSnTe4Mg2
_chemical_formula_sum              "H88 C176 N16 Sn48 Te48 Mg24"
_cell_length_a       33.5593
_cell_length_b       34.7385
_cell_length_c       7.44134
_cell_angle_alpha    88.1198
_cell_angle_beta     71.0572
_cell_angle_gamma    88.9578

_symmetry_space_group_name_H-M    'P1'
_space_group_IT_number       1

loop_
  _space_group_symop_operation_xyz
  'x, y, z'

loop_
  _atom_site_type_symbol
  _atom_site_label
  _atom_site_symmetry_multiplicity
  _atom_site_fract_x
  _atom_site_fract_y
  _atom_site_fract_z
  _atom_site_occupancy
  H   H1        1.0  0.80731  0.93320  0.35519  1.0000
  H   H2        1.0  0.71046  0.84929  0.41744  1.0000
  H   H3        1.0  0.07732  0.72173  0.28143  1.0000
  H   H4        1.0  0.00429  0.71487  0.28622  1.0000
  H   H5        1.0  0.08462  0.53117  0.50285  1.0000
  H   H6        1.0  0.01120  0.52456  0.51761  1.0000
  H   H7        1.0  0.90292  0.61333  0.46863  1.0000
  H   H8        1.0  0.17857  0.63706  0.42319  1.0000
  H   H9        1.0  0.15053  0.53468  0.20741  1.0000
  H   H10       1.0  0.20069  0.48170  0.21764  1.0000
  H   H11       1.0  0.22409  0.53414  0.68895  1.0000
  H   H12       1.0  0.17395  0.58724  0.67860  1.0000
  H   H13       1.0  0.20578  0.68454  0.21448  1.0000
  H   H14       1.0  0.24250  0.74516  0.22166  1.0000
  H   H15       1.0  0.12569  0.79596  0.55900  1.0000
  H   H16       1.0  0.08891  0.73416  0.56190  1.0000
  H   H17       1.0  0.20636  0.43039  0.42802  1.0000
  H   H18       1.0  0.81351  0.46572  0.57158  1.0000
  H   H19       1.0  0.31531  0.84630  0.05854  1.0000
  H   H20       1.0  0.21334  0.86987  0.57175  1.0000
  H   H21       1.0  0.25326  0.80666  0.14315  1.0000
  H   H22       1.0  0.86105  0.88069  0.29084  1.0000
  H   H23       1.0  0.76431  0.79664  0.35522  1.0000
  H   H24       1.0  0.87955  0.81566  0.29639  1.0000
  H   H25       1.0  0.35628  0.90062  0.12269  1.0000
  H   H26       1.0  0.25415  0.92414  0.63386  1.0000
  H   H27       1.0  0.76646  0.27377  0.51462  1.0000
  H   H28       1.0  0.69038  0.91700  0.48485  1.0000
  H   H29       1.0  0.37634  0.32829  0.55417  1.0000
  H   H30       1.0  0.41579  0.28085  0.34745  1.0000
  H   H31       1.0  0.46486  0.22559  0.32138  1.0000
  H   H32       1.0  0.36997  0.16426  0.76326  1.0000
  H   H33       1.0  0.32034  0.21968  0.78801  1.0000
  H   H34       1.0  0.34688  0.00104  0.64281  1.0000
  H   H35       1.0  0.38654  0.05685  0.68406  1.0000
  H   H36       1.0  0.47917  0.03928  0.13611  1.0000
  H   H37       1.0  0.43831  0.98314  0.09232  1.0000
  H   H38       1.0  0.39983  0.12074  0.48661  1.0000
  H   H39       1.0  0.56233  0.21883  0.58945  1.0000
  H   H40       1.0  0.48867  0.21661  0.60547  1.0000
  H   H41       1.0  0.51192  0.02762  0.38037  1.0000
  H   H42       1.0  0.58527  0.02946  0.38066  1.0000
  H   H43       1.0  0.67813  0.12775  0.41844  1.0000
  H   H44       1.0  0.66923  0.98013  0.68674  1.0000
  H   H45       1.0  0.62308  0.03783  0.70469  1.0000
  H   H46       1.0  0.68871  0.06590  0.11673  1.0000
  H   H47       1.0  0.73578  0.00918  0.10095  1.0000
  H   H48       1.0  0.31380  0.96323  0.55270  1.0000
  H   H49       1.0  0.21252  0.19770  0.08262  1.0000
  H   H50       1.0  0.11217  0.26591  0.99264  1.0000
  H   H51       1.0  0.47809  0.61226  0.73501  1.0000
  H   H52       1.0  0.40309  0.60627  0.76946  1.0000
  H   H53       1.0  0.49325  0.41757  0.81810  1.0000
  H   H54       1.0  0.41942  0.41202  0.84481  1.0000
  H   H55       1.0  0.30402  0.50353  0.94631  1.0000
  H   H56       1.0  0.58526  0.52429  0.79320  1.0000
  H   H57       1.0  0.56181  0.41850  0.58848  1.0000
  H   H58       1.0  0.60815  0.36599  0.63952  1.0000
  H   H59       1.0  0.62046  0.42402  0.12027  1.0000
  H   H60       1.0  0.57264  0.47622  0.07315  1.0000
  H   H61       1.0  0.30327  0.54502  0.66496  1.0000
  H   H62       1.0  0.25312  0.59736  0.64956  1.0000
  H   H63       1.0  0.29577  0.66336  0.03040  1.0000
  H   H64       1.0  0.34509  0.61062  0.05002  1.0000
  H   H65       1.0  0.61028  0.31626  0.86685  1.0000
  H   H66       1.0  0.20978  0.35766  0.03154  1.0000
  H   H67       1.0  0.25200  0.25775  0.09241  1.0000
  H   H68       1.0  0.15175  0.32586  0.00101  1.0000
  H   H69       1.0  0.67271  0.67062  0.73813  1.0000
  H   H70       1.0  0.28744  0.70664  0.77460  1.0000
  H   H71       1.0  0.15426  0.16561  0.04485  1.0000
  H   H72       1.0  0.10480  0.81625  0.94551  1.0000
  H   H73       1.0  0.77866  0.21561  0.01552  1.0000
  H   H74       1.0  0.81249  0.16250  0.75152  1.0000
  H   H75       1.0  0.86161  0.10674  0.71796  1.0000
  H   H76       1.0  0.78126  0.05788  0.24664  1.0000
  H   H77       1.0  0.73154  0.11245  0.27536  1.0000
  H   H78       1.0  0.80529  0.00719  0.91302  1.0000
  H   H79       1.0  0.96337  0.11013  0.02346  1.0000
  H   H80       1.0  0.89024  0.10620  0.02327  1.0000
  H   H81       1.0  0.91242  0.91270  0.91958  1.0000
  H   H82       1.0  0.98473  0.91627  0.92402  1.0000
  H   H83       1.0  0.07682  0.01986  0.94028  1.0000
  H   H84       1.0  0.09648  0.12981  0.22543  1.0000
  H   H85       1.0  0.05912  0.06965  0.21027  1.0000
  H   H86       1.0  0.02640  0.11720  0.73541  1.0000
  H   H87       1.0  0.06240  0.17822  0.75547  1.0000
  H   H88       1.0  0.72024  0.86044  0.84679  1.0000
  C   C1        1.0  0.74828  0.30029  0.51065  1.0000
  C   C2        1.0  0.72368  0.92543  0.42542  1.0000
  C   C3        1.0  0.75528  0.89464  0.39591  1.0000
  C   C4        1.0  0.06101  0.69461  0.32769  1.0000
  C   C5        1.0  0.02030  0.69079  0.33073  1.0000
  C   C6        1.0  0.99802  0.65545  0.38968  1.0000
  C   C7        1.0  0.02079  0.62227  0.42521  1.0000
  C   C8        1.0  0.06393  0.62607  0.41561  1.0000
  C   C9        1.0  0.08337  0.66322  0.38101  1.0000
  C   C10       1.0  0.08753  0.59278  0.44203  1.0000
  C   C11       1.0  0.06695  0.55636  0.48028  1.0000
  C   C12       1.0  0.02568  0.55277  0.49146  1.0000
  C   C13       1.0  0.00088  0.58531  0.46827  1.0000
  C   C14       1.0  0.95496  0.65172  0.40490  1.0000
  C   C15       1.0  0.93628  0.61547  0.45083  1.0000
  C   C16       1.0  0.95770  0.58232  0.48245  1.0000
  C   C17       1.0  0.12445  0.66724  0.39381  1.0000
  C   C18       1.0  0.14678  0.63405  0.41756  1.0000
  C   C19       1.0  0.13010  0.59710  0.43406  1.0000
  C   C20       1.0  0.14459  0.70486  0.38603  1.0000
  C   C21       1.0  0.15783  0.56413  0.44550  1.0000
  C   C22       1.0  0.16571  0.53393  0.31643  1.0000
  C   C23       1.0  0.19367  0.50410  0.32266  1.0000
  C   C24       1.0  0.21448  0.50362  0.45957  1.0000
  C   C25       1.0  0.20761  0.53439  0.58496  1.0000
  C   C26       1.0  0.17951  0.56394  0.57879  1.0000
  C   C27       1.0  0.18814  0.70883  0.29148  1.0000
  C   C28       1.0  0.20864  0.74315  0.29185  1.0000
  C   C29       1.0  0.18612  0.77520  0.38631  1.0000
  C   C30       1.0  0.14259  0.77134  0.48232  1.0000
  C   C31       1.0  0.12223  0.73694  0.48187  1.0000
  C   C32       1.0  0.23539  0.43918  0.45329  1.0000
  C   C33       1.0  0.83030  0.43917  0.59061  1.0000
  C   C34       1.0  0.30203  0.86353  0.18412  1.0000
  C   C35       1.0  0.26167  0.85449  0.31152  1.0000
  C   C36       1.0  0.24459  0.87682  0.47412  1.0000
  C   C37       1.0  0.26754  0.90693  0.50817  1.0000
  C   C38       1.0  0.23921  0.82134  0.27857  1.0000
  C   C39       1.0  0.79819  0.90330  0.35573  1.0000
  C   C40       1.0  0.82793  0.87391  0.31993  1.0000
  C   C41       1.0  0.81594  0.83508  0.32396  1.0000
  C   C42       1.0  0.77340  0.82656  0.35417  1.0000
  C   C43       1.0  0.74346  0.85603  0.39146  1.0000
  C   C44       1.0  0.84776  0.80519  0.31205  1.0000
  C   C45       1.0  0.30815  0.91574  0.38212  1.0000
  C   C46       1.0  0.32504  0.89355  0.21899  1.0000
  C   C47       1.0  0.34484  0.31870  0.55974  1.0000
  C   C48       1.0  0.36474  0.25423  0.57264  1.0000
  C   C49       1.0  0.40614  0.25586  0.44296  1.0000
  C   C50       1.0  0.43368  0.22473  0.42782  1.0000
  C   C51       1.0  0.42113  0.19107  0.54139  1.0000
  C   C52       1.0  0.38002  0.18991  0.67296  1.0000
  C   C53       1.0  0.35222  0.22071  0.68774  1.0000
  C   C54       1.0  0.44879  0.15665  0.51258  1.0000
  C   C55       1.0  0.33107  0.94757  0.42414  1.0000
  C   C56       1.0  0.38940  0.98835  0.36046  1.0000
  C   C57       1.0  0.37535  0.00935  0.52905  1.0000
  C   C58       1.0  0.39777  0.04088  0.55336  1.0000
  C   C59       1.0  0.43555  0.05246  0.41328  1.0000
  C   C60       1.0  0.45026  0.03087  0.24741  1.0000
  C   C61       1.0  0.42751  0.99951  0.22172  1.0000
  C   C62       1.0  0.49146  0.15819  0.50659  1.0000
  C   C63       1.0  0.51715  0.12413  0.46406  1.0000
  C   C64       1.0  0.49960  0.08856  0.43251  1.0000
  C   C65       1.0  0.45662  0.08766  0.44292  1.0000
  C   C66       1.0  0.43241  0.12146  0.48408  1.0000
  C   C67       1.0  0.56023  0.12540  0.45788  1.0000
  C   C68       1.0  0.57845  0.16102  0.48471  1.0000
  C   C69       1.0  0.55054  0.19320  0.54474  1.0000
  C   C70       1.0  0.50914  0.19190  0.55501  1.0000
  C   C71       1.0  0.52544  0.05462  0.40115  1.0000
  C   C72       1.0  0.56610  0.05554  0.40165  1.0000
  C   C73       1.0  0.58466  0.09057  0.42912  1.0000
  C   C74       1.0  0.62237  0.16223  0.46085  1.0000
  C   C75       1.0  0.64488  0.12717  0.43421  1.0000
  C   C76       1.0  0.62697  0.09173  0.42619  1.0000
  C   C77       1.0  0.70530  0.99047  0.39104  1.0000
  C   C78       1.0  0.67293  0.99854  0.56132  1.0000
  C   C79       1.0  0.64724  0.03107  0.57112  1.0000
  C   C80       1.0  0.65270  0.05591  0.41208  1.0000
  C   C81       1.0  0.68426  0.04709  0.24129  1.0000
  C   C82       1.0  0.71056  0.01526  0.23179  1.0000
  C   C83       1.0  0.19943  0.22592  0.06474  1.0000
  C   C84       1.0  0.15999  0.22807  0.03494  1.0000
  C   C85       1.0  0.14276  0.26455  0.01374  1.0000
  C   C86       1.0  0.16483  0.29764  0.01906  1.0000
  C   C87       1.0  0.13840  0.19260  0.02406  1.0000
  C   C88       1.0  0.13816  0.82469  0.89757  1.0000
  C   C89       1.0  0.46292  0.58434  0.76786  1.0000
  C   C90       1.0  0.42120  0.58106  0.78736  1.0000
  C   C91       1.0  0.40029  0.54481  0.83071  1.0000
  C   C92       1.0  0.42478  0.51068  0.83441  1.0000
  C   C93       1.0  0.46883  0.51405  0.80978  1.0000
  C   C94       1.0  0.48755  0.55148  0.78820  1.0000
  C   C95       1.0  0.49383  0.48017  0.81226  1.0000
  C   C96       1.0  0.47431  0.44350  0.82447  1.0000
  C   C97       1.0  0.43254  0.44038  0.84343  1.0000
  C   C98       1.0  0.40551  0.47335  0.86169  1.0000
  C   C99       1.0  0.35637  0.54134  0.86449  1.0000
  C   C100      1.0  0.33812  0.50499  0.90562  1.0000
  C   C101      1.0  0.36100  0.47075  0.90390  1.0000
  C   C102      1.0  0.53003  0.55477  0.78294  1.0000
  C   C103      1.0  0.55312  0.52123  0.79224  1.0000
  C   C104      1.0  0.53643  0.48419  0.80532  1.0000
  C   C105      1.0  0.56318  0.45111  0.82921  1.0000
  C   C106      1.0  0.32845  0.57426  0.85551  1.0000
  C   C107      1.0  0.57344  0.41938  0.70895  1.0000
  C   C108      1.0  0.59941  0.38958  0.73809  1.0000
  C   C109      1.0  0.61613  0.39058  0.88917  1.0000
  C   C110      1.0  0.60693  0.42284  0.00607  1.0000
  C   C111      1.0  0.58053  0.45207  0.97801  1.0000
  C   C112      1.0  0.30157  0.57099  0.74537  1.0000
  C   C113      1.0  0.27349  0.60025  0.73589  1.0000
  C   C114      1.0  0.27198  0.63449  0.83391  1.0000
  C   C115      1.0  0.29837  0.63783  0.94628  1.0000
  C   C116      1.0  0.32599  0.60808  0.95751  1.0000
  C   C117      1.0  0.63719  0.32631  0.90635  1.0000
  C   C118      1.0  0.22742  0.33099  0.03979  1.0000
  C   C119      1.0  0.20466  0.29548  0.04512  1.0000
  C   C120      1.0  0.22156  0.25903  0.06979  1.0000
  C   C121      1.0  0.65305  0.69685  0.77049  1.0000
  C   C122      1.0  0.25426  0.69867  0.80385  1.0000
  C   C123      1.0  0.74754  0.20611  0.01539  1.0000
  C   C124      1.0  0.76854  0.14155  0.01700  1.0000
  C   C125      1.0  0.80605  0.13983  0.86114  1.0000
  C   C126      1.0  0.83341  0.10834  0.84197  1.0000
  C   C127      1.0  0.82462  0.07806  0.97849  1.0000
  C   C128      1.0  0.78804  0.08061  0.13711  1.0000
  C   C129      1.0  0.76023  0.11147  0.15462  1.0000
  C   C130      1.0  0.85195  0.04330  0.95623  1.0000
  C   C131      1.0  0.74036  0.83448  0.82080  1.0000
  C   C132      1.0  0.89344  0.04536  0.96361  1.0000
  C   C133      1.0  0.91834  0.01086  0.94465  1.0000
  C   C134      1.0  0.90111  0.97446  0.92225  1.0000
  C   C135      1.0  0.85993  0.97341  0.90641  1.0000
  C   C136      1.0  0.83651  0.00789  0.92703  1.0000
  C   C137      1.0  0.96057  0.01299  0.94966  1.0000
  C   C138      1.0  0.97783  0.04970  0.96620  1.0000
  C   C139      1.0  0.95103  0.08297  0.99682  1.0000
  C   C140      1.0  0.91047  0.08081  0.99662  1.0000
  C   C141      1.0  0.92617  0.94064  0.92219  1.0000
  C   C142      1.0  0.96649  0.94258  0.92746  1.0000
  C   C143      1.0  0.98552  0.97861  0.93750  1.0000
  C   C144      1.0  0.02043  0.05186  0.95974  1.0000
  C   C145      1.0  0.04421  0.01795  0.94420  1.0000
  C   C146      1.0  0.02790  0.98158  0.93454  1.0000
  C   C147      1.0  0.08312  0.15775  0.98665  1.0000
  C   C148      1.0  0.08190  0.12680  0.11571  1.0000
  C   C149      1.0  0.06095  0.09302  0.10696  1.0000
  C   C150      1.0  0.04083  0.08876  0.96986  1.0000
  C   C151      1.0  0.04151  0.12003  0.84345  1.0000
  C   C152      1.0  0.06175  0.15412  0.85340  1.0000
  N   N1        1.0  0.24286  0.47475  0.47610  1.0000
  N   N2        1.0  0.20475  0.80968  0.40463  1.0000
  N   N3        1.0  0.83960  0.76882  0.32465  1.0000
  N   N4        1.0  0.86695  0.44051  0.61276  1.0000
  N   N5        1.0  0.33448  0.28283  0.58046  1.0000
  N   N6        1.0  0.36862  0.95697  0.31675  1.0000
  N   N7        1.0  0.73472  0.96047  0.37182  1.0000
  N   N8        1.0  0.71193  0.30006  0.48502  1.0000
  N   N9        1.0  0.64297  0.36235  0.92693  1.0000
  N   N10       1.0  0.61280  0.69600  0.80378  1.0000
  N   N11       1.0  0.24264  0.66309  0.82624  1.0000
  N   N12       1.0  0.26588  0.33141  0.04059  1.0000
  N   N13       1.0  0.73791  0.17014  0.02793  1.0000
  N   N14       1.0  0.78013  0.83589  0.79871  1.0000
  N   N15       1.0  0.14913  0.86019  0.85424  1.0000
  N   N16       1.0  0.10326  0.19266  0.98758  1.0000
  C  Sn1       1.0  0.72332  0.73394  0.80906  1.0000
  C   C153      1.0  0.68077  0.73054  0.82677  1.0000
  C  Sn2       1.0  0.65660  0.76330  0.81831  1.0000
  C  Sn3       1.0  0.67536  0.80021  0.79147  1.0000
  C   C154      1.0  0.71788  0.80359  0.77375  1.0000
  C  Sn4       1.0  0.74207  0.77085  0.78222  1.0000
  O  Te1       1.0  0.74688  0.70080  0.81795  1.0000
  O  Te2       1.0  0.61412  0.75918  0.83645  1.0000
  O  Te3       1.0  0.65175  0.83336  0.78260  1.0000
  O  Te4       1.0  0.78453  0.77496  0.76407  1.0000
  Mg  Mg1       1.0  0.59512  0.81290  0.81473  1.0000
  Mg  Mg2       1.0  0.80357  0.72126  0.78567  1.0000
  C  Sn5       1.0  0.24802  0.36386  0.57098  1.0000
  C   C155      1.0  0.25754  0.40284  0.53046  1.0000
  C  Sn6       1.0  0.29927  0.41520  0.47537  1.0000
  C  Sn7       1.0  0.33218  0.38804  0.46033  1.0000
  C   C156      1.0  0.32265  0.34908  0.50080  1.0000
  C  Sn8       1.0  0.28093  0.33669  0.55594  1.0000
  O  Te5       1.0  0.20608  0.35215  0.62579  1.0000
  O  Te6       1.0  0.30801  0.45433  0.43566  1.0000
  O  Te7       1.0  0.37415  0.39978  0.40547  1.0000
  O  Te8       1.0  0.27218  0.29760  0.59560  1.0000
  Mg  Mg3       1.0  0.37012  0.45616  0.36633  1.0000
  Mg  Mg4       1.0  0.21009  0.29573  0.66484  1.0000
  C  Sn9       1.0  0.71630  0.30068  0.92585  1.0000
  C   C157      1.0  0.67712  0.29720  0.89990  1.0000
  C  Sn10      1.0  0.65574  0.26220  0.93997  1.0000
  C  Sn11      1.0  0.74576  0.23576  0.00751  1.0000
  C   C158      1.0  0.78492  0.23925  0.03346  1.0000
  C  Sn12      1.0  0.73445  0.26848  0.99339  1.0000
  O  Te9       1.0  0.73711  0.33595  0.88489  1.0000
  O  Te10      1.0  0.61662  0.25942  0.91284  1.0000
  O  Te11      1.0  0.72492  0.20048  0.04846  1.0000
  O  Te12      1.0  0.84542  0.27703  0.02052  1.0000
  Mg  Mg5       1.0  0.60049  0.20526  0.98868  1.0000
  Mg  Mg6       1.0  0.78969  0.32542  0.94482  1.0000
  C  Sn13      1.0  0.64285  0.26350  0.45548  1.0000
  C   C159      1.0  0.67760  0.26664  0.51839  1.0000
  C  Sn14      1.0  0.70056  0.23387  0.53989  1.0000
  C  Sn15      1.0  0.68856  0.19720  0.49751  1.0000
  C   C160      1.0  0.65384  0.19408  0.43460  1.0000
  C  Sn16      1.0  0.63086  0.22684  0.41309  1.0000
  O  Te13      1.0  0.62036  0.29665  0.43500  1.0000
  O  Te14      1.0  0.73517  0.23773  0.60307  1.0000
  O  Te15      1.0  0.71109  0.16405  0.51804  1.0000
  O  Te16      1.0  0.59627  0.22299  0.34993  1.0000
  Mg  Mg7       1.0  0.75585  0.18410  0.60838  1.0000
  Mg  Mg8       1.0  0.57558  0.27660  0.34447  1.0000
  C  Sn17      1.0  0.05854  0.91526  0.08473  1.0000
  C   C161      1.0  0.98898  0.94157  0.96351  1.0000
  C  Sn18      1.0  0.01925  0.94307  0.78294  1.0000
  C  Sn19      1.0  0.04779  0.91184  0.72220  1.0000
  C   C162      1.0  0.04547  0.87979  0.84336  1.0000
  C  Sn20      1.0  0.08708  0.88403  0.02398  1.0000
  O  Te17      1.0  0.02802  0.91438  0.26464  1.0000
  O  Te18      1.0  0.02096  0.97545  0.66431  1.0000
  O  Te19      1.0  0.07832  0.91275  0.54213  1.0000
  O  Te20      1.0  0.08536  0.85167  0.14256  1.0000
  Mg  Mg9       1.0  0.06810  0.96313  0.43214  1.0000
  Mg  Mg10      1.0  0.03822  0.86395  0.37471  1.0000
  C  Sn21      1.0  0.86409  0.92688  0.01197  1.0000
  C   C163      1.0  0.83454  0.93088  0.92676  1.0000
  C  Sn22      1.0  0.85941  0.91201  0.76528  1.0000
  C  Sn23      1.0  0.84160  0.88277  0.68724  1.0000
  C   C164      1.0  0.79930  0.87303  0.77242  1.0000
  C  Sn24      1.0  0.77441  0.89189  0.93394  1.0000
  O  Te21      1.0  0.83981  0.94614  0.17332  1.0000
  O  Te22      1.0  0.90164  0.92226  0.68264  1.0000
  O  Te23      1.0  0.86591  0.86352  0.52577  1.0000
  O  Te24      1.0  0.80407  0.88741  0.01654  1.0000
  Mg  Mg11      1.0  0.92187  0.88774  0.46435  1.0000
  Mg  Mg12      1.0  0.78381  0.92193  0.23476  1.0000
  C  Sn25      1.0  0.28621  0.43038  0.94041  1.0000
  C   C165      1.0  0.32261  0.43709  0.98662  1.0000
  C  Sn26      1.0  0.41665  0.41217  0.03641  1.0000
  C  Sn27      1.0  0.40214  0.37396  0.03996  1.0000
  C   C166      1.0  0.29390  0.36150  0.99373  1.0000
  C  Sn28      1.0  0.27171  0.39218  0.94396  1.0000
  O  Te25      1.0  0.26456  0.46150  0.89105  1.0000
  O  Te26      1.0  0.45294  0.41959  0.08211  1.0000
  O  Te27      1.0  0.42383  0.34284  0.08938  1.0000
  O  Te28      1.0  0.23544  0.38477  0.89825  1.0000
  Mg  Mg13      1.0  0.47159  0.36763  0.14012  1.0000
  Mg  Mg14      1.0  0.21678  0.43671  0.84012  1.0000
  C  Sn29      1.0  0.91242  0.74811  0.41741  1.0000
  C   C167      1.0  0.88435  0.74714  0.31412  1.0000
  C  Sn30      1.0  0.87503  0.71228  0.24883  1.0000
  C  Sn31      1.0  0.89415  0.67766  0.28769  1.0000
  C   C168      1.0  0.92221  0.67864  0.39095  1.0000
  C  Sn32      1.0  0.93155  0.71349  0.45627  1.0000
  O  Te29      1.0  0.92127  0.78328  0.48130  1.0000
  O  Te30      1.0  0.84687  0.71204  0.14579  1.0000
  O  Te31      1.0  0.88528  0.64247  0.22369  1.0000
  O  Te32      1.0  0.95969  0.71374  0.55928  1.0000
  Mg  Mg15      1.0  0.84486  0.65695  0.08920  1.0000
  Mg  Mg16      1.0  0.96169  0.76880  0.61602  1.0000
  C  Sn33      1.0  0.23543  0.77698  0.85289  1.0000
  C   C169      1.0  0.22612  0.73772  0.86747  1.0000
  C  Sn34      1.0  0.18644  0.72536  0.87169  1.0000
  C  Sn35      1.0  0.15543  0.75281  0.86099  1.0000
  C   C170      1.0  0.16475  0.79204  0.84639  1.0000
  C  Sn36      1.0  0.20442  0.80443  0.84220  1.0000
  O  Te33      1.0  0.27531  0.78868  0.84891  1.0000
  O  Te34      1.0  0.17787  0.68596  0.88639  1.0000
  O  Te35      1.0  0.11553  0.74107  0.86499  1.0000
  O  Te36      1.0  0.21300  0.84380  0.82747  1.0000
  Mg  Mg17      1.0  0.11894  0.68425  0.88630  1.0000
  Mg  Mg18      1.0  0.27193  0.84554  0.82744  1.0000
  C  Sn37      1.0  0.89353  0.53524  0.44141  1.0000
  C   C171      1.0  0.91947  0.54829  0.54006  1.0000
  C  Sn38      1.0  0.93333  0.52299  0.65751  1.0000
  C  Sn39      1.0  0.92103  0.48382  0.67666  1.0000
  C   C172      1.0  0.89512  0.47079  0.57802  1.0000
  C  Sn40      1.0  0.88124  0.49607  0.46056  1.0000
  O  Te37      1.0  0.88005  0.56105  0.32478  1.0000
  O  Te38      1.0  0.95922  0.53671  0.75475  1.0000
  O  Te39      1.0  0.93454  0.45802  0.79341  1.0000
  O  Te40      1.0  0.85536  0.48237  0.36333  1.0000
  Mg  Mg19      1.0  0.96945  0.49043  0.89654  1.0000
  Mg  Mg20      1.0  0.84514  0.52862  0.22143  1.0000
  C  Sn41      1.0  0.75517  0.38166  0.48971  1.0000
  C   C173      1.0  0.76969  0.34368  0.48838  1.0000
  C  Sn42      1.0  0.80345  0.33455  0.55346  1.0000
  C  Sn43      1.0  0.82309  0.36400  0.62139  1.0000
  C   C174      1.0  0.80857  0.40196  0.62272  1.0000
  C  Sn44      1.0  0.77482  0.41111  0.55764  1.0000
  O  Te41      1.0  0.72138  0.39012  0.42399  1.0000
  O  Te42      1.0  0.81741  0.29637  0.55069  1.0000
  O  Te43      1.0  0.85691  0.35551  0.68713  1.0000
  O  Te44      1.0  0.76085  0.44927  0.56041  1.0000
  Mg  Mg21      1.0  0.86451  0.29922  0.65508  1.0000
  Mg  Mg22      1.0  0.71374  0.44644  0.45616  1.0000
  C  Sn45      1.0  0.55202  0.64283  0.96304  1.0000
  C   C175      1.0  0.59063  0.65541  0.83713  1.0000
  C  Sn46      1.0  0.60866  0.63759  0.66343  1.0000
  C  Sn47      1.0  0.58765  0.60656  0.61447  1.0000
  C   C176      1.0  0.54906  0.59400  0.74031  1.0000
  C  Sn48      1.0  0.53101  0.61180  0.91408  1.0000
  O  Te45      1.0  0.60645  0.66683  0.13593  1.0000
  O  Te46      1.0  0.64729  0.65066  0.53991  1.0000
  O  Te47      1.0  0.60513  0.58832  0.44142  1.0000
  O  Te48      1.0  0.56427  0.60451  0.03753  1.0000
  Mg  Mg23      1.0  0.65831  0.61653  0.32082  1.0000
  Mg  Mg24      1.0  0.55321  0.63863  0.25661  1.0000
