data_image0
_chemical_formula_structural       H72C84N12O12C2Sn2C2HTe2HMgC2Sn2C2HTe2HMgC2Sn2C2HTe2HMgC2Sn2C2HTe2HMgC2Sn2C2HTe2HMgC2Sn2C2HTe2HMgC2Sn2C2HTe2HMgC2Sn2C2HTe2HMgC2Sn2C2HTe2HMgC2Sn2C2HTe2HMgC2Sn2C2HTe2HMgC2Sn2C2HTe2HMg
_chemical_formula_sum              "H96 C132 N12 O12 Sn24 Te24 Mg12"
_cell_length_a       36.1784
_cell_length_b       38.2071
_cell_length_c       6.89874
_cell_angle_alpha    59.1264
_cell_angle_beta     92.2737
_cell_angle_gamma    121.431

_symmetry_space_group_name_H-M    'P1'
_space_group_IT_number       1

loop_
  _space_group_symop_operation_xyz
  'x, y, z'

loop_
  _atom_site_type_symbol
  _atom_site_label
  _atom_site_symmetry_multiplicity
  _atom_site_fract_x
  _atom_site_fract_y
  _atom_site_fract_z
  _atom_site_occupancy
  H   H1        1.0  0.71161  0.84738  0.12441  1.0000
  H   H2        1.0  0.68470  0.92810  0.28792  1.0000
  H   H3        1.0  0.57438  0.79960  0.32334  1.0000
  H   H4        1.0  0.57259  0.99158  0.33231  1.0000
  H   H5        1.0  0.41420  0.98200  0.34017  1.0000
  H   H6        1.0  0.57549  0.05343  0.29735  1.0000
  H   H7        1.0  0.41885  0.04751  0.27922  1.0000
  H   H8        1.0  0.31370  0.13087  0.25284  1.0000
  H   H9        1.0  0.29666  0.22366  0.35713  1.0000
  H   H10       1.0  0.41463  0.22323  0.44470  1.0000
  H   H11       1.0  0.11706  0.14149  0.10012  1.0000
  H   H12       1.0  0.91252  0.98386  0.04324  1.0000
  H   H13       1.0  0.51825  0.62395  0.26332  1.0000
  H   H14       1.0  0.61118  0.13473  0.07571  1.0000
  H   H15       1.0  0.60290  0.11226  0.38580  1.0000
  H   H16       1.0  0.61078  0.17038  0.17105  1.0000
  H   H17       1.0  0.37856  0.86473  0.46159  1.0000
  H   H18       1.0  0.38399  0.92242  0.30508  1.0000
  H   H19       1.0  0.37638  0.88942  0.62030  1.0000
  H   H20       1.0  0.46307  0.56109  0.25723  1.0000
  H   H21       1.0  0.54738  0.48844  0.35666  1.0000
  H   H22       1.0  0.48747  0.41623  0.44877  1.0000
  H   H23       1.0  0.98008  0.99941  0.98044  1.0000
  H   H24       1.0  0.05311  0.13485  0.10030  1.0000
  H   H25       1.0  0.62138  0.54800  0.19544  1.0000
  H   H26       1.0  0.60317  0.52134  0.50449  1.0000
  H   H27       1.0  0.65440  0.58369  0.30834  1.0000
  H   H28       1.0  0.35307  0.45993  0.37457  1.0000
  H   H29       1.0  0.40015  0.52470  0.17385  1.0000
  H   H30       1.0  0.38991  0.49383  0.48808  1.0000
  H   H31       1.0  0.07485  0.99896  0.87130  1.0000
  H   H32       1.0  0.03666  0.01422  0.74934  1.0000
  H   H33       1.0  0.01892  0.96531  0.06004  1.0000
  H   H34       1.0  0.02175  0.17645  0.93158  1.0000
  H   H35       1.0  0.00167  0.13652  0.25087  1.0000
  H   H36       1.0  0.96728  0.15353  0.08805  1.0000
  H   H37       1.0  0.69252  0.30026  0.64005  1.0000
  H   H38       1.0  0.67281  0.39004  0.75951  1.0000
  H   H39       1.0  0.56121  0.27292  0.72811  1.0000
  H   H40       1.0  0.55862  0.44921  0.88423  1.0000
  H   H41       1.0  0.40561  0.45009  0.86207  1.0000
  H   H42       1.0  0.56471  0.51255  0.84597  1.0000
  H   H43       1.0  0.41171  0.51329  0.83347  1.0000
  H   H44       1.0  0.30990  0.59792  0.69465  1.0000
  H   H45       1.0  0.27878  0.67708  0.84871  1.0000
  H   H46       1.0  0.41047  0.70563  0.81567  1.0000
  H   H47       1.0  0.09889  0.57824  0.65694  1.0000
  H   H48       1.0  0.89084  0.42172  0.62261  1.0000
  H   H49       1.0  0.49633  0.08208  0.72291  1.0000
  H   H50       1.0  0.60553  0.60690  0.56638  1.0000
  H   H51       1.0  0.59802  0.57325  0.88116  1.0000
  H   H52       1.0  0.60455  0.63141  0.72856  1.0000
  H   H53       1.0  0.36602  0.33277  0.97023  1.0000
  H   H54       1.0  0.37784  0.39305  0.75532  1.0000
  H   H55       1.0  0.36532  0.36765  0.06923  1.0000
  H   H56       1.0  0.43893  0.01113  0.80817  1.0000
  H   H57       1.0  0.52465  0.93946  0.92147  1.0000
  H   H58       1.0  0.46831  0.87365  0.93101  1.0000
  H   H59       1.0  0.95700  0.43393  0.56685  1.0000
  H   H60       1.0  0.03440  0.56746  0.69958  1.0000
  H   H61       1.0  0.59924  0.00954  0.68539  1.0000
  H   H62       1.0  0.58808  0.97776  0.00079  1.0000
  H   H63       1.0  0.63451  0.04293  0.80423  1.0000
  H   H64       1.0  0.33182  0.91329  0.86859  1.0000
  H   H65       1.0  0.38174  0.97656  0.68218  1.0000
  H   H66       1.0  0.36295  0.94652  0.99541  1.0000
  H   H67       1.0  0.04958  0.42881  0.46752  1.0000
  H   H68       1.0  0.01085  0.44332  0.34582  1.0000
  H   H69       1.0  0.99498  0.39784  0.65975  1.0000
  H   H70       1.0  0.99877  0.60562  0.59879  1.0000
  H   H71       1.0  0.98092  0.55942  0.91357  1.0000
  H   H72       1.0  0.94385  0.57593  0.78276  1.0000
  C   C1        1.0  0.53524  0.96649  0.37727  1.0000
  C   C2        1.0  0.64151  0.82036  0.21239  1.0000
  C   C3        1.0  0.68816  0.85335  0.17230  1.0000
  C   C4        1.0  0.70438  0.89162  0.20582  1.0000
  C   C5        1.0  0.67266  0.89688  0.27551  1.0000
  C   C6        1.0  0.62579  0.86429  0.31960  1.0000
  C   C7        1.0  0.61055  0.82575  0.28898  1.0000
  C   C8        1.0  0.51250  0.98991  0.35333  1.0000
  C   C9        1.0  0.46592  0.96920  0.36478  1.0000
  C   C10       1.0  0.44964  0.99728  0.33130  1.0000
  C   C11       1.0  0.47643  0.04383  0.30023  1.0000
  C   C12       1.0  0.52292  0.06429  0.29020  1.0000
  C   C13       1.0  0.53988  0.03772  0.30891  1.0000
  C   C14       1.0  0.45369  0.06648  0.29070  1.0000
  C   C15       1.0  0.36822  0.17578  0.34192  1.0000
  C   C16       1.0  0.32653  0.15847  0.29271  1.0000
  C   C17       1.0  0.30023  0.17506  0.29877  1.0000
  C   C18       1.0  0.31557  0.20862  0.36340  1.0000
  C   C19       1.0  0.35659  0.22592  0.41933  1.0000
  C   C20       1.0  0.38239  0.20909  0.40734  1.0000
  C   C21       1.0  0.10793  0.11307  0.06679  1.0000
  C   C22       1.0  0.92221  0.01414  0.06305  1.0000
  C   C23       1.0  0.52781  0.57364  0.25582  1.0000
  C   C24       1.0  0.54519  0.62109  0.22156  1.0000
  C   C25       1.0  0.59644  0.13251  0.22120  1.0000
  C   C26       1.0  0.39160  0.89893  0.45102  1.0000
  C   C27       1.0  0.48158  0.54517  0.27448  1.0000
  C   C28       1.0  0.45888  0.49782  0.32093  1.0000
  C   C29       1.0  0.48293  0.47659  0.35089  1.0000
  C   C30       1.0  0.52941  0.50533  0.33053  1.0000
  C   C31       1.0  0.55212  0.55267  0.28428  1.0000
  C   C32       1.0  0.46345  0.42648  0.41407  1.0000
  C   C33       1.0  0.97025  0.04412  0.04131  1.0000
  C   C34       1.0  0.99672  0.02989  0.00224  1.0000
  C   C35       1.0  0.04221  0.05222  0.99740  1.0000
  C   C36       1.0  0.06276  0.09000  0.04065  1.0000
  C   C37       1.0  0.03691  0.10561  0.07000  1.0000
  C   C38       1.0  0.99202  0.08473  0.06500  1.0000
  C   C39       1.0  0.61976  0.55637  0.32433  1.0000
  C   C40       1.0  0.38829  0.48889  0.34334  1.0000
  C   C41       1.0  0.04780  0.00203  0.90736  1.0000
  C   C42       1.0  0.99145  0.14444  0.08931  1.0000
  C   C43       1.0  0.52282  0.42914  0.88674  1.0000
  C   C44       1.0  0.62540  0.28356  0.66686  1.0000
  C   C45       1.0  0.67103  0.31078  0.66093  1.0000
  C   C46       1.0  0.68851  0.34878  0.69726  1.0000
  C   C47       1.0  0.65925  0.35938  0.74074  1.0000
  C   C48       1.0  0.61320  0.33220  0.75366  1.0000
  C   C49       1.0  0.59695  0.29475  0.71452  1.0000
  C   C50       1.0  0.50132  0.45285  0.87890  1.0000
  C   C51       1.0  0.45535  0.43475  0.88242  1.0000
  C   C52       1.0  0.44050  0.46328  0.86081  1.0000
  C   C53       1.0  0.46929  0.51028  0.82399  1.0000
  C   C54       1.0  0.51532  0.52867  0.81797  1.0000
  C   C55       1.0  0.52965  0.49910  0.85014  1.0000
  C   C56       1.0  0.44904  0.53628  0.79522  1.0000
  C   C57       1.0  0.36447  0.65074  0.74642  1.0000
  C   C58       1.0  0.32054  0.62601  0.72890  1.0000
  C   C59       1.0  0.28924  0.63500  0.76290  1.0000
  C   C60       1.0  0.30199  0.66858  0.82568  1.0000
  C   C61       1.0  0.34565  0.69393  0.84516  1.0000
  C   C62       1.0  0.37662  0.68513  0.80274  1.0000
  C   C63       1.0  0.08902  0.54885  0.62981  1.0000
  C   C64       1.0  0.90144  0.45100  0.65181  1.0000
  C   C65       1.0  0.50315  0.02316  0.82324  1.0000
  C   C66       1.0  0.52147  0.07340  0.75492  1.0000
  C   C67       1.0  0.59072  0.59735  0.73651  1.0000
  C   C68       1.0  0.38144  0.37044  0.92570  1.0000
  C   C69       1.0  0.45689  0.99402  0.84174  1.0000
  C   C70       1.0  0.43470  0.94661  0.88987  1.0000
  C   C71       1.0  0.45945  0.92597  0.92203  1.0000
  C   C72       1.0  0.50569  0.95495  0.90428  1.0000
  C   C73       1.0  0.52789  0.00251  0.85533  1.0000
  C   C74       1.0  0.44192  0.87875  0.95390  1.0000
  C   C75       1.0  0.94904  0.47803  0.64154  1.0000
  C   C76       1.0  0.97460  0.46377  0.59311  1.0000
  C   C77       1.0  0.02041  0.48573  0.58151  1.0000
  C   C78       1.0  0.04244  0.52375  0.62290  1.0000
  C   C79       1.0  0.01699  0.53825  0.66924  1.0000
  C   C80       1.0  0.97139  0.51687  0.67777  1.0000
  C   C81       1.0  0.59973  0.01367  0.83234  1.0000
  C   C82       1.0  0.36583  0.94070  0.85784  1.0000
  C   C83       1.0  0.02341  0.43325  0.50005  1.0000
  C   C84       1.0  0.96949  0.57037  0.75543  1.0000
  N   N1        1.0  0.51549  0.92145  0.43495  1.0000
  N   N2        1.0  0.58767  0.65790  0.15040  1.0000
  N   N3        1.0  0.89202  0.01960  0.11048  1.0000
  N   N4        1.0  0.47072  0.10397  0.30661  1.0000
  N   N5        1.0  0.42203  0.39560  0.43196  1.0000
  N   N6        1.0  0.13557  0.10176  0.05747  1.0000
  N   N7        1.0  0.50432  0.39001  0.88318  1.0000
  N   N8        1.0  0.56292  0.10646  0.72632  1.0000
  N   N9        1.0  0.87274  0.45866  0.69404  1.0000
  N   N10       1.0  0.47077  0.58159  0.73737  1.0000
  N   N11       1.0  0.39959  0.84495  0.99775  1.0000
  N   N12       1.0  0.11749  0.53904  0.61179  1.0000
  O   O1        1.0  0.54830  0.10899  0.26167  1.0000
  O   O2        1.0  0.43993  0.92327  0.40554  1.0000
  O   O3        1.0  0.59674  0.57969  0.27576  1.0000
  O   O4        1.0  0.41373  0.47028  0.34031  1.0000
  O   O5        1.0  0.06822  0.03902  0.95833  1.0000
  O   O6        1.0  0.96762  0.10128  0.08276  1.0000
  O   O7        1.0  0.54252  0.57403  0.78274  1.0000
  O   O8        1.0  0.42870  0.39066  0.90620  1.0000
  O   O9        1.0  0.57303  0.03113  0.83468  1.0000
  O   O10       1.0  0.39039  0.91941  0.89535  1.0000
  O   O11       1.0  0.04580  0.47272  0.53431  1.0000
  O   O12       1.0  0.94676  0.53121  0.71907  1.0000
  C   C85       1.0  0.53037  0.86940  0.32318  1.0000
  C   C86       1.0  0.53411  0.89095  0.44299  1.0000
  C  Sn1       1.0  0.57069  0.90555  0.53158  1.0000
  C  Sn2       1.0  0.60410  0.89841  0.49929  1.0000
  C   C87       1.0  0.60007  0.87685  0.37903  1.0000
  C   C88       1.0  0.56332  0.86236  0.29118  1.0000
  H   H73       1.0  0.50195  0.85821  0.25508  1.0000
  O  Te1       1.0  0.02318  0.92701  0.65093  1.0000
  O  Te2       1.0  0.64102  0.91268  0.58594  1.0000
  H   H74       1.0  0.56045  0.84571  0.19829  1.0000
  Mg  Mg1       1.0  0.07975  0.94032  0.73661  1.0000
  C   C89       1.0  0.74038  0.81904  0.99559  1.0000
  C   C90       1.0  0.76137  0.92477  0.14506  1.0000
  C  Sn3       1.0  0.76584  0.94335  0.28047  1.0000
  C  Sn4       1.0  0.25920  0.97903  0.26554  1.0000
  C   C91       1.0  0.29771  0.99522  0.11535  1.0000
  C   C92       1.0  0.78387  0.85424  0.98069  1.0000
  H   H75       1.0  0.73663  0.80448  0.89129  1.0000
  O  Te3       1.0  0.72681  0.92655  0.42896  1.0000
  O  Te4       1.0  0.26464  0.99823  0.39885  1.0000
  H   H76       1.0  0.81384  0.86697  0.86486  1.0000
  Mg  Mg2       1.0  0.20112  0.96376  0.57554  1.0000
  C   C93       1.0  0.64994  0.78243  0.95817  1.0000
  C   C94       1.0  0.68951  0.90506  0.12465  1.0000
  C  Sn5       1.0  0.65274  0.86015  0.32456  1.0000
  C  Sn6       1.0  0.63589  0.81394  0.35795  1.0000
  C   C95       1.0  0.65627  0.81383  0.19045  1.0000
  C   C96       1.0  0.63335  0.73686  0.99102  1.0000
  H   H77       1.0  0.67840  0.81736  0.80392  1.0000
  O  Te5       1.0  0.63303  0.86133  0.48910  1.0000
  O  Te6       1.0  0.59920  0.76850  0.55620  1.0000
  H   H78       1.0  0.64893  0.73646  0.86223  1.0000
  Mg  Mg3       1.0  0.58376  0.78954  0.73065  1.0000
  C   C97       1.0  0.45262  0.15131  0.44325  1.0000
  C   C98       1.0  0.44861  0.12798  0.33260  1.0000
  C  Sn7       1.0  0.41842  0.12244  0.20006  1.0000
  C  Sn8       1.0  0.39180  0.14065  0.17817  1.0000
  C   C99       1.0  0.39609  0.16397  0.28942  1.0000
  C   C100      1.0  0.42639  0.16930  0.42167  1.0000
  H   H79       1.0  0.47608  0.15546  0.54548  1.0000
  O  Te7       1.0  0.41482  0.09903  0.09074  1.0000
  O  Te8       1.0  0.36138  0.13563  0.04670  1.0000
  H   H80       1.0  0.42951  0.18739  0.50720  1.0000
  Mg  Mg4       1.0  0.30888  0.97888  0.93069  1.0000
  C   C101      1.0  0.20850  0.14871  0.34407  1.0000
  C   C102      1.0  0.24832  0.15541  0.26805  1.0000
  C  Sn9       1.0  0.25260  0.14666  0.09967  1.0000
  C  Sn10      1.0  0.21629  0.13092  0.00594  1.0000
  C   C103      1.0  0.17661  0.12435  0.08302  1.0000
  C   C104      1.0  0.17268  0.13320  0.25164  1.0000
  H   H81       1.0  0.20547  0.15558  0.47444  1.0000
  O  Te9       1.0  0.29261  0.15352  0.02574  1.0000
  O  Te10      1.0  0.15998  0.99980  0.83739  1.0000
  H   H82       1.0  0.14186  0.12804  0.31035  1.0000
  Mg  Mg5       1.0  0.22132  0.01436  0.79256  1.0000
  C   C105      1.0  0.35097  0.30064  0.56360  1.0000
  C   C106      1.0  0.39611  0.33960  0.50690  1.0000
  C  Sn11      1.0  0.43200  0.34160  0.42128  1.0000
  C  Sn12      1.0  0.42242  0.30385  0.39201  1.0000
  C   C107      1.0  0.37715  0.26505  0.44908  1.0000
  C   C108      1.0  0.34150  0.26340  0.53469  1.0000
  H   H83       1.0  0.32338  0.29938  0.62972  1.0000
  O  Te11      1.0  0.47689  0.38077  0.36556  1.0000
  O  Te12      1.0  0.45764  0.30494  0.30668  1.0000
  H   H84       1.0  0.30656  0.23325  0.57844  1.0000
  Mg  Mg6       1.0  0.51320  0.36594  0.25531  1.0000
  C   C109      1.0  0.52218  0.34562  0.72523  1.0000
  C   C110      1.0  0.52340  0.36180  0.86831  1.0000
  C  Sn13      1.0  0.55718  0.37077  0.97900  1.0000
  C  Sn14      1.0  0.59032  0.36337  0.94544  1.0000
  C   C111      1.0  0.58883  0.34721  0.80183  1.0000
  C   C112      1.0  0.55486  0.33834  0.69196  1.0000
  H   H85       1.0  0.49592  0.33878  0.64012  1.0000
  O  Te13      1.0  0.61759  0.50903  0.12144  1.0000
  O  Te14      1.0  0.68416  0.49419  0.05390  1.0000
  H   H86       1.0  0.55394  0.32584  0.58107  1.0000
  Mg  Mg7       1.0  0.67086  0.51584  0.23158  1.0000
  C   C113      1.0  0.75705  0.40303  0.85339  1.0000
  C   C114      1.0  0.73893  0.38335  0.72211  1.0000
  C  Sn15      1.0  0.76697  0.38696  0.56911  1.0000
  C  Sn16      1.0  0.81402  0.41073  0.54755  1.0000
  C   C115      1.0  0.83181  0.43026  0.67978  1.0000
  C   C116      1.0  0.80344  0.42645  0.83230  1.0000
  H   H87       1.0  0.73510  0.40006  0.97150  1.0000
  O  Te15      1.0  0.74831  0.36711  0.43919  1.0000
  O  Te16      1.0  0.84281  0.41484  0.39601  1.0000
  H   H88       1.0  0.81748  0.44166  0.93404  1.0000
  Mg  Mg8       1.0  0.80138  0.38196  0.25616  1.0000
  C   C117      1.0  0.55109  0.18775  0.77237  1.0000
  C   C118      1.0  0.59567  0.23080  0.68055  1.0000
  C  Sn17      1.0  0.63109  0.23637  0.56429  1.0000
  C  Sn18      1.0  0.62159  0.19807  0.53972  1.0000
  C   C119      1.0  0.57687  0.15516  0.63205  1.0000
  C   C120      1.0  0.54169  0.14997  0.74813  1.0000
  H   H89       1.0  0.52387  0.18373  0.86207  1.0000
  O  Te17      1.0  0.67543  0.27961  0.47368  1.0000
  O  Te18      1.0  0.65633  0.20268  0.42426  1.0000
  H   H90       1.0  0.50717  0.11664  0.81907  1.0000
  Mg  Mg9       1.0  0.71124  0.26858  0.33086  1.0000
  C   C121      1.0  0.45546  0.63707  0.82365  1.0000
  C   C122      1.0  0.45085  0.61003  0.73351  1.0000
  C  Sn19      1.0  0.41837  0.59898  0.61764  1.0000
  C  Sn20      1.0  0.39005  0.61536  0.59175  1.0000
  C   C123      1.0  0.39496  0.64242  0.68241  1.0000
  C   C124      1.0  0.42755  0.65326  0.79811  1.0000
  H   H91       1.0  0.48069  0.64548  0.91306  1.0000
  O  Te19      1.0  0.41420  0.57191  0.52872  1.0000
  O  Te20      1.0  0.35733  0.60485  0.47664  1.0000
  H   H92       1.0  0.43114  0.67422  0.86775  1.0000
  Mg  Mg10      1.0  0.36460  0.56682  0.38573  1.0000
  C   C125      1.0  0.19367  0.59553  0.85987  1.0000
  C   C126      1.0  0.23482  0.60653  0.76657  1.0000
  C  Sn21      1.0  0.23844  0.59646  0.60278  1.0000
  C  Sn22      1.0  0.20010  0.57500  0.53136  1.0000
  C   C127      1.0  0.15909  0.56417  0.62562  1.0000
  C   C128      1.0  0.15584  0.57438  0.78946  1.0000
  H   H93       1.0  0.19116  0.60345  0.98655  1.0000
  O  Te21      1.0  0.27980  0.60767  0.51138  1.0000
  O  Te22      1.0  0.20278  0.56458  0.36787  1.0000
  H   H94       1.0  0.12399  0.56589  0.86155  1.0000
  Mg  Mg11      1.0  0.26654  0.58656  0.29351  1.0000
  C   C129      1.0  0.33211  0.72527  0.12511  1.0000
  C   C130      1.0  0.29177  0.60673  0.93874  1.0000
  C  Sn23      1.0  0.33314  0.65114  0.76698  1.0000
  C  Sn24      1.0  0.35548  0.69266  0.78262  1.0000
  C   C131      1.0  0.33585  0.68868  0.96986  1.0000
  C   C132      1.0  0.35412  0.76620  0.14072  1.0000
  H   H95       1.0  0.30007  0.69075  0.25739  1.0000
  O  Te23      1.0  0.35199  0.65409  0.58190  1.0000
  O  Te24      1.0  0.39687  0.73748  0.61342  1.0000
  H   H96       1.0  0.33916  0.76343  0.28508  1.0000
  Mg  Mg12      1.0  0.40897  0.72319  0.39447  1.0000
