data_image0
_chemical_formula_structural       H60C90N12SnCSn2CSnTe4Mg2SnCSn2CSnTe4Mg2SnCSn2CSnTe4Mg2SnCSn2CSnTe4Mg2SnCSn2CSnTe4Mg2SnCSn2CSnTe4Mg2SnCSn2CSnTe4Mg2SnCSn2CSnTe4Mg2SnCSn2CSnTe4Mg2
_chemical_formula_sum              "H60 C108 N12 Sn36 Te36 Mg18"
_cell_length_a       36.9961
_cell_length_b       36.7606
_cell_length_c       7.42026
_cell_angle_alpha    70.085
_cell_angle_beta     87.7164
_cell_angle_gamma    118.699

_symmetry_space_group_name_H-M    'P1'
_space_group_IT_number       1

loop_
  _space_group_symop_operation_xyz
  'x, y, z'

loop_
  _atom_site_type_symbol
  _atom_site_label
  _atom_site_symmetry_multiplicity
  _atom_site_fract_x
  _atom_site_fract_y
  _atom_site_fract_z
  _atom_site_occupancy
  H   H1        1.0  0.48482  0.62073  0.27056  1.0000
  H   H2        1.0  0.46870  0.72886  0.26468  1.0000
  H   H3        1.0  0.36447  0.60938  0.24408  1.0000
  H   H4        1.0  0.53432  0.64777  0.40619  1.0000
  H   H5        1.0  0.60596  0.69147  0.44154  1.0000
  H   H6        1.0  0.60581  0.81525  0.16895  1.0000
  H   H7        1.0  0.53243  0.77100  0.13727  1.0000
  H   H8        1.0  0.46410  0.57454  0.13778  1.0000
  H   H9        1.0  0.43328  0.50047  0.11619  1.0000
  H   H10       1.0  0.30850  0.46533  0.37136  1.0000
  H   H11       1.0  0.33923  0.53872  0.39778  1.0000
  H   H12       1.0  0.35590  0.81110  0.17453  1.0000
  H   H13       1.0  0.23547  0.74025  0.34397  1.0000
  H   H14       1.0  0.19131  0.77369  0.36624  1.0000
  H   H15       1.0  0.30441  0.90578  0.17187  1.0000
  H   H16       1.0  0.34857  0.87265  0.14251  1.0000
  H   H17       1.0  0.18393  0.83646  0.32381  1.0000
  H   H18       1.0  0.16636  0.88444  0.08979  1.0000
  H   H19       1.0  0.12064  0.91608  0.09025  1.0000
  H   H20       1.0  0.19482  0.98989  0.41571  1.0000
  H   H21       1.0  0.24174  0.95968  0.40655  1.0000
  H   H22       1.0  0.06866  0.91331  0.28585  1.0000
  H   H23       1.0  0.05506  0.02454  0.26088  1.0000
  H   H24       1.0  0.17779  0.03934  0.22861  1.0000
  H   H25       1.0  0.10094  0.10067  0.03709  1.0000
  H   H26       1.0  0.13422  0.18005  0.00782  1.0000
  H   H27       1.0  0.21012  0.15726  0.40314  1.0000
  H   H28       1.0  0.17666  0.07798  0.43503  1.0000
  H   H29       1.0  0.86397  0.90904  0.35190  1.0000
  H   H30       1.0  0.67159  0.73958  0.30588  1.0000
  H   H31       1.0  0.29777  0.43665  0.13978  1.0000
  H   H32       1.0  0.25546  0.22910  0.15440  1.0000
  H   H33       1.0  0.74034  0.36767  0.76232  1.0000
  H   H34       1.0  0.72224  0.47491  0.76003  1.0000
  H   H35       1.0  0.62057  0.35730  0.71189  1.0000
  H   H36       1.0  0.72107  0.33366  0.53823  1.0000
  H   H37       1.0  0.69379  0.25914  0.51745  1.0000
  H   H38       1.0  0.57256  0.20804  0.87990  1.0000
  H   H39       1.0  0.59975  0.28157  0.90531  1.0000
  H   H40       1.0  0.60163  0.54493  0.76608  1.0000
  H   H41       1.0  0.43616  0.58444  0.67386  1.0000
  H   H42       1.0  0.32023  0.66151  0.76188  1.0000
  H   H43       1.0  0.31037  0.77282  0.76163  1.0000
  H   H44       1.0  0.43003  0.78077  0.75738  1.0000
  H   H45       1.0  0.27338  0.65993  0.56868  1.0000
  H   H46       1.0  0.19632  0.61301  0.59174  1.0000
  H   H47       1.0  0.16788  0.66172  0.99627  1.0000
  H   H48       1.0  0.24454  0.70784  0.97723  1.0000
  H   H49       1.0  0.35819  0.84793  0.55182  1.0000
  H   H50       1.0  0.39144  0.92594  0.54165  1.0000
  H   H51       1.0  0.46229  0.89616  0.95174  1.0000
  H   H52       1.0  0.42871  0.81799  0.96449  1.0000
  H   H53       1.0  0.11649  0.65168  0.82692  1.0000
  H   H54       1.0  0.92182  0.47817  0.81629  1.0000
  H   H55       1.0  0.55763  0.18070  0.64805  1.0000
  H   H56       1.0  0.61209  0.11459  0.66689  1.0000
  H   H57       1.0  0.57284  0.03499  0.68926  1.0000
  H   H58       1.0  0.45784  0.03736  0.67958  1.0000
  H   H59       1.0  0.49723  0.11711  0.65567  1.0000
  H   H60       1.0  0.50958  0.96905  0.70969  1.0000
  C   C1        1.0  0.32148  0.78634  0.21932  1.0000
  C   C2        1.0  0.42222  0.60933  0.26238  1.0000
  C   C3        1.0  0.46484  0.63487  0.26680  1.0000
  C   C4        1.0  0.48226  0.67843  0.26432  1.0000
  C   C5        1.0  0.45562  0.69575  0.26051  1.0000
  C   C6        1.0  0.41301  0.67170  0.25351  1.0000
  C   C7        1.0  0.39697  0.62844  0.25456  1.0000
  C   C8        1.0  0.40415  0.56369  0.26164  1.0000
  C   C9        1.0  0.52714  0.70554  0.26960  1.0000
  C   C10       1.0  0.54963  0.68454  0.35055  1.0000
  C   C11       1.0  0.59076  0.70948  0.36815  1.0000
  C   C12       1.0  0.61190  0.75723  0.30056  1.0000
  C   C13       1.0  0.58955  0.77845  0.22054  1.0000
  C   C14       1.0  0.54830  0.75326  0.20419  1.0000
  C   C15       1.0  0.43000  0.55084  0.19040  1.0000
  C   C16       1.0  0.41284  0.50921  0.17685  1.0000
  C   C17       1.0  0.36853  0.47886  0.23025  1.0000
  C   C18       1.0  0.34248  0.48996  0.31451  1.0000
  C   C19       1.0  0.36006  0.53147  0.32936  1.0000
  C   C20       1.0  0.29469  0.80432  0.23855  1.0000
  C   C21       1.0  0.25009  0.77644  0.30413  1.0000
  C   C22       1.0  0.22580  0.79518  0.31777  1.0000
  C   C23       1.0  0.24511  0.84206  0.26975  1.0000
  C   C24       1.0  0.28976  0.86971  0.20852  1.0000
  C   C25       1.0  0.31407  0.85113  0.19275  1.0000
  C   C26       1.0  0.21847  0.86056  0.28331  1.0000
  C   C27       1.0  0.20665  0.91881  0.25341  1.0000
  C   C28       1.0  0.17196  0.90672  0.16512  1.0000
  C   C29       1.0  0.14628  0.92472  0.16551  1.0000
  C   C30       1.0  0.15372  0.95491  0.25591  1.0000
  C   C31       1.0  0.18864  0.96707  0.34257  1.0000
  C   C32       1.0  0.21494  0.94998  0.33912  1.0000
  C   C33       1.0  0.12644  0.97400  0.25680  1.0000
  C   C34       1.0  0.08275  0.94829  0.26901  1.0000
  C   C35       1.0  0.05649  0.96587  0.27195  1.0000
  C   C36       1.0  0.07494  0.01037  0.26021  1.0000
  C   C37       1.0  0.11842  0.03695  0.24771  1.0000
  C   C38       1.0  0.14378  0.01834  0.24588  1.0000
  C   C39       1.0  0.13745  0.08392  0.23296  1.0000
  C   C40       1.0  0.12493  0.11301  0.11699  1.0000
  C   C41       1.0  0.14356  0.15751  0.09937  1.0000
  C   C42       1.0  0.17613  0.17481  0.19363  1.0000
  C   C43       1.0  0.18733  0.14524  0.31770  1.0000
  C   C44       1.0  0.16822  0.10062  0.33627  1.0000
  C   C45       1.0  0.85289  0.87530  0.35241  1.0000
  C   C46       1.0  0.67987  0.77153  0.31853  1.0000
  C   C47       1.0  0.31646  0.42024  0.16359  1.0000
  C   C48       1.0  0.23520  0.24337  0.15426  1.0000
  C   C49       1.0  0.57079  0.52593  0.73434  1.0000
  C   C50       1.0  0.67871  0.35752  0.73487  1.0000
  C   C51       1.0  0.72019  0.38180  0.75521  1.0000
  C   C52       1.0  0.73622  0.42421  0.76348  1.0000
  C   C53       1.0  0.70985  0.44199  0.75387  1.0000
  C   C54       1.0  0.66812  0.41833  0.73470  1.0000
  C   C55       1.0  0.65292  0.37602  0.72599  1.0000
  C   C56       1.0  0.66244  0.31344  0.72094  1.0000
  C   C57       1.0  0.68859  0.30593  0.61452  1.0000
  C   C58       1.0  0.67341  0.26451  0.60077  1.0000
  C   C59       1.0  0.63084  0.22910  0.69030  1.0000
  C   C60       1.0  0.60478  0.23606  0.80094  1.0000
  C   C61       1.0  0.62028  0.27741  0.81566  1.0000
  C   C62       1.0  0.46513  0.60064  0.72354  1.0000
  C   C63       1.0  0.37877  0.71821  0.75842  1.0000
  C   C64       1.0  0.33568  0.69569  0.75571  1.0000
  C   C65       1.0  0.31045  0.71436  0.75873  1.0000
  C   C66       1.0  0.32934  0.75770  0.75853  1.0000
  C   C67       1.0  0.37246  0.78158  0.75862  1.0000
  C   C68       1.0  0.39660  0.76152  0.75979  1.0000
  C   C69       1.0  0.26466  0.68796  0.76787  1.0000
  C   C70       1.0  0.39212  0.82772  0.75431  1.0000
  C   C71       1.0  0.25034  0.66018  0.66317  1.0000
  C   C72       1.0  0.20729  0.63409  0.67418  1.0000
  C   C73       1.0  0.17695  0.63535  0.78879  1.0000
  C   C74       1.0  0.19099  0.66229  0.89798  1.0000
  C   C75       1.0  0.23424  0.68829  0.88722  1.0000
  C   C76       1.0  0.38108  0.85842  0.63918  1.0000
  C   C77       1.0  0.39952  0.90203  0.63268  1.0000
  C   C78       1.0  0.43065  0.91697  0.73708  1.0000
  C   C79       1.0  0.44054  0.88586  0.85956  1.0000
  C   C80       1.0  0.42162  0.84210  0.86655  1.0000
  C   C81       1.0  0.10710  0.61928  0.81645  1.0000
  C   C82       1.0  0.93206  0.51129  0.82112  1.0000
  C   C83       1.0  0.57774  0.16604  0.65922  1.0000
  C   C84       1.0  0.55711  0.12068  0.66185  1.0000
  C   C85       1.0  0.57842  0.09731  0.67000  1.0000
  C   C86       1.0  0.55643  0.05318  0.68236  1.0000
  C   C87       1.0  0.51265  0.03105  0.68822  1.0000
  C   C88       1.0  0.49151  0.05474  0.67621  1.0000
  C   C89       1.0  0.51358  0.09889  0.66274  1.0000
  C   C90       1.0  0.49010  0.98429  0.70654  1.0000
  N   N1        1.0  0.30594  0.74415  0.25005  1.0000
  N   N2        1.0  0.23417  0.90278  0.25284  1.0000
  N   N3        1.0  0.87823  0.86103  0.33857  1.0000
  N   N4        1.0  0.65320  0.78495  0.31389  1.0000
  N   N5        1.0  0.35310  0.43860  0.20326  1.0000
  N   N6        1.0  0.19492  0.22025  0.16618  1.0000
  N   N7        1.0  0.56063  0.49076  0.69709  1.0000
  N   N8        1.0  0.47621  0.63498  0.76897  1.0000
  N   N9        1.0  0.13437  0.60769  0.79231  1.0000
  N   N10       1.0  0.90715  0.52686  0.81152  1.0000
  N   N11       1.0  0.61653  0.18793  0.67210  1.0000
  N   N12       1.0  0.44996  0.96214  0.71520  1.0000
  C  Sn1       1.0  0.31769  0.67502  0.26300  1.0000
  C   C91       1.0  0.32599  0.71260  0.30146  1.0000
  C  Sn2       1.0  0.36725  0.74371  0.29996  1.0000
  C  Sn3       1.0  0.40092  0.73714  0.25906  1.0000
  C   C92       1.0  0.39262  0.69958  0.22060  1.0000
  C  Sn4       1.0  0.35137  0.66844  0.22209  1.0000
  O  Te1       1.0  0.27620  0.64435  0.26525  1.0000
  O  Te2       1.0  0.37476  0.78102  0.33892  1.0000
  O  Te3       1.0  0.44243  0.76785  0.25683  1.0000
  O  Te4       1.0  0.34385  0.63116  0.18314  1.0000
  Mg  Mg1       1.0  0.43668  0.81338  0.31880  1.0000
  Mg  Mg2       1.0  0.28195  0.59879  0.20311  1.0000
  C  Sn5       1.0  0.98528  0.90997  0.15318  1.0000
  C   C93       1.0  0.00726  0.94106  0.23483  1.0000
  C  Sn6       1.0  0.98562  0.94214  0.38967  1.0000
  C  Sn7       1.0  0.94107  0.91149  0.46457  1.0000
  C   C94       1.0  0.91911  0.88042  0.38296  1.0000
  C  Sn8       1.0  0.94073  0.87932  0.22808  1.0000
  O  Te5       1.0  0.95454  0.81511  0.99846  1.0000
  O  Te6       1.0  0.53114  0.97354  0.46885  1.0000
  O  Te7       1.0  0.91879  0.91199  0.61941  1.0000
  O  Te8       1.0  0.91809  0.84794  0.14894  1.0000
  Mg  Mg3       1.0  0.48660  0.96100  0.67820  1.0000
  Mg  Mg4       1.0  0.90957  0.76605  0.93967  1.0000
  C  Sn9       1.0  0.45693  0.71960  0.74281  1.0000
  C   C95       1.0  0.41622  0.70650  0.71282  1.0000
  C  Sn10      1.0  0.38913  0.66286  0.72293  1.0000
  C  Sn11      1.0  0.40300  0.63166  0.76399  1.0000
  C   C96       1.0  0.44368  0.64476  0.79399  1.0000
  C  Sn12      1.0  0.47081  0.68840  0.78387  1.0000
  O  Te9       1.0  0.48349  0.76340  0.73202  1.0000
  O  Te10      1.0  0.34857  0.65055  0.69235  1.0000
  O  Te11      1.0  0.37640  0.58784  0.77476  1.0000
  O  Te12      1.0  0.51133  0.70071  0.81446  1.0000
  Mg  Mg5       1.0  0.32404  0.58703  0.72232  1.0000
  Mg  Mg6       1.0  0.53588  0.76421  0.78462  1.0000
  C  Sn13      1.0  0.54562  0.57722  0.85266  1.0000
  C   C97       1.0  0.53907  0.54235  0.79621  1.0000
  C  Sn14      1.0  0.50942  0.52839  0.68605  1.0000
  C  Sn15      1.0  0.48584  0.54975  0.63104  1.0000
  C   C98       1.0  0.49240  0.58460  0.68745  1.0000
  C  Sn16      1.0  0.52204  0.59858  0.79765  1.0000
  O  Te13      1.0  0.57542  0.59063  0.96276  1.0000
  O  Te14      1.0  0.50341  0.49344  0.63140  1.0000
  O  Te15      1.0  0.45602  0.53631  0.52086  1.0000
  O  Te16      1.0  0.52805  0.63351  0.85226  1.0000
  Mg  Mg7       1.0  0.45921  0.48719  0.48166  1.0000
  Mg  Mg8       1.0  0.62529  0.73418  0.00191  1.0000
  C  Sn17      1.0  0.23971  0.32717  0.07167  1.0000
  C   C99       1.0  0.25672  0.29991  0.08512  1.0000
  C  Sn18      1.0  0.29422  0.30973  0.14734  1.0000
  C  Sn19      1.0  0.31513  0.34757  0.19729  1.0000
  C   C100      1.0  0.29812  0.37480  0.18387  1.0000
  C  Sn20      1.0  0.26063  0.36501  0.12162  1.0000
  O  Te17      1.0  0.20219  0.31672  0.00913  1.0000
  O  Te18      1.0  0.31062  0.28198  0.15955  1.0000
  O  Te19      1.0  0.35268  0.35801  0.25987  1.0000
  O  Te20      1.0  0.24422  0.39272  0.10944  1.0000
  Mg  Mg9       1.0  0.36254  0.31009  0.25263  1.0000
  Mg  Mg10      1.0  0.19230  0.36464  0.01648  1.0000
  C  Sn21      1.0  0.00321  0.59405  0.78480  1.0000
  C   C101      1.0  0.98233  0.55140  0.77781  1.0000
  C  Sn22      1.0  0.00101  0.52524  0.81393  1.0000
  C  Sn23      1.0  0.04139  0.54205  0.85809  1.0000
  C   C102      1.0  0.06225  0.58468  0.86509  1.0000
  C  Sn24      1.0  0.04359  0.61086  0.82895  1.0000
  O  Te21      1.0  0.98393  0.61961  0.74820  1.0000
  O  Te22      1.0  0.97953  0.48271  0.80605  1.0000
  O  Te23      1.0  0.06066  0.51645  0.89469  1.0000
  O  Te24      1.0  0.06505  0.65336  0.83685  1.0000
  Mg  Mg11      1.0  0.01884  0.46057  0.86692  1.0000
  Mg  Mg12      1.0  0.02576  0.67552  0.77612  1.0000
  C  Sn25      1.0  0.61475  0.44692  0.54667  1.0000
  C   C103      1.0  0.64356  0.44782  0.66385  1.0000
  C  Sn26      1.0  0.64197  0.45814  0.82748  1.0000
  C  Sn27      1.0  0.61091  0.46773  0.87508  1.0000
  C   C104      1.0  0.58211  0.46683  0.75796  1.0000
  C  Sn28      1.0  0.58369  0.45652  0.59426  1.0000
  O  Te25      1.0  0.61693  0.43652  0.38378  1.0000
  O  Te26      1.0  0.67112  0.45884  0.94238  1.0000
  O  Te27      1.0  0.66177  0.57253  0.03812  1.0000
  O  Te28      1.0  0.55456  0.45581  0.47943  1.0000
  Mg  Mg13      1.0  0.70839  0.56922  0.14944  1.0000
  Mg  Mg14      1.0  0.57027  0.43979  0.27240  1.0000
  C  Sn29      1.0  0.83444  0.52169  0.71391  1.0000
  C   C105      1.0  0.85658  0.50543  0.83077  1.0000
  C  Sn30      1.0  0.84150  0.45895  0.91502  1.0000
  C  Sn31      1.0  0.80352  0.42806  0.88166  1.0000
  C   C106      1.0  0.78141  0.44432  0.76483  1.0000
  C  Sn32      1.0  0.79646  0.49081  0.68055  1.0000
  O  Te29      1.0  0.85011  0.56831  0.63115  1.0000
  O  Te30      1.0  0.91719  0.53788  0.03137  1.0000
  O  Te31      1.0  0.78786  0.38141  0.96454  1.0000
  O  Te32      1.0  0.77382  0.50625  0.56424  1.0000
  Mg  Mg15      1.0  0.88305  0.47128  0.11193  1.0000
  Mg  Mg16      1.0  0.80794  0.57285  0.48353  1.0000
  C  Sn33      1.0  0.78638  0.80220  0.29977  1.0000
  C   C107      1.0  0.80729  0.84492  0.30607  1.0000
  C  Sn34      1.0  0.78417  0.86320  0.34780  1.0000
  C  Sn35      1.0  0.73920  0.83824  0.38413  1.0000
  C   C108      1.0  0.71832  0.79554  0.37785  1.0000
  C  Sn36      1.0  0.74141  0.77724  0.33609  1.0000
  O  Te33      1.0  0.81013  0.78459  0.25777  1.0000
  O  Te34      1.0  0.80578  0.90598  0.35322  1.0000
  O  Te35      1.0  0.71546  0.85589  0.42614  1.0000
  O  Te36      1.0  0.71982  0.73449  0.33070  1.0000
  Mg  Mg17      1.0  0.75938  0.91551  0.41695  1.0000
  Mg  Mg18      1.0  0.76619  0.72491  0.26709  1.0000
