data_image0
_chemical_formula_structural       H60C90N12C2Sn2C2HTe2HMgC2Sn2C2HTe2HMgC2Sn2C2HTe2HMgC2Sn2C2HTe2HMgC2Sn2C2HTe2HMgC2Sn2C2HTe2HMgC2Sn2C2HTe2HMgC2Sn2C2HTe2HMgC2Sn2C2HTe2HMg
_chemical_formula_sum              "H78 C126 N12 Sn18 Te18 Mg9"
_cell_length_a       36.9961
_cell_length_b       36.7606
_cell_length_c       7.42026
_cell_angle_alpha    70.085
_cell_angle_beta     87.7164
_cell_angle_gamma    118.699

_symmetry_space_group_name_H-M    'P1'
_space_group_IT_number       1

loop_
  _space_group_symop_operation_xyz
  'x, y, z'

loop_
  _atom_site_type_symbol
  _atom_site_label
  _atom_site_symmetry_multiplicity
  _atom_site_fract_x
  _atom_site_fract_y
  _atom_site_fract_z
  _atom_site_occupancy
  H   H1        1.0  0.48482  0.62073  0.27056  1.0000
  H   H2        1.0  0.46870  0.72886  0.26468  1.0000
  H   H3        1.0  0.36447  0.60938  0.24408  1.0000
  H   H4        1.0  0.42858  0.74428  0.33820  1.0000
  H   H5        1.0  0.38327  0.77495  0.34215  1.0000
  H   H6        1.0  0.28919  0.67427  0.17439  1.0000
  H   H7        1.0  0.33446  0.64267  0.17074  1.0000
  H   H8        1.0  0.53432  0.64777  0.40619  1.0000
  H   H9        1.0  0.60596  0.69147  0.44154  1.0000
  H   H10       1.0  0.60581  0.81525  0.16895  1.0000
  H   H11       1.0  0.53243  0.77100  0.13727  1.0000
  H   H12       1.0  0.46410  0.57454  0.13778  1.0000
  H   H13       1.0  0.43328  0.50047  0.11619  1.0000
  H   H14       1.0  0.30850  0.46533  0.37136  1.0000
  H   H15       1.0  0.33923  0.53872  0.39778  1.0000
  H   H16       1.0  0.35590  0.81110  0.17453  1.0000
  H   H17       1.0  0.23547  0.74025  0.34397  1.0000
  H   H18       1.0  0.19131  0.77369  0.36624  1.0000
  H   H19       1.0  0.30441  0.90578  0.17187  1.0000
  H   H20       1.0  0.34857  0.87265  0.14251  1.0000
  H   H21       1.0  0.18393  0.83646  0.32381  1.0000
  H   H22       1.0  0.06866  0.91331  0.28585  1.0000
  H   H23       1.0  0.05506  0.02454  0.26088  1.0000
  H   H24       1.0  0.17779  0.03934  0.22861  1.0000
  H   H25       1.0  0.86397  0.90904  0.35190  1.0000
  H   H26       1.0  0.81178  0.79096  0.36955  1.0000
  H   H27       1.0  0.73669  0.74612  0.35066  1.0000
  H   H28       1.0  0.71884  0.85470  0.32912  1.0000
  H   H29       1.0  0.79408  0.89970  0.34665  1.0000
  H   H30       1.0  0.67159  0.73958  0.30588  1.0000
  H   H31       1.0  0.29777  0.43665  0.13978  1.0000
  H   H32       1.0  0.35270  0.37174  0.16153  1.0000
  H   H33       1.0  0.31707  0.29477  0.15270  1.0000
  H   H34       1.0  0.20127  0.29489  0.12504  1.0000
  H   H35       1.0  0.23718  0.37255  0.12710  1.0000
  H   H36       1.0  0.25546  0.22910  0.15440  1.0000
  H   H37       1.0  0.74034  0.36767  0.76232  1.0000
  H   H38       1.0  0.72224  0.47491  0.76003  1.0000
  H   H39       1.0  0.62057  0.35730  0.71189  1.0000
  H   H40       1.0  0.77809  0.39237  0.00001  1.0000
  H   H41       1.0  0.85230  0.43618  0.02446  1.0000
  H   H42       1.0  0.86698  0.55824  0.59640  1.0000
  H   H43       1.0  0.79296  0.51423  0.56777  1.0000
  H   H44       1.0  0.60163  0.54493  0.76608  1.0000
  H   H45       1.0  0.43616  0.58444  0.67386  1.0000
  H   H46       1.0  0.32023  0.66151  0.76188  1.0000
  H   H47       1.0  0.31037  0.77282  0.76163  1.0000
  H   H48       1.0  0.43003  0.78077  0.75738  1.0000
  H   H49       1.0  0.11649  0.65168  0.82692  1.0000
  H   H50       1.0  0.06851  0.53681  0.80049  1.0000
  H   H51       1.0  0.99171  0.48949  0.80553  1.0000
  H   H52       1.0  0.96984  0.59128  0.85440  1.0000
  H   H53       1.0  0.04647  0.63819  0.85185  1.0000
  H   H54       1.0  0.92182  0.47817  0.81629  1.0000
  H   H55       1.0  0.55763  0.18070  0.64805  1.0000
  H   H56       1.0  0.61209  0.11459  0.66689  1.0000
  H   H57       1.0  0.57284  0.03499  0.68926  1.0000
  H   H58       1.0  0.45784  0.03736  0.67958  1.0000
  H   H59       1.0  0.49723  0.11711  0.65567  1.0000
  H   H60       1.0  0.50958  0.96905  0.70969  1.0000
  C   C1        1.0  0.32148  0.78634  0.21932  1.0000
  C   C2        1.0  0.42222  0.60933  0.26238  1.0000
  C   C3        1.0  0.46484  0.63487  0.26680  1.0000
  C   C4        1.0  0.48226  0.67843  0.26432  1.0000
  C   C5        1.0  0.45562  0.69575  0.26051  1.0000
  C   C6        1.0  0.41301  0.67170  0.25351  1.0000
  C   C7        1.0  0.39697  0.62844  0.25456  1.0000
  C   C8        1.0  0.38601  0.69126  0.24987  1.0000
  C   C9        1.0  0.40415  0.56369  0.26164  1.0000
  C   C10       1.0  0.52714  0.70554  0.26960  1.0000
  C   C11       1.0  0.39880  0.72925  0.29493  1.0000
  C   C12       1.0  0.37316  0.74711  0.29633  1.0000
  C   C13       1.0  0.33359  0.72840  0.24771  1.0000
  C   C14       1.0  0.31993  0.68953  0.20924  1.0000
  C   C15       1.0  0.34573  0.67182  0.20809  1.0000
  C   C16       1.0  0.54963  0.68454  0.35055  1.0000
  C   C17       1.0  0.59076  0.70948  0.36815  1.0000
  C   C18       1.0  0.61190  0.75723  0.30056  1.0000
  C   C19       1.0  0.58955  0.77845  0.22054  1.0000
  C   C20       1.0  0.54830  0.75326  0.20419  1.0000
  C   C21       1.0  0.43000  0.55084  0.19040  1.0000
  C   C22       1.0  0.41284  0.50921  0.17685  1.0000
  C   C23       1.0  0.36853  0.47886  0.23025  1.0000
  C   C24       1.0  0.34248  0.48996  0.31451  1.0000
  C   C25       1.0  0.36006  0.53147  0.32936  1.0000
  C   C26       1.0  0.29469  0.80432  0.23855  1.0000
  C   C27       1.0  0.25009  0.77644  0.30413  1.0000
  C   C28       1.0  0.22580  0.79518  0.31777  1.0000
  C   C29       1.0  0.24511  0.84206  0.26975  1.0000
  C   C30       1.0  0.28976  0.86971  0.20852  1.0000
  C   C31       1.0  0.31407  0.85113  0.19275  1.0000
  C   C32       1.0  0.21847  0.86056  0.28331  1.0000
  C   C33       1.0  0.12644  0.97400  0.25680  1.0000
  C   C34       1.0  0.08275  0.94829  0.26901  1.0000
  C   C35       1.0  0.05649  0.96587  0.27195  1.0000
  C   C36       1.0  0.07494  0.01037  0.26021  1.0000
  C   C37       1.0  0.11842  0.03695  0.24771  1.0000
  C   C38       1.0  0.14378  0.01834  0.24588  1.0000
  C   C39       1.0  0.85289  0.87530  0.35241  1.0000
  C   C40       1.0  0.80797  0.84809  0.35771  1.0000
  C   C41       1.0  0.79096  0.80426  0.36134  1.0000
  C   C42       1.0  0.74934  0.77974  0.35008  1.0000
  C   C43       1.0  0.72295  0.79784  0.33688  1.0000
  C   C44       1.0  0.73954  0.84120  0.33844  1.0000
  C   C45       1.0  0.78138  0.86593  0.34847  1.0000
  C   C46       1.0  0.67987  0.77153  0.31853  1.0000
  C   C47       1.0  0.31646  0.42024  0.16359  1.0000
  C   C48       1.0  0.29715  0.37659  0.14799  1.0000
  C   C49       1.0  0.31972  0.35457  0.15247  1.0000
  C   C50       1.0  0.29968  0.31188  0.14799  1.0000
  C   C51       1.0  0.25649  0.28970  0.14226  1.0000
  C   C52       1.0  0.23434  0.31231  0.13208  1.0000
  C   C53       1.0  0.25451  0.35530  0.13324  1.0000
  C   C54       1.0  0.23520  0.24337  0.15426  1.0000
  C   C55       1.0  0.57079  0.52593  0.73434  1.0000
  C   C56       1.0  0.67871  0.35752  0.73487  1.0000
  C   C57       1.0  0.72019  0.38180  0.75521  1.0000
  C   C58       1.0  0.73622  0.42421  0.76348  1.0000
  C   C59       1.0  0.70985  0.44199  0.75387  1.0000
  C   C60       1.0  0.66812  0.41833  0.73470  1.0000
  C   C61       1.0  0.65292  0.37602  0.72599  1.0000
  C   C62       1.0  0.78023  0.44997  0.78041  1.0000
  C   C63       1.0  0.79785  0.42852  0.90751  1.0000
  C   C64       1.0  0.83953  0.45294  0.92093  1.0000
  C   C65       1.0  0.86509  0.50004  0.80614  1.0000
  C   C66       1.0  0.84718  0.52187  0.68346  1.0000
  C   C67       1.0  0.80576  0.49717  0.66927  1.0000
  C   C68       1.0  0.46513  0.60064  0.72354  1.0000
  C   C69       1.0  0.37877  0.71821  0.75842  1.0000
  C   C70       1.0  0.33568  0.69569  0.75571  1.0000
  C   C71       1.0  0.31045  0.71436  0.75873  1.0000
  C   C72       1.0  0.32934  0.75770  0.75853  1.0000
  C   C73       1.0  0.37246  0.78158  0.75862  1.0000
  C   C74       1.0  0.39660  0.76152  0.75979  1.0000
  C   C75       1.0  0.10710  0.61928  0.81645  1.0000
  C   C76       1.0  0.06232  0.59040  0.82474  1.0000
  C   C77       1.0  0.04647  0.54806  0.81334  1.0000
  C   C78       1.0  0.00384  0.52208  0.81591  1.0000
  C   C79       1.0  0.97611  0.53787  0.82888  1.0000
  C   C80       1.0  0.99177  0.57981  0.84367  1.0000
  C   C81       1.0  0.03432  0.60565  0.84152  1.0000
  C   C82       1.0  0.93206  0.51129  0.82112  1.0000
  C   C83       1.0  0.57774  0.16604  0.65922  1.0000
  C   C84       1.0  0.55711  0.12068  0.66185  1.0000
  C   C85       1.0  0.57842  0.09731  0.67000  1.0000
  C   C86       1.0  0.55643  0.05318  0.68236  1.0000
  C   C87       1.0  0.51265  0.03105  0.68822  1.0000
  C   C88       1.0  0.49151  0.05474  0.67621  1.0000
  C   C89       1.0  0.51358  0.09889  0.66274  1.0000
  C   C90       1.0  0.49010  0.98429  0.70654  1.0000
  N   N1        1.0  0.30594  0.74415  0.25005  1.0000
  N   N2        1.0  0.23417  0.90278  0.25284  1.0000
  N   N3        1.0  0.87823  0.86103  0.33857  1.0000
  N   N4        1.0  0.65320  0.78495  0.31389  1.0000
  N   N5        1.0  0.35310  0.43860  0.20326  1.0000
  N   N6        1.0  0.19492  0.22025  0.16618  1.0000
  N   N7        1.0  0.56063  0.49076  0.69709  1.0000
  N   N8        1.0  0.47621  0.63498  0.76897  1.0000
  N   N9        1.0  0.13437  0.60769  0.79231  1.0000
  N   N10       1.0  0.90715  0.52686  0.81152  1.0000
  N   N11       1.0  0.61653  0.18793  0.67210  1.0000
  N   N12       1.0  0.44996  0.96214  0.71520  1.0000
  C   C91       1.0  0.68207  0.27676  0.58240  1.0000
  C   C92       1.0  0.64289  0.23621  0.67983  1.0000
  C  Sn1       1.0  0.61143  0.23490  0.79717  1.0000
  C  Sn2       1.0  0.61943  0.27498  0.81701  1.0000
  C   C93       1.0  0.65872  0.31539  0.71881  1.0000
  C   C94       1.0  0.68998  0.31632  0.60182  1.0000
  H   H61       1.0  0.70626  0.27749  0.49179  1.0000
  O  Te1       1.0  0.57247  0.19409  0.89355  1.0000
  O  Te2       1.0  0.58854  0.27463  0.93329  1.0000
  H   H62       1.0  0.72030  0.34773  0.52630  1.0000
  Mg  Mg1       1.0  0.59348  0.30515  0.03541  1.0000
  C   C95       1.0  0.22319  0.68551  0.90398  1.0000
  C   C96       1.0  0.25746  0.68708  0.80745  1.0000
  C  Sn3       1.0  0.25106  0.66293  0.68960  1.0000
  C  Sn4       1.0  0.20955  0.63677  0.66824  1.0000
  C   C97       1.0  0.17548  0.63544  0.76531  1.0000
  C   C98       1.0  0.18224  0.65972  0.88293  1.0000
  H   H63       1.0  0.22842  0.70431  0.99490  1.0000
  O  Te3       1.0  0.28565  0.66486  0.59426  1.0000
  O  Te4       1.0  0.20227  0.61232  0.55130  1.0000
  H   H64       1.0  0.15571  0.65852  0.95754  1.0000
  Mg  Mg2       1.0  0.25961  0.62567  0.45109  1.0000
  C   C99       1.0  0.43863  0.87413  0.88400  1.0000
  C   C100      1.0  0.43523  0.91048  0.76412  1.0000
  C  Sn5       1.0  0.40747  0.90436  0.63977  1.0000
  C  Sn6       1.0  0.38268  0.86100  0.63572  1.0000
  C   C101      1.0  0.38629  0.82485  0.75633  1.0000
  C   C102      1.0  0.41418  0.83135  0.88016  1.0000
  H   H65       1.0  0.46019  0.87915  0.97989  1.0000
  O  Te5       1.0  0.40447  0.94104  0.52090  1.0000
  O  Te6       1.0  0.35467  0.85393  0.51288  1.0000
  H   H66       1.0  0.41678  0.80320  0.97306  1.0000
  Mg  Mg3       1.0  0.36180  0.91447  0.37825  1.0000
  C   C103      1.0  0.14942  0.91816  0.14650  1.0000
  C   C104      1.0  0.15001  0.94567  0.23939  1.0000
  C  Sn7       1.0  0.18170  0.96206  0.33725  1.0000
  C  Sn8       1.0  0.21334  0.95064  0.34191  1.0000
  C   C105      1.0  0.21249  0.92312  0.24841  1.0000
  C   C106      1.0  0.18063  0.90690  0.15096  1.0000
  H   H67       1.0  0.12478  0.90563  0.07101  1.0000
  O  Te7       1.0  0.70466  0.98949  0.42935  1.0000
  O  Te8       1.0  0.76824  0.96657  0.43861  1.0000
  H   H68       1.0  0.18020  0.88563  0.07895  1.0000
  Mg  Mg4       1.0  0.75488  0.00288  0.54228  1.0000
  C   C107      1.0  0.13671  0.14877  0.08105  1.0000
  C   C108      1.0  0.16508  0.17012  0.18213  1.0000
  C  Sn9       1.0  0.18132  0.14741  0.31059  1.0000
  C  Sn10      1.0  0.16887  0.10249  0.33803  1.0000
  C   C109      1.0  0.14050  0.08144  0.23612  1.0000
  C   C110      1.0  0.12443  0.10448  0.10797  1.0000
  H   H69       1.0  0.07127  0.07222  0.98182  1.0000
  O  Te9       1.0  0.20963  0.16924  0.41047  1.0000
  O  Te10      1.0  0.18463  0.07901  0.46549  1.0000
  H   H70       1.0  0.10248  0.08795  0.02964  1.0000
  Mg  Mg5       1.0  0.22239  0.12317  0.56837  1.0000
  C   C111      1.0  0.60320  0.43308  0.58447  1.0000
  C   C112      1.0  0.63526  0.43761  0.68467  1.0000
  C  Sn11      1.0  0.64223  0.45922  0.81355  1.0000
  C  Sn12      1.0  0.61655  0.47656  0.84238  1.0000
  C   C113      1.0  0.58453  0.47183  0.74154  1.0000
  C   C114      1.0  0.57785  0.45017  0.61288  1.0000
  H   H71       1.0  0.59801  0.41630  0.48500  1.0000
  O  Te11      1.0  0.67441  0.46347  0.91243  1.0000
  O  Te12      1.0  0.62281  0.49829  0.97038  1.0000
  H   H72       1.0  0.55300  0.44664  0.53542  1.0000
  Mg  Mg6       1.0  0.72369  0.59017  0.07146  1.0000
  C   C115      1.0  0.46727  0.70313  0.79980  1.0000
  C   C116      1.0  0.45510  0.66268  0.77937  1.0000
  C  Sn13      1.0  0.41605  0.63910  0.73747  1.0000
  C  Sn14      1.0  0.38875  0.65644  0.71564  1.0000
  C   C117      1.0  0.40123  0.69696  0.73622  1.0000
  C   C118      1.0  0.44037  0.72026  0.77822  1.0000
  H   H73       1.0  0.49757  0.72118  0.83219  1.0000
  O  Te13      1.0  0.40437  0.59873  0.71760  1.0000
  O  Te14      1.0  0.34955  0.63358  0.67368  1.0000
  H   H74       1.0  0.44980  0.75160  0.79390  1.0000
  Mg  Mg7       1.0  0.34778  0.57988  0.66024  1.0000
  C   C119      1.0  0.98398  0.89728  0.19897  1.0000
  C   C120      1.0  0.00698  0.93185  0.26180  1.0000
  C  Sn15      1.0  0.98573  0.94234  0.37646  1.0000
  C  Sn16      1.0  0.94062  0.91770  0.42901  1.0000
  C   C121      1.0  0.91791  0.88316  0.36554  1.0000
  C   C122      1.0  0.93949  0.87295  0.25080  1.0000
  H   H75       1.0  0.00068  0.88936  0.11029  1.0000
  O  Te15      1.0  0.53205  0.97700  0.43793  1.0000
  O  Te16      1.0  0.91858  0.92747  0.54354  1.0000
  H   H76       1.0  0.92168  0.84616  0.20229  1.0000
  Mg  Mg8       1.0  0.48756  0.97772  0.59161  1.0000
  C   C123      1.0  0.49381  0.52487  0.67266  1.0000
  C   C124      1.0  0.53387  0.53936  0.71270  1.0000
  C  Sn17      1.0  0.55241  0.57520  0.77210  1.0000
  C  Sn18      1.0  0.53036  0.59685  0.79171  1.0000
  C   C125      1.0  0.49029  0.58208  0.75144  1.0000
  C   C126      1.0  0.47203  0.54620  0.69204  1.0000
  H   H77       1.0  0.47967  0.49709  0.62681  1.0000
  O  Te17      1.0  0.59246  0.58926  0.81144  1.0000
  O  Te18      1.0  0.54815  0.63274  0.85090  1.0000
  H   H78       1.0  0.44101  0.53496  0.66118  1.0000
  Mg  Mg9       1.0  0.60348  0.63965  0.88762  1.0000
