data_image0
_chemical_formula_structural       H24C36N12C2Sn2C2HTe2HMgC2Sn2C2HTe2HMgC2Sn2C2HTe2HMgC2Sn2C2HTe2HMgC2Sn2C2HTe2HMgC2Sn2C2HTe2HMgC2Sn2C2HTe2HMgC2Sn2C2HTe2HMgC2Sn2C2HTe2HMgC2Sn2C2HTe2HMgC2Sn2C2HTe2HMgC2Sn2C2HTe2HMgC2Sn2C2HTe2HMgC2Sn2C2HTe2HMgC2Sn2C2HTe2HMgC2Sn2C2HTe2HMgC2Sn2C2HTe2HMgC2Sn2C2HTe2HMg
_chemical_formula_sum              "H60 C108 N12 Sn36 Te36 Mg18"
_cell_length_a       36.9961
_cell_length_b       36.7606
_cell_length_c       7.42026
_cell_angle_alpha    70.085
_cell_angle_beta     87.7164
_cell_angle_gamma    118.699

_symmetry_space_group_name_H-M    'P1'
_space_group_IT_number       1

loop_
  _space_group_symop_operation_xyz
  'x, y, z'

loop_
  _atom_site_type_symbol
  _atom_site_label
  _atom_site_symmetry_multiplicity
  _atom_site_fract_x
  _atom_site_fract_y
  _atom_site_fract_z
  _atom_site_occupancy
  H   H1        1.0  0.48482  0.62073  0.27056  1.0000
  H   H2        1.0  0.46870  0.72886  0.26468  1.0000
  H   H3        1.0  0.36447  0.60938  0.24408  1.0000
  H   H4        1.0  0.35590  0.81110  0.17453  1.0000
  H   H5        1.0  0.18393  0.83646  0.32381  1.0000
  H   H6        1.0  0.06866  0.91331  0.28585  1.0000
  H   H7        1.0  0.05506  0.02454  0.26088  1.0000
  H   H8        1.0  0.17779  0.03934  0.22861  1.0000
  H   H9        1.0  0.86397  0.90904  0.35190  1.0000
  H   H10       1.0  0.67159  0.73958  0.30588  1.0000
  H   H11       1.0  0.29777  0.43665  0.13978  1.0000
  H   H12       1.0  0.25546  0.22910  0.15440  1.0000
  H   H13       1.0  0.74034  0.36767  0.76232  1.0000
  H   H14       1.0  0.72224  0.47491  0.76003  1.0000
  H   H15       1.0  0.62057  0.35730  0.71189  1.0000
  H   H16       1.0  0.60163  0.54493  0.76608  1.0000
  H   H17       1.0  0.43616  0.58444  0.67386  1.0000
  H   H18       1.0  0.32023  0.66151  0.76188  1.0000
  H   H19       1.0  0.31037  0.77282  0.76163  1.0000
  H   H20       1.0  0.43003  0.78077  0.75738  1.0000
  H   H21       1.0  0.11649  0.65168  0.82692  1.0000
  H   H22       1.0  0.92182  0.47817  0.81629  1.0000
  H   H23       1.0  0.55763  0.18070  0.64805  1.0000
  H   H24       1.0  0.50958  0.96905  0.70969  1.0000
  C   C1        1.0  0.32148  0.78634  0.21932  1.0000
  C   C2        1.0  0.42222  0.60933  0.26238  1.0000
  C   C3        1.0  0.46484  0.63487  0.26680  1.0000
  C   C4        1.0  0.48226  0.67843  0.26432  1.0000
  C   C5        1.0  0.45562  0.69575  0.26051  1.0000
  C   C6        1.0  0.41301  0.67170  0.25351  1.0000
  C   C7        1.0  0.39697  0.62844  0.25456  1.0000
  C   C8        1.0  0.21847  0.86056  0.28331  1.0000
  C   C9        1.0  0.12644  0.97400  0.25680  1.0000
  C   C10       1.0  0.08275  0.94829  0.26901  1.0000
  C   C11       1.0  0.05649  0.96587  0.27195  1.0000
  C   C12       1.0  0.07494  0.01037  0.26021  1.0000
  C   C13       1.0  0.11842  0.03695  0.24771  1.0000
  C   C14       1.0  0.14378  0.01834  0.24588  1.0000
  C   C15       1.0  0.85289  0.87530  0.35241  1.0000
  C   C16       1.0  0.67987  0.77153  0.31853  1.0000
  C   C17       1.0  0.31646  0.42024  0.16359  1.0000
  C   C18       1.0  0.23520  0.24337  0.15426  1.0000
  C   C19       1.0  0.57079  0.52593  0.73434  1.0000
  C   C20       1.0  0.67871  0.35752  0.73487  1.0000
  C   C21       1.0  0.72019  0.38180  0.75521  1.0000
  C   C22       1.0  0.73622  0.42421  0.76348  1.0000
  C   C23       1.0  0.70985  0.44199  0.75387  1.0000
  C   C24       1.0  0.66812  0.41833  0.73470  1.0000
  C   C25       1.0  0.65292  0.37602  0.72599  1.0000
  C   C26       1.0  0.46513  0.60064  0.72354  1.0000
  C   C27       1.0  0.37877  0.71821  0.75842  1.0000
  C   C28       1.0  0.33568  0.69569  0.75571  1.0000
  C   C29       1.0  0.31045  0.71436  0.75873  1.0000
  C   C30       1.0  0.32934  0.75770  0.75853  1.0000
  C   C31       1.0  0.37246  0.78158  0.75862  1.0000
  C   C32       1.0  0.39660  0.76152  0.75979  1.0000
  C   C33       1.0  0.10710  0.61928  0.81645  1.0000
  C   C34       1.0  0.93206  0.51129  0.82112  1.0000
  C   C35       1.0  0.57774  0.16604  0.65922  1.0000
  C   C36       1.0  0.49010  0.98429  0.70654  1.0000
  N   N1        1.0  0.30594  0.74415  0.25005  1.0000
  N   N2        1.0  0.23417  0.90278  0.25284  1.0000
  N   N3        1.0  0.87823  0.86103  0.33857  1.0000
  N   N4        1.0  0.65320  0.78495  0.31389  1.0000
  N   N5        1.0  0.35310  0.43860  0.20326  1.0000
  N   N6        1.0  0.19492  0.22025  0.16618  1.0000
  N   N7        1.0  0.56063  0.49076  0.69709  1.0000
  N   N8        1.0  0.47621  0.63498  0.76897  1.0000
  N   N9        1.0  0.13437  0.60769  0.79231  1.0000
  N   N10       1.0  0.90715  0.52686  0.81152  1.0000
  N   N11       1.0  0.61653  0.18793  0.67210  1.0000
  N   N12       1.0  0.44996  0.96214  0.71520  1.0000
  C   C37       1.0  0.33513  0.67063  0.20608  1.0000
  C   C38       1.0  0.37641  0.68659  0.23202  1.0000
  C  Sn1       1.0  0.39638  0.72377  0.28222  1.0000
  C  Sn2       1.0  0.37454  0.74530  0.30686  1.0000
  C   C39       1.0  0.33324  0.72905  0.28072  1.0000
  C   C40       1.0  0.31356  0.69182  0.23043  1.0000
  H   H25       1.0  0.31990  0.64181  0.16728  1.0000
  O  Te1       1.0  0.43763  0.73930  0.30750  1.0000
  O  Te2       1.0  0.39374  0.78251  0.35709  1.0000
  H   H26       1.0  0.28160  0.67945  0.21049  1.0000
  Mg  Mg1       1.0  0.45036  0.79115  0.37555  1.0000
  C   C41       1.0  0.58048  0.77840  0.19976  1.0000
  C   C42       1.0  0.60587  0.76321  0.29146  1.0000
  C  Sn3       1.0  0.59186  0.71698  0.36861  1.0000
  C  Sn4       1.0  0.55169  0.68546  0.35339  1.0000
  C   C43       1.0  0.52654  0.70100  0.26125  1.0000
  C   C44       1.0  0.54085  0.74733  0.18462  1.0000
  H   H27       1.0  0.59156  0.81425  0.14037  1.0000
  O  Te3       1.0  0.61762  0.70238  0.45983  1.0000
  O  Te4       1.0  0.53692  0.63907  0.42915  1.0000
  H   H28       1.0  0.52120  0.75909  0.11351  1.0000
  Mg  Mg2       1.0  0.58357  0.63575  0.54028  1.0000
  C   C45       1.0  0.43178  0.54238  0.18090  1.0000
  C   C46       1.0  0.41125  0.56158  0.23861  1.0000
  C  Sn5       1.0  0.36710  0.53646  0.31057  1.0000
  C  Sn6       1.0  0.34314  0.49129  0.32489  1.0000
  C   C47       1.0  0.36398  0.47238  0.26690  1.0000
  C   C48       1.0  0.40817  0.49782  0.19505  1.0000
  H   H29       1.0  0.46597  0.56205  0.12540  1.0000
  O  Te5       1.0  0.34710  0.55617  0.36751  1.0000
  O  Te6       1.0  0.29897  0.46542  0.39635  1.0000
  H   H30       1.0  0.42406  0.48294  0.15050  1.0000
  Mg  Mg3       1.0  0.28624  0.50727  0.45552  1.0000
  C   C49       1.0  0.31360  0.86158  0.18257  1.0000
  C   C50       1.0  0.30070  0.81604  0.23580  1.0000
  C  Sn7       1.0  0.25752  0.78226  0.30252  1.0000
  C  Sn8       1.0  0.22676  0.79440  0.31599  1.0000
  C   C51       1.0  0.23999  0.84006  0.26225  1.0000
  C   C52       1.0  0.28328  0.87358  0.19574  1.0000
  H   H31       1.0  0.34709  0.88752  0.13100  1.0000
  O  Te7       1.0  0.24518  0.73693  0.35518  1.0000
  O  Te8       1.0  0.18340  0.76133  0.38213  1.0000
  H   H32       1.0  0.29326  0.90884  0.15441  1.0000
  Mg  Mg4       1.0  0.18235  0.70417  0.43682  1.0000
  C   C53       1.0  0.19741  0.96567  0.36034  1.0000
  C   C54       1.0  0.16371  0.96027  0.27089  1.0000
  C  Sn9       1.0  0.15020  0.93175  0.17113  1.0000
  C  Sn10      1.0  0.17088  0.90823  0.16104  1.0000
  C   C55       1.0  0.20455  0.91384  0.25114  1.0000
  C   C56       1.0  0.21782  0.94247  0.35053  1.0000
  H   H33       1.0  0.73052  0.98781  0.43733  1.0000
  O  Te9       1.0  0.11649  0.92676  0.08252  1.0000
  O  Te10      1.0  0.15802  0.87950  0.06236  1.0000
  H   H34       1.0  0.24389  0.94662  0.41988  1.0000
  Mg  Mg5       1.0  0.05753  0.78941  0.96499  1.0000
  C   C57       1.0  0.94712  0.92512  0.43936  1.0000
  C   C58       1.0  0.92471  0.89621  0.34881  1.0000
  C  Sn11      1.0  0.94603  0.88640  0.23076  1.0000
  C  Sn12      1.0  0.99061  0.90595  0.20318  1.0000
  C   C59       1.0  0.01273  0.93480  0.29452  1.0000
  C   C60       1.0  0.99109  0.94439  0.41229  1.0000
  H   H35       1.0  0.93037  0.93252  0.53057  1.0000
  O  Te11      1.0  0.92315  0.85746  0.14133  1.0000
  O  Te12      1.0  0.01270  0.89671  0.08601  1.0000
  H   H36       1.0  0.53130  0.96676  0.48248  1.0000
  Mg  Mg6       1.0  0.91446  0.76083  0.99516  1.0000
  C   C61       1.0  0.18567  0.13367  0.34398  1.0000
  C   C62       1.0  0.18094  0.16872  0.22079  1.0000
  C  Sn13      1.0  0.15160  0.16019  0.10457  1.0000
  C  Sn14      1.0  0.12657  0.11571  0.11217  1.0000
  C   C63       1.0  0.13152  0.08087  0.23599  1.0000
  C   C64       1.0  0.16098  0.08978  0.35162  1.0000
  H   H37       1.0  0.20844  0.14055  0.43353  1.0000
  O  Te13      1.0  0.09427  0.10122  0.98226  1.0000
  O  Te14      1.0  0.04397  0.01185  0.99763  1.0000
  H   H38       1.0  0.16461  0.06263  0.44708  1.0000
  Mg  Mg7       1.0  0.04970  0.07141  0.85409  1.0000
  C   C65       1.0  0.76001  0.78096  0.34827  1.0000
  C   C66       1.0  0.72817  0.79112  0.35108  1.0000
  C  Sn15      1.0  0.73746  0.83283  0.34960  1.0000
  C  Sn16      1.0  0.77942  0.86491  0.34516  1.0000
  C   C67       1.0  0.81105  0.85444  0.34223  1.0000
  C   C68       1.0  0.80141  0.81259  0.34381  1.0000
  H   H39       1.0  0.75256  0.74859  0.34938  1.0000
  O  Te15      1.0  0.70526  0.84243  0.35253  1.0000
  O  Te16      1.0  0.78957  0.90686  0.34352  1.0000
  H   H40       1.0  0.82608  0.80474  0.34151  1.0000
  Mg  Mg8       1.0  0.73478  0.90420  0.34882  1.0000
  C   C69       1.0  0.24502  0.34602  0.12646  1.0000
  C   C70       1.0  0.28576  0.37161  0.14937  1.0000
  C  Sn17      1.0  0.31378  0.35608  0.15914  1.0000
  C  Sn18      1.0  0.30068  0.31414  0.14563  1.0000
  C   C71       1.0  0.25987  0.28881  0.12258  1.0000
  C   C72       1.0  0.23209  0.30467  0.11304  1.0000
  H   H41       1.0  0.22353  0.35830  0.11896  1.0000
  O  Te17      1.0  0.35436  0.38206  0.18214  1.0000
  O  Te18      1.0  0.32805  0.29783  0.15488  1.0000
  H   H42       1.0  0.20056  0.28486  0.09516  1.0000
  Mg  Mg9       1.0  0.38016  0.34548  0.18705  1.0000
  C   C73       1.0  0.62365  0.47622  0.86009  1.0000
  C   C74       1.0  0.59641  0.47798  0.73677  1.0000
  C  Sn19      1.0  0.59001  0.45712  0.60517  1.0000
  C  Sn20      1.0  0.61132  0.43408  0.59725  1.0000
  C   C75       1.0  0.63849  0.43249  0.72134  1.0000
  C   C76       1.0  0.64467  0.45349  0.85244  1.0000
  H   H43       1.0  0.62841  0.49245  0.96160  1.0000
  O  Te19      1.0  0.56270  0.45921  0.48296  1.0000
  O  Te20      1.0  0.60550  0.41293  0.46715  1.0000
  H   H44       1.0  0.66574  0.45210  0.94799  1.0000
  Mg  Mg10      1.0  0.56511  0.42515  0.33034  1.0000
  C   C77       1.0  0.81549  0.50858  0.65712  1.0000
  C   C78       1.0  0.78672  0.46159  0.74412  1.0000
  C  Sn21      1.0  0.79698  0.43296  0.87916  1.0000
  C  Sn22      1.0  0.83681  0.45181  0.92775  1.0000
  C   C79       1.0  0.86536  0.49886  0.84001  1.0000
  C   C80       1.0  0.85477  0.52720  0.70502  1.0000
  H   H45       1.0  0.80729  0.53051  0.55276  1.0000
  O  Te21      1.0  0.76787  0.38609  0.96465  1.0000
  O  Te22      1.0  0.90090  0.51836  0.06230  1.0000
  H   H46       1.0  0.87704  0.56358  0.63779  1.0000
  Mg  Mg11      1.0  0.85056  0.45658  0.13961  1.0000
  C   C81       1.0  0.61089  0.26600  0.82472  1.0000
  C   C82       1.0  0.65221  0.30408  0.75468  1.0000
  C  Sn23      1.0  0.68394  0.30509  0.64067  1.0000
  C  Sn24      1.0  0.67400  0.26723  0.59616  1.0000
  C   C83       1.0  0.63256  0.22930  0.66681  1.0000
  C   C84       1.0  0.60106  0.22865  0.78082  1.0000
  H   H47       1.0  0.58651  0.26549  0.91284  1.0000
  O  Te23      1.0  0.72506  0.34341  0.57194  1.0000
  O  Te24      1.0  0.70510  0.26735  0.48246  1.0000
  H   H48       1.0  0.56906  0.19917  0.83491  1.0000
  Mg  Mg12      1.0  0.75649  0.32741  0.42264  1.0000
  C   C85       1.0  0.53937  0.59793  0.80632  1.0000
  C   C86       1.0  0.50225  0.58757  0.74000  1.0000
  C  Sn25      1.0  0.48402  0.55219  0.67771  1.0000
  C  Sn26      1.0  0.50339  0.52676  0.68212  1.0000
  C   C87       1.0  0.54051  0.53737  0.74885  1.0000
  C   C88       1.0  0.55849  0.57285  0.81079  1.0000
  H   H49       1.0  0.55327  0.62536  0.85434  1.0000
  O  Te25      1.0  0.44693  0.54231  0.61181  1.0000
  O  Te26      1.0  0.48584  0.49121  0.62078  1.0000
  H   H50       1.0  0.58722  0.58084  0.86225  1.0000
  Mg  Mg13      1.0  0.43506  0.49071  0.54329  1.0000
  C   C89       1.0  0.38842  0.64823  0.71362  1.0000
  C   C90       1.0  0.39808  0.68507  0.76083  1.0000
  C  Sn27      1.0  0.43686  0.70825  0.80565  1.0000
  C  Sn28      1.0  0.46646  0.69422  0.80299  1.0000
  C   C91       1.0  0.45650  0.65734  0.75544  1.0000
  C   C92       1.0  0.41760  0.63437  0.71088  1.0000
  H   H51       1.0  0.35833  0.63047  0.67904  1.0000
  O  Te27      1.0  0.44600  0.74498  0.85257  1.0000
  O  Te28      1.0  0.50545  0.71679  0.84712  1.0000
  H   H52       1.0  0.41014  0.60587  0.67421  1.0000
  Mg  Mg14      1.0  0.50333  0.76488  0.90211  1.0000
  C   C93       1.0  0.24170  0.65105  0.65184  1.0000
  C   C94       1.0  0.26216  0.68259  0.73328  1.0000
  C  Sn29      1.0  0.23840  0.68849  0.85944  1.0000
  C  Sn30      1.0  0.19333  0.66228  0.90468  1.0000
  C   C95       1.0  0.17317  0.63080  0.82256  1.0000
  C   C96       1.0  0.19725  0.62517  0.69644  1.0000
  H   H53       1.0  0.26033  0.64668  0.55434  1.0000
  O  Te29      1.0  0.25935  0.72016  0.93948  1.0000
  O  Te30      1.0  0.22184  0.76187  0.03039  1.0000
  H   H54       1.0  0.18140  0.60073  0.63351  1.0000
  Mg  Mg15      1.0  0.26506  0.80936  0.10287  1.0000
  C   C97       1.0  0.39294  0.89385  0.61128  1.0000
  C   C98       1.0  0.41991  0.91273  0.72274  1.0000
  C  Sn31      1.0  0.43454  0.88809  0.85178  1.0000
  C  Sn32      1.0  0.42190  0.84374  0.86920  1.0000
  C   C99       1.0  0.39494  0.82516  0.75694  1.0000
  C   C100      1.0  0.38047  0.85011  0.62831  1.0000
  H   H55       1.0  0.38176  0.91316  0.51167  1.0000
  O  Te31      1.0  0.46145  0.90746  0.96210  1.0000
  O  Te32      1.0  0.43607  0.81837  0.99698  1.0000
  H   H56       1.0  0.35961  0.83550  0.54194  1.0000
  Mg  Mg16      1.0  0.52534  0.95385  0.11611  1.0000
  C   C101      1.0  0.01478  0.52399  0.80769  1.0000
  C   C102      1.0  0.98171  0.53130  0.83754  1.0000
  C  Sn33      1.0  0.99006  0.57122  0.85390  1.0000
  C  Sn34      1.0  0.03233  0.60437  0.84001  1.0000
  C   C103      1.0  0.06520  0.59675  0.81000  1.0000
  C   C104      1.0  0.05649  0.55668  0.79390  1.0000
  H   H57       1.0  0.00804  0.49301  0.79512  1.0000
  O  Te33      1.0  0.95664  0.57797  0.88377  1.0000
  O  Te34      1.0  0.04157  0.64457  0.85577  1.0000
  H   H58       1.0  0.08210  0.55105  0.77066  1.0000
  Mg  Mg17      1.0  0.98524  0.63819  0.89599  1.0000
  C   C105      1.0  0.57847  0.08669  0.67853  1.0000
  C   C106      1.0  0.56397  0.11647  0.65302  1.0000
  C  Sn35      1.0  0.52143  0.10171  0.65271  1.0000
  C  Sn36      1.0  0.49296  0.05626  0.67851  1.0000
  C   C107      1.0  0.50777  0.02672  0.70406  1.0000
  C   C108      1.0  0.55040  0.04186  0.70406  1.0000
  H   H59       1.0  0.61145  0.09839  0.67865  1.0000
  O  Te35      1.0  0.50748  0.13191  0.62696  1.0000
  O  Te36      1.0  0.45028  0.04061  0.67888  1.0000
  H   H60       1.0  0.56162  0.01879  0.72395  1.0000
  Mg  Mg18      1.0  0.44640  0.09460  0.63832  1.0000
