data_image0
_chemical_formula_structural       H112C136N16O16C2Sn2C2HTe2HMgC2Sn2C2HTe2HMgC2Sn2C2HTe2HMgC2Sn2C2HTe2HMgC2Sn2C2HTe2HMgC2Sn2C2HTe2HMgC2Sn2C2HTe2HMgC2Sn2C2HTe2HMg
_chemical_formula_sum              "H128 C168 N16 O16 Sn16 Te16 Mg8"
_cell_length_a       31.1222
_cell_length_b       22.9542
_cell_length_c       9.6195
_cell_angle_alpha    90.2343
_cell_angle_beta     92.2641
_cell_angle_gamma    90.0319

_symmetry_space_group_name_H-M    'P1'
_space_group_IT_number       1

loop_
  _space_group_symop_operation_xyz
  'x, y, z'

loop_
  _atom_site_type_symbol
  _atom_site_label
  _atom_site_symmetry_multiplicity
  _atom_site_fract_x
  _atom_site_fract_y
  _atom_site_fract_z
  _atom_site_occupancy
  H   H1        1.0  0.43796  0.46408  0.50835  1.0000
  H   H2        1.0  0.57595  0.51675  0.48364  1.0000
  H   H3        1.0  0.37175  0.40318  0.49220  1.0000
  H   H4        1.0  0.63911  0.58205  0.46761  1.0000
  H   H5        1.0  0.48927  0.36914  0.16765  1.0000
  H   H6        1.0  0.50577  0.62247  0.18602  1.0000
  H   H7        1.0  0.42341  0.30937  0.14829  1.0000
  H   H8        1.0  0.56900  0.68537  0.16314  1.0000
  H   H9        1.0  0.88092  0.36240  0.02516  1.0000
  H   H10       1.0  0.12093  0.64653  0.01881  1.0000
  H   H11       1.0  0.61829  0.86746  0.48680  1.0000
  H   H12       1.0  0.38053  0.13943  0.48725  1.0000
  H   H13       1.0  0.83480  0.41108  0.47190  1.0000
  H   H14       1.0  0.12746  0.63062  0.52255  1.0000
  H   H15       1.0  0.66476  0.90631  0.02430  1.0000
  H   H16       1.0  0.33156  0.09304  0.99998  1.0000
  H   H17       1.0  0.82961  0.34071  0.08442  1.0000
  H   H18       1.0  0.17496  0.66382  0.07407  1.0000
  H   H19       1.0  0.64559  0.80114  0.44536  1.0000
  H   H20       1.0  0.32665  0.15492  0.42758  1.0000
  H   H21       1.0  0.75342  0.43051  0.10717  1.0000
  H   H22       1.0  0.24706  0.57590  0.09015  1.0000
  H   H23       1.0  0.74642  0.92291  0.39240  1.0000
  H   H24       1.0  0.25657  0.07590  0.40009  1.0000
  H   H25       1.0  0.70515  0.42456  0.99771  1.0000
  H   H26       1.0  0.29462  0.58606  0.99161  1.0000
  H   H27       1.0  0.79376  0.92119  0.50743  1.0000
  H   H28       1.0  0.20945  0.07386  0.50408  1.0000
  H   H29       1.0  0.72515  0.36286  0.09376  1.0000
  H   H30       1.0  0.27302  0.64530  0.08851  1.0000
  H   H31       1.0  0.77504  0.85636  0.41980  1.0000
  H   H32       1.0  0.22387  0.13918  0.41640  1.0000
  H   H33       1.0  0.27271  0.32241  0.30354  1.0000
  H   H34       1.0  0.72659  0.66517  0.26978  1.0000
  H   H35       1.0  0.22829  0.82462  0.21545  1.0000
  H   H36       1.0  0.77596  0.16421  0.24078  1.0000
  H   H37       1.0  0.19980  0.27961  0.25294  1.0000
  H   H38       1.0  0.79864  0.70785  0.22442  1.0000
  H   H39       1.0  0.30180  0.78248  0.25618  1.0000
  H   H40       1.0  0.70327  0.20584  0.28206  1.0000
  H   H41       1.0  0.15463  0.20756  0.18081  1.0000
  H   H42       1.0  0.84280  0.78144  0.16148  1.0000
  H   H43       1.0  0.34796  0.70909  0.31729  1.0000
  H   H44       1.0  0.65823  0.27925  0.33427  1.0000
  H   H45       1.0  0.62198  0.74366  0.21092  1.0000
  H   H46       1.0  0.37600  0.24709  0.22135  1.0000
  H   H47       1.0  0.87983  0.24442  0.30350  1.0000
  H   H48       1.0  0.12601  0.74819  0.29975  1.0000
  H   H49       1.0  0.56910  0.48907  0.15724  1.0000
  H   H50       1.0  0.64274  0.44783  0.15924  1.0000
  H   H51       1.0  0.53561  0.37167  0.48165  1.0000
  H   H52       1.0  0.60895  0.32948  0.48321  1.0000
  H   H53       1.0  0.43013  0.48475  0.98449  1.0000
  H   H54       1.0  0.93208  0.04282  0.48924  1.0000
  H   H55       1.0  0.36691  0.41853  0.96920  1.0000
  H   H56       1.0  0.86592  0.10196  0.50936  1.0000
  H   H57       1.0  0.49329  0.37900  0.68554  1.0000
  H   H58       1.0  0.98928  0.13060  0.84552  1.0000
  H   H59       1.0  0.43007  0.31501  0.66428  1.0000
  H   H60       1.0  0.92286  0.18797  0.87031  1.0000
  H   H61       1.0  0.88414  0.37175  0.50504  1.0000
  H   H62       1.0  0.18124  0.64827  0.57972  1.0000
  H   H63       1.0  0.61441  0.86767  0.01373  1.0000
  H   H64       1.0  0.37865  0.13818  0.98776  1.0000
  H   H65       1.0  0.83545  0.41042  0.00423  1.0000
  H   H66       1.0  0.16382  0.59678  0.98320  1.0000
  H   H67       1.0  0.67341  0.86950  0.43919  1.0000
  H   H68       1.0  0.33766  0.08991  0.52521  1.0000
  H   H69       1.0  0.83548  0.34682  0.57753  1.0000
  H   H70       1.0  0.17115  0.58345  0.47886  1.0000
  H   H71       1.0  0.66080  0.83768  0.93504  1.0000
  H   H72       1.0  0.32733  0.16471  0.92712  1.0000
  H   H73       1.0  0.76569  0.40530  0.61265  1.0000
  H   H74       1.0  0.24822  0.58713  0.61683  1.0000
  H   H75       1.0  0.73903  0.91949  0.90368  1.0000
  H   H76       1.0  0.21585  0.13924  0.92739  1.0000
  H   H77       1.0  0.72363  0.43909  0.50677  1.0000
  H   H78       1.0  0.29031  0.56085  0.50879  1.0000
  H   H79       1.0  0.78676  0.92716  0.01551  1.0000
  H   H80       1.0  0.25204  0.08273  0.88172  1.0000
  H   H81       1.0  0.71862  0.36514  0.55924  1.0000
  H   H82       1.0  0.28973  0.63500  0.56567  1.0000
  H   H83       1.0  0.77444  0.85922  0.93164  1.0000
  H   H84       1.0  0.20823  0.06756  0.99404  1.0000
  H   H85       1.0  0.27576  0.33300  0.77238  1.0000
  H   H86       1.0  0.72861  0.67910  0.81502  1.0000
  H   H87       1.0  0.22437  0.83378  0.70780  1.0000
  H   H88       1.0  0.76978  0.17548  0.71475  1.0000
  H   H89       1.0  0.20281  0.29078  0.72049  1.0000
  H   H90       1.0  0.80083  0.72172  0.77291  1.0000
  H   H91       1.0  0.29749  0.79137  0.75565  1.0000
  H   H92       1.0  0.69755  0.21812  0.75787  1.0000
  H   H93       1.0  0.15750  0.21790  0.65629  1.0000
  H   H94       1.0  0.84535  0.79274  0.69766  1.0000
  H   H95       1.0  0.34290  0.72031  0.83100  1.0000
  H   H96       1.0  0.65313  0.29141  0.82704  1.0000
  H   H97       1.0  0.62389  0.75436  0.72156  1.0000
  H   H98       1.0  0.37933  0.25557  0.71411  1.0000
  H   H99       1.0  0.87442  0.25292  0.79361  1.0000
  H   H100      1.0  0.12125  0.75895  0.78604  1.0000
  H   H101      1.0  0.06973  0.01601  0.85390  1.0000
  H   H102      1.0  0.57010  0.51233  0.67640  1.0000
  H   H103      1.0  0.42971  0.51204  0.65327  1.0000
  H   H104      1.0  0.14402  0.05413  0.84752  1.0000
  H   H105      1.0  0.64224  0.46689  0.66771  1.0000
  H   H106      1.0  0.35604  0.55272  0.64973  1.0000
  H   H107      1.0  0.03093  0.12758  0.51492  1.0000
  H   H108      1.0  0.53241  0.38361  0.96999  1.0000
  H   H109      1.0  0.46796  0.62910  0.98463  1.0000
  H   H110      1.0  0.10532  0.16604  0.50719  1.0000
  H   H111      1.0  0.60462  0.33927  0.96587  1.0000
  H   H112      1.0  0.39409  0.66980  0.98285  1.0000
  C   C1        1.0  0.54732  0.43468  0.32162  1.0000
  C   C2        1.0  0.55886  0.38778  0.40945  1.0000
  C   C3        1.0  0.59992  0.36361  0.40958  1.0000
  C   C4        1.0  0.63098  0.38587  0.32105  1.0000
  C   C5        1.0  0.61911  0.43145  0.22971  1.0000
  C   C6        1.0  0.57794  0.45427  0.22870  1.0000
  C   C7        1.0  0.65034  0.71768  0.24159  1.0000
  C   C8        1.0  0.34860  0.27327  0.25310  1.0000
  C   C9        1.0  0.85174  0.21773  0.27324  1.0000
  C   C10       1.0  0.15317  0.77382  0.26424  1.0000
  C   C11       1.0  0.69218  0.74331  0.21574  1.0000
  C   C12       1.0  0.30615  0.24756  0.22854  1.0000
  C   C13       1.0  0.80960  0.24270  0.29852  1.0000
  C   C14       1.0  0.19588  0.74884  0.28792  1.0000
  C   C15       1.0  0.73596  0.82573  0.14044  1.0000
  C   C16       1.0  0.26096  0.16671  0.13905  1.0000
  C   C17       1.0  0.76464  0.32516  0.36815  1.0000
  C   C18       1.0  0.24213  0.66753  0.36529  1.0000
  C   C19       1.0  0.69538  0.80110  0.16675  1.0000
  C   C20       1.0  0.30205  0.19148  0.16794  1.0000
  C   C21       1.0  0.80571  0.30077  0.34726  1.0000
  C   C22       1.0  0.20078  0.69220  0.34417  1.0000
  C   C23       1.0  0.46800  0.42205  0.33768  1.0000
  C   C24       1.0  0.53615  0.56406  0.33498  1.0000
  C   C25       1.0  0.46393  0.37588  0.24074  1.0000
  C   C26       1.0  0.53477  0.61394  0.24949  1.0000
  C   C27       1.0  0.42694  0.34185  0.23063  1.0000
  C   C28       1.0  0.57037  0.65000  0.23809  1.0000
  C   C29       1.0  0.39275  0.35212  0.31990  1.0000
  C   C30       1.0  0.60904  0.63812  0.31439  1.0000
  C   C31       1.0  0.39779  0.39611  0.42183  1.0000
  C   C32       1.0  0.60959  0.59048  0.40666  1.0000
  C   C33       1.0  0.43482  0.42969  0.43098  1.0000
  C   C34       1.0  0.57405  0.55456  0.41653  1.0000
  C   C35       1.0  0.18020  0.17464  0.17385  1.0000
  C   C36       1.0  0.81756  0.81494  0.16745  1.0000
  C   C37       1.0  0.32234  0.67632  0.32647  1.0000
  C   C38       1.0  0.68338  0.31310  0.33661  1.0000
  C   C39       1.0  0.22365  0.19837  0.17360  1.0000
  C   C40       1.0  0.77376  0.79231  0.16561  1.0000
  C   C41       1.0  0.27900  0.70007  0.33111  1.0000
  C   C42       1.0  0.72728  0.29079  0.34139  1.0000
  C   C43       1.0  0.26874  0.27920  0.25816  1.0000
  C   C44       1.0  0.72997  0.70979  0.23434  1.0000
  C   C45       1.0  0.23291  0.78112  0.25770  1.0000
  C   C46       1.0  0.77213  0.20872  0.27720  1.0000
  C   C47       1.0  0.22868  0.25543  0.22885  1.0000
  C   C48       1.0  0.76950  0.73355  0.20770  1.0000
  C   C49       1.0  0.27335  0.75767  0.28137  1.0000
  C   C50       1.0  0.73216  0.23195  0.30075  1.0000
  C   C51       1.0  0.99698  0.96214  0.17298  1.0000
  C   C52       1.0  0.00245  0.02201  0.17408  1.0000
  C   C53       1.0  0.50478  0.46294  0.33167  1.0000
  C   C54       1.0  0.49935  0.52283  0.33141  1.0000
  C   C55       1.0  0.84924  0.36797  0.48739  1.0000
  C   C56       1.0  0.16130  0.62868  0.49545  1.0000
  C   C57       1.0  0.64947  0.86332  0.02278  1.0000
  C   C58       1.0  0.34407  0.13762  0.00563  1.0000
  C   C59       1.0  0.73414  0.40210  0.03732  1.0000
  C   C60       1.0  0.26508  0.60628  0.02690  1.0000
  C   C61       1.0  0.76527  0.89719  0.46868  1.0000
  C   C62       1.0  0.23631  0.10047  0.47032  1.0000
  C   C63       1.0  0.04512  0.06760  0.68225  1.0000
  C   C64       1.0  0.54571  0.45146  0.82313  1.0000
  C   C65       1.0  0.45406  0.56651  0.82103  1.0000
  C   C66       1.0  0.05559  0.11211  0.58907  1.0000
  C   C67       1.0  0.55610  0.40136  0.90157  1.0000
  C   C68       1.0  0.44359  0.61287  0.90994  1.0000
  C   C69       1.0  0.09726  0.13423  0.58559  1.0000
  C   C70       1.0  0.59658  0.37575  0.89786  1.0000
  C   C71       1.0  0.40226  0.63628  0.90805  1.0000
  C   C72       1.0  0.12989  0.11278  0.67742  1.0000
  C   C73       1.0  0.62834  0.39932  0.81395  1.0000
  C   C74       1.0  0.36997  0.61413  0.81542  1.0000
  C   C75       1.0  0.11915  0.06992  0.77456  1.0000
  C   C76       1.0  0.61791  0.44886  0.73335  1.0000
  C   C77       1.0  0.38067  0.56912  0.72311  1.0000
  C   C78       1.0  0.07751  0.04879  0.77795  1.0000
  C   C79       1.0  0.57743  0.47375  0.73740  1.0000
  C   C80       1.0  0.42198  0.54669  0.72502  1.0000
  C   C81       1.0  0.65184  0.72816  0.75526  1.0000
  C   C82       1.0  0.35141  0.28153  0.74241  1.0000
  C   C83       1.0  0.84634  0.22659  0.76130  1.0000
  C   C84       1.0  0.14887  0.78442  0.75340  1.0000
  C   C85       1.0  0.69412  0.75309  0.73277  1.0000
  C   C86       1.0  0.30915  0.25580  0.71271  1.0000
  C   C87       1.0  0.80424  0.25159  0.78605  1.0000
  C   C88       1.0  0.19119  0.75827  0.77797  1.0000
  C   C89       1.0  0.73823  0.83266  0.64357  1.0000
  C   C90       1.0  0.26376  0.17348  0.63285  1.0000
  C   C91       1.0  0.76025  0.33264  0.86960  1.0000
  C   C92       1.0  0.23672  0.67666  0.85990  1.0000
  C   C93       1.0  0.69756  0.80822  0.67011  1.0000
  C   C94       1.0  0.30495  0.19851  0.65883  1.0000
  C   C95       1.0  0.80094  0.30801  0.84418  1.0000
  C   C96       1.0  0.19549  0.70187  0.83591  1.0000
  C   C97       1.0  0.46637  0.43739  0.83556  1.0000
  C   C98       1.0  0.96511  0.08112  0.66809  1.0000
  C   C99       1.0  0.46597  0.38728  0.74993  1.0000
  C   C100      1.0  0.96251  0.12499  0.77044  1.0000
  C   C101      1.0  0.43042  0.35063  0.73921  1.0000
  C   C102      1.0  0.92531  0.15784  0.78337  1.0000
  C   C103      1.0  0.39363  0.36209  0.81605  1.0000
  C   C104      1.0  0.88954  0.14913  0.69054  1.0000
  C   C105      1.0  0.39489  0.41028  0.90778  1.0000
  C   C106      1.0  0.89311  0.10785  0.58271  1.0000
  C   C107      1.0  0.43042  0.44677  0.91713  1.0000
  C   C108      1.0  0.93026  0.07506  0.57158  1.0000
  C   C109      1.0  0.18265  0.18412  0.65821  1.0000
  C   C110      1.0  0.81957  0.82555  0.68916  1.0000
  C   C111      1.0  0.31767  0.68657  0.82909  1.0000
  C   C112      1.0  0.67902  0.32421  0.82828  1.0000
  C   C113      1.0  0.22645  0.20672  0.65798  1.0000
  C   C114      1.0  0.77609  0.80176  0.68501  1.0000
  C   C115      1.0  0.27389  0.70913  0.82857  1.0000
  C   C116      1.0  0.72247  0.30051  0.83344  1.0000
  C   C117      1.0  0.27167  0.28882  0.73297  1.0000
  C   C118      1.0  0.73199  0.72175  0.76802  1.0000
  C   C119      1.0  0.22858  0.79024  0.75008  1.0000
  C   C120      1.0  0.76639  0.21916  0.75703  1.0000
  C   C121      1.0  0.23159  0.26524  0.70320  1.0000
  C   C122      1.0  0.77165  0.74540  0.74278  1.0000
  C   C123      1.0  0.26871  0.76669  0.77809  1.0000
  C   C124      1.0  0.72674  0.24283  0.78262  1.0000
  C   C125      1.0  0.99626  0.98032  0.67512  1.0000
  C   C126      1.0  0.00197  0.04012  0.67360  1.0000
  C   C127      1.0  0.50279  0.47904  0.83223  1.0000
  C   C128      1.0  0.49707  0.53885  0.83255  1.0000
  C   C129      1.0  0.84609  0.36493  0.00431  1.0000
  C   C130      1.0  0.15478  0.64272  0.99265  1.0000
  C   C131      1.0  0.64915  0.84451  0.49305  1.0000
  C   C132      1.0  0.34653  0.13570  0.51189  1.0000
  C   C133      1.0  0.74128  0.39867  0.52843  1.0000
  C   C134      1.0  0.26972  0.59792  0.53288  1.0000
  C   C135      1.0  0.76078  0.89791  0.97973  1.0000
  C   C136      1.0  0.23218  0.09972  0.96438  1.0000
  N   N1        1.0  0.64814  0.66684  0.29911  1.0000
  N   N2        1.0  0.35276  0.32444  0.30917  1.0000
  N   N3        1.0  0.85424  0.16670  0.21587  1.0000
  N   N4        1.0  0.14856  0.82367  0.20285  1.0000
  N   N5        1.0  0.17163  0.11960  0.17967  1.0000
  N   N6        1.0  0.82732  0.86914  0.18773  1.0000
  N   N7        1.0  0.33070  0.62123  0.32161  1.0000
  N   N8        1.0  0.67374  0.36763  0.32411  1.0000
  N   N9        1.0  0.64850  0.67752  0.81257  1.0000
  N   N10       1.0  0.35443  0.33270  0.79966  1.0000
  N   N11       1.0  0.84956  0.17590  0.70307  1.0000
  N   N12       1.0  0.14544  0.83537  0.69617  1.0000
  N   N13       1.0  0.17300  0.12983  0.67417  1.0000
  N   N14       1.0  0.82815  0.88069  0.69569  1.0000
  N   N15       1.0  0.32707  0.63209  0.81490  1.0000
  N   N16       1.0  0.67066  0.37911  0.81405  1.0000
  O   O1        1.0  0.73542  0.88227  0.09723  1.0000
  O   O2        1.0  0.26059  0.11182  0.08418  1.0000
  O   O3        1.0  0.76287  0.38298  0.40256  1.0000
  O   O4        1.0  0.24354  0.61108  0.40911  1.0000
  O   O5        1.0  0.65811  0.83300  0.15318  1.0000
  O   O6        1.0  0.33936  0.16162  0.14431  1.0000
  O   O7        1.0  0.84315  0.33238  0.36310  1.0000
  O   O8        1.0  0.16388  0.66179  0.36778  1.0000
  O   O9        1.0  0.73718  0.88604  0.58244  1.0000
  O   O10       1.0  0.26333  0.11664  0.59064  1.0000
  O   O11       1.0  0.76111  0.38786  0.92257  1.0000
  O   O12       1.0  0.23712  0.62072  0.90787  1.0000
  O   O13       1.0  0.66032  0.83894  0.63998  1.0000
  O   O14       1.0  0.34211  0.16773  0.64102  1.0000
  O   O15       1.0  0.83843  0.33874  0.86780  1.0000
  O   O16       1.0  0.15822  0.67231  0.86042  1.0000
  C   C137      1.0  0.08347  0.12446  0.08780  1.0000
  C   C138      1.0  0.12050  0.10971  0.16679  1.0000
  C  Sn1       1.0  0.12039  0.06163  0.25536  1.0000
  C  Sn2       1.0  0.08247  0.02776  0.26479  1.0000
  C   C139      1.0  0.04561  0.04286  0.18526  1.0000
  C   C140      1.0  0.04607  0.09107  0.09699  1.0000
  H   H113      1.0  0.08383  0.16175  0.01945  1.0000
  O  Te1       1.0  0.15765  0.04752  0.33358  1.0000
  O  Te2       1.0  0.08189  0.97947  0.35244  1.0000
  H   H114      1.0  0.01741  0.10246  0.03578  1.0000
  Mg  Mg1       1.0  0.14077  0.97772  0.43816  1.0000
  C   C141      1.0  0.09826  0.92517  0.57534  1.0000
  C   C142      1.0  0.10695  0.87794  0.66323  1.0000
  C  Sn3       1.0  0.07601  0.85867  0.75387  1.0000
  C  Sn4       1.0  0.03564  0.88729  0.75629  1.0000
  C   C143      1.0  0.02726  0.93448  0.66788  1.0000
  C   C144      1.0  0.05845  0.95341  0.57763  1.0000
  H   H115      1.0  0.12238  0.93980  0.50545  1.0000
  O  Te3       1.0  0.08522  0.81143  0.84102  1.0000
  O  Te4       1.0  0.00414  0.86892  0.84582  1.0000
  H   H116      1.0  0.05171  0.98995  0.50953  1.0000
  Mg  Mg2       1.0  0.03190  0.80257  0.94475  1.0000
  C   C145      1.0  0.54113  0.63849  0.72602  1.0000
  C   C146      1.0  0.53359  0.59136  0.81332  1.0000
  C  Sn5       1.0  0.56457  0.57493  0.91469  1.0000
  C  Sn6       1.0  0.60379  0.60634  0.92869  1.0000
  C   C147      1.0  0.61101  0.65344  0.84091  1.0000
  C   C148      1.0  0.57980  0.66951  0.73980  1.0000
  H   H117      1.0  0.51697  0.65094  0.64784  1.0000
  O  Te5       1.0  0.54432  0.52600  0.00101  1.0000
  O  Te6       1.0  0.62309  0.58913  0.02915  1.0000
  H   H118      1.0  0.58563  0.70602  0.67228  1.0000
  Mg  Mg3       1.0  0.59717  0.52161  0.12216  1.0000
  C   C149      1.0  0.93301  0.87933  0.07472  1.0000
  C   C150      1.0  0.95154  0.92383  0.15658  1.0000
  C  Sn7       1.0  0.92877  0.94884  0.26398  1.0000
  C  Sn8       1.0  0.88669  0.92882  0.28967  1.0000
  C   C151      1.0  0.86845  0.88425  0.20725  1.0000
  C   C152      1.0  0.89151  0.85954  0.10003  1.0000
  H   H119      1.0  0.96306  0.86191  0.99181  1.0000
  O  Te7       1.0  0.94776  0.99327  0.34474  1.0000
  O  Te8       1.0  0.86324  0.95303  0.39637  1.0000
  H   H120      1.0  0.87716  0.82506  0.03672  1.0000
  Mg  Mg4       1.0  0.90252  0.01252  0.47802  1.0000
  C   C153      1.0  0.90982  0.97776  0.77930  1.0000
  C   C154      1.0  0.94651  0.95752  0.71528  1.0000
  C  Sn9       1.0  0.94447  0.90739  0.63240  1.0000
  C  Sn10      1.0  0.90492  0.87706  0.61344  1.0000
  C   C155      1.0  0.86839  0.89770  0.67785  1.0000
  C   C156      1.0  0.87079  0.94789  0.76060  1.0000
  H   H121      1.0  0.91126  0.01662  0.84326  1.0000
  O  Te9       1.0  0.98144  0.88775  0.56924  1.0000
  O  Te10      1.0  0.90197  0.82686  0.53111  1.0000
  H   H122      1.0  0.84237  0.96358  0.81008  1.0000
  Mg  Mg5       1.0  0.96122  0.81724  0.46678  1.0000
  C   C157      1.0  0.06375  0.84651  0.29402  1.0000
  C   C158      1.0  0.09905  0.84471  0.20873  1.0000
  C  Sn11      1.0  0.10179  0.88345  0.09778  1.0000
  C  Sn12      1.0  0.06853  0.92472  0.07203  1.0000
  C   C159      1.0  0.03337  0.92620  0.15802  1.0000
  C   C160      1.0  0.03094  0.88722  0.26873  1.0000
  H   H123      1.0  0.06188  0.81638  0.37973  1.0000
  O  Te11      1.0  0.13728  0.88103  0.01356  1.0000
  O  Te12      1.0  0.08268  0.96568  0.96188  1.0000
  H   H124      1.0  0.00362  0.88865  0.33480  1.0000
  Mg  Mg6       1.0  0.13754  0.94533  0.87624  1.0000
  C   C161      1.0  0.38868  0.54069  0.22332  1.0000
  C   C162      1.0  0.37362  0.58681  0.30317  1.0000
  C  Sn13      1.0  0.40191  0.61801  0.39192  1.0000
  C  Sn14      1.0  0.44609  0.60266  0.40063  1.0000
  C   C163      1.0  0.46084  0.55647  0.32025  1.0000
  C   C164      1.0  0.43225  0.52553  0.23181  1.0000
  H   H125      1.0  0.36656  0.51676  0.15483  1.0000
  O  Te13      1.0  0.38632  0.66395  0.47100  1.0000
  O  Te14      1.0  0.47507  0.63312  0.48844  1.0000
  H   H126      1.0  0.44393  0.48985  0.16994  1.0000
  Mg  Mg7       1.0  0.43837  0.69234  0.57545  1.0000
  C   C165      1.0  0.89659  0.07648  0.09119  1.0000
  C   C166      1.0  0.89185  0.12485  0.17791  1.0000
  C  Sn15      1.0  0.92662  0.14501  0.26100  1.0000
  C  Sn16      1.0  0.96685  0.11612  0.25695  1.0000
  C   C167      1.0  0.97127  0.06778  0.16978  1.0000
  C   C168      1.0  0.93626  0.04797  0.08710  1.0000
  H   H127      1.0  0.86952  0.06117  0.02716  1.0000
  O  Te15      1.0  0.92133  0.19339  0.34709  1.0000
  O  Te16      1.0  0.00213  0.13535  0.33888  1.0000
  H   H128      1.0  0.93995  0.01054  0.01990  1.0000
  Mg  Mg8       1.0  0.97892  0.20313  0.43935  1.0000
