data_image0
_chemical_formula_structural       H120C180N24O24SnCSn2CSnTe4Mg2SnCSn2CSnTe4Mg2SnCSn2CSnTe4Mg2SnCSn2CSnTe4Mg2SnCSn2CSnTe4Mg2SnCSn2CSnTe4Mg2SnCSn2CSnTe4Mg2SnCSn2CSnTe4Mg2SnCSn2CSnTe4Mg2SnCSn2CSnTe4Mg2SnCSn2CSnTe4Mg2SnCSn2CSnTe4Mg2
_chemical_formula_sum              "H120 C204 N24 O24 Sn48 Te48 Mg24"
_cell_length_a       38.608
_cell_length_b       38.6541
_cell_length_c       10.0224
_cell_angle_alpha    89.5567
_cell_angle_beta     90.0517
_cell_angle_gamma    119.978

_symmetry_space_group_name_H-M    'P1'
_space_group_IT_number       1

loop_
  _space_group_symop_operation_xyz
  'x, y, z'

loop_
  _atom_site_type_symbol
  _atom_site_label
  _atom_site_symmetry_multiplicity
  _atom_site_fract_x
  _atom_site_fract_y
  _atom_site_fract_z
  _atom_site_occupancy
  H   H1        1.0  0.52493  0.46101  0.11248  1.0000
  H   H2        1.0  0.54532  0.05037  0.07407  1.0000
  H   H3        1.0  0.93530  0.46968  0.11575  1.0000
  H   H4        1.0  0.52019  0.39493  0.09018  1.0000
  H   H5        1.0  0.61038  0.11379  0.05380  1.0000
  H   H6        1.0  0.87347  0.47405  0.10766  1.0000
  H   H7        1.0  0.43833  0.35068  0.42196  1.0000
  H   H8        1.0  0.64377  0.09184  0.44178  1.0000
  H   H9        1.0  0.92409  0.56993  0.39001  1.0000
  H   H10       1.0  0.44123  0.41608  0.43733  1.0000
  H   H11       1.0  0.57988  0.02791  0.45733  1.0000
  H   H12       1.0  0.98599  0.56546  0.39792  1.0000
  H   H13       1.0  0.46981  0.92816  0.42022  1.0000
  H   H14       1.0  0.53003  0.06893  0.41777  1.0000
  H   H15       1.0  0.93565  0.45431  0.43047  1.0000
  H   H16       1.0  0.47209  0.86572  0.41301  1.0000
  H   H17       1.0  0.52689  0.13095  0.41154  1.0000
  H   H18       1.0  0.87224  0.39053  0.42279  1.0000
  H   H19       1.0  0.57058  0.98422  0.15333  1.0000
  H   H20       1.0  0.43141  0.01438  0.14449  1.0000
  H   H21       1.0  0.98517  0.41327  0.12802  1.0000
  H   H22       1.0  0.57140  0.92040  0.13977  1.0000
  H   H23       1.0  0.42963  0.07772  0.13255  1.0000
  H   H24       1.0  0.92035  0.34933  0.11559  1.0000
  H   H25       1.0  0.33445  0.49683  0.46469  1.0000
  H   H26       1.0  0.50788  0.83507  0.45655  1.0000
  H   H27       1.0  0.16188  0.66948  0.45293  1.0000
  H   H28       1.0  0.67432  0.50692  0.44855  1.0000
  H   H29       1.0  0.49286  0.16197  0.45321  1.0000
  H   H30       1.0  0.83776  0.32563  0.44886  1.0000
  H   H31       1.0  0.29421  0.51918  0.54492  1.0000
  H   H32       1.0  0.48780  0.77430  0.54404  1.0000
  H   H33       1.0  0.22619  0.70720  0.53020  1.0000
  H   H34       1.0  0.70602  0.47116  0.49537  1.0000
  H   H35       1.0  0.52177  0.22667  0.52107  1.0000
  H   H36       1.0  0.77360  0.28907  0.52429  1.0000
  H   H37       1.0  0.23226  0.52334  0.54328  1.0000
  H   H38       1.0  0.48317  0.70807  0.54845  1.0000
  H   H39       1.0  0.29256  0.76891  0.53206  1.0000
  H   H40       1.0  0.76539  0.46215  0.48423  1.0000
  H   H41       1.0  0.52785  0.29373  0.51963  1.0000
  H   H42       1.0  0.70680  0.22796  0.52614  1.0000
  H   H43       1.0  0.17566  0.46926  0.14940  1.0000
  H   H44       1.0  0.53071  0.70092  0.14577  1.0000
  H   H45       1.0  0.29245  0.83330  0.15578  1.0000
  H   H46       1.0  0.84343  0.55219  0.17296  1.0000
  H   H47       1.0  0.45608  0.29051  0.16064  1.0000
  H   H48       1.0  0.70541  0.16666  0.14378  1.0000
  H   H49       1.0  0.24539  0.45532  0.06834  1.0000
  H   H50       1.0  0.54500  0.78424  0.05724  1.0000
  H   H51       1.0  0.20638  0.76769  0.08083  1.0000
  H   H52       1.0  0.78030  0.57794  0.11251  1.0000
  H   H53       1.0  0.43299  0.20330  0.09238  1.0000
  H   H54       1.0  0.79090  0.23254  0.06620  1.0000
  H   H55       1.0  0.16763  0.50600  0.43950  1.0000
  H   H56       1.0  0.49797  0.65937  0.44513  1.0000
  H   H57       1.0  0.33966  0.83472  0.43607  1.0000
  H   H58       1.0  0.83128  0.48174  0.39378  1.0000
  H   H59       1.0  0.50845  0.34027  0.42799  1.0000
  H   H60       1.0  0.65920  0.16278  0.42927  1.0000
  H   H61       1.0  0.51596  0.45920  0.59462  1.0000
  H   H62       1.0  0.94033  0.49004  0.57664  1.0000
  H   H63       1.0  0.45918  0.93846  0.60347  1.0000
  H   H64       1.0  0.06982  0.53569  0.63222  1.0000
  H   H65       1.0  0.51551  0.39483  0.58143  1.0000
  H   H66       1.0  0.87675  0.49145  0.57015  1.0000
  H   H67       1.0  0.39404  0.87546  0.59308  1.0000
  H   H68       1.0  0.13165  0.53167  0.63392  1.0000
  H   H69       1.0  0.44111  0.35290  0.93206  1.0000
  H   H70       1.0  0.90685  0.55410  0.94301  1.0000
  H   H71       1.0  0.35102  0.91451  0.92198  1.0000
  H   H72       1.0  0.07144  0.42173  0.85772  1.0000
  H   H73       1.0  0.43921  0.41622  0.93817  1.0000
  H   H74       1.0  0.97161  0.55502  0.94412  1.0000
  H   H75       1.0  0.41570  0.97846  0.92723  1.0000
  H   H76       1.0  0.01024  0.42719  0.86435  1.0000
  H   H77       1.0  0.44582  0.50513  0.97792  1.0000
  H   H78       1.0  0.52011  0.06428  0.94386  1.0000
  H   H79       1.0  0.37931  0.49941  0.97927  1.0000
  H   H80       1.0  0.51780  0.12654  0.94427  1.0000
  H   H81       1.0  0.41939  0.44432  0.60212  1.0000
  H   H82       1.0  0.43465  0.01921  0.62475  1.0000
  H   H83       1.0  0.35297  0.44022  0.60016  1.0000
  H   H84       1.0  0.43345  0.08298  0.62093  1.0000
  H   H85       1.0  0.34126  0.52008  0.88597  1.0000
  H   H86       1.0  0.47564  0.82286  0.86738  1.0000
  H   H87       1.0  0.16398  0.66959  0.95498  1.0000
  H   H88       1.0  0.66754  0.50891  0.96122  1.0000
  H   H89       1.0  0.49198  0.16366  0.96359  1.0000
  H   H90       1.0  0.83294  0.33208  0.93706  1.0000
  H   H91       1.0  0.30430  0.54825  0.93682  1.0000
  H   H92       1.0  0.44755  0.75855  0.91997  1.0000
  H   H93       1.0  0.23150  0.70075  0.00279  1.0000
  H   H94       1.0  0.70420  0.48026  0.03756  1.0000
  H   H95       1.0  0.52688  0.23097  0.01860  1.0000
  H   H96       1.0  0.76332  0.30068  0.97220  1.0000
  H   H97       1.0  0.24279  0.55357  0.92887  1.0000
  H   H98       1.0  0.44286  0.69206  0.92005  1.0000
  H   H99       1.0  0.29928  0.76084  0.99773  1.0000
  H   H100      1.0  0.76569  0.47508  0.03898  1.0000
  H   H101      1.0  0.53456  0.29862  0.01277  1.0000
  H   H102      1.0  0.69575  0.24047  0.95840  1.0000
  H   H103      1.0  0.15613  0.44414  0.69991  1.0000
  H   H104      1.0  0.55775  0.71656  0.72214  1.0000
  H   H105      1.0  0.28952  0.83810  0.67880  1.0000
  H   H106      1.0  0.82987  0.54041  0.66258  1.0000
  H   H107      1.0  0.45533  0.29191  0.67133  1.0000
  H   H108      1.0  0.71453  0.15959  0.68385  1.0000
  H   H109      1.0  0.21920  0.41916  0.64733  1.0000
  H   H110      1.0  0.58430  0.80515  0.66861  1.0000
  H   H111      1.0  0.20137  0.77564  0.61637  1.0000
  H   H112      1.0  0.76460  0.56079  0.58867  1.0000
  H   H113      1.0  0.42991  0.20417  0.61154  1.0000
  H   H114      1.0  0.80202  0.22496  0.61823  1.0000
  H   H115      1.0  0.17398  0.52832  0.85185  1.0000
  H   H116      1.0  0.47031  0.64935  0.85622  1.0000
  H   H117      1.0  0.34516  0.82875  0.91353  1.0000
  H   H118      1.0  0.83187  0.49414  0.94275  1.0000
  H   H119      1.0  0.51283  0.34466  0.92527  1.0000
  H   H120      1.0  0.65103  0.17378  0.86971  1.0000
  C   C1        1.0  0.48617  0.48310  0.28802  1.0000
  C   C2        1.0  0.51772  0.99817  0.28112  1.0000
  C   C3        1.0  0.00236  0.51447  0.26632  1.0000
  C   C4        1.0  0.52202  0.51862  0.28534  1.0000
  C   C5        1.0  0.48261  0.99929  0.27975  1.0000
  C   C6        1.0  0.00189  0.47861  0.26988  1.0000
  C   C7        1.0  0.51967  0.96096  0.28641  1.0000
  C   C8        1.0  0.48110  0.03679  0.28143  1.0000
  C   C9        1.0  0.96491  0.43915  0.27763  1.0000
  C   C10       1.0  0.54905  0.95829  0.21048  1.0000
  C   C11       1.0  0.45229  0.03987  0.20333  1.0000
  C   C12       1.0  0.96039  0.40825  0.19253  1.0000
  C   C13       1.0  0.54983  0.92284  0.20288  1.0000
  C   C14       1.0  0.45098  0.07509  0.19654  1.0000
  C   C15       1.0  0.92434  0.37246  0.18527  1.0000
  C   C16       1.0  0.52230  0.88881  0.27596  1.0000
  C   C17       1.0  0.47741  0.10848  0.27245  1.0000
  C   C18       1.0  0.89172  0.36523  0.26745  1.0000
  C   C19       1.0  0.49380  0.89166  0.35624  1.0000
  C   C20       1.0  0.50578  0.10543  0.35320  1.0000
  C   C21       1.0  0.89677  0.39530  0.35756  1.0000
  C   C22       1.0  0.49255  0.92691  0.36035  1.0000
  C   C23       1.0  0.50759  0.07042  0.35664  1.0000
  C   C24       1.0  0.93258  0.43132  0.36193  1.0000
  C   C25       1.0  0.48382  0.44364  0.27684  1.0000
  C   C26       1.0  0.55721  0.03552  0.26900  1.0000
  C   C27       1.0  0.96516  0.51688  0.25839  1.0000
  C   C28       1.0  0.45884  0.41171  0.36176  1.0000
  C   C29       1.0  0.58608  0.04695  0.36982  1.0000
  C   C30       1.0  0.96143  0.54542  0.33387  1.0000
  C   C31       1.0  0.45712  0.37487  0.35363  1.0000
  C   C32       1.0  0.62199  0.08307  0.36180  1.0000
  C   C33       1.0  0.92679  0.54811  0.32982  1.0000
  C   C34       1.0  0.47969  0.36873  0.25686  1.0000
  C   C35       1.0  0.63055  0.10812  0.24944  1.0000
  C   C36       1.0  0.89455  0.52190  0.25003  1.0000
  C   C37       1.0  0.50330  0.39978  0.16721  1.0000
  C   C38       1.0  0.60320  0.09537  0.14332  1.0000
  C   C39       1.0  0.89806  0.49383  0.17197  1.0000
  C   C40       1.0  0.50557  0.43664  0.17890  1.0000
  C   C41       1.0  0.56687  0.05991  0.15479  1.0000
  C   C42       1.0  0.93297  0.49167  0.17601  1.0000
  C   C43       1.0  0.32104  0.48952  0.36443  1.0000
  C   C44       1.0  0.51428  0.82846  0.35571  1.0000
  C   C45       1.0  0.16904  0.68336  0.35281  1.0000
  C   C46       1.0  0.68925  0.51724  0.35095  1.0000
  C   C47       1.0  0.48453  0.16804  0.35420  1.0000
  C   C48       1.0  0.83099  0.31309  0.34751  1.0000
  C   C49       1.0  0.28482  0.49201  0.35098  1.0000
  C   C50       1.0  0.51205  0.78989  0.34473  1.0000
  C   C51       1.0  0.20704  0.72082  0.34457  1.0000
  C   C52       1.0  0.72593  0.51541  0.33812  1.0000
  C   C53       1.0  0.48554  0.20620  0.34377  1.0000
  C   C54       1.0  0.79215  0.27686  0.33592  1.0000
  C   C55       1.0  0.25923  0.47830  0.23930  1.0000
  C   C56       1.0  0.52416  0.77689  0.23189  1.0000
  C   C57       1.0  0.21760  0.74932  0.24095  1.0000
  C   C58       1.0  0.75721  0.53894  0.24839  1.0000
  C   C59       1.0  0.46580  0.21591  0.24431  1.0000
  C   C60       1.0  0.78076  0.24966  0.22941  1.0000
  C   C61       1.0  0.22355  0.48010  0.23942  1.0000
  C   C62       1.0  0.52181  0.73921  0.23498  1.0000
  C   C63       1.0  0.25541  0.78450  0.24221  1.0000
  C   C64       1.0  0.79162  0.53490  0.24561  1.0000
  C   C65       1.0  0.46910  0.25400  0.24407  1.0000
  C   C66       1.0  0.74276  0.21470  0.23074  1.0000
  C   C67       1.0  0.21325  0.49596  0.34928  1.0000
  C   C68       1.0  0.50735  0.71416  0.34906  1.0000
  C   C69       1.0  0.28278  0.79187  0.34670  1.0000
  C   C70       1.0  0.79439  0.50662  0.32839  1.0000
  C   C71       1.0  0.49170  0.28239  0.34252  1.0000
  C   C72       1.0  0.71577  0.20645  0.33760  1.0000
  C   C73       1.0  0.23981  0.51085  0.45877  1.0000
  C   C74       1.0  0.49446  0.72714  0.46037  1.0000
  C   C75       1.0  0.27183  0.76319  0.45045  1.0000
  C   C76       1.0  0.76282  0.48320  0.41813  1.0000
  C   C77       1.0  0.51109  0.27222  0.44226  1.0000
  C   C78       1.0  0.72726  0.23419  0.44307  1.0000
  C   C79       1.0  0.27433  0.50855  0.45931  1.0000
  C   C80       1.0  0.49703  0.76402  0.45762  1.0000
  C   C81       1.0  0.23490  0.72888  0.44913  1.0000
  C   C82       1.0  0.72989  0.48816  0.42393  1.0000
  C   C83       1.0  0.50772  0.23499  0.44277  1.0000
  C   C84       1.0  0.76445  0.26817  0.44192  1.0000
  C   C85       1.0  0.17571  0.49548  0.34962  1.0000
  C   C86       1.0  0.50725  0.67689  0.35198  1.0000
  C   C87       1.0  0.32064  0.82859  0.34783  1.0000
  C   C88       1.0  0.82987  0.50324  0.32494  1.0000
  C   C89       1.0  0.49361  0.32056  0.34308  1.0000
  C   C90       1.0  0.67802  0.16966  0.33983  1.0000
  C   C91       1.0  0.47870  0.48116  0.77779  1.0000
  C   C92       1.0  0.51718  0.00103  0.76583  1.0000
  C   C93       1.0  0.99784  0.52013  0.76917  1.0000
  C   C94       1.0  0.51390  0.51719  0.77315  1.0000
  C   C95       1.0  0.48133  0.00059  0.77346  1.0000
  C   C96       1.0  0.99811  0.48468  0.76075  1.0000
  C   C97       1.0  0.43839  0.47701  0.78657  1.0000
  C   C98       1.0  0.47812  0.03720  0.78318  1.0000
  C   C99       1.0  0.41086  0.45703  0.68346  1.0000
  C   C100      1.0  0.45270  0.04266  0.69523  1.0000
  C   C101      1.0  0.37379  0.45472  0.68162  1.0000
  C   C102      1.0  0.45187  0.07821  0.69258  1.0000
  C   C103      1.0  0.36256  0.47199  0.78400  1.0000
  C   C104      1.0  0.47527  0.10931  0.78156  1.0000
  C   C105      1.0  0.38875  0.48924  0.89297  1.0000
  C   C106      1.0  0.49941  0.10324  0.87390  1.0000
  C   C107      1.0  0.42607  0.49188  0.89308  1.0000
  C   C108      1.0  0.50067  0.06795  0.87397  1.0000
  C   C109      1.0  0.47819  0.44259  0.76822  1.0000
  C   C110      1.0  0.96006  0.52144  0.76249  1.0000
  C   C111      1.0  0.44248  0.96277  0.76710  1.0000
  C   C112      1.0  0.03541  0.48250  0.75225  1.0000
  C   C113      1.0  0.45627  0.41172  0.86076  1.0000
  C   C114      1.0  0.95061  0.54056  0.86301  1.0000
  C   C115      1.0  0.41111  0.95582  0.85443  1.0000
  C   C116      1.0  0.03669  0.45006  0.81288  1.0000
  C   C117      1.0  0.45734  0.37620  0.85788  1.0000
  C   C118      1.0  0.91419  0.53992  0.86320  1.0000
  C   C119      1.0  0.37479  0.92002  0.85198  1.0000
  C   C120      1.0  0.07094  0.44679  0.80962  1.0000
  C   C121      1.0  0.47921  0.37010  0.75813  1.0000
  C   C122      1.0  0.88690  0.52146  0.75868  1.0000
  C   C123      1.0  0.36867  0.89054  0.75914  1.0000
  C   C124      1.0  0.10604  0.47707  0.74990  1.0000
  C   C125      1.0  0.49947  0.39991  0.66094  1.0000
  C   C126      1.0  0.89726  0.50459  0.65321  1.0000
  C   C127      1.0  0.39910  0.89774  0.66778  1.0000
  C   C128      1.0  0.10509  0.50908  0.68587  1.0000
  C   C129      1.0  0.49939  0.43575  0.66779  1.0000
  C   C130      1.0  0.93293  0.50398  0.65687  1.0000
  C   C131      1.0  0.43549  0.93319  0.67314  1.0000
  C   C132      1.0  0.07012  0.51117  0.68487  1.0000
  C   C133      1.0  0.31819  0.49501  0.82806  1.0000
  C   C134      1.0  0.50244  0.82585  0.81756  1.0000
  C   C135      1.0  0.16921  0.68404  0.85611  1.0000
  C   C136      1.0  0.68042  0.51405  0.85998  1.0000
  C   C137      1.0  0.48435  0.16985  0.86361  1.0000
  C   C138      1.0  0.82829  0.31764  0.83928  1.0000
  C   C139      1.0  0.28023  0.49441  0.82029  1.0000
  C   C140      1.0  0.50406  0.78910  0.81634  1.0000
  C   C141      1.0  0.20796  0.72049  0.84295  1.0000
  C   C142      1.0  0.71756  0.51291  0.85148  1.0000
  C   C143      1.0  0.48685  0.20870  0.85072  1.0000
  C   C144      1.0  0.79024  0.28041  0.82696  1.0000
  C   C145      1.0  0.24593  0.46494  0.75399  1.0000
  C   C146      1.0  0.53540  0.78505  0.76027  1.0000
  C   C147      1.0  0.21620  0.75184  0.75262  1.0000
  C   C148      1.0  0.74584  0.53078  0.74760  1.0000
  C   C149      1.0  0.46580  0.21788  0.75504  1.0000
  C   C150      1.0  0.78420  0.24853  0.74444  1.0000
  C   C151      1.0  0.21061  0.46741  0.75285  1.0000
  C   C152      1.0  0.53314  0.74741  0.76315  1.0000
  C   C153      1.0  0.25445  0.78651  0.75236  1.0000
  C   C154      1.0  0.78109  0.52823  0.74898  1.0000
  C   C155      1.0  0.46975  0.25623  0.75278  1.0000
  C   C156      1.0  0.74658  0.21307  0.74431  1.0000
  C   C157      1.0  0.20953  0.49990  0.81227  1.0000
  C   C158      1.0  0.49954  0.71349  0.81846  1.0000
  C   C159      1.0  0.28482  0.78979  0.83903  1.0000
  C   C160      1.0  0.78857  0.50811  0.85369  1.0000
  C   C161      1.0  0.49475  0.28577  0.84463  1.0000
  C   C162      1.0  0.71411  0.21044  0.81790  1.0000
  C   C163      1.0  0.24402  0.52928  0.87891  1.0000
  C   C164      1.0  0.46841  0.71791  0.87509  1.0000
  C   C165      1.0  0.27627  0.75805  0.92873  1.0000
  C   C166      1.0  0.76000  0.49032  0.95748  1.0000
  C   C167      1.0  0.51586  0.27630  0.94005  1.0000
  C   C168      1.0  0.72043  0.24285  0.89916  1.0000
  C   C169      1.0  0.27808  0.52620  0.88320  1.0000
  C   C170      1.0  0.47102  0.75480  0.87460  1.0000
  C   C171      1.0  0.23867  0.72468  0.93110  1.0000
  C   C172      1.0  0.72574  0.49310  0.95632  1.0000
  C   C173      1.0  0.51156  0.23866  0.94311  1.0000
  C   C174      1.0  0.75786  0.27636  0.90589  1.0000
  C   C175      1.0  0.17347  0.50224  0.80680  1.0000
  C   C176      1.0  0.49749  0.67532  0.81690  1.0000
  C   C177      1.0  0.32315  0.82594  0.83865  1.0000
  C   C178      1.0  0.82535  0.50703  0.85479  1.0000
  C   C179      1.0  0.49660  0.32396  0.84394  1.0000
  C   C180      1.0  0.67573  0.17447  0.81332  1.0000
  N   N1        1.0  0.33625  0.47884  0.26919  1.0000
  N   N2        1.0  0.52358  0.85371  0.25816  1.0000
  N   N3        1.0  0.14546  0.66738  0.25218  1.0000
  N   N4        1.0  0.67489  0.52933  0.25648  1.0000
  N   N5        1.0  0.47488  0.14317  0.25675  1.0000
  N   N6        1.0  0.85595  0.32921  0.24926  1.0000
  N   N7        1.0  0.47844  0.33164  0.24683  1.0000
  N   N8        1.0  0.66628  0.14513  0.23912  1.0000
  N   N9        1.0  0.85962  0.52522  0.24515  1.0000
  N   N10       1.0  0.51794  0.66425  0.24778  1.0000
  N   N11       1.0  0.33230  0.85369  0.24753  1.0000
  N   N12       1.0  0.15194  0.48298  0.24643  1.0000
  N   N13       1.0  0.32520  0.46928  0.77039  1.0000
  N   N14       1.0  0.52885  0.85905  0.76247  1.0000
  N   N15       1.0  0.14334  0.66992  0.76065  1.0000
  N   N16       1.0  0.66393  0.52062  0.75791  1.0000
  N   N17       1.0  0.47422  0.14487  0.76622  1.0000
  N   N18       1.0  0.85409  0.33265  0.74324  1.0000
  N   N19       1.0  0.47943  0.33369  0.75054  1.0000
  N   N20       1.0  0.67051  0.14330  0.74733  1.0000
  N   N21       1.0  0.85007  0.52071  0.75375  1.0000
  N   N22       1.0  0.52726  0.67155  0.77263  1.0000
  N   N23       1.0  0.33145  0.85458  0.75292  1.0000
  N   N24       1.0  0.14083  0.47386  0.75345  1.0000
  O   O1        1.0  0.26720  0.46223  0.13185  1.0000
  O   O2        1.0  0.53890  0.79978  0.12019  1.0000
  O   O3        1.0  0.19209  0.74446  0.14000  1.0000
  O   O4        1.0  0.75581  0.56633  0.16635  1.0000
  O   O5        1.0  0.44281  0.18936  0.14940  1.0000
  O   O6        1.0  0.80573  0.25526  0.12583  1.0000
  O   O7        1.0  0.19981  0.46525  0.13126  1.0000
  O   O8        1.0  0.53471  0.72894  0.12489  1.0000
  O   O9        1.0  0.26358  0.81065  0.14010  1.0000
  O   O10       1.0  0.82115  0.55916  0.16023  1.0000
  O   O11       1.0  0.44924  0.26146  0.14689  1.0000
  O   O12       1.0  0.73424  0.18955  0.12677  1.0000
  O   O13       1.0  0.24561  0.43418  0.68880  1.0000
  O   O14       1.0  0.56768  0.81600  0.70060  1.0000
  O   O15       1.0  0.18818  0.75054  0.66733  1.0000
  O   O16       1.0  0.74113  0.55175  0.64658  1.0000
  O   O17       1.0  0.44056  0.19051  0.66622  1.0000
  O   O18       1.0  0.81391  0.25017  0.66705  1.0000
  O   O19       1.0  0.17889  0.43781  0.68860  1.0000
  O   O20       1.0  0.56412  0.74563  0.70744  1.0000
  O   O21       1.0  0.26006  0.81601  0.66636  1.0000
  O   O22       1.0  0.80710  0.54662  0.64700  1.0000
  O   O23       1.0  0.44788  0.26252  0.66017  1.0000
  O   O24       1.0  0.74338  0.18269  0.66903  1.0000
  C  Sn1       1.0  0.10580  0.58624  0.32580  1.0000
  C   C181      1.0  0.11369  0.62048  0.25343  1.0000
  C  Sn2       1.0  0.08253  0.62341  0.19380  1.0000
  C  Sn3       1.0  0.04263  0.59146  0.20684  1.0000
  C   C182      1.0  0.03475  0.55725  0.27919  1.0000
  C  Sn4       1.0  0.06590  0.55429  0.33884  1.0000
  O  Te1       1.0  0.13741  0.58397  0.38459  1.0000
  O  Te2       1.0  0.09116  0.65793  0.12190  1.0000
  O  Te3       1.0  0.01101  0.59376  0.14797  1.0000
  O  Te4       1.0  0.05728  0.51980  0.41072  1.0000
  Mg  Mg1       1.0  0.03790  0.64692  0.06012  1.0000
  Mg  Mg2       1.0  0.11051  0.53078  0.47259  1.0000
  C  Sn5       1.0  0.51788  0.57923  0.13148  1.0000
  C   C183      1.0  0.53066  0.56486  0.23791  1.0000
  C  Sn6       1.0  0.53654  0.58209  0.36392  1.0000
  C  Sn7       1.0  0.52949  0.61434  0.38400  1.0000
  C   C184      1.0  0.51671  0.62868  0.27762  1.0000
  C  Sn8       1.0  0.51083  0.61148  0.15157  1.0000
  O  Te5       1.0  0.51219  0.56155  0.00637  1.0000
  O  Te6       1.0  0.54934  0.56723  0.46877  1.0000
  O  Te7       1.0  0.53519  0.63202  0.50924  1.0000
  O  Te8       1.0  0.49803  0.62632  0.04676  1.0000
  Mg  Mg3       1.0  0.55284  0.60123  0.62077  1.0000
  Mg  Mg4       1.0  0.49348  0.58981  0.89475  1.0000
  C  Sn9       1.0  0.53392  0.94515  0.64144  1.0000
  C   C185      1.0  0.51508  0.95731  0.73360  1.0000
  C  Sn10      1.0  0.50358  0.93875  0.85865  1.0000
  C  Sn11      1.0  0.51109  0.90739  0.89233  1.0000
  C   C186      1.0  0.52993  0.89525  0.80021  1.0000
  C  Sn12      1.0  0.54143  0.91379  0.67512  1.0000
  O  Te9       1.0  0.54516  0.96412  0.51701  1.0000
  O  Te10      1.0  0.48477  0.95142  0.94910  1.0000
  O  Te11      1.0  0.50085  0.89093  0.01687  1.0000
  O  Te12      1.0  0.56023  0.90114  0.58471  1.0000
  Mg  Mg5       1.0  0.47613  0.91882  0.10612  1.0000
  Mg  Mg6       1.0  0.56993  0.93625  0.42770  1.0000
  C  Sn13      1.0  0.38093  0.44206  0.24045  1.0000
  C   C187      1.0  0.37055  0.46777  0.30329  1.0000
  C  Sn14      1.0  0.40008  0.50364  0.35780  1.0000
  C  Sn15      1.0  0.44082  0.51403  0.34928  1.0000
  C   C188      1.0  0.45118  0.48833  0.28645  1.0000
  C  Sn16      1.0  0.42167  0.45245  0.23192  1.0000
  O  Te13      1.0  0.35091  0.40635  0.18664  1.0000
  O  Te14      1.0  0.38897  0.52886  0.42018  1.0000
  O  Te15      1.0  0.47084  0.54977  0.40316  1.0000
  O  Te16      1.0  0.43276  0.42724  0.16956  1.0000
  Mg  Mg7       1.0  0.44075  0.57422  0.47817  1.0000
  Mg  Mg8       1.0  0.38101  0.38188  0.11148  1.0000
  C  Sn17      1.0  0.94498  0.41074  0.63884  1.0000
  C   C189      1.0  0.95511  0.44308  0.72295  1.0000
  C  Sn18      1.0  0.93279  0.43821  0.83830  1.0000
  C  Sn19      1.0  0.89966  0.40022  0.87031  1.0000
  C   C190      1.0  0.88955  0.36791  0.78625  1.0000
  C  Sn20      1.0  0.91185  0.37275  0.67085  1.0000
  O  Te17      1.0  0.96772  0.41630  0.52405  1.0000
  O  Te18      1.0  0.94348  0.47098  0.92082  1.0000
  O  Te19      1.0  0.87691  0.39469  0.98522  1.0000
  O  Te20      1.0  0.90117  0.34000  0.58838  1.0000
  Mg  Mg9       1.0  0.90432  0.45093  0.06609  1.0000
  Mg  Mg10      1.0  0.94135  0.36253  0.44313  1.0000
  C  Sn21      1.0  0.62340  0.06149  0.78706  1.0000
  C   C191      1.0  0.63394  0.09786  0.72428  1.0000
  C  Sn22      1.0  0.60442  0.10638  0.68282  1.0000
  C  Sn23      1.0  0.56352  0.07796  0.70464  1.0000
  C   C192      1.0  0.55300  0.04162  0.76740  1.0000
  C  Sn24      1.0  0.58250  0.03307  0.80888  1.0000
  O  Te21      1.0  0.65341  0.05362  0.82768  1.0000
  O  Te22      1.0  0.61569  0.14293  0.62023  1.0000
  O  Te23      1.0  0.53351  0.08586  0.66395  1.0000
  O  Te24      1.0  0.07151  0.99654  0.87146  1.0000
  Mg  Mg11      1.0  0.56385  0.13985  0.58302  1.0000
  Mg  Mg12      1.0  0.62306  0.99960  0.90876  1.0000
  C  Sn25      1.0  0.40800  0.94172  0.39112  1.0000
  C   C193      1.0  0.44047  0.95578  0.30345  1.0000
  C  Sn26      1.0  0.43600  0.93831  0.17846  1.0000
  C  Sn27      1.0  0.39827  0.90613  0.14025  1.0000
  C   C194      1.0  0.36582  0.89208  0.22788  1.0000
  C  Sn28      1.0  0.37027  0.90953  0.35291  1.0000
  O  Te25      1.0  0.41316  0.95964  0.51558  1.0000
  O  Te26      1.0  0.46891  0.95288  0.09255  1.0000
  O  Te27      1.0  0.39313  0.88821  0.01568  1.0000
  O  Te28      1.0  0.33739  0.89499  0.43878  1.0000
  Mg  Mg13      1.0  0.44587  0.91611  0.93357  1.0000
  Mg  Mg14      1.0  0.35935  0.92923  0.59775  1.0000
  C  Sn29      1.0  0.09887  0.59039  0.85186  1.0000
  C   C195      1.0  0.10959  0.62397  0.77147  1.0000
  C  Sn30      1.0  0.08048  0.62773  0.70041  1.0000
  C  Sn31      1.0  0.03980  0.59730  0.70997  1.0000
  C   C196      1.0  0.02910  0.56375  0.79034  1.0000
  C  Sn32      1.0  0.05819  0.55996  0.86142  1.0000
  O  Te29      1.0  0.12847  0.58726  0.92202  1.0000
  O  Te30      1.0  0.09192  0.66157  0.62065  1.0000
  O  Te31      1.0  0.01020  0.60046  0.63972  1.0000
  O  Te32      1.0  0.04676  0.52615  0.94116  1.0000
  Mg  Mg15      1.0  0.04064  0.65219  0.54435  1.0000
  Mg  Mg16      1.0  0.09903  0.53803  0.01755  1.0000
  C  Sn33      1.0  0.48087  0.58894  0.74226  1.0000
  C   C197      1.0  0.51213  0.62469  0.79155  1.0000
  C  Sn34      1.0  0.54915  0.62817  0.82020  1.0000
  C  Sn35      1.0  0.55507  0.59524  0.79907  1.0000
  C   C198      1.0  0.52382  0.55952  0.74979  1.0000
  C  Sn36      1.0  0.48679  0.55601  0.72113  1.0000
  O  Te33      1.0  0.44411  0.58613  0.71430  1.0000
  O  Te34      1.0  0.57995  0.66421  0.86944  1.0000
  O  Te35      1.0  0.59187  0.59808  0.82708  1.0000
  O  Te36      1.0  0.45600  0.52000  0.67190  1.0000
  Mg  Mg17      1.0  0.62462  0.65340  0.89242  1.0000
  Mg  Mg18      1.0  0.41133  0.53079  0.64882  1.0000
  C  Sn37      1.0  0.59793  0.54653  0.17185  1.0000
  C   C199      1.0  0.56474  0.52074  0.24942  1.0000
  C  Sn38      1.0  0.56858  0.49864  0.35347  1.0000
  C  Sn39      1.0  0.60638  0.50242  0.38061  1.0000
  C   C200      1.0  0.63953  0.52820  0.30308  1.0000
  C  Sn40      1.0  0.63572  0.55031  0.19899  1.0000
  O  Te37      1.0  0.59340  0.56833  0.06834  1.0000
  O  Te38      1.0  0.53497  0.47304  0.42962  1.0000
  O  Te39      1.0  0.61088  0.48059  0.48422  1.0000
  O  Te40      1.0  0.66930  0.57590  0.12289  1.0000
  Mg  Mg19      1.0  0.55629  0.44967  0.55989  1.0000
  Mg  Mg20      1.0  0.64701  0.59678  0.99265  1.0000
  C  Sn41      1.0  0.09916  0.50470  0.15051  1.0000
  C   C201      1.0  0.11543  0.49040  0.24597  1.0000
  C  Sn42      1.0  0.09152  0.46498  0.34840  1.0000
  C  Sn43      1.0  0.05048  0.45359  0.35553  1.0000
  C   C202      1.0  0.03423  0.46788  0.26010  1.0000
  C  Sn44      1.0  0.05813  0.49331  0.15764  1.0000
  O  Te41      1.0  0.12362  0.53008  0.04897  1.0000
  O  Te42      1.0  0.10846  0.45108  0.44271  1.0000
  O  Te43      1.0  0.02603  0.42819  0.45718  1.0000
  O  Te44      1.0  0.04120  0.50720  0.06336  1.0000
  Mg  Mg21      1.0  0.06292  0.41712  0.56211  1.0000
  Mg  Mg22      1.0  0.08568  0.53863  0.94389  1.0000
  C  Sn45      1.0  0.57280  0.50391  0.89952  1.0000
  C   C203      1.0  0.55984  0.52326  0.81141  1.0000
  C  Sn46      1.0  0.57985  0.53895  0.69067  1.0000
  C  Sn47      1.0  0.61351  0.53521  0.65725  1.0000
  C   C204      1.0  0.62646  0.51586  0.74532  1.0000
  C  Sn48      1.0  0.60646  0.50016  0.86610  1.0000
  O  Te45      1.0  0.55337  0.49096  0.01968  1.0000
  O  Te46      1.0  0.56634  0.55819  0.60421  1.0000
  O  Te47      1.0  0.63397  0.55069  0.53698  1.0000
  O  Te48      1.0  0.61995  0.48093  0.95251  1.0000
  Mg  Mg23      1.0  0.60414  0.57430  0.45220  1.0000
  Mg  Mg24      1.0  0.58319  0.46731  0.10451  1.0000
