data_image0
_chemical_formula_structural       H112C136N16O16SnCSn2CSnTe4Mg2SnCSn2CSnTe4Mg2SnCSn2CSnTe4Mg2SnCSn2CSnTe4Mg2SnCSn2CSnTe4Mg2SnCSn2CSnTe4Mg2SnCSn2CSnTe4Mg2SnCSn2CSnTe4Mg2
_chemical_formula_sum              "H112 C152 N16 O16 Sn32 Te32 Mg16"
_cell_length_a       31.1222
_cell_length_b       22.9542
_cell_length_c       9.6195
_cell_angle_alpha    90.2343
_cell_angle_beta     92.2641
_cell_angle_gamma    90.0319

_symmetry_space_group_name_H-M    'P1'
_space_group_IT_number       1

loop_
  _space_group_symop_operation_xyz
  'x, y, z'

loop_
  _atom_site_type_symbol
  _atom_site_label
  _atom_site_symmetry_multiplicity
  _atom_site_fract_x
  _atom_site_fract_y
  _atom_site_fract_z
  _atom_site_occupancy
  H   H1        1.0  0.43796  0.46408  0.50835  1.0000
  H   H2        1.0  0.37175  0.40318  0.49220  1.0000
  H   H3        1.0  0.48927  0.36914  0.16765  1.0000
  H   H4        1.0  0.42341  0.30937  0.14829  1.0000
  H   H5        1.0  0.88092  0.36240  0.02516  1.0000
  H   H6        1.0  0.12093  0.64653  0.01881  1.0000
  H   H7        1.0  0.61829  0.86746  0.48680  1.0000
  H   H8        1.0  0.38053  0.13943  0.48725  1.0000
  H   H9        1.0  0.83480  0.41108  0.47190  1.0000
  H   H10       1.0  0.12746  0.63062  0.52255  1.0000
  H   H11       1.0  0.66476  0.90631  0.02430  1.0000
  H   H12       1.0  0.33156  0.09304  0.99998  1.0000
  H   H13       1.0  0.82961  0.34071  0.08442  1.0000
  H   H14       1.0  0.17496  0.66382  0.07407  1.0000
  H   H15       1.0  0.64559  0.80114  0.44536  1.0000
  H   H16       1.0  0.32665  0.15492  0.42758  1.0000
  H   H17       1.0  0.75342  0.43051  0.10717  1.0000
  H   H18       1.0  0.24706  0.57590  0.09015  1.0000
  H   H19       1.0  0.74642  0.92291  0.39240  1.0000
  H   H20       1.0  0.25657  0.07590  0.40009  1.0000
  H   H21       1.0  0.70515  0.42456  0.99771  1.0000
  H   H22       1.0  0.29462  0.58606  0.99161  1.0000
  H   H23       1.0  0.79376  0.92119  0.50743  1.0000
  H   H24       1.0  0.20945  0.07386  0.50408  1.0000
  H   H25       1.0  0.72515  0.36286  0.09376  1.0000
  H   H26       1.0  0.27302  0.64530  0.08851  1.0000
  H   H27       1.0  0.77504  0.85636  0.41980  1.0000
  H   H28       1.0  0.22387  0.13918  0.41640  1.0000
  H   H29       1.0  0.27271  0.32241  0.30354  1.0000
  H   H30       1.0  0.72659  0.66517  0.26978  1.0000
  H   H31       1.0  0.22829  0.82462  0.21545  1.0000
  H   H32       1.0  0.77596  0.16421  0.24078  1.0000
  H   H33       1.0  0.19980  0.27961  0.25294  1.0000
  H   H34       1.0  0.79864  0.70785  0.22442  1.0000
  H   H35       1.0  0.30180  0.78248  0.25618  1.0000
  H   H36       1.0  0.70327  0.20584  0.28206  1.0000
  H   H37       1.0  0.15463  0.20756  0.18081  1.0000
  H   H38       1.0  0.84280  0.78144  0.16148  1.0000
  H   H39       1.0  0.34796  0.70909  0.31729  1.0000
  H   H40       1.0  0.65823  0.27925  0.33427  1.0000
  H   H41       1.0  0.62198  0.74366  0.21092  1.0000
  H   H42       1.0  0.37600  0.24709  0.22135  1.0000
  H   H43       1.0  0.87983  0.24442  0.30350  1.0000
  H   H44       1.0  0.12601  0.74819  0.29975  1.0000
  H   H45       1.0  0.93645  0.98268  0.36368  1.0000
  H   H46       1.0  0.07474  0.98799  0.32458  1.0000
  H   H47       1.0  0.86206  0.94326  0.36473  1.0000
  H   H48       1.0  0.14736  0.03159  0.32447  1.0000
  H   H49       1.0  0.96264  0.87664  0.00877  1.0000
  H   H50       1.0  0.02794  0.11876  0.03912  1.0000
  H   H51       1.0  0.88877  0.83617  0.00997  1.0000
  H   H52       1.0  0.10060  0.16200  0.03628  1.0000
  H   H53       1.0  0.43013  0.48475  0.98449  1.0000
  H   H54       1.0  0.56775  0.53919  0.01183  1.0000
  H   H55       1.0  0.06786  0.98658  0.51890  1.0000
  H   H56       1.0  0.36691  0.41853  0.96920  1.0000
  H   H57       1.0  0.63329  0.60042  0.99727  1.0000
  H   H58       1.0  0.13169  0.92156  0.53040  1.0000
  H   H59       1.0  0.49329  0.37900  0.68554  1.0000
  H   H60       1.0  0.50866  0.63216  0.66863  1.0000
  H   H61       1.0  0.00721  0.88039  0.82046  1.0000
  H   H62       1.0  0.43007  0.31501  0.66428  1.0000
  H   H63       1.0  0.57429  0.69156  0.64925  1.0000
  H   H64       1.0  0.07070  0.81715  0.83676  1.0000
  H   H65       1.0  0.88414  0.37175  0.50504  1.0000
  H   H66       1.0  0.18124  0.64827  0.57972  1.0000
  H   H67       1.0  0.61441  0.86767  0.01373  1.0000
  H   H68       1.0  0.37865  0.13818  0.98776  1.0000
  H   H69       1.0  0.83545  0.41042  0.00423  1.0000
  H   H70       1.0  0.16382  0.59678  0.98320  1.0000
  H   H71       1.0  0.67341  0.86950  0.43919  1.0000
  H   H72       1.0  0.33766  0.08991  0.52521  1.0000
  H   H73       1.0  0.83548  0.34682  0.57753  1.0000
  H   H74       1.0  0.17115  0.58345  0.47886  1.0000
  H   H75       1.0  0.66080  0.83768  0.93504  1.0000
  H   H76       1.0  0.32733  0.16471  0.92712  1.0000
  H   H77       1.0  0.76569  0.40530  0.61265  1.0000
  H   H78       1.0  0.24822  0.58713  0.61683  1.0000
  H   H79       1.0  0.73903  0.91949  0.90368  1.0000
  H   H80       1.0  0.21585  0.13924  0.92739  1.0000
  H   H81       1.0  0.72363  0.43909  0.50677  1.0000
  H   H82       1.0  0.29031  0.56085  0.50879  1.0000
  H   H83       1.0  0.78676  0.92716  0.01551  1.0000
  H   H84       1.0  0.25204  0.08273  0.88172  1.0000
  H   H85       1.0  0.71862  0.36514  0.55924  1.0000
  H   H86       1.0  0.28973  0.63500  0.56567  1.0000
  H   H87       1.0  0.77444  0.85922  0.93164  1.0000
  H   H88       1.0  0.20823  0.06756  0.99404  1.0000
  H   H89       1.0  0.27576  0.33300  0.77238  1.0000
  H   H90       1.0  0.72861  0.67910  0.81502  1.0000
  H   H91       1.0  0.22437  0.83378  0.70780  1.0000
  H   H92       1.0  0.76978  0.17548  0.71475  1.0000
  H   H93       1.0  0.20281  0.29078  0.72049  1.0000
  H   H94       1.0  0.80083  0.72172  0.77291  1.0000
  H   H95       1.0  0.29749  0.79137  0.75565  1.0000
  H   H96       1.0  0.69755  0.21812  0.75787  1.0000
  H   H97       1.0  0.15750  0.21790  0.65629  1.0000
  H   H98       1.0  0.84535  0.79274  0.69766  1.0000
  H   H99       1.0  0.34290  0.72031  0.83100  1.0000
  H   H100      1.0  0.65313  0.29141  0.82704  1.0000
  H   H101      1.0  0.62389  0.75436  0.72156  1.0000
  H   H102      1.0  0.37933  0.25557  0.71411  1.0000
  H   H103      1.0  0.87442  0.25292  0.79361  1.0000
  H   H104      1.0  0.12125  0.75895  0.78604  1.0000
  H   H105      1.0  0.92815  0.01609  0.82741  1.0000
  H   H106      1.0  0.42971  0.51204  0.65327  1.0000
  H   H107      1.0  0.85595  0.97147  0.83439  1.0000
  H   H108      1.0  0.35604  0.55272  0.64973  1.0000
  H   H109      1.0  0.96748  0.88146  0.54849  1.0000
  H   H110      1.0  0.46796  0.62910  0.98463  1.0000
  H   H111      1.0  0.89550  0.83669  0.55467  1.0000
  H   H112      1.0  0.39409  0.66980  0.98285  1.0000
  C   C1        1.0  0.95435  0.93404  0.18395  1.0000
  C   C2        1.0  0.04568  0.04961  0.18123  1.0000
  C   C3        1.0  0.94089  0.89049  0.08836  1.0000
  C   C4        1.0  0.05389  0.10002  0.10348  1.0000
  C   C5        1.0  0.89952  0.86728  0.08962  1.0000
  C   C6        1.0  0.09470  0.12500  0.10326  1.0000
  C   C7        1.0  0.87030  0.88697  0.18783  1.0000
  C   C8        1.0  0.12912  0.10021  0.18219  1.0000
  C   C9        1.0  0.88420  0.92897  0.28688  1.0000
  C   C10       1.0  0.12095  0.05051  0.26248  1.0000
  C   C11       1.0  0.92568  0.95093  0.28596  1.0000
  C   C12       1.0  0.08011  0.02656  0.26306  1.0000
  C   C13       1.0  0.65034  0.71768  0.24159  1.0000
  C   C14       1.0  0.34860  0.27327  0.25310  1.0000
  C   C15       1.0  0.85174  0.21773  0.27324  1.0000
  C   C16       1.0  0.15317  0.77382  0.26424  1.0000
  C   C17       1.0  0.69218  0.74331  0.21574  1.0000
  C   C18       1.0  0.30615  0.24756  0.22854  1.0000
  C   C19       1.0  0.80960  0.24270  0.29852  1.0000
  C   C20       1.0  0.19588  0.74884  0.28792  1.0000
  C   C21       1.0  0.73596  0.82573  0.14044  1.0000
  C   C22       1.0  0.26096  0.16671  0.13905  1.0000
  C   C23       1.0  0.76464  0.32516  0.36815  1.0000
  C   C24       1.0  0.24213  0.66753  0.36529  1.0000
  C   C25       1.0  0.69538  0.80110  0.16675  1.0000
  C   C26       1.0  0.30205  0.19148  0.16794  1.0000
  C   C27       1.0  0.80571  0.30077  0.34726  1.0000
  C   C28       1.0  0.20078  0.69220  0.34417  1.0000
  C   C29       1.0  0.46800  0.42205  0.33768  1.0000
  C   C30       1.0  0.46393  0.37588  0.24074  1.0000
  C   C31       1.0  0.42694  0.34185  0.23063  1.0000
  C   C32       1.0  0.39275  0.35212  0.31990  1.0000
  C   C33       1.0  0.39779  0.39611  0.42183  1.0000
  C   C34       1.0  0.43482  0.42969  0.43098  1.0000
  C   C35       1.0  0.18020  0.17464  0.17385  1.0000
  C   C36       1.0  0.81756  0.81494  0.16745  1.0000
  C   C37       1.0  0.32234  0.67632  0.32647  1.0000
  C   C38       1.0  0.68338  0.31310  0.33661  1.0000
  C   C39       1.0  0.22365  0.19837  0.17360  1.0000
  C   C40       1.0  0.77376  0.79231  0.16561  1.0000
  C   C41       1.0  0.27900  0.70007  0.33111  1.0000
  C   C42       1.0  0.72728  0.29079  0.34139  1.0000
  C   C43       1.0  0.26874  0.27920  0.25816  1.0000
  C   C44       1.0  0.72997  0.70979  0.23434  1.0000
  C   C45       1.0  0.23291  0.78112  0.25770  1.0000
  C   C46       1.0  0.77213  0.20872  0.27720  1.0000
  C   C47       1.0  0.22868  0.25543  0.22885  1.0000
  C   C48       1.0  0.76950  0.73355  0.20770  1.0000
  C   C49       1.0  0.27335  0.75767  0.28137  1.0000
  C   C50       1.0  0.73216  0.23195  0.30075  1.0000
  C   C51       1.0  0.99698  0.96214  0.17298  1.0000
  C   C52       1.0  0.00245  0.02201  0.17408  1.0000
  C   C53       1.0  0.50478  0.46294  0.33167  1.0000
  C   C54       1.0  0.49935  0.52283  0.33141  1.0000
  C   C55       1.0  0.84924  0.36797  0.48739  1.0000
  C   C56       1.0  0.16130  0.62868  0.49545  1.0000
  C   C57       1.0  0.64947  0.86332  0.02278  1.0000
  C   C58       1.0  0.34407  0.13762  0.00563  1.0000
  C   C59       1.0  0.73414  0.40210  0.03732  1.0000
  C   C60       1.0  0.26508  0.60628  0.02690  1.0000
  C   C61       1.0  0.76527  0.89719  0.46868  1.0000
  C   C62       1.0  0.23631  0.10047  0.47032  1.0000
  C   C63       1.0  0.95342  0.95268  0.68654  1.0000
  C   C64       1.0  0.45406  0.56651  0.82103  1.0000
  C   C65       1.0  0.94343  0.90071  0.61361  1.0000
  C   C66       1.0  0.44359  0.61287  0.90994  1.0000
  C   C67       1.0  0.90298  0.87497  0.61820  1.0000
  C   C68       1.0  0.40226  0.63628  0.90805  1.0000
  C   C69       1.0  0.87060  0.90060  0.69663  1.0000
  C   C70       1.0  0.36997  0.61413  0.81542  1.0000
  C   C71       1.0  0.88066  0.95186  0.77241  1.0000
  C   C72       1.0  0.38067  0.56912  0.72311  1.0000
  C   C73       1.0  0.92123  0.97656  0.76869  1.0000
  C   C74       1.0  0.42198  0.54669  0.72502  1.0000
  C   C75       1.0  0.65184  0.72816  0.75526  1.0000
  C   C76       1.0  0.35141  0.28153  0.74241  1.0000
  C   C77       1.0  0.84634  0.22659  0.76130  1.0000
  C   C78       1.0  0.14887  0.78442  0.75340  1.0000
  C   C79       1.0  0.69412  0.75309  0.73277  1.0000
  C   C80       1.0  0.30915  0.25580  0.71271  1.0000
  C   C81       1.0  0.80424  0.25159  0.78605  1.0000
  C   C82       1.0  0.19119  0.75827  0.77797  1.0000
  C   C83       1.0  0.73823  0.83266  0.64357  1.0000
  C   C84       1.0  0.26376  0.17348  0.63285  1.0000
  C   C85       1.0  0.76025  0.33264  0.86960  1.0000
  C   C86       1.0  0.23672  0.67666  0.85990  1.0000
  C   C87       1.0  0.69756  0.80822  0.67011  1.0000
  C   C88       1.0  0.30495  0.19851  0.65883  1.0000
  C   C89       1.0  0.80094  0.30801  0.84418  1.0000
  C   C90       1.0  0.19549  0.70187  0.83591  1.0000
  C   C91       1.0  0.46637  0.43739  0.83556  1.0000
  C   C92       1.0  0.53385  0.58001  0.83930  1.0000
  C   C93       1.0  0.03288  0.93907  0.66977  1.0000
  C   C94       1.0  0.46597  0.38728  0.74993  1.0000
  C   C95       1.0  0.53576  0.62567  0.74192  1.0000
  C   C96       1.0  0.03409  0.88905  0.75466  1.0000
  C   C97       1.0  0.43042  0.35063  0.73921  1.0000
  C   C98       1.0  0.57254  0.65963  0.73211  1.0000
  C   C99       1.0  0.06986  0.85284  0.76267  1.0000
  C   C100      1.0  0.39363  0.36209  0.81605  1.0000
  C   C101      1.0  0.60868  0.65009  0.82273  1.0000
  C   C102      1.0  0.10616  0.86474  0.68404  1.0000
  C   C103      1.0  0.39489  0.41028  0.90778  1.0000
  C   C104      1.0  0.60582  0.60683  0.92552  1.0000
  C   C105      1.0  0.10411  0.91290  0.59328  1.0000
  C   C106      1.0  0.43042  0.44677  0.91713  1.0000
  C   C107      1.0  0.56909  0.57301  0.93372  1.0000
  C   C108      1.0  0.06827  0.94879  0.58612  1.0000
  C   C109      1.0  0.18265  0.18412  0.65821  1.0000
  C   C110      1.0  0.81957  0.82555  0.68916  1.0000
  C   C111      1.0  0.31767  0.68657  0.82909  1.0000
  C   C112      1.0  0.67902  0.32421  0.82828  1.0000
  C   C113      1.0  0.22645  0.20672  0.65798  1.0000
  C   C114      1.0  0.77609  0.80176  0.68501  1.0000
  C   C115      1.0  0.27389  0.70913  0.82857  1.0000
  C   C116      1.0  0.72247  0.30051  0.83344  1.0000
  C   C117      1.0  0.27167  0.28882  0.73297  1.0000
  C   C118      1.0  0.73199  0.72175  0.76802  1.0000
  C   C119      1.0  0.22858  0.79024  0.75008  1.0000
  C   C120      1.0  0.76639  0.21916  0.75703  1.0000
  C   C121      1.0  0.23159  0.26524  0.70320  1.0000
  C   C122      1.0  0.77165  0.74540  0.74278  1.0000
  C   C123      1.0  0.26871  0.76669  0.77809  1.0000
  C   C124      1.0  0.72674  0.24283  0.78262  1.0000
  C   C125      1.0  0.99626  0.98032  0.67512  1.0000
  C   C126      1.0  0.00197  0.04012  0.67360  1.0000
  C   C127      1.0  0.50279  0.47904  0.83223  1.0000
  C   C128      1.0  0.49707  0.53885  0.83255  1.0000
  C   C129      1.0  0.84609  0.36493  0.00431  1.0000
  C   C130      1.0  0.15478  0.64272  0.99265  1.0000
  C   C131      1.0  0.64915  0.84451  0.49305  1.0000
  C   C132      1.0  0.34653  0.13570  0.51189  1.0000
  C   C133      1.0  0.74128  0.39867  0.52843  1.0000
  C   C134      1.0  0.26972  0.59792  0.53288  1.0000
  C   C135      1.0  0.76078  0.89791  0.97973  1.0000
  C   C136      1.0  0.23218  0.09972  0.96438  1.0000
  N   N1        1.0  0.64814  0.66684  0.29911  1.0000
  N   N2        1.0  0.35276  0.32444  0.30917  1.0000
  N   N3        1.0  0.85424  0.16670  0.21587  1.0000
  N   N4        1.0  0.14856  0.82367  0.20285  1.0000
  N   N5        1.0  0.17163  0.11960  0.17967  1.0000
  N   N6        1.0  0.82732  0.86914  0.18773  1.0000
  N   N7        1.0  0.33070  0.62123  0.32161  1.0000
  N   N8        1.0  0.67374  0.36763  0.32411  1.0000
  N   N9        1.0  0.64850  0.67752  0.81257  1.0000
  N   N10       1.0  0.35443  0.33270  0.79966  1.0000
  N   N11       1.0  0.84956  0.17590  0.70307  1.0000
  N   N12       1.0  0.14544  0.83537  0.69617  1.0000
  N   N13       1.0  0.17300  0.12983  0.67417  1.0000
  N   N14       1.0  0.82815  0.88069  0.69569  1.0000
  N   N15       1.0  0.32707  0.63209  0.81490  1.0000
  N   N16       1.0  0.67066  0.37911  0.81405  1.0000
  O   O1        1.0  0.73542  0.88227  0.09723  1.0000
  O   O2        1.0  0.26059  0.11182  0.08418  1.0000
  O   O3        1.0  0.76287  0.38298  0.40256  1.0000
  O   O4        1.0  0.24354  0.61108  0.40911  1.0000
  O   O5        1.0  0.65811  0.83300  0.15318  1.0000
  O   O6        1.0  0.33936  0.16162  0.14431  1.0000
  O   O7        1.0  0.84315  0.33238  0.36310  1.0000
  O   O8        1.0  0.16388  0.66179  0.36778  1.0000
  O   O9        1.0  0.73718  0.88604  0.58244  1.0000
  O   O10       1.0  0.26333  0.11664  0.59064  1.0000
  O   O11       1.0  0.76111  0.38786  0.92257  1.0000
  O   O12       1.0  0.23712  0.62072  0.90787  1.0000
  O   O13       1.0  0.66032  0.83894  0.63998  1.0000
  O   O14       1.0  0.34211  0.16773  0.64102  1.0000
  O   O15       1.0  0.83843  0.33874  0.86780  1.0000
  O   O16       1.0  0.15822  0.67231  0.86042  1.0000
  C  Sn1       1.0  0.08426  0.06355  0.81214  1.0000
  C   C137      1.0  0.04874  0.07760  0.72531  1.0000
  C  Sn2       1.0  0.05431  0.10691  0.60031  1.0000
  C  Sn3       1.0  0.09624  0.12247  0.56124  1.0000
  C   C138      1.0  0.13173  0.10842  0.64803  1.0000
  C  Sn4       1.0  0.12620  0.07911  0.77306  1.0000
  O  Te1       1.0  0.07794  0.03423  0.93662  1.0000
  O  Te2       1.0  0.01831  0.12051  0.51524  1.0000
  O  Te3       1.0  0.10253  0.15181  0.43665  1.0000
  O  Te4       1.0  0.16216  0.06551  0.85809  1.0000
  Mg  Mg1       1.0  0.04343  0.16073  0.35586  1.0000
  Mg  Mg2       1.0  0.12487  0.02354  0.01745  1.0000
  C  Sn5       1.0  0.61502  0.45098  0.25103  1.0000
  C   C139      1.0  0.63171  0.40541  0.33248  1.0000
  C  Sn6       1.0  0.60423  0.36852  0.40250  1.0000
  C  Sn7       1.0  0.55914  0.37734  0.39082  1.0000
  C   C140      1.0  0.54247  0.42288  0.30939  1.0000
  C  Sn8       1.0  0.56992  0.45980  0.23934  1.0000
  O  Te5       1.0  0.64309  0.48732  0.18193  1.0000
  O  Te6       1.0  0.62167  0.32327  0.48335  1.0000
  O  Te7       1.0  0.53107  0.34095  0.46000  1.0000
  O  Te8       1.0  0.55251  0.50502  0.15852  1.0000
  Mg  Mg3       1.0  0.57027  0.28535  0.55752  1.0000
  Mg  Mg4       1.0  0.60388  0.54294  0.08425  1.0000
  C  Sn9       1.0  0.93918  0.16542  0.76335  1.0000
  C   C141      1.0  0.90086  0.16192  0.68299  1.0000
  C  Sn10      1.0  0.89285  0.11423  0.59505  1.0000
  C  Sn11      1.0  0.92378  0.06909  0.58734  1.0000
  C   C142      1.0  0.96207  0.07260  0.66768  1.0000
  C  Sn12      1.0  0.97011  0.12028  0.75563  1.0000
  O  Te9       1.0  0.94652  0.21350  0.85055  1.0000
  O  Te10      1.0  0.85431  0.11170  0.51568  1.0000
  O  Te11      1.0  0.91641  0.02099  0.50004  1.0000
  O  Te12      1.0  0.00862  0.12282  0.83499  1.0000
  Mg  Mg5       1.0  0.85909  0.03733  0.41248  1.0000
  Mg  Mg6       1.0  0.00387  0.19715  0.93827  1.0000
  C  Sn13      1.0  0.55713  0.65511  0.26534  1.0000
  C   C143      1.0  0.59780  0.64933  0.33072  1.0000
  C  Sn14      1.0  0.60977  0.59718  0.39577  1.0000
  C  Sn15      1.0  0.58049  0.54981  0.39540  1.0000
  C   C144      1.0  0.53985  0.55559  0.33004  1.0000
  C  Sn16      1.0  0.52785  0.60773  0.26498  1.0000
  O  Te13      1.0  0.54585  0.70764  0.20095  1.0000
  O  Te14      1.0  0.65060  0.59245  0.46049  1.0000
  O  Te15      1.0  0.59181  0.49725  0.45987  1.0000
  O  Te16      1.0  0.48705  0.61247  0.20027  1.0000
  Mg  Mg7       1.0  0.65105  0.51203  0.53409  1.0000
  Mg  Mg8       1.0  0.48657  0.69286  0.12658  1.0000
  C  Sn17      1.0  0.89337  0.06924  0.13318  1.0000
  C   C145      1.0  0.89081  0.12087  0.20988  1.0000
  C  Sn18      1.0  0.92818  0.14859  0.26106  1.0000
  C  Sn19      1.0  0.96896  0.12421  0.23497  1.0000
  C   C146      1.0  0.97150  0.07262  0.15830  1.0000
  C  Sn20      1.0  0.93415  0.04486  0.10709  1.0000
  O  Te17      1.0  0.85559  0.04227  0.08302  1.0000
  O  Te18      1.0  0.92482  0.20016  0.33751  1.0000
  O  Te19      1.0  0.00676  0.15122  0.28522  1.0000
  O  Te20      1.0  0.93791  0.99333  0.03067  1.0000
  Mg  Mg9       1.0  0.98551  0.22069  0.38383  1.0000
  Mg  Mg10      1.0  0.88945  0.97450  0.98424  1.0000
  C  Sn21      1.0  0.04932  0.87882  0.30308  1.0000
  C   C147      1.0  0.03899  0.92120  0.20338  1.0000
  C  Sn22      1.0  0.06233  0.92524  0.08270  1.0000
  C  Sn23      1.0  0.09669  0.88609  0.06115  1.0000
  C   C148      1.0  0.10700  0.84374  0.16080  1.0000
  C  Sn24      1.0  0.08369  0.83966  0.28153  1.0000
  O  Te21      1.0  0.02556  0.87557  0.42295  1.0000
  O  Te22      1.0  0.06362  0.96971  0.98454  1.0000
  O  Te23      1.0  0.13267  0.89110  0.94116  1.0000
  O  Te24      1.0  0.09459  0.79695  0.37963  1.0000
  Mg  Mg11      1.0  0.10550  0.95672  0.83792  1.0000
  Mg  Mg12      1.0  0.05271  0.80988  0.52625  1.0000
  C  Sn25      1.0  0.56800  0.40389  0.93919  1.0000
  C   C149      1.0  0.55192  0.45103  0.86180  1.0000
  C  Sn26      1.0  0.57338  0.47075  0.74615  1.0000
  C  Sn27      1.0  0.61170  0.44276  0.70697  1.0000
  C   C150      1.0  0.62776  0.39565  0.78432  1.0000
  C  Sn28      1.0  0.60632  0.37590  0.90001  1.0000
  O  Te25      1.0  0.53380  0.38318  0.05441  1.0000
  O  Te26      1.0  0.55669  0.51797  0.67044  1.0000
  O  Te27      1.0  0.63368  0.46179  0.59165  1.0000
  O  Te28      1.0  0.62298  0.32871  0.97569  1.0000
  Mg  Mg13      1.0  0.59822  0.52778  0.52161  1.0000
  Mg  Mg14      1.0  0.56925  0.31712  0.12448  1.0000
  C  Sn29      1.0  0.41997  0.63448  0.37315  1.0000
  C   C151      1.0  0.38247  0.61507  0.30278  1.0000
  C  Sn30      1.0  0.38036  0.55897  0.24608  1.0000
  C  Sn31      1.0  0.41647  0.52147  0.26008  1.0000
  C   C152      1.0  0.45393  0.54088  0.33043  1.0000
  C  Sn32      1.0  0.45607  0.59698  0.38715  1.0000
  O  Te29      1.0  0.42136  0.69073  0.42901  1.0000
  O  Te30      1.0  0.34253  0.54054  0.17614  1.0000
  O  Te31      1.0  0.41504  0.46518  0.20414  1.0000
  O  Te32      1.0  0.49387  0.61541  0.45707  1.0000
  Mg  Mg15      1.0  0.35632  0.46006  0.11814  1.0000
  Mg  Mg16      1.0  0.48011  0.69586  0.51518  1.0000
