data_image0
_chemical_formula_structural       H72C108N24O24C2Sn2C2HTe2HMgC2Sn2C2HTe2HMgC2Sn2C2HTe2HMgC2Sn2C2HTe2HMgC2Sn2C2HTe2HMgC2Sn2C2HTe2HMgC2Sn2C2HTe2HMgC2Sn2C2HTe2HMgC2Sn2C2HTe2HMgC2Sn2C2HTe2HMgC2Sn2C2HTe2HMgC2Sn2C2HTe2HMgC2Sn2C2HTe2HMgC2Sn2C2HTe2HMgC2Sn2C2HTe2HMgC2Sn2C2HTe2HMgC2Sn2C2HTe2HMgC2Sn2C2HTe2HMgC2Sn2C2HTe2HMgC2Sn2C2HTe2HMgC2Sn2C2HTe2HMgC2Sn2C2HTe2HMgC2Sn2C2HTe2HMgC2Sn2C2HTe2HMg
_chemical_formula_sum              "H120 C204 N24 O24 Sn48 Te48 Mg24"
_cell_length_a       38.608
_cell_length_b       38.6541
_cell_length_c       10.0224
_cell_angle_alpha    89.5567
_cell_angle_beta     90.0517
_cell_angle_gamma    119.978

_symmetry_space_group_name_H-M    'P1'
_space_group_IT_number       1

loop_
  _space_group_symop_operation_xyz
  'x, y, z'

loop_
  _atom_site_type_symbol
  _atom_site_label
  _atom_site_symmetry_multiplicity
  _atom_site_fract_x
  _atom_site_fract_y
  _atom_site_fract_z
  _atom_site_occupancy
  H   H1        1.0  0.33445  0.49683  0.46469  1.0000
  H   H2        1.0  0.50788  0.83507  0.45655  1.0000
  H   H3        1.0  0.16188  0.66948  0.45293  1.0000
  H   H4        1.0  0.67432  0.50692  0.44855  1.0000
  H   H5        1.0  0.49286  0.16197  0.45321  1.0000
  H   H6        1.0  0.83776  0.32563  0.44886  1.0000
  H   H7        1.0  0.29421  0.51918  0.54492  1.0000
  H   H8        1.0  0.48780  0.77430  0.54404  1.0000
  H   H9        1.0  0.22619  0.70720  0.53020  1.0000
  H   H10       1.0  0.70602  0.47116  0.49537  1.0000
  H   H11       1.0  0.52177  0.22667  0.52107  1.0000
  H   H12       1.0  0.77360  0.28907  0.52429  1.0000
  H   H13       1.0  0.23226  0.52334  0.54328  1.0000
  H   H14       1.0  0.48317  0.70807  0.54845  1.0000
  H   H15       1.0  0.29256  0.76891  0.53206  1.0000
  H   H16       1.0  0.76539  0.46215  0.48423  1.0000
  H   H17       1.0  0.52785  0.29373  0.51963  1.0000
  H   H18       1.0  0.70680  0.22796  0.52614  1.0000
  H   H19       1.0  0.17566  0.46926  0.14940  1.0000
  H   H20       1.0  0.53071  0.70092  0.14577  1.0000
  H   H21       1.0  0.29245  0.83330  0.15578  1.0000
  H   H22       1.0  0.84343  0.55219  0.17296  1.0000
  H   H23       1.0  0.45608  0.29051  0.16064  1.0000
  H   H24       1.0  0.70541  0.16666  0.14378  1.0000
  H   H25       1.0  0.24539  0.45532  0.06834  1.0000
  H   H26       1.0  0.54500  0.78424  0.05724  1.0000
  H   H27       1.0  0.20638  0.76769  0.08083  1.0000
  H   H28       1.0  0.78030  0.57794  0.11251  1.0000
  H   H29       1.0  0.43299  0.20330  0.09238  1.0000
  H   H30       1.0  0.79090  0.23254  0.06620  1.0000
  H   H31       1.0  0.16763  0.50600  0.43950  1.0000
  H   H32       1.0  0.49797  0.65937  0.44513  1.0000
  H   H33       1.0  0.33966  0.83472  0.43607  1.0000
  H   H34       1.0  0.83128  0.48174  0.39378  1.0000
  H   H35       1.0  0.50845  0.34027  0.42799  1.0000
  H   H36       1.0  0.65920  0.16278  0.42927  1.0000
  H   H37       1.0  0.34126  0.52008  0.88597  1.0000
  H   H38       1.0  0.47564  0.82286  0.86738  1.0000
  H   H39       1.0  0.16398  0.66959  0.95498  1.0000
  H   H40       1.0  0.66754  0.50891  0.96122  1.0000
  H   H41       1.0  0.49198  0.16366  0.96359  1.0000
  H   H42       1.0  0.83294  0.33208  0.93706  1.0000
  H   H43       1.0  0.30430  0.54825  0.93682  1.0000
  H   H44       1.0  0.44755  0.75855  0.91997  1.0000
  H   H45       1.0  0.23150  0.70075  0.00279  1.0000
  H   H46       1.0  0.70420  0.48026  0.03756  1.0000
  H   H47       1.0  0.52688  0.23097  0.01860  1.0000
  H   H48       1.0  0.76332  0.30068  0.97220  1.0000
  H   H49       1.0  0.24279  0.55357  0.92887  1.0000
  H   H50       1.0  0.44286  0.69206  0.92005  1.0000
  H   H51       1.0  0.29928  0.76084  0.99773  1.0000
  H   H52       1.0  0.76569  0.47508  0.03898  1.0000
  H   H53       1.0  0.53456  0.29862  0.01277  1.0000
  H   H54       1.0  0.69575  0.24047  0.95840  1.0000
  H   H55       1.0  0.15613  0.44414  0.69991  1.0000
  H   H56       1.0  0.55775  0.71656  0.72214  1.0000
  H   H57       1.0  0.28952  0.83810  0.67880  1.0000
  H   H58       1.0  0.82987  0.54041  0.66258  1.0000
  H   H59       1.0  0.45533  0.29191  0.67133  1.0000
  H   H60       1.0  0.71453  0.15959  0.68385  1.0000
  H   H61       1.0  0.21920  0.41916  0.64733  1.0000
  H   H62       1.0  0.58430  0.80515  0.66861  1.0000
  H   H63       1.0  0.20137  0.77564  0.61637  1.0000
  H   H64       1.0  0.76460  0.56079  0.58867  1.0000
  H   H65       1.0  0.42991  0.20417  0.61154  1.0000
  H   H66       1.0  0.80202  0.22496  0.61823  1.0000
  H   H67       1.0  0.17398  0.52832  0.85185  1.0000
  H   H68       1.0  0.47031  0.64935  0.85622  1.0000
  H   H69       1.0  0.34516  0.82875  0.91353  1.0000
  H   H70       1.0  0.83187  0.49414  0.94275  1.0000
  H   H71       1.0  0.51283  0.34466  0.92527  1.0000
  H   H72       1.0  0.65103  0.17378  0.86971  1.0000
  C   C1        1.0  0.48617  0.48310  0.28802  1.0000
  C   C2        1.0  0.51772  0.99817  0.28112  1.0000
  C   C3        1.0  0.00236  0.51447  0.26632  1.0000
  C   C4        1.0  0.52202  0.51862  0.28534  1.0000
  C   C5        1.0  0.48261  0.99929  0.27975  1.0000
  C   C6        1.0  0.00189  0.47861  0.26988  1.0000
  C   C7        1.0  0.32104  0.48952  0.36443  1.0000
  C   C8        1.0  0.51428  0.82846  0.35571  1.0000
  C   C9        1.0  0.16904  0.68336  0.35281  1.0000
  C   C10       1.0  0.68925  0.51724  0.35095  1.0000
  C   C11       1.0  0.48453  0.16804  0.35420  1.0000
  C   C12       1.0  0.83099  0.31309  0.34751  1.0000
  C   C13       1.0  0.28482  0.49201  0.35098  1.0000
  C   C14       1.0  0.51205  0.78989  0.34473  1.0000
  C   C15       1.0  0.20704  0.72082  0.34457  1.0000
  C   C16       1.0  0.72593  0.51541  0.33812  1.0000
  C   C17       1.0  0.48554  0.20620  0.34377  1.0000
  C   C18       1.0  0.79215  0.27686  0.33592  1.0000
  C   C19       1.0  0.25923  0.47830  0.23930  1.0000
  C   C20       1.0  0.52416  0.77689  0.23189  1.0000
  C   C21       1.0  0.21760  0.74932  0.24095  1.0000
  C   C22       1.0  0.75721  0.53894  0.24839  1.0000
  C   C23       1.0  0.46580  0.21591  0.24431  1.0000
  C   C24       1.0  0.78076  0.24966  0.22941  1.0000
  C   C25       1.0  0.22355  0.48010  0.23942  1.0000
  C   C26       1.0  0.52181  0.73921  0.23498  1.0000
  C   C27       1.0  0.25541  0.78450  0.24221  1.0000
  C   C28       1.0  0.79162  0.53490  0.24561  1.0000
  C   C29       1.0  0.46910  0.25400  0.24407  1.0000
  C   C30       1.0  0.74276  0.21470  0.23074  1.0000
  C   C31       1.0  0.21325  0.49596  0.34928  1.0000
  C   C32       1.0  0.50735  0.71416  0.34906  1.0000
  C   C33       1.0  0.28278  0.79187  0.34670  1.0000
  C   C34       1.0  0.79439  0.50662  0.32839  1.0000
  C   C35       1.0  0.49170  0.28239  0.34252  1.0000
  C   C36       1.0  0.71577  0.20645  0.33760  1.0000
  C   C37       1.0  0.23981  0.51085  0.45877  1.0000
  C   C38       1.0  0.49446  0.72714  0.46037  1.0000
  C   C39       1.0  0.27183  0.76319  0.45045  1.0000
  C   C40       1.0  0.76282  0.48320  0.41813  1.0000
  C   C41       1.0  0.51109  0.27222  0.44226  1.0000
  C   C42       1.0  0.72726  0.23419  0.44307  1.0000
  C   C43       1.0  0.27433  0.50855  0.45931  1.0000
  C   C44       1.0  0.49703  0.76402  0.45762  1.0000
  C   C45       1.0  0.23490  0.72888  0.44913  1.0000
  C   C46       1.0  0.72989  0.48816  0.42393  1.0000
  C   C47       1.0  0.50772  0.23499  0.44277  1.0000
  C   C48       1.0  0.76445  0.26817  0.44192  1.0000
  C   C49       1.0  0.17571  0.49548  0.34962  1.0000
  C   C50       1.0  0.50725  0.67689  0.35198  1.0000
  C   C51       1.0  0.32064  0.82859  0.34783  1.0000
  C   C52       1.0  0.82987  0.50324  0.32494  1.0000
  C   C53       1.0  0.49361  0.32056  0.34308  1.0000
  C   C54       1.0  0.67802  0.16966  0.33983  1.0000
  C   C55       1.0  0.47870  0.48116  0.77779  1.0000
  C   C56       1.0  0.51718  0.00103  0.76583  1.0000
  C   C57       1.0  0.99784  0.52013  0.76917  1.0000
  C   C58       1.0  0.51390  0.51719  0.77315  1.0000
  C   C59       1.0  0.48133  0.00059  0.77346  1.0000
  C   C60       1.0  0.99811  0.48468  0.76075  1.0000
  C   C61       1.0  0.31819  0.49501  0.82806  1.0000
  C   C62       1.0  0.50244  0.82585  0.81756  1.0000
  C   C63       1.0  0.16921  0.68404  0.85611  1.0000
  C   C64       1.0  0.68042  0.51405  0.85998  1.0000
  C   C65       1.0  0.48435  0.16985  0.86361  1.0000
  C   C66       1.0  0.82829  0.31764  0.83928  1.0000
  C   C67       1.0  0.28023  0.49441  0.82029  1.0000
  C   C68       1.0  0.50406  0.78910  0.81634  1.0000
  C   C69       1.0  0.20796  0.72049  0.84295  1.0000
  C   C70       1.0  0.71756  0.51291  0.85148  1.0000
  C   C71       1.0  0.48685  0.20870  0.85072  1.0000
  C   C72       1.0  0.79024  0.28041  0.82696  1.0000
  C   C73       1.0  0.24593  0.46494  0.75399  1.0000
  C   C74       1.0  0.53540  0.78505  0.76027  1.0000
  C   C75       1.0  0.21620  0.75184  0.75262  1.0000
  C   C76       1.0  0.74584  0.53078  0.74760  1.0000
  C   C77       1.0  0.46580  0.21788  0.75504  1.0000
  C   C78       1.0  0.78420  0.24853  0.74444  1.0000
  C   C79       1.0  0.21061  0.46741  0.75285  1.0000
  C   C80       1.0  0.53314  0.74741  0.76315  1.0000
  C   C81       1.0  0.25445  0.78651  0.75236  1.0000
  C   C82       1.0  0.78109  0.52823  0.74898  1.0000
  C   C83       1.0  0.46975  0.25623  0.75278  1.0000
  C   C84       1.0  0.74658  0.21307  0.74431  1.0000
  C   C85       1.0  0.20953  0.49990  0.81227  1.0000
  C   C86       1.0  0.49954  0.71349  0.81846  1.0000
  C   C87       1.0  0.28482  0.78979  0.83903  1.0000
  C   C88       1.0  0.78857  0.50811  0.85369  1.0000
  C   C89       1.0  0.49475  0.28577  0.84463  1.0000
  C   C90       1.0  0.71411  0.21044  0.81790  1.0000
  C   C91       1.0  0.24402  0.52928  0.87891  1.0000
  C   C92       1.0  0.46841  0.71791  0.87509  1.0000
  C   C93       1.0  0.27627  0.75805  0.92873  1.0000
  C   C94       1.0  0.76000  0.49032  0.95748  1.0000
  C   C95       1.0  0.51586  0.27630  0.94005  1.0000
  C   C96       1.0  0.72043  0.24285  0.89916  1.0000
  C   C97       1.0  0.27808  0.52620  0.88320  1.0000
  C   C98       1.0  0.47102  0.75480  0.87460  1.0000
  C   C99       1.0  0.23867  0.72468  0.93110  1.0000
  C   C100      1.0  0.72574  0.49310  0.95632  1.0000
  C   C101      1.0  0.51156  0.23866  0.94311  1.0000
  C   C102      1.0  0.75786  0.27636  0.90589  1.0000
  C   C103      1.0  0.17347  0.50224  0.80680  1.0000
  C   C104      1.0  0.49749  0.67532  0.81690  1.0000
  C   C105      1.0  0.32315  0.82594  0.83865  1.0000
  C   C106      1.0  0.82535  0.50703  0.85479  1.0000
  C   C107      1.0  0.49660  0.32396  0.84394  1.0000
  C   C108      1.0  0.67573  0.17447  0.81332  1.0000
  N   N1        1.0  0.33625  0.47884  0.26919  1.0000
  N   N2        1.0  0.52358  0.85371  0.25816  1.0000
  N   N3        1.0  0.14546  0.66738  0.25218  1.0000
  N   N4        1.0  0.67489  0.52933  0.25648  1.0000
  N   N5        1.0  0.47488  0.14317  0.25675  1.0000
  N   N6        1.0  0.85595  0.32921  0.24926  1.0000
  N   N7        1.0  0.47844  0.33164  0.24683  1.0000
  N   N8        1.0  0.66628  0.14513  0.23912  1.0000
  N   N9        1.0  0.85962  0.52522  0.24515  1.0000
  N   N10       1.0  0.51794  0.66425  0.24778  1.0000
  N   N11       1.0  0.33230  0.85369  0.24753  1.0000
  N   N12       1.0  0.15194  0.48298  0.24643  1.0000
  N   N13       1.0  0.32520  0.46928  0.77039  1.0000
  N   N14       1.0  0.52885  0.85905  0.76247  1.0000
  N   N15       1.0  0.14334  0.66992  0.76065  1.0000
  N   N16       1.0  0.66393  0.52062  0.75791  1.0000
  N   N17       1.0  0.47422  0.14487  0.76622  1.0000
  N   N18       1.0  0.85409  0.33265  0.74324  1.0000
  N   N19       1.0  0.47943  0.33369  0.75054  1.0000
  N   N20       1.0  0.67051  0.14330  0.74733  1.0000
  N   N21       1.0  0.85007  0.52071  0.75375  1.0000
  N   N22       1.0  0.52726  0.67155  0.77263  1.0000
  N   N23       1.0  0.33145  0.85458  0.75292  1.0000
  N   N24       1.0  0.14083  0.47386  0.75345  1.0000
  O   O1        1.0  0.26720  0.46223  0.13185  1.0000
  O   O2        1.0  0.53890  0.79978  0.12019  1.0000
  O   O3        1.0  0.19209  0.74446  0.14000  1.0000
  O   O4        1.0  0.75581  0.56633  0.16635  1.0000
  O   O5        1.0  0.44281  0.18936  0.14940  1.0000
  O   O6        1.0  0.80573  0.25526  0.12583  1.0000
  O   O7        1.0  0.19981  0.46525  0.13126  1.0000
  O   O8        1.0  0.53471  0.72894  0.12489  1.0000
  O   O9        1.0  0.26358  0.81065  0.14010  1.0000
  O   O10       1.0  0.82115  0.55916  0.16023  1.0000
  O   O11       1.0  0.44924  0.26146  0.14689  1.0000
  O   O12       1.0  0.73424  0.18955  0.12677  1.0000
  O   O13       1.0  0.24561  0.43418  0.68880  1.0000
  O   O14       1.0  0.56768  0.81600  0.70060  1.0000
  O   O15       1.0  0.18818  0.75054  0.66733  1.0000
  O   O16       1.0  0.74113  0.55175  0.64658  1.0000
  O   O17       1.0  0.44056  0.19051  0.66622  1.0000
  O   O18       1.0  0.81391  0.25017  0.66705  1.0000
  O   O19       1.0  0.17889  0.43781  0.68860  1.0000
  O   O20       1.0  0.56412  0.74563  0.70744  1.0000
  O   O21       1.0  0.26006  0.81601  0.66636  1.0000
  O   O22       1.0  0.80710  0.54662  0.64700  1.0000
  O   O23       1.0  0.44788  0.26252  0.66017  1.0000
  O   O24       1.0  0.74338  0.18269  0.66903  1.0000
  C   C109      1.0  0.40395  0.44734  0.20860  1.0000
  C   C110      1.0  0.43943  0.47413  0.27275  1.0000
  C  Sn1       1.0  0.44086  0.50417  0.35319  1.0000
  C  Sn2       1.0  0.40607  0.50738  0.36955  1.0000
  C   C111      1.0  0.37072  0.48042  0.30503  1.0000
  C   C112      1.0  0.36963  0.45047  0.22473  1.0000
  H   H73       1.0  0.40310  0.42416  0.14653  1.0000
  O  Te1       1.0  0.47656  0.53069  0.41651  1.0000
  O  Te2       1.0  0.40666  0.53711  0.44941  1.0000
  H   H74       1.0  0.34214  0.42972  0.17515  1.0000
  Mg  Mg1       1.0  0.46242  0.56616  0.51504  1.0000
  C   C113      1.0  0.48959  0.89752  0.37207  1.0000
  C   C114      1.0  0.51379  0.88815  0.29444  1.0000
  C  Sn3       1.0  0.54380  0.91734  0.21366  1.0000
  C  Sn4       1.0  0.54963  0.95660  0.21078  1.0000
  C   C115      1.0  0.52528  0.96568  0.28888  1.0000
  C   C116      1.0  0.49533  0.93624  0.36932  1.0000
  H   H75       1.0  0.46643  0.87475  0.43437  1.0000
  O  Te3       1.0  0.56770  0.90747  0.13670  1.0000
  O  Te4       1.0  0.57942  0.98635  0.13098  1.0000
  H   H76       1.0  0.47662  0.94351  0.42948  1.0000
  Mg  Mg2       1.0  0.60434  0.95830  0.04392  1.0000
  C   C117      1.0  0.08349  0.56786  0.35991  1.0000
  C   C118      1.0  0.04732  0.55573  0.29414  1.0000
  C  Sn5       1.0  0.04359  0.58157  0.20468  1.0000
  C  Sn6       1.0  0.07673  0.62024  0.18079  1.0000
  C   C119      1.0  0.11279  0.63209  0.24702  1.0000
  C   C120      1.0  0.11620  0.60600  0.33637  1.0000
  H   H77       1.0  0.08613  0.54767  0.42899  1.0000
  O  Te5       1.0  0.00723  0.56897  0.13985  1.0000
  O  Te6       1.0  0.07383  0.64666  0.09184  1.0000
  H   H78       1.0  0.14421  0.61539  0.38721  1.0000
  Mg  Mg3       1.0  0.01802  0.61575  0.02769  1.0000
  C   C121      1.0  0.62324  0.55698  0.18904  1.0000
  C   C122      1.0  0.63706  0.53484  0.25885  1.0000
  C  Sn7       1.0  0.61148  0.50386  0.34464  1.0000
  C  Sn8       1.0  0.57133  0.49495  0.36059  1.0000
  C   C123      1.0  0.55778  0.51726  0.29023  1.0000
  C   C124      1.0  0.58364  0.54820  0.20468  1.0000
  H   H79       1.0  0.64324  0.58090  0.12279  1.0000
  O  Te7       1.0  0.62577  0.48205  0.41366  1.0000
  O  Te8       1.0  0.54511  0.46415  0.44565  1.0000
  H   H80       1.0  0.57292  0.56532  0.15058  1.0000
  Mg  Mg4       1.0  0.57861  0.44293  0.51803  1.0000
  C   C125      1.0  0.44696  0.04521  0.19186  1.0000
  C   C126      1.0  0.47399  0.03708  0.25822  1.0000
  C  Sn9       1.0  0.50349  0.06588  0.33992  1.0000
  C  Sn10      1.0  0.50589  0.10348  0.35529  1.0000
  C   C127      1.0  0.47869  0.11131  0.28855  1.0000
  C   C128      1.0  0.44930  0.08228  0.20701  1.0000
  H   H81       1.0  0.42420  0.02275  0.12883  1.0000
  O  Te9       1.0  0.53026  0.05727  0.40546  1.0000
  O  Te10      1.0  0.53507  0.13279  0.43637  1.0000
  H   H82       1.0  0.42836  0.08857  0.15571  1.0000
  Mg  Mg5       1.0  0.56475  0.10691  0.50496  1.0000
  C   C129      1.0  0.93449  0.37915  0.17064  1.0000
  C   C130      1.0  0.90020  0.36569  0.24937  1.0000
  C  Sn11      1.0  0.89803  0.39069  0.34484  1.0000
  C  Sn12      1.0  0.93083  0.42988  0.36156  1.0000
  C   C131      1.0  0.96499  0.44307  0.28225  1.0000
  C   C132      1.0  0.96685  0.41781  0.18703  1.0000
  H   H83       1.0  0.93593  0.35961  0.09692  1.0000
  O  Te11      1.0  0.86355  0.37676  0.42269  1.0000
  O  Te12      1.0  0.92945  0.45549  0.45621  1.0000
  H   H84       1.0  0.99340  0.42824  0.12604  1.0000
  Mg  Mg6       1.0  0.87594  0.42283  0.53839  1.0000
  C   C133      1.0  0.50947  0.43049  0.16331  1.0000
  C   C134      1.0  0.48831  0.44200  0.24777  1.0000
  C  Sn13      1.0  0.46215  0.41538  0.34374  1.0000
  C  Sn14      1.0  0.45716  0.37654  0.35517  1.0000
  C   C135      1.0  0.47849  0.36531  0.27026  1.0000
  C   C136      1.0  0.50458  0.39218  0.17454  1.0000
  H   H85       1.0  0.52968  0.45128  0.08930  1.0000
  O  Te13      1.0  0.44123  0.42737  0.42729  1.0000
  O  Te14      1.0  0.43122  0.34934  0.45025  1.0000
  H   H86       1.0  0.52098  0.38326  0.10923  1.0000
  Mg  Mg7       1.0  0.40934  0.37963  0.54117  1.0000
  C   C137      1.0  0.61491  0.07433  0.38288  1.0000
  C   C138      1.0  0.63031  0.10137  0.27614  1.0000
  C  Sn15      1.0  0.60735  0.09547  0.16177  1.0000
  C  Sn16      1.0  0.56825  0.06186  0.15443  1.0000
  C   C139      1.0  0.55311  0.03500  0.26179  1.0000
  C   C140      1.0  0.57634  0.04118  0.37574  1.0000
  H   H87       1.0  0.63288  0.07912  0.47108  1.0000
  O  Te15      1.0  0.62320  0.12277  0.05603  1.0000
  O  Te16      1.0  0.54466  0.05526  0.04133  1.0000
  H   H88       1.0  0.56440  0.02026  0.45840  1.0000
  Mg  Mg8       1.0  0.57846  0.09836  0.92317  1.0000
  C   C141      1.0  0.90409  0.48961  0.15749  1.0000
  C   C142      1.0  0.89363  0.51322  0.23331  1.0000
  C  Sn17      1.0  0.92109  0.54131  0.32177  1.0000
  C  Sn18      1.0  0.95973  0.54578  0.33432  1.0000
  C   C143      1.0  0.96992  0.52204  0.25795  1.0000
  C   C144      1.0  0.94220  0.49402  0.16976  1.0000
  H   H89       1.0  0.88265  0.46794  0.08920  1.0000
  O  Te17      1.0  0.91015  0.56464  0.39681  1.0000
  O  Te18      1.0  0.98777  0.57364  0.42194  1.0000
  H   H90       1.0  0.95032  0.47576  0.11100  1.0000
  Mg  Mg9       1.0  0.95875  0.59848  0.50267  1.0000
  C   C145      1.0  0.53919  0.61396  0.39005  1.0000
  C   C146      1.0  0.52739  0.62938  0.28399  1.0000
  C  Sn19      1.0  0.51154  0.60704  0.16823  1.0000
  C  Sn20      1.0  0.50746  0.56857  0.15878  1.0000
  C   C147      1.0  0.51933  0.55341  0.26547  1.0000
  C   C148      1.0  0.53516  0.57602  0.38083  1.0000
  H   H91       1.0  0.55142  0.63144  0.47933  1.0000
  O  Te19      1.0  0.49991  0.62290  0.06319  1.0000
  O  Te20      1.0  0.49170  0.54561  0.04426  1.0000
  H   H92       1.0  0.54428  0.56407  0.46296  1.0000
  Mg  Mg10      1.0  0.47908  0.57766  0.92781  1.0000
  C   C149      1.0  0.40154  0.94774  0.37355  1.0000
  C   C150      1.0  0.43588  0.96060  0.29559  1.0000
  C  Sn21      1.0  0.43568  0.93778  0.18784  1.0000
  C  Sn22      1.0  0.40040  0.90144  0.15781  1.0000
  C   C151      1.0  0.36619  0.88885  0.23636  1.0000
  C   C152      1.0  0.36672  0.91190  0.34397  1.0000
  H   H93       1.0  0.40194  0.96559  0.45677  1.0000
  O  Te21      1.0  0.47026  0.95106  0.11100  1.0000
  O  Te22      1.0  0.39937  0.87806  0.05067  1.0000
  H   H94       1.0  0.34012  0.90195  0.40426  1.0000
  Mg  Mg11      1.0  0.45303  0.90624  0.97536  1.0000
  C   C153      1.0  0.07422  0.49537  0.12961  1.0000
  C   C154      1.0  0.04440  0.47922  0.22754  1.0000
  C  Sn23      1.0  0.05040  0.46335  0.34524  1.0000
  C  Sn24      1.0  0.08697  0.46370  0.36501  1.0000
  C   C155      1.0  0.11663  0.47995  0.26647  1.0000
  C   C156      1.0  0.11030  0.49574  0.14905  1.0000
  H   H95       1.0  0.06934  0.50761  0.03879  1.0000
  O  Te23      1.0  0.02028  0.44732  0.44203  1.0000
  O  Te24      1.0  0.09375  0.44805  0.48173  1.0000
  H   H96       1.0  0.13341  0.50826  0.07328  1.0000
  Mg  Mg12      1.0  0.04364  0.42951  0.58430  1.0000
  C   C157      1.0  0.39814  0.49181  0.91158  1.0000
  C   C158      1.0  0.36876  0.47719  0.81275  1.0000
  C  Sn25      1.0  0.37388  0.46010  0.69749  1.0000
  C  Sn26      1.0  0.40909  0.45765  0.68117  1.0000
  C   C159      1.0  0.43829  0.47234  0.78067  1.0000
  C   C160      1.0  0.43287  0.48939  0.89559  1.0000
  H   H97       1.0  0.39496  0.50749  0.00053  1.0000
  O  Te25      1.0  0.34424  0.44565  0.59971  1.0000
  O  Te26      1.0  0.41497  0.44071  0.56699  1.0000
  H   H98       1.0  0.45560  0.50068  0.97213  1.0000
  Mg  Mg13      1.0  0.36598  0.42519  0.46179  1.0000
  C   C161      1.0  0.49994  0.90630  0.88873  1.0000
  C   C162      1.0  0.51799  0.89315  0.79692  1.0000
  C  Sn27      1.0  0.53882  0.91705  0.68724  1.0000
  C  Sn28      1.0  0.54159  0.95480  0.66942  1.0000
  C   C163      1.0  0.52345  0.96770  0.76188  1.0000
  C   C164      1.0  0.50267  0.94354  0.87126  1.0000
  H   H99       1.0  0.48388  0.88762  0.97340  1.0000
  O  Te27      1.0  0.55666  0.90345  0.59644  1.0000
  O  Te28      1.0  0.56224  0.97930  0.56071  1.0000
  H   H100      1.0  0.48872  0.95374  0.94237  1.0000
  Mg  Mg14      1.0  0.58151  0.94761  0.46416  1.0000
  C   C165      1.0  0.06643  0.61988  0.67264  1.0000
  C   C166      1.0  0.09923  0.63329  0.75800  1.0000
  C  Sn29      1.0  0.09974  0.60813  0.85789  1.0000
  C  Sn30      1.0  0.06676  0.56884  0.87231  1.0000
  C   C167      1.0  0.03411  0.55570  0.78634  1.0000
  C   C168      1.0  0.03390  0.58112  0.68676  1.0000
  H   H101      1.0  0.06628  0.63954  0.59554  1.0000
  O  Te29      1.0  0.13273  0.62201  0.94235  1.0000
  O  Te30      1.0  0.06650  0.54307  0.97126  1.0000
  H   H102      1.0  0.00852  0.57073  0.62062  1.0000
  Mg  Mg15      1.0  0.11941  0.57824  0.06200  1.0000
  C   C169      1.0  0.59352  0.54621  0.66655  1.0000
  C   C170      1.0  0.55969  0.52379  0.74611  1.0000
  C  Sn31      1.0  0.56021  0.49893  0.84710  1.0000
  C  Sn32      1.0  0.59529  0.49655  0.86861  1.0000
  C   C171      1.0  0.62899  0.51913  0.78854  1.0000
  C   C172      1.0  0.62814  0.54389  0.68774  1.0000
  H   H103      1.0  0.59288  0.56539  0.58860  1.0000
  O  Te31      1.0  0.52614  0.47672  0.92564  1.0000
  O  Te32      1.0  0.59663  0.47196  0.96888  1.0000
  H   H104      1.0  0.65435  0.56127  0.62621  1.0000
  Mg  Mg16      1.0  0.54364  0.45001  0.04977  1.0000
  C   C173      1.0  0.50497  0.07843  0.88623  1.0000
  C   C174      1.0  0.48242  0.04377  0.81211  1.0000
  C  Sn33      1.0  0.45599  0.04256  0.71446  1.0000
  C  Sn34      1.0  0.45215  0.07672  0.69076  1.0000
  C   C175      1.0  0.47486  0.11125  0.76538  1.0000
  C   C176      1.0  0.50120  0.11214  0.86289  1.0000
  H   H105      1.0  0.52537  0.07912  0.96163  1.0000
  O  Te33      1.0  0.43367  0.00769  0.64135  1.0000
  O  Te34      1.0  0.42597  0.07632  0.59373  1.0000
  H   H106      1.0  0.51868  0.13898  0.92020  1.0000
  Mg  Mg17      1.0  0.40201  0.02178  0.52000  1.0000
  C   C177      1.0  0.91786  0.43046  0.85974  1.0000
  C   C178      1.0  0.95336  0.44304  0.78867  1.0000
  C  Sn35      1.0  0.95590  0.41817  0.69346  1.0000
  C  Sn36      1.0  0.92221  0.38003  0.66915  1.0000
  C   C179      1.0  0.88682  0.36774  0.74070  1.0000
  C   C180      1.0  0.88462  0.39286  0.83578  1.0000
  H   H107      1.0  0.91615  0.44990  0.93325  1.0000
  O  Te35      1.0  0.99160  0.43119  0.62339  1.0000
  O  Te36      1.0  0.92391  0.35459  0.57452  1.0000
  H   H108      1.0  0.85712  0.38313  0.89072  1.0000
  Mg  Mg18      1.0  0.97921  0.38576  0.50453  1.0000
  C   C181      1.0  0.45444  0.38274  0.87648  1.0000
  C   C182      1.0  0.47200  0.36993  0.78157  1.0000
  C  Sn37      1.0  0.49473  0.39537  0.67734  1.0000
  C  Sn38      1.0  0.49995  0.43434  0.66823  1.0000
  C   C183      1.0  0.48229  0.44689  0.76373  1.0000
  C   C184      1.0  0.45958  0.42118  0.86760  1.0000
  H   H109      1.0  0.43690  0.36286  0.95689  1.0000
  O  Te37      1.0  0.51205  0.38209  0.58334  1.0000
  O  Te38      1.0  0.52253  0.46039  0.56511  1.0000
  H   H110      1.0  0.44602  0.43112  0.94111  1.0000
  Mg  Mg19      1.0  0.54016  0.42855  0.46117  1.0000
  C   C185      1.0  0.62093  0.06407  0.82885  1.0000
  C   C186      1.0  0.63314  0.09924  0.75571  1.0000
  C  Sn39      1.0  0.60534  0.10451  0.68206  1.0000
  C  Sn40      1.0  0.56460  0.07394  0.68185  1.0000
  C   C187      1.0  0.55269  0.03887  0.75542  1.0000
  C   C188      1.0  0.58075  0.03391  0.82873  1.0000
  H   H111      1.0  0.64264  0.06023  0.88563  1.0000
  O  Te39      1.0  0.61805  0.13983  0.60951  1.0000
  O  Te40      1.0  0.53620  0.07843  0.60915  1.0000
  H   H112      1.0  0.57129  0.00669  0.88542  1.0000
  Mg  Mg20      1.0  0.56812  0.13195  0.52602  1.0000
  C   C189      1.0  0.92345  0.54209  0.88193  1.0000
  C   C190      1.0  0.89389  0.52805  0.78372  1.0000
  C  Sn41      1.0  0.89726  0.50874  0.67137  1.0000
  C  Sn42      1.0  0.93087  0.50342  0.65738  1.0000
  C   C191      1.0  0.96026  0.51755  0.75624  1.0000
  C   C192      1.0  0.95660  0.53684  0.86824  1.0000
  H   H113      1.0  0.92061  0.55699  0.96863  1.0000
  O  Te41      1.0  0.86746  0.49492  0.57417  1.0000
  O  Te42      1.0  0.93497  0.48422  0.54613  1.0000
  H   H114      1.0  0.97947  0.54768  0.94431  1.0000
  Mg  Mg21      1.0  0.88649  0.47064  0.44060  1.0000
  C   C193      1.0  0.48451  0.59009  0.69885  1.0000
  C   C194      1.0  0.51332  0.62523  0.75946  1.0000
  C  Sn43      1.0  0.54636  0.62665  0.82206  1.0000
  C  Sn44      1.0  0.55054  0.59221  0.82383  1.0000
  C   C195      1.0  0.52157  0.55721  0.76283  1.0000
  C   C196      1.0  0.48863  0.55611  0.70050  1.0000
  H   H115      1.0  0.45903  0.58924  0.65056  1.0000
  O  Te43      1.0  0.57486  0.66200  0.88218  1.0000
  O  Te44      1.0  0.58327  0.59281  0.88566  1.0000
  H   H116      1.0  0.46634  0.52891  0.65351  1.0000
  Mg  Mg22      1.0  0.61417  0.64801  0.95387  1.0000
  C   C197      1.0  0.42946  0.92290  0.65920  1.0000
  C   C198      1.0  0.44079  0.95640  0.73872  1.0000
  C  Sn45      1.0  0.41474  0.95605  0.83609  1.0000
  C  Sn46      1.0  0.37666  0.92146  0.85399  1.0000
  C   C199      1.0  0.36562  0.88809  0.77399  1.0000
  C   C200      1.0  0.39192  0.88877  0.67682  1.0000
  H   H117      1.0  0.44981  0.92342  0.58406  1.0000
  O  Te45      1.0  0.42653  0.98979  0.91464  1.0000
  O  Te46      1.0  0.35005  0.92030  0.95060  1.0000
  H   H118      1.0  0.38315  0.86281  0.61532  1.0000
  Mg  Mg23      1.0  0.38081  0.97624  0.03305  1.0000
  C   C201      1.0  0.04149  0.44384  0.81913  1.0000
  C   C202      1.0  0.03572  0.47491  0.77418  1.0000
  C  Sn47      1.0  0.06623  0.50752  0.70569  1.0000
  C  Sn48      1.0  0.10316  0.50897  0.68187  1.0000
  C   C203      1.0  0.10862  0.47772  0.72716  1.0000
  C   C204      1.0  0.07789  0.44524  0.79563  1.0000
  H   H119      1.0  0.01771  0.41869  0.87204  1.0000
  O  Te47      1.0  0.05998  0.53831  0.66152  1.0000
  O  Te48      1.0  0.13415  0.54120  0.61363  1.0000
  H   H120      1.0  0.08235  0.42117  0.83034  1.0000
  Mg  Mg24      1.0  0.11126  0.57590  0.57314  1.0000
