data_image0
_chemical_formula_structural       H80C88N16O16C2Sn2C2HTe2HMgC2Sn2C2HTe2HMgC2Sn2C2HTe2HMgC2Sn2C2HTe2HMgC2Sn2C2HTe2HMgC2Sn2C2HTe2HMgC2Sn2C2HTe2HMgC2Sn2C2HTe2HMgC2Sn2C2HTe2HMgC2Sn2C2HTe2HMgC2Sn2C2HTe2HMgC2Sn2C2HTe2HMgC2Sn2C2HTe2HMgC2Sn2C2HTe2HMgC2Sn2C2HTe2HMgC2Sn2C2HTe2HMg
_chemical_formula_sum              "H112 C152 N16 O16 Sn32 Te32 Mg16"
_cell_length_a       31.1222
_cell_length_b       22.9542
_cell_length_c       9.6195
_cell_angle_alpha    90.2343
_cell_angle_beta     92.2641
_cell_angle_gamma    90.0319

_symmetry_space_group_name_H-M    'P1'
_space_group_IT_number       1

loop_
  _space_group_symop_operation_xyz
  'x, y, z'

loop_
  _atom_site_type_symbol
  _atom_site_label
  _atom_site_symmetry_multiplicity
  _atom_site_fract_x
  _atom_site_fract_y
  _atom_site_fract_z
  _atom_site_occupancy
  H   H1        1.0  0.88092  0.36240  0.02516  1.0000
  H   H2        1.0  0.12093  0.64653  0.01881  1.0000
  H   H3        1.0  0.61829  0.86746  0.48680  1.0000
  H   H4        1.0  0.38053  0.13943  0.48725  1.0000
  H   H5        1.0  0.83480  0.41108  0.47190  1.0000
  H   H6        1.0  0.12746  0.63062  0.52255  1.0000
  H   H7        1.0  0.66476  0.90631  0.02430  1.0000
  H   H8        1.0  0.33156  0.09304  0.99998  1.0000
  H   H9        1.0  0.82961  0.34071  0.08442  1.0000
  H   H10       1.0  0.17496  0.66382  0.07407  1.0000
  H   H11       1.0  0.64559  0.80114  0.44536  1.0000
  H   H12       1.0  0.32665  0.15492  0.42758  1.0000
  H   H13       1.0  0.75342  0.43051  0.10717  1.0000
  H   H14       1.0  0.24706  0.57590  0.09015  1.0000
  H   H15       1.0  0.74642  0.92291  0.39240  1.0000
  H   H16       1.0  0.25657  0.07590  0.40009  1.0000
  H   H17       1.0  0.70515  0.42456  0.99771  1.0000
  H   H18       1.0  0.29462  0.58606  0.99161  1.0000
  H   H19       1.0  0.79376  0.92119  0.50743  1.0000
  H   H20       1.0  0.20945  0.07386  0.50408  1.0000
  H   H21       1.0  0.72515  0.36286  0.09376  1.0000
  H   H22       1.0  0.27302  0.64530  0.08851  1.0000
  H   H23       1.0  0.77504  0.85636  0.41980  1.0000
  H   H24       1.0  0.22387  0.13918  0.41640  1.0000
  H   H25       1.0  0.27271  0.32241  0.30354  1.0000
  H   H26       1.0  0.72659  0.66517  0.26978  1.0000
  H   H27       1.0  0.22829  0.82462  0.21545  1.0000
  H   H28       1.0  0.77596  0.16421  0.24078  1.0000
  H   H29       1.0  0.19980  0.27961  0.25294  1.0000
  H   H30       1.0  0.79864  0.70785  0.22442  1.0000
  H   H31       1.0  0.30180  0.78248  0.25618  1.0000
  H   H32       1.0  0.70327  0.20584  0.28206  1.0000
  H   H33       1.0  0.15463  0.20756  0.18081  1.0000
  H   H34       1.0  0.84280  0.78144  0.16148  1.0000
  H   H35       1.0  0.34796  0.70909  0.31729  1.0000
  H   H36       1.0  0.65823  0.27925  0.33427  1.0000
  H   H37       1.0  0.62198  0.74366  0.21092  1.0000
  H   H38       1.0  0.37600  0.24709  0.22135  1.0000
  H   H39       1.0  0.87983  0.24442  0.30350  1.0000
  H   H40       1.0  0.12601  0.74819  0.29975  1.0000
  H   H41       1.0  0.88414  0.37175  0.50504  1.0000
  H   H42       1.0  0.18124  0.64827  0.57972  1.0000
  H   H43       1.0  0.61441  0.86767  0.01373  1.0000
  H   H44       1.0  0.37865  0.13818  0.98776  1.0000
  H   H45       1.0  0.83545  0.41042  0.00423  1.0000
  H   H46       1.0  0.16382  0.59678  0.98320  1.0000
  H   H47       1.0  0.67341  0.86950  0.43919  1.0000
  H   H48       1.0  0.33766  0.08991  0.52521  1.0000
  H   H49       1.0  0.83548  0.34682  0.57753  1.0000
  H   H50       1.0  0.17115  0.58345  0.47886  1.0000
  H   H51       1.0  0.66080  0.83768  0.93504  1.0000
  H   H52       1.0  0.32733  0.16471  0.92712  1.0000
  H   H53       1.0  0.76569  0.40530  0.61265  1.0000
  H   H54       1.0  0.24822  0.58713  0.61683  1.0000
  H   H55       1.0  0.73903  0.91949  0.90368  1.0000
  H   H56       1.0  0.21585  0.13924  0.92739  1.0000
  H   H57       1.0  0.72363  0.43909  0.50677  1.0000
  H   H58       1.0  0.29031  0.56085  0.50879  1.0000
  H   H59       1.0  0.78676  0.92716  0.01551  1.0000
  H   H60       1.0  0.25204  0.08273  0.88172  1.0000
  H   H61       1.0  0.71862  0.36514  0.55924  1.0000
  H   H62       1.0  0.28973  0.63500  0.56567  1.0000
  H   H63       1.0  0.77444  0.85922  0.93164  1.0000
  H   H64       1.0  0.20823  0.06756  0.99404  1.0000
  H   H65       1.0  0.27576  0.33300  0.77238  1.0000
  H   H66       1.0  0.72861  0.67910  0.81502  1.0000
  H   H67       1.0  0.22437  0.83378  0.70780  1.0000
  H   H68       1.0  0.76978  0.17548  0.71475  1.0000
  H   H69       1.0  0.20281  0.29078  0.72049  1.0000
  H   H70       1.0  0.80083  0.72172  0.77291  1.0000
  H   H71       1.0  0.29749  0.79137  0.75565  1.0000
  H   H72       1.0  0.69755  0.21812  0.75787  1.0000
  H   H73       1.0  0.15750  0.21790  0.65629  1.0000
  H   H74       1.0  0.84535  0.79274  0.69766  1.0000
  H   H75       1.0  0.34290  0.72031  0.83100  1.0000
  H   H76       1.0  0.65313  0.29141  0.82704  1.0000
  H   H77       1.0  0.62389  0.75436  0.72156  1.0000
  H   H78       1.0  0.37933  0.25557  0.71411  1.0000
  H   H79       1.0  0.87442  0.25292  0.79361  1.0000
  H   H80       1.0  0.12125  0.75895  0.78604  1.0000
  C   C1        1.0  0.65034  0.71768  0.24159  1.0000
  C   C2        1.0  0.34860  0.27327  0.25310  1.0000
  C   C3        1.0  0.85174  0.21773  0.27324  1.0000
  C   C4        1.0  0.15317  0.77382  0.26424  1.0000
  C   C5        1.0  0.69218  0.74331  0.21574  1.0000
  C   C6        1.0  0.30615  0.24756  0.22854  1.0000
  C   C7        1.0  0.80960  0.24270  0.29852  1.0000
  C   C8        1.0  0.19588  0.74884  0.28792  1.0000
  C   C9        1.0  0.73596  0.82573  0.14044  1.0000
  C   C10       1.0  0.26096  0.16671  0.13905  1.0000
  C   C11       1.0  0.76464  0.32516  0.36815  1.0000
  C   C12       1.0  0.24213  0.66753  0.36529  1.0000
  C   C13       1.0  0.69538  0.80110  0.16675  1.0000
  C   C14       1.0  0.30205  0.19148  0.16794  1.0000
  C   C15       1.0  0.80571  0.30077  0.34726  1.0000
  C   C16       1.0  0.20078  0.69220  0.34417  1.0000
  C   C17       1.0  0.18020  0.17464  0.17385  1.0000
  C   C18       1.0  0.81756  0.81494  0.16745  1.0000
  C   C19       1.0  0.32234  0.67632  0.32647  1.0000
  C   C20       1.0  0.68338  0.31310  0.33661  1.0000
  C   C21       1.0  0.22365  0.19837  0.17360  1.0000
  C   C22       1.0  0.77376  0.79231  0.16561  1.0000
  C   C23       1.0  0.27900  0.70007  0.33111  1.0000
  C   C24       1.0  0.72728  0.29079  0.34139  1.0000
  C   C25       1.0  0.26874  0.27920  0.25816  1.0000
  C   C26       1.0  0.72997  0.70979  0.23434  1.0000
  C   C27       1.0  0.23291  0.78112  0.25770  1.0000
  C   C28       1.0  0.77213  0.20872  0.27720  1.0000
  C   C29       1.0  0.22868  0.25543  0.22885  1.0000
  C   C30       1.0  0.76950  0.73355  0.20770  1.0000
  C   C31       1.0  0.27335  0.75767  0.28137  1.0000
  C   C32       1.0  0.73216  0.23195  0.30075  1.0000
  C   C33       1.0  0.99698  0.96214  0.17298  1.0000
  C   C34       1.0  0.00245  0.02201  0.17408  1.0000
  C   C35       1.0  0.50478  0.46294  0.33167  1.0000
  C   C36       1.0  0.49935  0.52283  0.33141  1.0000
  C   C37       1.0  0.84924  0.36797  0.48739  1.0000
  C   C38       1.0  0.16130  0.62868  0.49545  1.0000
  C   C39       1.0  0.64947  0.86332  0.02278  1.0000
  C   C40       1.0  0.34407  0.13762  0.00563  1.0000
  C   C41       1.0  0.73414  0.40210  0.03732  1.0000
  C   C42       1.0  0.26508  0.60628  0.02690  1.0000
  C   C43       1.0  0.76527  0.89719  0.46868  1.0000
  C   C44       1.0  0.23631  0.10047  0.47032  1.0000
  C   C45       1.0  0.65184  0.72816  0.75526  1.0000
  C   C46       1.0  0.35141  0.28153  0.74241  1.0000
  C   C47       1.0  0.84634  0.22659  0.76130  1.0000
  C   C48       1.0  0.14887  0.78442  0.75340  1.0000
  C   C49       1.0  0.69412  0.75309  0.73277  1.0000
  C   C50       1.0  0.30915  0.25580  0.71271  1.0000
  C   C51       1.0  0.80424  0.25159  0.78605  1.0000
  C   C52       1.0  0.19119  0.75827  0.77797  1.0000
  C   C53       1.0  0.73823  0.83266  0.64357  1.0000
  C   C54       1.0  0.26376  0.17348  0.63285  1.0000
  C   C55       1.0  0.76025  0.33264  0.86960  1.0000
  C   C56       1.0  0.23672  0.67666  0.85990  1.0000
  C   C57       1.0  0.69756  0.80822  0.67011  1.0000
  C   C58       1.0  0.30495  0.19851  0.65883  1.0000
  C   C59       1.0  0.80094  0.30801  0.84418  1.0000
  C   C60       1.0  0.19549  0.70187  0.83591  1.0000
  C   C61       1.0  0.18265  0.18412  0.65821  1.0000
  C   C62       1.0  0.81957  0.82555  0.68916  1.0000
  C   C63       1.0  0.31767  0.68657  0.82909  1.0000
  C   C64       1.0  0.67902  0.32421  0.82828  1.0000
  C   C65       1.0  0.22645  0.20672  0.65798  1.0000
  C   C66       1.0  0.77609  0.80176  0.68501  1.0000
  C   C67       1.0  0.27389  0.70913  0.82857  1.0000
  C   C68       1.0  0.72247  0.30051  0.83344  1.0000
  C   C69       1.0  0.27167  0.28882  0.73297  1.0000
  C   C70       1.0  0.73199  0.72175  0.76802  1.0000
  C   C71       1.0  0.22858  0.79024  0.75008  1.0000
  C   C72       1.0  0.76639  0.21916  0.75703  1.0000
  C   C73       1.0  0.23159  0.26524  0.70320  1.0000
  C   C74       1.0  0.77165  0.74540  0.74278  1.0000
  C   C75       1.0  0.26871  0.76669  0.77809  1.0000
  C   C76       1.0  0.72674  0.24283  0.78262  1.0000
  C   C77       1.0  0.99626  0.98032  0.67512  1.0000
  C   C78       1.0  0.00197  0.04012  0.67360  1.0000
  C   C79       1.0  0.50279  0.47904  0.83223  1.0000
  C   C80       1.0  0.49707  0.53885  0.83255  1.0000
  C   C81       1.0  0.84609  0.36493  0.00431  1.0000
  C   C82       1.0  0.15478  0.64272  0.99265  1.0000
  C   C83       1.0  0.64915  0.84451  0.49305  1.0000
  C   C84       1.0  0.34653  0.13570  0.51189  1.0000
  C   C85       1.0  0.74128  0.39867  0.52843  1.0000
  C   C86       1.0  0.26972  0.59792  0.53288  1.0000
  C   C87       1.0  0.76078  0.89791  0.97973  1.0000
  C   C88       1.0  0.23218  0.09972  0.96438  1.0000
  N   N1        1.0  0.64814  0.66684  0.29911  1.0000
  N   N2        1.0  0.35276  0.32444  0.30917  1.0000
  N   N3        1.0  0.85424  0.16670  0.21587  1.0000
  N   N4        1.0  0.14856  0.82367  0.20285  1.0000
  N   N5        1.0  0.17163  0.11960  0.17967  1.0000
  N   N6        1.0  0.82732  0.86914  0.18773  1.0000
  N   N7        1.0  0.33070  0.62123  0.32161  1.0000
  N   N8        1.0  0.67374  0.36763  0.32411  1.0000
  N   N9        1.0  0.64850  0.67752  0.81257  1.0000
  N   N10       1.0  0.35443  0.33270  0.79966  1.0000
  N   N11       1.0  0.84956  0.17590  0.70307  1.0000
  N   N12       1.0  0.14544  0.83537  0.69617  1.0000
  N   N13       1.0  0.17300  0.12983  0.67417  1.0000
  N   N14       1.0  0.82815  0.88069  0.69569  1.0000
  N   N15       1.0  0.32707  0.63209  0.81490  1.0000
  N   N16       1.0  0.67066  0.37911  0.81405  1.0000
  O   O1        1.0  0.73542  0.88227  0.09723  1.0000
  O   O2        1.0  0.26059  0.11182  0.08418  1.0000
  O   O3        1.0  0.76287  0.38298  0.40256  1.0000
  O   O4        1.0  0.24354  0.61108  0.40911  1.0000
  O   O5        1.0  0.65811  0.83300  0.15318  1.0000
  O   O6        1.0  0.33936  0.16162  0.14431  1.0000
  O   O7        1.0  0.84315  0.33238  0.36310  1.0000
  O   O8        1.0  0.16388  0.66179  0.36778  1.0000
  O   O9        1.0  0.73718  0.88604  0.58244  1.0000
  O   O10       1.0  0.26333  0.11664  0.59064  1.0000
  O   O11       1.0  0.76111  0.38786  0.92257  1.0000
  O   O12       1.0  0.23712  0.62072  0.90787  1.0000
  O   O13       1.0  0.66032  0.83894  0.63998  1.0000
  O   O14       1.0  0.34211  0.16773  0.64102  1.0000
  O   O15       1.0  0.83843  0.33874  0.86780  1.0000
  O   O16       1.0  0.15822  0.67231  0.86042  1.0000
  C   C89       1.0  0.91463  0.95186  0.29981  1.0000
  C   C90       1.0  0.94867  0.93576  0.21736  1.0000
  C  Sn1       1.0  0.94226  0.89500  0.11029  1.0000
  C  Sn2       1.0  0.90095  0.86997  0.08554  1.0000
  C   C91       1.0  0.86709  0.88639  0.16855  1.0000
  C   C92       1.0  0.87387  0.92721  0.27544  1.0000
  H   H81       1.0  0.91986  0.98347  0.38247  1.0000
  O  Te1       1.0  0.97663  0.87939  0.02893  1.0000
  O  Te2       1.0  0.90586  0.83086  0.97919  1.0000
  H   H82       1.0  0.84750  0.93970  0.33920  1.0000
  Mg  Mg1       1.0  0.96287  0.82361  0.89644  1.0000
  C   C93       1.0  0.06088  0.11240  0.09294  1.0000
  C   C94       1.0  0.04731  0.06162  0.15785  1.0000
  C  Sn3       1.0  0.07591  0.03009  0.24411  1.0000
  C  Sn4       1.0  0.11887  0.04988  0.26561  1.0000
  C   C95       1.0  0.13212  0.10075  0.20027  1.0000
  C   C96       1.0  0.10324  0.13196  0.11413  1.0000
  H   H83       1.0  0.03853  0.13656  0.02634  1.0000
  O  Te3       1.0  0.06224  0.97944  0.30812  1.0000
  O  Te4       1.0  0.14812  0.01921  0.35134  1.0000
  H   H84       1.0  0.11374  0.17129  0.06395  1.0000
  Mg  Mg2       1.0  0.11409  0.95269  0.41557  1.0000
  C   C97       1.0  0.58923  0.45537  0.21691  1.0000
  C   C98       1.0  0.55362  0.43742  0.28979  1.0000
  C  Sn5       1.0  0.55772  0.39289  0.38800  1.0000
  C  Sn6       1.0  0.59827  0.36594  0.41354  1.0000
  C   C99       1.0  0.63370  0.38424  0.34015  1.0000
  C   C100      1.0  0.62924  0.42882  0.24206  1.0000
  H   H85       1.0  0.58579  0.48989  0.14107  1.0000
  O  Te5       1.0  0.52181  0.37547  0.45986  1.0000
  O  Te6       1.0  0.60327  0.32135  0.51117  1.0000
  H   H86       1.0  0.65682  0.44274  0.18572  1.0000
  Mg  Mg3       1.0  0.54481  0.31284  0.58267  1.0000
  C   C101      1.0  0.44102  0.61366  0.41047  1.0000
  C   C102      1.0  0.45464  0.56261  0.34600  1.0000
  C  Sn7       1.0  0.42619  0.53085  0.25897  1.0000
  C  Sn8       1.0  0.38333  0.55070  0.23624  1.0000
  C   C103      1.0  0.37002  0.60185  0.30114  1.0000
  C   C104      1.0  0.39876  0.63327  0.38806  1.0000
  H   H87       1.0  0.46326  0.63799  0.47767  1.0000
  O  Te7       1.0  0.44032  0.47993  0.19541  1.0000
  O  Te8       1.0  0.35423  0.51982  0.14972  1.0000
  H   H88       1.0  0.38821  0.67282  0.43790  1.0000
  Mg  Mg4       1.0  0.38868  0.45296  0.08653  1.0000
  C   C105      1.0  0.43731  0.34624  0.21519  1.0000
  C   C106      1.0  0.40211  0.34577  0.30101  1.0000
  C  Sn9       1.0  0.39956  0.38612  0.40950  1.0000
  C  Sn10      1.0  0.43290  0.42766  0.43222  1.0000
  C   C107      1.0  0.46796  0.42780  0.34572  1.0000
  C   C108      1.0  0.47020  0.38722  0.23749  1.0000
  H   H89       1.0  0.43903  0.31487  0.13139  1.0000
  O  Te9       1.0  0.36417  0.38503  0.49430  1.0000
  O  Te10      1.0  0.43115  0.46850  0.53987  1.0000
  H   H90       1.0  0.49744  0.38762  0.17100  1.0000
  Mg  Mg5       1.0  0.37638  0.44954  0.62746  1.0000
  C   C109      1.0  0.58569  0.55736  0.42550  1.0000
  C   C110      1.0  0.54459  0.56259  0.36291  1.0000
  C  Sn11      1.0  0.53554  0.60723  0.26791  1.0000
  C  Sn12      1.0  0.56832  0.64731  0.23515  1.0000
  C   C111      1.0  0.60935  0.64169  0.29826  1.0000
  C   C112      1.0  0.61804  0.59686  0.39321  1.0000
  H   H91       1.0  0.59242  0.52267  0.49891  1.0000
  O  Te11      1.0  0.49430  0.61183  0.20636  1.0000
  O  Te12      1.0  0.56017  0.69232  0.14052  1.0000
  H   H92       1.0  0.64987  0.59281  0.44159  1.0000
  Mg  Mg6       1.0  0.49891  0.68054  0.08391  1.0000
  C   C113      1.0  0.04288  0.86308  0.28292  1.0000
  C   C114      1.0  0.03366  0.90967  0.19358  1.0000
  C  Sn13      1.0  0.06256  0.92527  0.09262  1.0000
  C  Sn14      1.0  0.10139  0.89355  0.08112  1.0000
  C   C115      1.0  0.11030  0.84698  0.17093  1.0000
  C   C116      1.0  0.08116  0.83175  0.27161  1.0000
  H   H93       1.0  0.02033  0.85127  0.36077  1.0000
  O  Te13      1.0  0.05286  0.97194  0.00424  1.0000
  O  Te14      1.0  0.14304  0.90992  0.98112  1.0000
  H   H94       1.0  0.08829  0.79566  0.34071  1.0000
  Mg  Mg7       1.0  0.11538  0.97696  0.88468  1.0000
  C   C117      1.0  0.89659  0.07648  0.09119  1.0000
  C   C118      1.0  0.89185  0.12485  0.17791  1.0000
  C  Sn15      1.0  0.92662  0.14501  0.26100  1.0000
  C  Sn16      1.0  0.96685  0.11612  0.25695  1.0000
  C   C119      1.0  0.97127  0.06778  0.16978  1.0000
  C   C120      1.0  0.93626  0.04797  0.08710  1.0000
  H   H95       1.0  0.86952  0.06117  0.02716  1.0000
  O  Te15      1.0  0.92133  0.19339  0.34709  1.0000
  O  Te16      1.0  0.00213  0.13535  0.33888  1.0000
  H   H96       1.0  0.93995  0.01054  0.01990  1.0000
  Mg  Mg8       1.0  0.97892  0.20313  0.43935  1.0000
  C   C121      1.0  0.93629  0.88799  0.60468  1.0000
  C   C122      1.0  0.95119  0.94025  0.66404  1.0000
  C  Sn17      1.0  0.92489  0.97280  0.74947  1.0000
  C  Sn18      1.0  0.88292  0.95253  0.77580  1.0000
  C   C123      1.0  0.86833  0.90017  0.71599  1.0000
  C   C124      1.0  0.89490  0.86796  0.63063  1.0000
  H   H97       1.0  0.95686  0.86305  0.53869  1.0000
  O  Te17      1.0  0.93986  0.02493  0.80791  1.0000
  O  Te18      1.0  0.85597  0.98418  0.86082  1.0000
  H   H98       1.0  0.88337  0.82748  0.58476  1.0000
  Mg  Mg9       1.0  0.89108  0.05260  0.91660  1.0000
  C   C125      1.0  0.08905  0.04752  0.79007  1.0000
  C   C126      1.0  0.05213  0.06513  0.71423  1.0000
  C  Sn19      1.0  0.05487  0.10709  0.61014  1.0000
  C  Sn20      1.0  0.09537  0.13178  0.58165  1.0000
  C   C127      1.0  0.13213  0.11384  0.65804  1.0000
  C   C128      1.0  0.12902  0.07184  0.76200  1.0000
  H   H99       1.0  0.08665  0.01500  0.87046  1.0000
  O  Te19      1.0  0.01766  0.12421  0.53539  1.0000
  O  Te20      1.0  0.09903  0.17378  0.47815  1.0000
  H   H100      1.0  0.15762  0.05818  0.82064  1.0000
  Mg  Mg10      1.0  0.03910  0.18290  0.40458  1.0000
  C   C129      1.0  0.61002  0.45965  0.71825  1.0000
  C   C130      1.0  0.62725  0.41369  0.79726  1.0000
  C  Sn21      1.0  0.60169  0.38370  0.88939  1.0000
  C  Sn22      1.0  0.55808  0.40012  0.90242  1.0000
  C   C131      1.0  0.54115  0.44614  0.82284  1.0000
  C   C132      1.0  0.56701  0.47585  0.73099  1.0000
  H   H101      1.0  0.63003  0.48262  0.64713  1.0000
  O  Te21      1.0  0.61942  0.33791  0.96758  1.0000
  O  Te22      1.0  0.53182  0.37088  0.99367  1.0000
  H   H102      1.0  0.55366  0.51141  0.66977  1.0000
  Mg  Mg11      1.0  0.55851  0.30966  0.07781  1.0000
  C   C133      1.0  0.41051  0.54557  0.71202  1.0000
  C   C134      1.0  0.44716  0.56341  0.78941  1.0000
  C  Sn23      1.0  0.44435  0.60744  0.88936  1.0000
  C  Sn24      1.0  0.40406  0.63400  0.91203  1.0000
  C   C135      1.0  0.36758  0.61581  0.83413  1.0000
  C   C136      1.0  0.37075  0.57173  0.73435  1.0000
  H   H103      1.0  0.41296  0.51144  0.63487  1.0000
  O  Te23      1.0  0.48129  0.62475  0.96573  1.0000
  O  Te24      1.0  0.38813  0.67636  0.01130  1.0000
  H   H104      1.0  0.34237  0.55790  0.67451  1.0000
  Mg  Mg12      1.0  0.44765  0.68491  0.08921  1.0000
  C   C137      1.0  0.40055  0.42269  0.92609  1.0000
  C   C138      1.0  0.39271  0.37513  0.83752  1.0000
  C  Sn25      1.0  0.42429  0.35623  0.74845  1.0000
  C  Sn26      1.0  0.46443  0.38557  0.74831  1.0000
  C   C139      1.0  0.47196  0.43309  0.83738  1.0000
  C   C140      1.0  0.44013  0.45164  0.92605  1.0000
  H   H105      1.0  0.37593  0.43703  0.99475  1.0000
  O  Te25      1.0  0.41593  0.30865  0.66059  1.0000
  O  Te26      1.0  0.49656  0.36759  0.66038  1.0000
  H   H106      1.0  0.44621  0.48844  0.99468  1.0000
  Mg  Mg13      1.0  0.46987  0.30053  0.55966  1.0000
  C   C141      1.0  0.59972  0.59579  0.94542  1.0000
  C   C142      1.0  0.60930  0.63795  0.84693  1.0000
  C  Sn27      1.0  0.57853  0.65388  0.74442  1.0000
  C  Sn28      1.0  0.53743  0.62703  0.74072  1.0000
  C   C143      1.0  0.52814  0.58492  0.83978  1.0000
  C   C144      1.0  0.55917  0.56930  0.94188  1.0000
  H   H107      1.0  0.61151  0.58199  0.02447  1.0000
  O  Te27      1.0  0.58865  0.69608  0.64679  1.0000
  O  Te28      1.0  0.50607  0.64215  0.63943  1.0000
  H   H108      1.0  0.53952  0.53495  0.01817  1.0000
  Mg  Mg14      1.0  0.53518  0.70196  0.52902  1.0000
  C   C145      1.0  0.07964  0.94607  0.57649  1.0000
  C   C146      1.0  0.04043  0.94046  0.64114  1.0000
  C  Sn29      1.0  0.03428  0.89552  0.73585  1.0000
  C  Sn30      1.0  0.06808  0.85553  0.76622  1.0000
  C   C147      1.0  0.10720  0.86155  0.70107  1.0000
  C   C148      1.0  0.11300  0.90667  0.60643  1.0000
  H   H109      1.0  0.08414  0.98100  0.50333  1.0000
  O  Te29      1.0  0.99490  0.89052  0.79946  1.0000
  O  Te30      1.0  0.06281  0.81023  0.86050  1.0000
  H   H110      1.0  0.14337  0.91103  0.55646  1.0000
  Mg  Mg15      1.0  0.00325  0.82152  0.92050  1.0000
  C   C149      1.0  0.93605  0.15336  0.79862  1.0000
  C   C150      1.0  0.89908  0.15497  0.71144  1.0000
  C  Sn31      1.0  0.89483  0.11731  0.59724  1.0000
  C  Sn32      1.0  0.92827  0.07735  0.57011  1.0000
  C   C151      1.0  0.96512  0.07606  0.65801  1.0000
  C   C152      1.0  0.96904  0.11395  0.77197  1.0000
  H   H111      1.0  0.93908  0.18266  0.88684  1.0000
  O  Te31      1.0  0.85768  0.11950  0.51117  1.0000
  O  Te32      1.0  0.92485  0.03921  0.45673  1.0000
  H   H112      1.0  0.99766  0.11267  0.83950  1.0000
  Mg  Mg16      1.0  0.86801  0.05875  0.36955  1.0000
