data_image0
_chemical_formula_structural       H120C180N24O24C2Sn2C2HTe2HMgC2Sn2C2HTe2HMgC2Sn2C2HTe2HMgC2Sn2C2HTe2HMgC2Sn2C2HTe2HMgC2Sn2C2HTe2HMgC2Sn2C2HTe2HMgC2Sn2C2HTe2HMgC2Sn2C2HTe2HMgC2Sn2C2HTe2HMgC2Sn2C2HTe2HMgC2Sn2C2HTe2HMg
_chemical_formula_sum              "H144 C228 N24 O24 Sn24 Te24 Mg12"
_cell_length_a       38.608
_cell_length_b       38.6541
_cell_length_c       10.0224
_cell_angle_alpha    89.5567
_cell_angle_beta     90.0517
_cell_angle_gamma    119.978

_symmetry_space_group_name_H-M    'P1'
_space_group_IT_number       1

loop_
  _space_group_symop_operation_xyz
  'x, y, z'

loop_
  _atom_site_type_symbol
  _atom_site_label
  _atom_site_symmetry_multiplicity
  _atom_site_fract_x
  _atom_site_fract_y
  _atom_site_fract_z
  _atom_site_occupancy
  H   H1        1.0  0.52493  0.46101  0.11248  1.0000
  H   H2        1.0  0.54532  0.05037  0.07407  1.0000
  H   H3        1.0  0.45848  0.94083  0.09596  1.0000
  H   H4        1.0  0.52019  0.39493  0.09018  1.0000
  H   H5        1.0  0.61038  0.11379  0.05380  1.0000
  H   H6        1.0  0.39306  0.87837  0.07924  1.0000
  H   H7        1.0  0.43833  0.35068  0.42196  1.0000
  H   H8        1.0  0.64377  0.09184  0.44178  1.0000
  H   H9        1.0  0.35229  0.91168  0.42879  1.0000
  H   H10       1.0  0.44123  0.41608  0.43733  1.0000
  H   H11       1.0  0.57988  0.02791  0.45733  1.0000
  H   H12       1.0  0.41704  0.97529  0.43911  1.0000
  H   H13       1.0  0.46446  0.53011  0.43210  1.0000
  H   H14       1.0  0.46981  0.92816  0.42022  1.0000
  H   H15       1.0  0.54631  0.47227  0.42325  1.0000
  H   H16       1.0  0.53003  0.06893  0.41777  1.0000
  H   H17       1.0  0.40019  0.52891  0.42479  1.0000
  H   H18       1.0  0.47209  0.86572  0.41301  1.0000
  H   H19       1.0  0.61158  0.47615  0.41165  1.0000
  H   H20       1.0  0.52689  0.13095  0.41154  1.0000
  H   H21       1.0  0.41870  0.43121  0.16118  1.0000
  H   H22       1.0  0.57058  0.98422  0.15333  1.0000
  H   H23       1.0  0.58804  0.57270  0.15460  1.0000
  H   H24       1.0  0.43141  0.01438  0.14449  1.0000
  H   H25       1.0  0.35422  0.43069  0.15128  1.0000
  H   H26       1.0  0.57140  0.92040  0.13977  1.0000
  H   H27       1.0  0.65388  0.57577  0.13922  1.0000
  H   H28       1.0  0.42963  0.07772  0.13255  1.0000
  H   H29       1.0  0.33445  0.49683  0.46469  1.0000
  H   H30       1.0  0.50788  0.83507  0.45655  1.0000
  H   H31       1.0  0.16188  0.66948  0.45293  1.0000
  H   H32       1.0  0.67432  0.50692  0.44855  1.0000
  H   H33       1.0  0.49286  0.16197  0.45321  1.0000
  H   H34       1.0  0.83776  0.32563  0.44886  1.0000
  H   H35       1.0  0.29421  0.51918  0.54492  1.0000
  H   H36       1.0  0.48780  0.77430  0.54404  1.0000
  H   H37       1.0  0.22619  0.70720  0.53020  1.0000
  H   H38       1.0  0.70602  0.47116  0.49537  1.0000
  H   H39       1.0  0.52177  0.22667  0.52107  1.0000
  H   H40       1.0  0.77360  0.28907  0.52429  1.0000
  H   H41       1.0  0.23226  0.52334  0.54328  1.0000
  H   H42       1.0  0.48317  0.70807  0.54845  1.0000
  H   H43       1.0  0.29256  0.76891  0.53206  1.0000
  H   H44       1.0  0.76539  0.46215  0.48423  1.0000
  H   H45       1.0  0.52785  0.29373  0.51963  1.0000
  H   H46       1.0  0.70680  0.22796  0.52614  1.0000
  H   H47       1.0  0.17566  0.46926  0.14940  1.0000
  H   H48       1.0  0.53071  0.70092  0.14577  1.0000
  H   H49       1.0  0.29245  0.83330  0.15578  1.0000
  H   H50       1.0  0.84343  0.55219  0.17296  1.0000
  H   H51       1.0  0.45608  0.29051  0.16064  1.0000
  H   H52       1.0  0.70541  0.16666  0.14378  1.0000
  H   H53       1.0  0.24539  0.45532  0.06834  1.0000
  H   H54       1.0  0.54500  0.78424  0.05724  1.0000
  H   H55       1.0  0.20638  0.76769  0.08083  1.0000
  H   H56       1.0  0.78030  0.57794  0.11251  1.0000
  H   H57       1.0  0.43299  0.20330  0.09238  1.0000
  H   H58       1.0  0.79090  0.23254  0.06620  1.0000
  H   H59       1.0  0.16763  0.50600  0.43950  1.0000
  H   H60       1.0  0.49797  0.65937  0.44513  1.0000
  H   H61       1.0  0.33966  0.83472  0.43607  1.0000
  H   H62       1.0  0.83128  0.48174  0.39378  1.0000
  H   H63       1.0  0.50845  0.34027  0.42799  1.0000
  H   H64       1.0  0.65920  0.16278  0.42927  1.0000
  H   H65       1.0  0.53775  0.07124  0.62966  1.0000
  H   H66       1.0  0.45918  0.93846  0.60347  1.0000
  H   H67       1.0  0.60373  0.13297  0.62483  1.0000
  H   H68       1.0  0.39404  0.87546  0.59308  1.0000
  H   H69       1.0  0.65286  0.07529  0.86501  1.0000
  H   H70       1.0  0.35102  0.91451  0.92198  1.0000
  H   H71       1.0  0.58630  0.01395  0.87427  1.0000
  H   H72       1.0  0.41570  0.97846  0.92723  1.0000
  H   H73       1.0  0.44582  0.50513  0.97792  1.0000
  H   H74       1.0  0.48400  0.93939  0.94642  1.0000
  H   H75       1.0  0.93126  0.45969  0.91627  1.0000
  H   H76       1.0  0.37931  0.49941  0.97927  1.0000
  H   H77       1.0  0.48992  0.87882  0.95454  1.0000
  H   H78       1.0  0.86926  0.39468  0.91509  1.0000
  H   H79       1.0  0.41939  0.44432  0.60212  1.0000
  H   H80       1.0  0.55718  0.97951  0.59360  1.0000
  H   H81       1.0  0.98001  0.42065  0.60526  1.0000
  H   H82       1.0  0.35297  0.44022  0.60016  1.0000
  H   H83       1.0  0.56147  0.91750  0.59671  1.0000
  H   H84       1.0  0.91703  0.35537  0.60082  1.0000
  H   H85       1.0  0.34126  0.52008  0.88597  1.0000
  H   H86       1.0  0.47564  0.82286  0.86738  1.0000
  H   H87       1.0  0.16398  0.66959  0.95498  1.0000
  H   H88       1.0  0.66754  0.50891  0.96122  1.0000
  H   H89       1.0  0.49198  0.16366  0.96359  1.0000
  H   H90       1.0  0.83294  0.33208  0.93706  1.0000
  H   H91       1.0  0.30430  0.54825  0.93682  1.0000
  H   H92       1.0  0.44755  0.75855  0.91997  1.0000
  H   H93       1.0  0.23150  0.70075  0.00279  1.0000
  H   H94       1.0  0.70420  0.48026  0.03756  1.0000
  H   H95       1.0  0.52688  0.23097  0.01860  1.0000
  H   H96       1.0  0.76332  0.30068  0.97220  1.0000
  H   H97       1.0  0.24279  0.55357  0.92887  1.0000
  H   H98       1.0  0.44286  0.69206  0.92005  1.0000
  H   H99       1.0  0.29928  0.76084  0.99773  1.0000
  H   H100      1.0  0.76569  0.47508  0.03898  1.0000
  H   H101      1.0  0.53456  0.29862  0.01277  1.0000
  H   H102      1.0  0.69575  0.24047  0.95840  1.0000
  H   H103      1.0  0.15613  0.44414  0.69991  1.0000
  H   H104      1.0  0.55775  0.71656  0.72214  1.0000
  H   H105      1.0  0.28952  0.83810  0.67880  1.0000
  H   H106      1.0  0.82987  0.54041  0.66258  1.0000
  H   H107      1.0  0.45533  0.29191  0.67133  1.0000
  H   H108      1.0  0.71453  0.15959  0.68385  1.0000
  H   H109      1.0  0.21920  0.41916  0.64733  1.0000
  H   H110      1.0  0.58430  0.80515  0.66861  1.0000
  H   H111      1.0  0.20137  0.77564  0.61637  1.0000
  H   H112      1.0  0.76460  0.56079  0.58867  1.0000
  H   H113      1.0  0.42991  0.20417  0.61154  1.0000
  H   H114      1.0  0.80202  0.22496  0.61823  1.0000
  H   H115      1.0  0.17398  0.52832  0.85185  1.0000
  H   H116      1.0  0.47031  0.64935  0.85622  1.0000
  H   H117      1.0  0.34516  0.82875  0.91353  1.0000
  H   H118      1.0  0.83187  0.49414  0.94275  1.0000
  H   H119      1.0  0.51283  0.34466  0.92527  1.0000
  H   H120      1.0  0.65103  0.17378  0.86971  1.0000
  C   C1        1.0  0.48617  0.48310  0.28802  1.0000
  C   C2        1.0  0.51772  0.99817  0.28112  1.0000
  C   C3        1.0  0.00236  0.51447  0.26632  1.0000
  C   C4        1.0  0.52202  0.51862  0.28534  1.0000
  C   C5        1.0  0.48261  0.99929  0.27975  1.0000
  C   C6        1.0  0.00189  0.47861  0.26988  1.0000
  C   C7        1.0  0.44705  0.48140  0.29469  1.0000
  C   C8        1.0  0.51967  0.96096  0.28641  1.0000
  C   C9        1.0  0.56171  0.52168  0.28797  1.0000
  C   C10       1.0  0.48110  0.03679  0.28143  1.0000
  C   C11       1.0  0.41465  0.45254  0.21952  1.0000
  C   C12       1.0  0.54905  0.95829  0.21048  1.0000
  C   C13       1.0  0.59324  0.55157  0.21093  1.0000
  C   C14       1.0  0.45229  0.03987  0.20333  1.0000
  C   C15       1.0  0.37842  0.45193  0.21400  1.0000
  C   C16       1.0  0.54983  0.92284  0.20288  1.0000
  C   C17       1.0  0.63009  0.55349  0.20198  1.0000
  C   C18       1.0  0.45098  0.07509  0.19654  1.0000
  C   C19       1.0  0.37242  0.47947  0.28736  1.0000
  C   C20       1.0  0.52230  0.88881  0.27596  1.0000
  C   C21       1.0  0.63759  0.52653  0.27422  1.0000
  C   C22       1.0  0.47741  0.10848  0.27245  1.0000
  C   C23       1.0  0.40410  0.50734  0.36729  1.0000
  C   C24       1.0  0.49380  0.89166  0.35624  1.0000
  C   C25       1.0  0.60665  0.49742  0.35508  1.0000
  C   C26       1.0  0.50578  0.10543  0.35320  1.0000
  C   C27       1.0  0.44048  0.50817  0.37064  1.0000
  C   C28       1.0  0.49255  0.92691  0.36035  1.0000
  C   C29       1.0  0.56974  0.49525  0.36163  1.0000
  C   C30       1.0  0.50759  0.07042  0.35664  1.0000
  C   C31       1.0  0.48382  0.44364  0.27684  1.0000
  C   C32       1.0  0.55721  0.03552  0.26900  1.0000
  C   C33       1.0  0.44295  0.96216  0.27005  1.0000
  C   C34       1.0  0.45884  0.41171  0.36176  1.0000
  C   C35       1.0  0.58608  0.04695  0.36982  1.0000
  C   C36       1.0  0.41206  0.95389  0.36110  1.0000
  C   C37       1.0  0.45712  0.37487  0.35363  1.0000
  C   C38       1.0  0.62199  0.08307  0.36180  1.0000
  C   C39       1.0  0.37568  0.91811  0.35598  1.0000
  C   C40       1.0  0.47969  0.36873  0.25686  1.0000
  C   C41       1.0  0.63055  0.10812  0.24944  1.0000
  C   C42       1.0  0.36879  0.89018  0.25579  1.0000
  C   C43       1.0  0.50330  0.39978  0.16721  1.0000
  C   C44       1.0  0.60320  0.09537  0.14332  1.0000
  C   C45       1.0  0.39857  0.89929  0.15934  1.0000
  C   C46       1.0  0.50557  0.43664  0.17890  1.0000
  C   C47       1.0  0.56687  0.05991  0.15479  1.0000
  C   C48       1.0  0.43510  0.93444  0.16829  1.0000
  C   C49       1.0  0.32104  0.48952  0.36443  1.0000
  C   C50       1.0  0.51428  0.82846  0.35571  1.0000
  C   C51       1.0  0.16904  0.68336  0.35281  1.0000
  C   C52       1.0  0.68925  0.51724  0.35095  1.0000
  C   C53       1.0  0.48453  0.16804  0.35420  1.0000
  C   C54       1.0  0.83099  0.31309  0.34751  1.0000
  C   C55       1.0  0.28482  0.49201  0.35098  1.0000
  C   C56       1.0  0.51205  0.78989  0.34473  1.0000
  C   C57       1.0  0.20704  0.72082  0.34457  1.0000
  C   C58       1.0  0.72593  0.51541  0.33812  1.0000
  C   C59       1.0  0.48554  0.20620  0.34377  1.0000
  C   C60       1.0  0.79215  0.27686  0.33592  1.0000
  C   C61       1.0  0.25923  0.47830  0.23930  1.0000
  C   C62       1.0  0.52416  0.77689  0.23189  1.0000
  C   C63       1.0  0.21760  0.74932  0.24095  1.0000
  C   C64       1.0  0.75721  0.53894  0.24839  1.0000
  C   C65       1.0  0.46580  0.21591  0.24431  1.0000
  C   C66       1.0  0.78076  0.24966  0.22941  1.0000
  C   C67       1.0  0.22355  0.48010  0.23942  1.0000
  C   C68       1.0  0.52181  0.73921  0.23498  1.0000
  C   C69       1.0  0.25541  0.78450  0.24221  1.0000
  C   C70       1.0  0.79162  0.53490  0.24561  1.0000
  C   C71       1.0  0.46910  0.25400  0.24407  1.0000
  C   C72       1.0  0.74276  0.21470  0.23074  1.0000
  C   C73       1.0  0.21325  0.49596  0.34928  1.0000
  C   C74       1.0  0.50735  0.71416  0.34906  1.0000
  C   C75       1.0  0.28278  0.79187  0.34670  1.0000
  C   C76       1.0  0.79439  0.50662  0.32839  1.0000
  C   C77       1.0  0.49170  0.28239  0.34252  1.0000
  C   C78       1.0  0.71577  0.20645  0.33760  1.0000
  C   C79       1.0  0.23981  0.51085  0.45877  1.0000
  C   C80       1.0  0.49446  0.72714  0.46037  1.0000
  C   C81       1.0  0.27183  0.76319  0.45045  1.0000
  C   C82       1.0  0.76282  0.48320  0.41813  1.0000
  C   C83       1.0  0.51109  0.27222  0.44226  1.0000
  C   C84       1.0  0.72726  0.23419  0.44307  1.0000
  C   C85       1.0  0.27433  0.50855  0.45931  1.0000
  C   C86       1.0  0.49703  0.76402  0.45762  1.0000
  C   C87       1.0  0.23490  0.72888  0.44913  1.0000
  C   C88       1.0  0.72989  0.48816  0.42393  1.0000
  C   C89       1.0  0.50772  0.23499  0.44277  1.0000
  C   C90       1.0  0.76445  0.26817  0.44192  1.0000
  C   C91       1.0  0.17571  0.49548  0.34962  1.0000
  C   C92       1.0  0.50725  0.67689  0.35198  1.0000
  C   C93       1.0  0.32064  0.82859  0.34783  1.0000
  C   C94       1.0  0.82987  0.50324  0.32494  1.0000
  C   C95       1.0  0.49361  0.32056  0.34308  1.0000
  C   C96       1.0  0.67802  0.16966  0.33983  1.0000
  C   C97       1.0  0.47870  0.48116  0.77779  1.0000
  C   C98       1.0  0.51718  0.00103  0.76583  1.0000
  C   C99       1.0  0.99784  0.52013  0.76917  1.0000
  C   C100      1.0  0.51390  0.51719  0.77315  1.0000
  C   C101      1.0  0.48133  0.00059  0.77346  1.0000
  C   C102      1.0  0.99811  0.48468  0.76075  1.0000
  C   C103      1.0  0.43839  0.47701  0.78657  1.0000
  C   C104      1.0  0.51925  0.96359  0.76818  1.0000
  C   C105      1.0  0.96049  0.44540  0.76112  1.0000
  C   C106      1.0  0.41086  0.45703  0.68346  1.0000
  C   C107      1.0  0.54186  0.95719  0.67146  1.0000
  C   C108      1.0  0.95593  0.41500  0.67394  1.0000
  C   C109      1.0  0.37379  0.45472  0.68162  1.0000
  C   C110      1.0  0.54443  0.92260  0.67258  1.0000
  C   C111      1.0  0.92079  0.37828  0.67112  1.0000
  C   C112      1.0  0.36256  0.47199  0.78400  1.0000
  C   C113      1.0  0.52457  0.89285  0.77100  1.0000
  C   C114      1.0  0.88886  0.36991  0.75792  1.0000
  C   C115      1.0  0.38875  0.48924  0.89297  1.0000
  C   C116      1.0  0.50318  0.89980  0.87164  1.0000
  C   C117      1.0  0.89343  0.39997  0.84724  1.0000
  C   C118      1.0  0.42607  0.49188  0.89308  1.0000
  C   C119      1.0  0.50049  0.93433  0.86859  1.0000
  C   C120      1.0  0.92846  0.43675  0.84817  1.0000
  C   C121      1.0  0.55658  0.03812  0.75529  1.0000
  C   C122      1.0  0.44248  0.96277  0.76710  1.0000
  C   C123      1.0  0.59006  0.03988  0.81868  1.0000
  C   C124      1.0  0.41111  0.95582  0.85443  1.0000
  C   C125      1.0  0.62750  0.07417  0.81364  1.0000
  C   C126      1.0  0.37479  0.92002  0.85198  1.0000
  C   C127      1.0  0.63243  0.10845  0.74739  1.0000
  C   C128      1.0  0.36867  0.89054  0.75914  1.0000
  C   C129      1.0  0.59972  0.10696  0.68065  1.0000
  C   C130      1.0  0.39910  0.89774  0.66778  1.0000
  C   C131      1.0  0.56262  0.07211  0.68326  1.0000
  C   C132      1.0  0.43549  0.93319  0.67314  1.0000
  C   C133      1.0  0.31819  0.49501  0.82806  1.0000
  C   C134      1.0  0.50244  0.82585  0.81756  1.0000
  C   C135      1.0  0.16921  0.68404  0.85611  1.0000
  C   C136      1.0  0.68042  0.51405  0.85998  1.0000
  C   C137      1.0  0.48435  0.16985  0.86361  1.0000
  C   C138      1.0  0.82829  0.31764  0.83928  1.0000
  C   C139      1.0  0.28023  0.49441  0.82029  1.0000
  C   C140      1.0  0.50406  0.78910  0.81634  1.0000
  C   C141      1.0  0.20796  0.72049  0.84295  1.0000
  C   C142      1.0  0.71756  0.51291  0.85148  1.0000
  C   C143      1.0  0.48685  0.20870  0.85072  1.0000
  C   C144      1.0  0.79024  0.28041  0.82696  1.0000
  C   C145      1.0  0.24593  0.46494  0.75399  1.0000
  C   C146      1.0  0.53540  0.78505  0.76027  1.0000
  C   C147      1.0  0.21620  0.75184  0.75262  1.0000
  C   C148      1.0  0.74584  0.53078  0.74760  1.0000
  C   C149      1.0  0.46580  0.21788  0.75504  1.0000
  C   C150      1.0  0.78420  0.24853  0.74444  1.0000
  C   C151      1.0  0.21061  0.46741  0.75285  1.0000
  C   C152      1.0  0.53314  0.74741  0.76315  1.0000
  C   C153      1.0  0.25445  0.78651  0.75236  1.0000
  C   C154      1.0  0.78109  0.52823  0.74898  1.0000
  C   C155      1.0  0.46975  0.25623  0.75278  1.0000
  C   C156      1.0  0.74658  0.21307  0.74431  1.0000
  C   C157      1.0  0.20953  0.49990  0.81227  1.0000
  C   C158      1.0  0.49954  0.71349  0.81846  1.0000
  C   C159      1.0  0.28482  0.78979  0.83903  1.0000
  C   C160      1.0  0.78857  0.50811  0.85369  1.0000
  C   C161      1.0  0.49475  0.28577  0.84463  1.0000
  C   C162      1.0  0.71411  0.21044  0.81790  1.0000
  C   C163      1.0  0.24402  0.52928  0.87891  1.0000
  C   C164      1.0  0.46841  0.71791  0.87509  1.0000
  C   C165      1.0  0.27627  0.75805  0.92873  1.0000
  C   C166      1.0  0.76000  0.49032  0.95748  1.0000
  C   C167      1.0  0.51586  0.27630  0.94005  1.0000
  C   C168      1.0  0.72043  0.24285  0.89916  1.0000
  C   C169      1.0  0.27808  0.52620  0.88320  1.0000
  C   C170      1.0  0.47102  0.75480  0.87460  1.0000
  C   C171      1.0  0.23867  0.72468  0.93110  1.0000
  C   C172      1.0  0.72574  0.49310  0.95632  1.0000
  C   C173      1.0  0.51156  0.23866  0.94311  1.0000
  C   C174      1.0  0.75786  0.27636  0.90589  1.0000
  C   C175      1.0  0.17347  0.50224  0.80680  1.0000
  C   C176      1.0  0.49749  0.67532  0.81690  1.0000
  C   C177      1.0  0.32315  0.82594  0.83865  1.0000
  C   C178      1.0  0.82535  0.50703  0.85479  1.0000
  C   C179      1.0  0.49660  0.32396  0.84394  1.0000
  C   C180      1.0  0.67573  0.17447  0.81332  1.0000
  N   N1        1.0  0.33625  0.47884  0.26919  1.0000
  N   N2        1.0  0.52358  0.85371  0.25816  1.0000
  N   N3        1.0  0.14546  0.66738  0.25218  1.0000
  N   N4        1.0  0.67489  0.52933  0.25648  1.0000
  N   N5        1.0  0.47488  0.14317  0.25675  1.0000
  N   N6        1.0  0.85595  0.32921  0.24926  1.0000
  N   N7        1.0  0.47844  0.33164  0.24683  1.0000
  N   N8        1.0  0.66628  0.14513  0.23912  1.0000
  N   N9        1.0  0.85962  0.52522  0.24515  1.0000
  N   N10       1.0  0.51794  0.66425  0.24778  1.0000
  N   N11       1.0  0.33230  0.85369  0.24753  1.0000
  N   N12       1.0  0.15194  0.48298  0.24643  1.0000
  N   N13       1.0  0.32520  0.46928  0.77039  1.0000
  N   N14       1.0  0.52885  0.85905  0.76247  1.0000
  N   N15       1.0  0.14334  0.66992  0.76065  1.0000
  N   N16       1.0  0.66393  0.52062  0.75791  1.0000
  N   N17       1.0  0.47422  0.14487  0.76622  1.0000
  N   N18       1.0  0.85409  0.33265  0.74324  1.0000
  N   N19       1.0  0.47943  0.33369  0.75054  1.0000
  N   N20       1.0  0.67051  0.14330  0.74733  1.0000
  N   N21       1.0  0.85007  0.52071  0.75375  1.0000
  N   N22       1.0  0.52726  0.67155  0.77263  1.0000
  N   N23       1.0  0.33145  0.85458  0.75292  1.0000
  N   N24       1.0  0.14083  0.47386  0.75345  1.0000
  O   O1        1.0  0.26720  0.46223  0.13185  1.0000
  O   O2        1.0  0.53890  0.79978  0.12019  1.0000
  O   O3        1.0  0.19209  0.74446  0.14000  1.0000
  O   O4        1.0  0.75581  0.56633  0.16635  1.0000
  O   O5        1.0  0.44281  0.18936  0.14940  1.0000
  O   O6        1.0  0.80573  0.25526  0.12583  1.0000
  O   O7        1.0  0.19981  0.46525  0.13126  1.0000
  O   O8        1.0  0.53471  0.72894  0.12489  1.0000
  O   O9        1.0  0.26358  0.81065  0.14010  1.0000
  O   O10       1.0  0.82115  0.55916  0.16023  1.0000
  O   O11       1.0  0.44924  0.26146  0.14689  1.0000
  O   O12       1.0  0.73424  0.18955  0.12677  1.0000
  O   O13       1.0  0.24561  0.43418  0.68880  1.0000
  O   O14       1.0  0.56768  0.81600  0.70060  1.0000
  O   O15       1.0  0.18818  0.75054  0.66733  1.0000
  O   O16       1.0  0.74113  0.55175  0.64658  1.0000
  O   O17       1.0  0.44056  0.19051  0.66622  1.0000
  O   O18       1.0  0.81391  0.25017  0.66705  1.0000
  O   O19       1.0  0.17889  0.43781  0.68860  1.0000
  O   O20       1.0  0.56412  0.74563  0.70744  1.0000
  O   O21       1.0  0.26006  0.81601  0.66636  1.0000
  O   O22       1.0  0.80710  0.54662  0.64700  1.0000
  O   O23       1.0  0.44788  0.26252  0.66017  1.0000
  O   O24       1.0  0.74338  0.18269  0.66903  1.0000
  C   C181      1.0  0.90309  0.40503  0.37484  1.0000
  C   C182      1.0  0.89162  0.37285  0.28876  1.0000
  C  Sn1       1.0  0.91898  0.37297  0.19734  1.0000
  C  Sn2       1.0  0.95853  0.40595  0.19227  1.0000
  C   C183      1.0  0.96971  0.43798  0.27888  1.0000
  C   C184      1.0  0.94209  0.43756  0.36994  1.0000
  H   H121      1.0  0.88172  0.40470  0.44534  1.0000
  O  Te1       1.0  0.90702  0.34058  0.11203  1.0000
  O  Te2       1.0  0.98648  0.40683  0.10191  1.0000
  H   H122      1.0  0.95099  0.46247  0.43663  1.0000
  Mg  Mg1       1.0  0.95592  0.35565  0.00621  1.0000
  C   C185      1.0  0.94415  0.54421  0.87800  1.0000
  C   C186      1.0  0.95827  0.52614  0.79002  1.0000
  C  Sn3       1.0  0.93620  0.50657  0.67685  1.0000
  C  Sn4       1.0  0.89933  0.50512  0.65154  1.0000
  C   C187      1.0  0.88548  0.52331  0.74013  1.0000
  C   C188      1.0  0.90780  0.54280  0.85309  1.0000
  H   H123      1.0  0.96143  0.55931  0.96537  1.0000
  O  Te3       1.0  0.95073  0.48867  0.59001  1.0000
  O  Te4       1.0  0.87668  0.48577  0.53917  1.0000
  H   H124      1.0  0.89688  0.55681  0.92114  1.0000
  Mg  Mg2       1.0  0.90904  0.46585  0.45037  1.0000
  C   C189      1.0  0.08112  0.51619  0.67796  1.0000
  C   C190      1.0  0.04299  0.48845  0.72475  1.0000
  C  Sn5       1.0  0.03668  0.45400  0.79222  1.0000
  C  Sn6       1.0  0.06921  0.44729  0.81310  1.0000
  C   C191      1.0  0.10725  0.47524  0.76597  1.0000
  C   C192      1.0  0.11322  0.50960  0.69855  1.0000
  H   H125      1.0  0.08574  0.54279  0.62586  1.0000
  O  Te5       1.0  0.99839  0.42659  0.83827  1.0000
  O  Te6       1.0  0.06375  0.41312  0.88025  1.0000
  H   H126      1.0  0.14275  0.53109  0.66241  1.0000
  Mg  Mg3       1.0  0.00598  0.38453  0.92415  1.0000
  C   C193      1.0  0.04873  0.59593  0.17486  1.0000
  C   C194      1.0  0.04047  0.56101  0.24348  1.0000
  C  Sn7       1.0  0.06856  0.56097  0.33137  1.0000
  C  Sn8       1.0  0.10557  0.59660  0.35075  1.0000
  C   C195      1.0  0.11353  0.63139  0.28170  1.0000
  C   C196      1.0  0.08522  0.63109  0.19395  1.0000
  H   H127      1.0  0.02682  0.59572  0.10702  1.0000
  O  Te7       1.0  0.05984  0.52581  0.39909  1.0000
  O  Te8       1.0  0.13417  0.59740  0.43804  1.0000
  H   H128      1.0  0.09161  0.65814  0.14090  1.0000
  Mg  Mg4       1.0  0.10841  0.54190  0.50743  1.0000
  C   C197      1.0  0.93660  0.55119  0.34634  1.0000
  C   C198      1.0  0.90307  0.53074  0.26486  1.0000
  C  Sn9       1.0  0.89996  0.50091  0.17953  1.0000
  C  Sn10      1.0  0.93102  0.49143  0.17595  1.0000
  C   C199      1.0  0.96443  0.51205  0.25793  1.0000
  C   C200      1.0  0.96725  0.54186  0.34291  1.0000
  H   H129      1.0  0.93878  0.57424  0.41215  1.0000
  O  Te9       1.0  0.86626  0.48077  0.09875  1.0000
  O  Te10      1.0  0.92867  0.46174  0.09164  1.0000
  H   H130      1.0  0.99320  0.55767  0.40605  1.0000
  Mg  Mg5       1.0  0.87680  0.44269  0.00050  1.0000
  C   C201      1.0  0.50497  0.07843  0.88623  1.0000
  C   C202      1.0  0.48242  0.04377  0.81211  1.0000
  C  Sn11      1.0  0.45599  0.04256  0.71446  1.0000
  C  Sn12      1.0  0.45215  0.07672  0.69076  1.0000
  C   C203      1.0  0.47486  0.11125  0.76538  1.0000
  C   C204      1.0  0.50120  0.11214  0.86289  1.0000
  H   H131      1.0  0.52537  0.07912  0.96163  1.0000
  O  Te11      1.0  0.43367  0.00769  0.64135  1.0000
  O  Te12      1.0  0.42597  0.07632  0.59373  1.0000
  H   H132      1.0  0.51868  0.13898  0.92020  1.0000
  Mg  Mg6       1.0  0.40201  0.02178  0.52000  1.0000
  C   C205      1.0  0.50219  0.40971  0.64478  1.0000
  C   C206      1.0  0.48513  0.37716  0.73292  1.0000
  C  Sn13      1.0  0.46212  0.37687  0.84090  1.0000
  C  Sn14      1.0  0.45612  0.40981  0.86074  1.0000
  C   C207      1.0  0.47329  0.44222  0.77195  1.0000
  C   C208      1.0  0.49627  0.44221  0.66424  1.0000
  H   H133      1.0  0.51995  0.40970  0.56141  1.0000
  O  Te13      1.0  0.44531  0.34411  0.92803  1.0000
  O  Te14      1.0  0.43324  0.41028  0.96782  1.0000
  H   H134      1.0  0.50945  0.46740  0.59597  1.0000
  Mg  Mg7       1.0  0.41755  0.36121  0.05930  1.0000
  C   C209      1.0  0.54205  0.59584  0.38999  1.0000
  C   C210      1.0  0.52683  0.56391  0.30115  1.0000
  C  Sn15      1.0  0.50991  0.56621  0.18049  1.0000
  C  Sn16      1.0  0.50824  0.60116  0.14844  1.0000
  C   C211      1.0  0.52357  0.63295  0.23795  1.0000
  C   C212      1.0  0.54042  0.63034  0.35843  1.0000
  H   H135      1.0  0.55511  0.59383  0.48319  1.0000
  O  Te15      1.0  0.49484  0.53402  0.09289  1.0000
  O  Te16      1.0  0.49150  0.60425  0.02850  1.0000
  H   H136      1.0  0.55222  0.65508  0.42716  1.0000
  Mg  Mg8       1.0  0.47389  0.54993  0.94170  1.0000
  C   C213      1.0  0.56747  0.49181  0.87996  1.0000
  C   C214      1.0  0.55542  0.51403  0.80198  1.0000
  C  Sn17      1.0  0.58018  0.53900  0.70012  1.0000
  C  Sn18      1.0  0.61767  0.54171  0.67610  1.0000
  C   C215      1.0  0.62944  0.51934  0.75461  1.0000
  C   C216      1.0  0.60444  0.49445  0.85630  1.0000
  H   H137      1.0  0.54812  0.47254  0.95860  1.0000
  O  Te17      1.0  0.56769  0.56100  0.62318  1.0000
  O  Te18      1.0  0.64300  0.56642  0.57491  1.0000
  H   H138      1.0  0.61376  0.47723  0.91660  1.0000
  Mg  Mg9       1.0  0.61271  0.59051  0.49693  1.0000
  C   C217      1.0  0.48175  0.56929  0.70447  1.0000
  C   C218      1.0  0.50955  0.55816  0.74407  1.0000
  C  Sn19      1.0  0.54546  0.58597  0.80351  1.0000
  C  Sn20      1.0  0.55361  0.62563  0.82358  1.0000
  C   C219      1.0  0.52559  0.63647  0.78370  1.0000
  C   C220      1.0  0.48975  0.60841  0.72427  1.0000
  H   H139      1.0  0.45401  0.54757  0.65856  1.0000
  O  Te19      1.0  0.57291  0.57435  0.84244  1.0000
  O  Te20      1.0  0.58926  0.65403  0.88280  1.0000
  H   H140      1.0  0.46822  0.61703  0.69370  1.0000
  Mg  Mg10      1.0  0.61728  0.62381  0.91887  1.0000
  C   C221      1.0  0.07422  0.49537  0.12961  1.0000
  C   C222      1.0  0.04440  0.47922  0.22754  1.0000
  C  Sn21      1.0  0.05040  0.46335  0.34524  1.0000
  C  Sn22      1.0  0.08697  0.46370  0.36501  1.0000
  C   C223      1.0  0.11663  0.47995  0.26647  1.0000
  C   C224      1.0  0.11030  0.49574  0.14905  1.0000
  H   H141      1.0  0.06934  0.50761  0.03879  1.0000
  O  Te21      1.0  0.02028  0.44732  0.44203  1.0000
  O  Te22      1.0  0.09375  0.44805  0.48173  1.0000
  H   H142      1.0  0.13341  0.50826  0.07328  1.0000
  Mg  Mg11      1.0  0.04364  0.42951  0.58430  1.0000
  C   C225      1.0  0.09429  0.59369  0.88837  1.0000
  C   C226      1.0  0.10727  0.62604  0.80022  1.0000
  C  Sn23      1.0  0.08160  0.62605  0.70188  1.0000
  C  Sn24      1.0  0.04223  0.59302  0.69186  1.0000
  C   C227      1.0  0.02952  0.56081  0.78058  1.0000
  C   C228      1.0  0.05545  0.56111  0.87859  1.0000
  H   H143      1.0  0.11434  0.59392  0.96425  1.0000
  O  Te23      1.0  0.09506  0.65861  0.61460  1.0000
  O  Te24      1.0  0.01595  0.59227  0.59454  1.0000
  H   H144      1.0  0.04539  0.53606  0.94688  1.0000
  Mg  Mg12      1.0  0.04815  0.64367  0.49869  1.0000
