data_image0
_chemical_formula_structural       H72C108N24O24SnCSn2CSnTe4Mg2SnCSn2CSnTe4Mg2SnCSn2CSnTe4Mg2SnCSn2CSnTe4Mg2SnCSn2CSnTe4Mg2SnCSn2CSnTe4Mg2SnCSn2CSnTe4Mg2SnCSn2CSnTe4Mg2SnCSn2CSnTe4Mg2SnCSn2CSnTe4Mg2SnCSn2CSnTe4Mg2SnCSn2CSnTe4Mg2SnCSn2CSnTe4Mg2SnCSn2CSnTe4Mg2SnCSn2CSnTe4Mg2SnCSn2CSnTe4Mg2SnCSn2CSnTe4Mg2SnCSn2CSnTe4Mg2SnCSn2CSnTe4Mg2SnCSn2CSnTe4Mg2SnCSn2CSnTe4Mg2SnCSn2CSnTe4Mg2SnCSn2CSnTe4Mg2SnCSn2CSnTe4Mg2
_chemical_formula_sum              "H72 C156 N24 O24 Sn96 Te96 Mg48"
_cell_length_a       38.608
_cell_length_b       38.6541
_cell_length_c       10.0224
_cell_angle_alpha    89.5567
_cell_angle_beta     90.0517
_cell_angle_gamma    119.978

_symmetry_space_group_name_H-M    'P1'
_space_group_IT_number       1

loop_
  _space_group_symop_operation_xyz
  'x, y, z'

loop_
  _atom_site_type_symbol
  _atom_site_label
  _atom_site_symmetry_multiplicity
  _atom_site_fract_x
  _atom_site_fract_y
  _atom_site_fract_z
  _atom_site_occupancy
  H   H1        1.0  0.33445  0.49683  0.46469  1.0000
  H   H2        1.0  0.50788  0.83507  0.45655  1.0000
  H   H3        1.0  0.16188  0.66948  0.45293  1.0000
  H   H4        1.0  0.67432  0.50692  0.44855  1.0000
  H   H5        1.0  0.49286  0.16197  0.45321  1.0000
  H   H6        1.0  0.83776  0.32563  0.44886  1.0000
  H   H7        1.0  0.29421  0.51918  0.54492  1.0000
  H   H8        1.0  0.48780  0.77430  0.54404  1.0000
  H   H9        1.0  0.22619  0.70720  0.53020  1.0000
  H   H10       1.0  0.70602  0.47116  0.49537  1.0000
  H   H11       1.0  0.52177  0.22667  0.52107  1.0000
  H   H12       1.0  0.77360  0.28907  0.52429  1.0000
  H   H13       1.0  0.23226  0.52334  0.54328  1.0000
  H   H14       1.0  0.48317  0.70807  0.54845  1.0000
  H   H15       1.0  0.29256  0.76891  0.53206  1.0000
  H   H16       1.0  0.76539  0.46215  0.48423  1.0000
  H   H17       1.0  0.52785  0.29373  0.51963  1.0000
  H   H18       1.0  0.70680  0.22796  0.52614  1.0000
  H   H19       1.0  0.17566  0.46926  0.14940  1.0000
  H   H20       1.0  0.53071  0.70092  0.14577  1.0000
  H   H21       1.0  0.29245  0.83330  0.15578  1.0000
  H   H22       1.0  0.84343  0.55219  0.17296  1.0000
  H   H23       1.0  0.45608  0.29051  0.16064  1.0000
  H   H24       1.0  0.70541  0.16666  0.14378  1.0000
  H   H25       1.0  0.24539  0.45532  0.06834  1.0000
  H   H26       1.0  0.54500  0.78424  0.05724  1.0000
  H   H27       1.0  0.20638  0.76769  0.08083  1.0000
  H   H28       1.0  0.78030  0.57794  0.11251  1.0000
  H   H29       1.0  0.43299  0.20330  0.09238  1.0000
  H   H30       1.0  0.79090  0.23254  0.06620  1.0000
  H   H31       1.0  0.16763  0.50600  0.43950  1.0000
  H   H32       1.0  0.49797  0.65937  0.44513  1.0000
  H   H33       1.0  0.33966  0.83472  0.43607  1.0000
  H   H34       1.0  0.83128  0.48174  0.39378  1.0000
  H   H35       1.0  0.50845  0.34027  0.42799  1.0000
  H   H36       1.0  0.65920  0.16278  0.42927  1.0000
  H   H37       1.0  0.34126  0.52008  0.88597  1.0000
  H   H38       1.0  0.47564  0.82286  0.86738  1.0000
  H   H39       1.0  0.16398  0.66959  0.95498  1.0000
  H   H40       1.0  0.66754  0.50891  0.96122  1.0000
  H   H41       1.0  0.49198  0.16366  0.96359  1.0000
  H   H42       1.0  0.83294  0.33208  0.93706  1.0000
  H   H43       1.0  0.30430  0.54825  0.93682  1.0000
  H   H44       1.0  0.44755  0.75855  0.91997  1.0000
  H   H45       1.0  0.23150  0.70075  0.00279  1.0000
  H   H46       1.0  0.70420  0.48026  0.03756  1.0000
  H   H47       1.0  0.52688  0.23097  0.01860  1.0000
  H   H48       1.0  0.76332  0.30068  0.97220  1.0000
  H   H49       1.0  0.24279  0.55357  0.92887  1.0000
  H   H50       1.0  0.44286  0.69206  0.92005  1.0000
  H   H51       1.0  0.29928  0.76084  0.99773  1.0000
  H   H52       1.0  0.76569  0.47508  0.03898  1.0000
  H   H53       1.0  0.53456  0.29862  0.01277  1.0000
  H   H54       1.0  0.69575  0.24047  0.95840  1.0000
  H   H55       1.0  0.15613  0.44414  0.69991  1.0000
  H   H56       1.0  0.55775  0.71656  0.72214  1.0000
  H   H57       1.0  0.28952  0.83810  0.67880  1.0000
  H   H58       1.0  0.82987  0.54041  0.66258  1.0000
  H   H59       1.0  0.45533  0.29191  0.67133  1.0000
  H   H60       1.0  0.71453  0.15959  0.68385  1.0000
  H   H61       1.0  0.21920  0.41916  0.64733  1.0000
  H   H62       1.0  0.58430  0.80515  0.66861  1.0000
  H   H63       1.0  0.20137  0.77564  0.61637  1.0000
  H   H64       1.0  0.76460  0.56079  0.58867  1.0000
  H   H65       1.0  0.42991  0.20417  0.61154  1.0000
  H   H66       1.0  0.80202  0.22496  0.61823  1.0000
  H   H67       1.0  0.17398  0.52832  0.85185  1.0000
  H   H68       1.0  0.47031  0.64935  0.85622  1.0000
  H   H69       1.0  0.34516  0.82875  0.91353  1.0000
  H   H70       1.0  0.83187  0.49414  0.94275  1.0000
  H   H71       1.0  0.51283  0.34466  0.92527  1.0000
  H   H72       1.0  0.65103  0.17378  0.86971  1.0000
  C   C1        1.0  0.48617  0.48310  0.28802  1.0000
  C   C2        1.0  0.51772  0.99817  0.28112  1.0000
  C   C3        1.0  0.00236  0.51447  0.26632  1.0000
  C   C4        1.0  0.52202  0.51862  0.28534  1.0000
  C   C5        1.0  0.48261  0.99929  0.27975  1.0000
  C   C6        1.0  0.00189  0.47861  0.26988  1.0000
  C   C7        1.0  0.32104  0.48952  0.36443  1.0000
  C   C8        1.0  0.51428  0.82846  0.35571  1.0000
  C   C9        1.0  0.16904  0.68336  0.35281  1.0000
  C   C10       1.0  0.68925  0.51724  0.35095  1.0000
  C   C11       1.0  0.48453  0.16804  0.35420  1.0000
  C   C12       1.0  0.83099  0.31309  0.34751  1.0000
  C   C13       1.0  0.28482  0.49201  0.35098  1.0000
  C   C14       1.0  0.51205  0.78989  0.34473  1.0000
  C   C15       1.0  0.20704  0.72082  0.34457  1.0000
  C   C16       1.0  0.72593  0.51541  0.33812  1.0000
  C   C17       1.0  0.48554  0.20620  0.34377  1.0000
  C   C18       1.0  0.79215  0.27686  0.33592  1.0000
  C   C19       1.0  0.25923  0.47830  0.23930  1.0000
  C   C20       1.0  0.52416  0.77689  0.23189  1.0000
  C   C21       1.0  0.21760  0.74932  0.24095  1.0000
  C   C22       1.0  0.75721  0.53894  0.24839  1.0000
  C   C23       1.0  0.46580  0.21591  0.24431  1.0000
  C   C24       1.0  0.78076  0.24966  0.22941  1.0000
  C   C25       1.0  0.22355  0.48010  0.23942  1.0000
  C   C26       1.0  0.52181  0.73921  0.23498  1.0000
  C   C27       1.0  0.25541  0.78450  0.24221  1.0000
  C   C28       1.0  0.79162  0.53490  0.24561  1.0000
  C   C29       1.0  0.46910  0.25400  0.24407  1.0000
  C   C30       1.0  0.74276  0.21470  0.23074  1.0000
  C   C31       1.0  0.21325  0.49596  0.34928  1.0000
  C   C32       1.0  0.50735  0.71416  0.34906  1.0000
  C   C33       1.0  0.28278  0.79187  0.34670  1.0000
  C   C34       1.0  0.79439  0.50662  0.32839  1.0000
  C   C35       1.0  0.49170  0.28239  0.34252  1.0000
  C   C36       1.0  0.71577  0.20645  0.33760  1.0000
  C   C37       1.0  0.23981  0.51085  0.45877  1.0000
  C   C38       1.0  0.49446  0.72714  0.46037  1.0000
  C   C39       1.0  0.27183  0.76319  0.45045  1.0000
  C   C40       1.0  0.76282  0.48320  0.41813  1.0000
  C   C41       1.0  0.51109  0.27222  0.44226  1.0000
  C   C42       1.0  0.72726  0.23419  0.44307  1.0000
  C   C43       1.0  0.27433  0.50855  0.45931  1.0000
  C   C44       1.0  0.49703  0.76402  0.45762  1.0000
  C   C45       1.0  0.23490  0.72888  0.44913  1.0000
  C   C46       1.0  0.72989  0.48816  0.42393  1.0000
  C   C47       1.0  0.50772  0.23499  0.44277  1.0000
  C   C48       1.0  0.76445  0.26817  0.44192  1.0000
  C   C49       1.0  0.17571  0.49548  0.34962  1.0000
  C   C50       1.0  0.50725  0.67689  0.35198  1.0000
  C   C51       1.0  0.32064  0.82859  0.34783  1.0000
  C   C52       1.0  0.82987  0.50324  0.32494  1.0000
  C   C53       1.0  0.49361  0.32056  0.34308  1.0000
  C   C54       1.0  0.67802  0.16966  0.33983  1.0000
  C   C55       1.0  0.47870  0.48116  0.77779  1.0000
  C   C56       1.0  0.51718  0.00103  0.76583  1.0000
  C   C57       1.0  0.99784  0.52013  0.76917  1.0000
  C   C58       1.0  0.51390  0.51719  0.77315  1.0000
  C   C59       1.0  0.48133  0.00059  0.77346  1.0000
  C   C60       1.0  0.99811  0.48468  0.76075  1.0000
  C   C61       1.0  0.31819  0.49501  0.82806  1.0000
  C   C62       1.0  0.50244  0.82585  0.81756  1.0000
  C   C63       1.0  0.16921  0.68404  0.85611  1.0000
  C   C64       1.0  0.68042  0.51405  0.85998  1.0000
  C   C65       1.0  0.48435  0.16985  0.86361  1.0000
  C   C66       1.0  0.82829  0.31764  0.83928  1.0000
  C   C67       1.0  0.28023  0.49441  0.82029  1.0000
  C   C68       1.0  0.50406  0.78910  0.81634  1.0000
  C   C69       1.0  0.20796  0.72049  0.84295  1.0000
  C   C70       1.0  0.71756  0.51291  0.85148  1.0000
  C   C71       1.0  0.48685  0.20870  0.85072  1.0000
  C   C72       1.0  0.79024  0.28041  0.82696  1.0000
  C   C73       1.0  0.24593  0.46494  0.75399  1.0000
  C   C74       1.0  0.53540  0.78505  0.76027  1.0000
  C   C75       1.0  0.21620  0.75184  0.75262  1.0000
  C   C76       1.0  0.74584  0.53078  0.74760  1.0000
  C   C77       1.0  0.46580  0.21788  0.75504  1.0000
  C   C78       1.0  0.78420  0.24853  0.74444  1.0000
  C   C79       1.0  0.21061  0.46741  0.75285  1.0000
  C   C80       1.0  0.53314  0.74741  0.76315  1.0000
  C   C81       1.0  0.25445  0.78651  0.75236  1.0000
  C   C82       1.0  0.78109  0.52823  0.74898  1.0000
  C   C83       1.0  0.46975  0.25623  0.75278  1.0000
  C   C84       1.0  0.74658  0.21307  0.74431  1.0000
  C   C85       1.0  0.20953  0.49990  0.81227  1.0000
  C   C86       1.0  0.49954  0.71349  0.81846  1.0000
  C   C87       1.0  0.28482  0.78979  0.83903  1.0000
  C   C88       1.0  0.78857  0.50811  0.85369  1.0000
  C   C89       1.0  0.49475  0.28577  0.84463  1.0000
  C   C90       1.0  0.71411  0.21044  0.81790  1.0000
  C   C91       1.0  0.24402  0.52928  0.87891  1.0000
  C   C92       1.0  0.46841  0.71791  0.87509  1.0000
  C   C93       1.0  0.27627  0.75805  0.92873  1.0000
  C   C94       1.0  0.76000  0.49032  0.95748  1.0000
  C   C95       1.0  0.51586  0.27630  0.94005  1.0000
  C   C96       1.0  0.72043  0.24285  0.89916  1.0000
  C   C97       1.0  0.27808  0.52620  0.88320  1.0000
  C   C98       1.0  0.47102  0.75480  0.87460  1.0000
  C   C99       1.0  0.23867  0.72468  0.93110  1.0000
  C   C100      1.0  0.72574  0.49310  0.95632  1.0000
  C   C101      1.0  0.51156  0.23866  0.94311  1.0000
  C   C102      1.0  0.75786  0.27636  0.90589  1.0000
  C   C103      1.0  0.17347  0.50224  0.80680  1.0000
  C   C104      1.0  0.49749  0.67532  0.81690  1.0000
  C   C105      1.0  0.32315  0.82594  0.83865  1.0000
  C   C106      1.0  0.82535  0.50703  0.85479  1.0000
  C   C107      1.0  0.49660  0.32396  0.84394  1.0000
  C   C108      1.0  0.67573  0.17447  0.81332  1.0000
  N   N1        1.0  0.33625  0.47884  0.26919  1.0000
  N   N2        1.0  0.52358  0.85371  0.25816  1.0000
  N   N3        1.0  0.14546  0.66738  0.25218  1.0000
  N   N4        1.0  0.67489  0.52933  0.25648  1.0000
  N   N5        1.0  0.47488  0.14317  0.25675  1.0000
  N   N6        1.0  0.85595  0.32921  0.24926  1.0000
  N   N7        1.0  0.47844  0.33164  0.24683  1.0000
  N   N8        1.0  0.66628  0.14513  0.23912  1.0000
  N   N9        1.0  0.85962  0.52522  0.24515  1.0000
  N   N10       1.0  0.51794  0.66425  0.24778  1.0000
  N   N11       1.0  0.33230  0.85369  0.24753  1.0000
  N   N12       1.0  0.15194  0.48298  0.24643  1.0000
  N   N13       1.0  0.32520  0.46928  0.77039  1.0000
  N   N14       1.0  0.52885  0.85905  0.76247  1.0000
  N   N15       1.0  0.14334  0.66992  0.76065  1.0000
  N   N16       1.0  0.66393  0.52062  0.75791  1.0000
  N   N17       1.0  0.47422  0.14487  0.76622  1.0000
  N   N18       1.0  0.85409  0.33265  0.74324  1.0000
  N   N19       1.0  0.47943  0.33369  0.75054  1.0000
  N   N20       1.0  0.67051  0.14330  0.74733  1.0000
  N   N21       1.0  0.85007  0.52071  0.75375  1.0000
  N   N22       1.0  0.52726  0.67155  0.77263  1.0000
  N   N23       1.0  0.33145  0.85458  0.75292  1.0000
  N   N24       1.0  0.14083  0.47386  0.75345  1.0000
  O   O1        1.0  0.26720  0.46223  0.13185  1.0000
  O   O2        1.0  0.53890  0.79978  0.12019  1.0000
  O   O3        1.0  0.19209  0.74446  0.14000  1.0000
  O   O4        1.0  0.75581  0.56633  0.16635  1.0000
  O   O5        1.0  0.44281  0.18936  0.14940  1.0000
  O   O6        1.0  0.80573  0.25526  0.12583  1.0000
  O   O7        1.0  0.19981  0.46525  0.13126  1.0000
  O   O8        1.0  0.53471  0.72894  0.12489  1.0000
  O   O9        1.0  0.26358  0.81065  0.14010  1.0000
  O   O10       1.0  0.82115  0.55916  0.16023  1.0000
  O   O11       1.0  0.44924  0.26146  0.14689  1.0000
  O   O12       1.0  0.73424  0.18955  0.12677  1.0000
  O   O13       1.0  0.24561  0.43418  0.68880  1.0000
  O   O14       1.0  0.56768  0.81600  0.70060  1.0000
  O   O15       1.0  0.18818  0.75054  0.66733  1.0000
  O   O16       1.0  0.74113  0.55175  0.64658  1.0000
  O   O17       1.0  0.44056  0.19051  0.66622  1.0000
  O   O18       1.0  0.81391  0.25017  0.66705  1.0000
  O   O19       1.0  0.17889  0.43781  0.68860  1.0000
  O   O20       1.0  0.56412  0.74563  0.70744  1.0000
  O   O21       1.0  0.26006  0.81601  0.66636  1.0000
  O   O22       1.0  0.80710  0.54662  0.64700  1.0000
  O   O23       1.0  0.44788  0.26252  0.66017  1.0000
  O   O24       1.0  0.74338  0.18269  0.66903  1.0000
  C  Sn1       1.0  0.41013  0.45808  0.18110  1.0000
  C   C109      1.0  0.44389  0.48263  0.25709  1.0000
  C  Sn2       1.0  0.44132  0.50467  0.36252  1.0000
  C  Sn3       1.0  0.40422  0.50211  0.39268  1.0000
  C   C110      1.0  0.37048  0.47757  0.31673  1.0000
  C  Sn4       1.0  0.37303  0.45552  0.21126  1.0000
  O  Te1       1.0  0.41339  0.43631  0.07616  1.0000
  O  Te2       1.0  0.47549  0.52902  0.43704  1.0000
  O  Te3       1.0  0.40098  0.52391  0.49772  1.0000
  O  Te4       1.0  0.33888  0.43118  0.13678  1.0000
  Mg  Mg1       1.0  0.45592  0.55287  0.57023  1.0000
  Mg  Mg2       1.0  0.35841  0.40730  0.00362  1.0000
  C  Sn5       1.0  0.54368  0.94854  0.17162  1.0000
  C   C111      1.0  0.51872  0.95697  0.24886  1.0000
  C  Sn6       1.0  0.49634  0.93148  0.35345  1.0000
  C  Sn7       1.0  0.49897  0.89685  0.38149  1.0000
  C   C112      1.0  0.52393  0.88844  0.30430  1.0000
  C  Sn8       1.0  0.54632  0.91391  0.19967  1.0000
  O  Te5       1.0  0.56578  0.97445  0.06756  1.0000
  O  Te6       1.0  0.47158  0.94053  0.42925  1.0000
  O  Te7       1.0  0.47684  0.87094  0.48566  1.0000
  O  Te8       1.0  0.57106  0.90488  0.12391  1.0000
  Mg  Mg3       1.0  0.44738  0.89607  0.56053  1.0000
  Mg  Mg4       1.0  0.59427  0.94681  0.99265  1.0000
  C  Sn9       1.0  0.06540  0.61925  0.20681  1.0000
  C   C113      1.0  0.10090  0.63098  0.27640  1.0000
  C  Sn10      1.0  0.10791  0.60246  0.33759  1.0000
  C  Sn11      1.0  0.07883  0.56136  0.32898  1.0000
  C   C114      1.0  0.04335  0.54965  0.25941  1.0000
  C  Sn12      1.0  0.03632  0.57814  0.19820  1.0000
  O  Te9       1.0  0.05903  0.64827  0.14640  1.0000
  O  Te10      1.0  0.14362  0.61492  0.40665  1.0000
  O  Te11      1.0  0.08523  0.53233  0.38947  1.0000
  O  Te12      1.0  0.00063  0.56571  0.12916  1.0000
  Mg  Mg5       1.0  0.13853  0.56412  0.47217  1.0000
  Mg  Mg6       1.0  0.00570  0.61648  0.06355  1.0000
  C  Sn13      1.0  0.59793  0.54653  0.17185  1.0000
  C   C115      1.0  0.56474  0.52074  0.24942  1.0000
  C  Sn14      1.0  0.56858  0.49864  0.35347  1.0000
  C  Sn15      1.0  0.60638  0.50242  0.38061  1.0000
  C   C116      1.0  0.63953  0.52820  0.30308  1.0000
  C  Sn16      1.0  0.63572  0.55031  0.19899  1.0000
  O  Te13      1.0  0.59340  0.56833  0.06834  1.0000
  O  Te14      1.0  0.53497  0.47304  0.42962  1.0000
  O  Te15      1.0  0.61088  0.48059  0.48422  1.0000
  O  Te16      1.0  0.66930  0.57590  0.12289  1.0000
  Mg  Mg7       1.0  0.55629  0.44967  0.55989  1.0000
  Mg  Mg8       1.0  0.64701  0.59678  0.99265  1.0000
  C  Sn17      1.0  0.45782  0.04999  0.16499  1.0000
  C   C117      1.0  0.48256  0.04128  0.24305  1.0000
  C  Sn18      1.0  0.50396  0.06592  0.34928  1.0000
  C  Sn19      1.0  0.50055  0.09997  0.37816  1.0000
  C   C118      1.0  0.47583  0.10866  0.30013  1.0000
  C  Sn20      1.0  0.45442  0.08403  0.19386  1.0000
  O  Te17      1.0  0.43670  0.02494  0.05928  1.0000
  O  Te18      1.0  0.52851  0.05662  0.42589  1.0000
  O  Te19      1.0  0.52170  0.12502  0.48396  1.0000
  O  Te20      1.0  0.42988  0.09332  0.11730  1.0000
  Mg  Mg9       1.0  0.55125  0.09984  0.55941  1.0000
  Mg  Mg10      1.0  0.40608  0.04759  0.98380  1.0000
  C  Sn21      1.0  0.94994  0.40461  0.15597  1.0000
  C   C119      1.0  0.96037  0.43677  0.24122  1.0000
  C  Sn22      1.0  0.93701  0.43230  0.35344  1.0000
  C  Sn23      1.0  0.90252  0.39489  0.38110  1.0000
  C   C120      1.0  0.89210  0.36275  0.29590  1.0000
  C  Sn24      1.0  0.91544  0.36720  0.18363  1.0000
  O  Te21      1.0  0.97373  0.40977  0.04436  1.0000
  O  Te22      1.0  0.94804  0.46489  0.43717  1.0000
  O  Te23      1.0  0.87872  0.38975  0.49282  1.0000
  O  Te24      1.0  0.90444  0.33464  0.09995  1.0000
  Mg  Mg11      1.0  0.90607  0.44302  0.57695  1.0000
  Mg  Mg12      1.0  0.94537  0.35395  0.96019  1.0000
  C  Sn25      1.0  0.46600  0.40682  0.39289  1.0000
  C   C121      1.0  0.48707  0.44052  0.31130  1.0000
  C  Sn26      1.0  0.50251  0.43752  0.18870  1.0000
  C  Sn27      1.0  0.49675  0.40005  0.14672  1.0000
  C   C122      1.0  0.47569  0.36638  0.22828  1.0000
  C  Sn28      1.0  0.46024  0.36935  0.35091  1.0000
  O  Te25      1.0  0.45082  0.41051  0.51506  1.0000
  O  Te26      1.0  0.52348  0.47163  0.10888  1.0000
  O  Te27      1.0  0.51195  0.39638  0.02445  1.0000
  O  Te28      1.0  0.43927  0.33526  0.43070  1.0000
  Mg  Mg13      1.0  0.53738  0.44890  0.95091  1.0000
  Mg  Mg14      1.0  0.42432  0.35544  0.58865  1.0000
  C  Sn29      1.0  0.62034  0.06926  0.35460  1.0000
  C   C123      1.0  0.63331  0.09786  0.25234  1.0000
  C  Sn30      1.0  0.60629  0.09700  0.15783  1.0000
  C  Sn31      1.0  0.56543  0.06695  0.16572  1.0000
  C   C124      1.0  0.55247  0.03838  0.26793  1.0000
  C  Sn32      1.0  0.57948  0.03921  0.36249  1.0000
  O  Te29      1.0  0.64788  0.07070  0.44801  1.0000
  O  Te30      1.0  0.61997  0.12590  0.05649  1.0000
  O  Te31      1.0  0.53789  0.06553  0.07219  1.0000
  O  Te32      1.0  0.56581  0.01034  0.46379  1.0000
  Mg  Mg15      1.0  0.56995  0.10893  0.95281  1.0000
  Mg  Mg16      1.0  0.61478  0.02477  0.56755  1.0000
  C  Sn33      1.0  0.89961  0.48313  0.19696  1.0000
  C   C125      1.0  0.89145  0.50989  0.26369  1.0000
  C  Sn34      1.0  0.92236  0.54415  0.32199  1.0000
  C  Sn35      1.0  0.96227  0.55185  0.31336  1.0000
  C   C126      1.0  0.97041  0.52510  0.24665  1.0000
  C  Sn36      1.0  0.93952  0.49082  0.18833  1.0000
  O  Te33      1.0  0.86824  0.44906  0.13941  1.0000
  O  Te34      1.0  0.91347  0.57046  0.38821  1.0000
  O  Te35      1.0  0.99365  0.58595  0.37099  1.0000
  O  Te36      1.0  0.94840  0.46453  0.12212  1.0000
  Mg  Mg17      1.0  0.96645  0.61280  0.45045  1.0000
  Mg  Mg18      1.0  0.89544  0.42219  0.05979  1.0000
  C  Sn37      1.0  0.49550  0.58909  0.16000  1.0000
  C   C127      1.0  0.51020  0.62026  0.25180  1.0000
  C  Sn38      1.0  0.53589  0.62234  0.35361  1.0000
  C  Sn39      1.0  0.54715  0.59266  0.36384  1.0000
  C   C128      1.0  0.53245  0.56152  0.27207  1.0000
  C  Sn40      1.0  0.50675  0.55941  0.17023  1.0000
  O  Te37      1.0  0.46985  0.58760  0.05903  1.0000
  O  Te38      1.0  0.55019  0.65378  0.44424  1.0000
  O  Te39      1.0  0.57282  0.59417  0.46493  1.0000
  O  Te40      1.0  0.49246  0.52800  0.07964  1.0000
  Mg  Mg19      1.0  0.58440  0.64283  0.56431  1.0000
  Mg  Mg20      1.0  0.45724  0.53641  0.95948  1.0000
  C  Sn41      1.0  0.37796  0.93174  0.34093  1.0000
  C   C129      1.0  0.36655  0.90037  0.25137  1.0000
  C  Sn42      1.0  0.39519  0.89798  0.17307  1.0000
  C  Sn43      1.0  0.43609  0.92756  0.18458  1.0000
  C   C130      1.0  0.44748  0.95891  0.27411  1.0000
  C  Sn44      1.0  0.41886  0.96132  0.35244  1.0000
  O  Te41      1.0  0.34883  0.93353  0.41822  1.0000
  O  Te42      1.0  0.38305  0.86634  0.08420  1.0000
  O  Te43      1.0  0.46523  0.92574  0.10718  1.0000
  O  Te44      1.0  0.43098  0.99294  0.44128  1.0000
  Mg  Mg21      1.0  0.43389  0.87689  0.00055  1.0000
  Mg  Mg22      1.0  0.38017  0.98240  0.52502  1.0000
  C  Sn45      1.0  0.09916  0.50470  0.15051  1.0000
  C   C131      1.0  0.11543  0.49040  0.24597  1.0000
  C  Sn46      1.0  0.09152  0.46498  0.34840  1.0000
  C  Sn47      1.0  0.05048  0.45359  0.35553  1.0000
  C   C132      1.0  0.03423  0.46788  0.26010  1.0000
  C  Sn48      1.0  0.05813  0.49331  0.15764  1.0000
  O  Te45      1.0  0.12362  0.53008  0.04897  1.0000
  O  Te46      1.0  0.10846  0.45108  0.44271  1.0000
  O  Te47      1.0  0.02603  0.42819  0.45718  1.0000
  O  Te48      1.0  0.04120  0.50720  0.06336  1.0000
  Mg  Mg23      1.0  0.06292  0.41712  0.56211  1.0000
  Mg  Mg24      1.0  0.08568  0.53863  0.94389  1.0000
  C  Sn49      1.0  0.37621  0.44320  0.69292  1.0000
  C   C133      1.0  0.36043  0.45826  0.78648  1.0000
  C  Sn50      1.0  0.38528  0.48614  0.88054  1.0000
  C  Sn51      1.0  0.42678  0.49926  0.88105  1.0000
  C   C134      1.0  0.44254  0.48421  0.78751  1.0000
  C  Sn52      1.0  0.41770  0.45632  0.69342  1.0000
  O  Te49      1.0  0.35081  0.41535  0.59980  1.0000
  O  Te50      1.0  0.36882  0.50075  0.97311  1.0000
  O  Te51      1.0  0.45218  0.52713  0.97428  1.0000
  O  Te52      1.0  0.43415  0.44171  0.60088  1.0000
  Mg  Mg25      1.0  0.41666  0.54080  0.08003  1.0000
  Mg  Mg26      1.0  0.38737  0.40420  0.49388  1.0000
  C  Sn53      1.0  0.50964  0.93207  0.89981  1.0000
  C   C135      1.0  0.52485  0.96266  0.80406  1.0000
  C  Sn54      1.0  0.53839  0.95727  0.68102  1.0000
  C  Sn55      1.0  0.53667  0.92053  0.65304  1.0000
  C   C136      1.0  0.52146  0.88997  0.74874  1.0000
  C  Sn56      1.0  0.50793  0.89533  0.87183  1.0000
  O  Te53      1.0  0.49730  0.94064  0.02214  1.0000
  O  Te54      1.0  0.55348  0.98829  0.58690  1.0000
  O  Te55      1.0  0.55005  0.91450  0.53059  1.0000
  O  Te56      1.0  0.49284  0.86434  0.96590  1.0000
  Mg  Mg27      1.0  0.56805  0.96568  0.43472  1.0000
  Mg  Mg28      1.0  0.47926  0.88942  0.11808  1.0000
  C  Sn57      1.0  0.09887  0.59039  0.85186  1.0000
  C   C137      1.0  0.10959  0.62397  0.77147  1.0000
  C  Sn58      1.0  0.08048  0.62773  0.70041  1.0000
  C  Sn59      1.0  0.03980  0.59730  0.70997  1.0000
  C   C138      1.0  0.02910  0.56375  0.79034  1.0000
  C  Sn60      1.0  0.05819  0.55996  0.86142  1.0000
  O  Te57      1.0  0.12847  0.58726  0.92202  1.0000
  O  Te58      1.0  0.09192  0.66157  0.62065  1.0000
  O  Te59      1.0  0.01020  0.60046  0.63972  1.0000
  O  Te60      1.0  0.04676  0.52615  0.94116  1.0000
  Mg  Mg29      1.0  0.04064  0.65219  0.54435  1.0000
  Mg  Mg30      1.0  0.09903  0.53803  0.01755  1.0000
  C  Sn61      1.0  0.58435  0.48519  0.84877  1.0000
  C   C139      1.0  0.61747  0.50727  0.76594  1.0000
  C  Sn62      1.0  0.62062  0.53921  0.69017  1.0000
  C  Sn63      1.0  0.59005  0.54931  0.69739  1.0000
  C   C140      1.0  0.55696  0.52723  0.78020  1.0000
  C  Sn64      1.0  0.55377  0.49528  0.85599  1.0000
  O  Te61      1.0  0.58182  0.45338  0.92364  1.0000
  O  Te62      1.0  0.65401  0.56085  0.60805  1.0000
  O  Te63      1.0  0.59260  0.58115  0.62243  1.0000
  O  Te64      1.0  0.52042  0.47366  0.93808  1.0000
  Mg  Mg31      1.0  0.64388  0.60163  0.52536  1.0000
  Mg  Mg32      1.0  0.53155  0.43541  0.02087  1.0000
  C  Sn65      1.0  0.51066  0.10158  0.85404  1.0000
  C   C141      1.0  0.48717  0.11171  0.77494  1.0000
  C  Sn66      1.0  0.45467  0.08232  0.70439  1.0000
  C  Sn67      1.0  0.44544  0.04195  0.71314  1.0000
  C   C142      1.0  0.46892  0.03183  0.79222  1.0000
  C  Sn68      1.0  0.50143  0.06121  0.86279  1.0000
  O  Te65      1.0  0.54300  0.13145  0.92372  1.0000
  O  Te66      1.0  0.43164  0.09317  0.62593  1.0000
  O  Te67      1.0  0.41307  0.01207  0.64337  1.0000
  O  Te68      1.0  0.52445  0.05037  0.94123  1.0000
  Mg  Mg33      1.0  0.39061  0.04171  0.54984  1.0000
  Mg  Mg34      1.0  0.56649  0.10432  0.01741  1.0000
  C  Sn69      1.0  0.89513  0.41285  0.82657  1.0000
  C   C143      1.0  0.88610  0.37949  0.74905  1.0000
  C  Sn70      1.0  0.91640  0.37692  0.68183  1.0000
  C  Sn71      1.0  0.95659  0.40833  0.69239  1.0000
  C   C144      1.0  0.96561  0.44166  0.76989  1.0000
  C  Sn72      1.0  0.93532  0.44426  0.83713  1.0000
  O  Te69      1.0  0.86436  0.41478  0.89291  1.0000
  O  Te70      1.0  0.90663  0.34329  0.60489  1.0000
  O  Te71      1.0  0.98737  0.40637  0.62596  1.0000
  O  Te72      1.0  0.94508  0.47786  0.91405  1.0000
  Mg  Mg35      1.0  0.95904  0.35445  0.53340  1.0000
  Mg  Mg36      1.0  0.89269  0.46672  0.98563  1.0000
  C  Sn73      1.0  0.51099  0.41295  0.67870  1.0000
  C   C145      1.0  0.49025  0.37917  0.76024  1.0000
  C  Sn74      1.0  0.45936  0.37518  0.84310  1.0000
  C  Sn75      1.0  0.44896  0.40556  0.84444  1.0000
  C   C146      1.0  0.46969  0.43930  0.76292  1.0000
  C  Sn76      1.0  0.50059  0.44332  0.68004  1.0000
  O  Te73      1.0  0.54176  0.41631  0.59665  1.0000
  O  Te74      1.0  0.43907  0.34115  0.92377  1.0000
  O  Te75      1.0  0.41816  0.40216  0.92658  1.0000
  O  Te76      1.0  0.52086  0.47732  0.59940  1.0000
  Mg  Mg37      1.0  0.40038  0.35275  0.01834  1.0000
  Mg  Mg38      1.0  0.56057  0.46826  0.50473  1.0000
  C  Sn77      1.0  0.59641  0.04991  0.85643  1.0000
  C   C147      1.0  0.56094  0.04291  0.79541  1.0000
  C  Sn78      1.0  0.56169  0.06828  0.69403  1.0000
  C  Sn79      1.0  0.59866  0.10133  0.65271  1.0000
  C   C148      1.0  0.63410  0.10831  0.71369  1.0000
  C  Sn80      1.0  0.63338  0.08296  0.81510  1.0000
  O  Te77      1.0  0.59495  0.02415  0.95757  1.0000
  O  Te78      1.0  0.52584  0.06068  0.63456  1.0000
  O  Te79      1.0  0.60009  0.12709  0.55148  1.0000
  O  Te80      1.0  0.66920  0.09054  0.87455  1.0000
  Mg  Mg39      1.0  0.54327  0.10428  0.50096  1.0000
  Mg  Mg40      1.0  0.65283  0.04946  0.00810  1.0000
  C  Sn81      1.0  0.93840  0.53129  0.89126  1.0000
  C   C149      1.0  0.95367  0.51656  0.79471  1.0000
  C  Sn82      1.0  0.93676  0.50709  0.66754  1.0000
  C  Sn83      1.0  0.90392  0.51248  0.63619  1.0000
  C   C150      1.0  0.88868  0.52721  0.73271  1.0000
  C  Sn84      1.0  0.90557  0.53668  0.85991  1.0000
  O  Te81      1.0  0.95680  0.54308  0.01774  1.0000
  O  Te82      1.0  0.95253  0.49239  0.57269  1.0000
  O  Te83      1.0  0.88656  0.50320  0.50960  1.0000
  O  Te84      1.0  0.88982  0.55137  0.95472  1.0000
  Mg  Mg41      1.0  0.91863  0.48408  0.41432  1.0000
  Mg  Mg42      1.0  0.92473  0.56223  0.11309  1.0000
  C  Sn85      1.0  0.54793  0.59706  0.86135  1.0000
  C   C151      1.0  0.51712  0.56151  0.80925  1.0000
  C  Sn86      1.0  0.48980  0.56221  0.71937  1.0000
  C  Sn87      1.0  0.49337  0.59924  0.68069  1.0000
  C   C152      1.0  0.52417  0.63477  0.73276  1.0000
  C  Sn88      1.0  0.55150  0.63409  0.82267  1.0000
  O  Te85      1.0  0.57491  0.59565  0.95106  1.0000
  O  Te86      1.0  0.45924  0.52628  0.66866  1.0000
  O  Te87      1.0  0.46636  0.60063  0.59091  1.0000
  O  Te88      1.0  0.58205  0.67000  0.87335  1.0000
  Mg  Mg43      1.0  0.42985  0.54369  0.54928  1.0000
  Mg  Mg44      1.0  0.61147  0.65262  0.99267  1.0000
  C  Sn89      1.0  0.40688  0.94420  0.88716  1.0000
  C   C153      1.0  0.43988  0.95681  0.80267  1.0000
  C  Sn90      1.0  0.43619  0.93720  0.68252  1.0000
  C  Sn91      1.0  0.39873  0.90429  0.64600  1.0000
  C   C154      1.0  0.36575  0.89170  0.73046  1.0000
  C  Sn92      1.0  0.36941  0.91129  0.85065  1.0000
  O  Te89      1.0  0.41228  0.96677  0.00679  1.0000
  O  Te90      1.0  0.46962  0.95035  0.59971  1.0000
  O  Te91      1.0  0.39437  0.88424  0.52626  1.0000
  O  Te92      1.0  0.33602  0.89816  0.93341  1.0000
  Mg  Mg45      1.0  0.44862  0.91334  0.44697  1.0000
  Mg  Mg46      1.0  0.35800  0.93768  0.08613  1.0000
  C  Sn93      1.0  0.07551  0.50694  0.64553  1.0000
  C   C155      1.0  0.03873  0.48081  0.70520  1.0000
  C  Sn94      1.0  0.03587  0.45308  0.80116  1.0000
  C  Sn95      1.0  0.07049  0.45146  0.83832  1.0000
  C   C156      1.0  0.10724  0.47759  0.77869  1.0000
  C  Sn96      1.0  0.11013  0.50532  0.68270  1.0000
  O  Te93      1.0  0.07768  0.53442  0.54984  1.0000
  O  Te94      1.0  0.99877  0.42726  0.85938  1.0000
  O  Te95      1.0  0.06829  0.42395  0.93409  1.0000
  O  Te96      1.0  0.14720  0.53114  0.62451  1.0000
  Mg  Mg47      1.0  0.01105  0.39508  0.98497  1.0000
  Mg  Mg48      1.0  0.13496  0.56334  0.49897  1.0000
