data_image0
_chemical_formula_structural       H80C88N16O16SnCSn2CSnTe4Mg2SnCSn2CSnTe4Mg2SnCSn2CSnTe4Mg2SnCSn2CSnTe4Mg2SnCSn2CSnTe4Mg2SnCSn2CSnTe4Mg2SnCSn2CSnTe4Mg2SnCSn2CSnTe4Mg2SnCSn2CSnTe4Mg2SnCSn2CSnTe4Mg2SnCSn2CSnTe4Mg2SnCSn2CSnTe4Mg2SnCSn2CSnTe4Mg2SnCSn2CSnTe4Mg2SnCSn2CSnTe4Mg2SnCSn2CSnTe4Mg2
_chemical_formula_sum              "H80 C120 N16 O16 Sn64 Te64 Mg32"
_cell_length_a       31.1222
_cell_length_b       22.9542
_cell_length_c       9.6195
_cell_angle_alpha    90.2343
_cell_angle_beta     92.2641
_cell_angle_gamma    90.0319

_symmetry_space_group_name_H-M    'P1'
_space_group_IT_number       1

loop_
  _space_group_symop_operation_xyz
  'x, y, z'

loop_
  _atom_site_type_symbol
  _atom_site_label
  _atom_site_symmetry_multiplicity
  _atom_site_fract_x
  _atom_site_fract_y
  _atom_site_fract_z
  _atom_site_occupancy
  H   H1        1.0  0.88092  0.36240  0.02516  1.0000
  H   H2        1.0  0.12093  0.64653  0.01881  1.0000
  H   H3        1.0  0.61829  0.86746  0.48680  1.0000
  H   H4        1.0  0.38053  0.13943  0.48725  1.0000
  H   H5        1.0  0.83480  0.41108  0.47190  1.0000
  H   H6        1.0  0.12746  0.63062  0.52255  1.0000
  H   H7        1.0  0.66476  0.90631  0.02430  1.0000
  H   H8        1.0  0.33156  0.09304  0.99998  1.0000
  H   H9        1.0  0.82961  0.34071  0.08442  1.0000
  H   H10       1.0  0.17496  0.66382  0.07407  1.0000
  H   H11       1.0  0.64559  0.80114  0.44536  1.0000
  H   H12       1.0  0.32665  0.15492  0.42758  1.0000
  H   H13       1.0  0.75342  0.43051  0.10717  1.0000
  H   H14       1.0  0.24706  0.57590  0.09015  1.0000
  H   H15       1.0  0.74642  0.92291  0.39240  1.0000
  H   H16       1.0  0.25657  0.07590  0.40009  1.0000
  H   H17       1.0  0.70515  0.42456  0.99771  1.0000
  H   H18       1.0  0.29462  0.58606  0.99161  1.0000
  H   H19       1.0  0.79376  0.92119  0.50743  1.0000
  H   H20       1.0  0.20945  0.07386  0.50408  1.0000
  H   H21       1.0  0.72515  0.36286  0.09376  1.0000
  H   H22       1.0  0.27302  0.64530  0.08851  1.0000
  H   H23       1.0  0.77504  0.85636  0.41980  1.0000
  H   H24       1.0  0.22387  0.13918  0.41640  1.0000
  H   H25       1.0  0.27271  0.32241  0.30354  1.0000
  H   H26       1.0  0.72659  0.66517  0.26978  1.0000
  H   H27       1.0  0.22829  0.82462  0.21545  1.0000
  H   H28       1.0  0.77596  0.16421  0.24078  1.0000
  H   H29       1.0  0.19980  0.27961  0.25294  1.0000
  H   H30       1.0  0.79864  0.70785  0.22442  1.0000
  H   H31       1.0  0.30180  0.78248  0.25618  1.0000
  H   H32       1.0  0.70327  0.20584  0.28206  1.0000
  H   H33       1.0  0.15463  0.20756  0.18081  1.0000
  H   H34       1.0  0.84280  0.78144  0.16148  1.0000
  H   H35       1.0  0.34796  0.70909  0.31729  1.0000
  H   H36       1.0  0.65823  0.27925  0.33427  1.0000
  H   H37       1.0  0.62198  0.74366  0.21092  1.0000
  H   H38       1.0  0.37600  0.24709  0.22135  1.0000
  H   H39       1.0  0.87983  0.24442  0.30350  1.0000
  H   H40       1.0  0.12601  0.74819  0.29975  1.0000
  H   H41       1.0  0.88414  0.37175  0.50504  1.0000
  H   H42       1.0  0.18124  0.64827  0.57972  1.0000
  H   H43       1.0  0.61441  0.86767  0.01373  1.0000
  H   H44       1.0  0.37865  0.13818  0.98776  1.0000
  H   H45       1.0  0.83545  0.41042  0.00423  1.0000
  H   H46       1.0  0.16382  0.59678  0.98320  1.0000
  H   H47       1.0  0.67341  0.86950  0.43919  1.0000
  H   H48       1.0  0.33766  0.08991  0.52521  1.0000
  H   H49       1.0  0.83548  0.34682  0.57753  1.0000
  H   H50       1.0  0.17115  0.58345  0.47886  1.0000
  H   H51       1.0  0.66080  0.83768  0.93504  1.0000
  H   H52       1.0  0.32733  0.16471  0.92712  1.0000
  H   H53       1.0  0.76569  0.40530  0.61265  1.0000
  H   H54       1.0  0.24822  0.58713  0.61683  1.0000
  H   H55       1.0  0.73903  0.91949  0.90368  1.0000
  H   H56       1.0  0.21585  0.13924  0.92739  1.0000
  H   H57       1.0  0.72363  0.43909  0.50677  1.0000
  H   H58       1.0  0.29031  0.56085  0.50879  1.0000
  H   H59       1.0  0.78676  0.92716  0.01551  1.0000
  H   H60       1.0  0.25204  0.08273  0.88172  1.0000
  H   H61       1.0  0.71862  0.36514  0.55924  1.0000
  H   H62       1.0  0.28973  0.63500  0.56567  1.0000
  H   H63       1.0  0.77444  0.85922  0.93164  1.0000
  H   H64       1.0  0.20823  0.06756  0.99404  1.0000
  H   H65       1.0  0.27576  0.33300  0.77238  1.0000
  H   H66       1.0  0.72861  0.67910  0.81502  1.0000
  H   H67       1.0  0.22437  0.83378  0.70780  1.0000
  H   H68       1.0  0.76978  0.17548  0.71475  1.0000
  H   H69       1.0  0.20281  0.29078  0.72049  1.0000
  H   H70       1.0  0.80083  0.72172  0.77291  1.0000
  H   H71       1.0  0.29749  0.79137  0.75565  1.0000
  H   H72       1.0  0.69755  0.21812  0.75787  1.0000
  H   H73       1.0  0.15750  0.21790  0.65629  1.0000
  H   H74       1.0  0.84535  0.79274  0.69766  1.0000
  H   H75       1.0  0.34290  0.72031  0.83100  1.0000
  H   H76       1.0  0.65313  0.29141  0.82704  1.0000
  H   H77       1.0  0.62389  0.75436  0.72156  1.0000
  H   H78       1.0  0.37933  0.25557  0.71411  1.0000
  H   H79       1.0  0.87442  0.25292  0.79361  1.0000
  H   H80       1.0  0.12125  0.75895  0.78604  1.0000
  C   C1        1.0  0.65034  0.71768  0.24159  1.0000
  C   C2        1.0  0.34860  0.27327  0.25310  1.0000
  C   C3        1.0  0.85174  0.21773  0.27324  1.0000
  C   C4        1.0  0.15317  0.77382  0.26424  1.0000
  C   C5        1.0  0.69218  0.74331  0.21574  1.0000
  C   C6        1.0  0.30615  0.24756  0.22854  1.0000
  C   C7        1.0  0.80960  0.24270  0.29852  1.0000
  C   C8        1.0  0.19588  0.74884  0.28792  1.0000
  C   C9        1.0  0.73596  0.82573  0.14044  1.0000
  C   C10       1.0  0.26096  0.16671  0.13905  1.0000
  C   C11       1.0  0.76464  0.32516  0.36815  1.0000
  C   C12       1.0  0.24213  0.66753  0.36529  1.0000
  C   C13       1.0  0.69538  0.80110  0.16675  1.0000
  C   C14       1.0  0.30205  0.19148  0.16794  1.0000
  C   C15       1.0  0.80571  0.30077  0.34726  1.0000
  C   C16       1.0  0.20078  0.69220  0.34417  1.0000
  C   C17       1.0  0.18020  0.17464  0.17385  1.0000
  C   C18       1.0  0.81756  0.81494  0.16745  1.0000
  C   C19       1.0  0.32234  0.67632  0.32647  1.0000
  C   C20       1.0  0.68338  0.31310  0.33661  1.0000
  C   C21       1.0  0.22365  0.19837  0.17360  1.0000
  C   C22       1.0  0.77376  0.79231  0.16561  1.0000
  C   C23       1.0  0.27900  0.70007  0.33111  1.0000
  C   C24       1.0  0.72728  0.29079  0.34139  1.0000
  C   C25       1.0  0.26874  0.27920  0.25816  1.0000
  C   C26       1.0  0.72997  0.70979  0.23434  1.0000
  C   C27       1.0  0.23291  0.78112  0.25770  1.0000
  C   C28       1.0  0.77213  0.20872  0.27720  1.0000
  C   C29       1.0  0.22868  0.25543  0.22885  1.0000
  C   C30       1.0  0.76950  0.73355  0.20770  1.0000
  C   C31       1.0  0.27335  0.75767  0.28137  1.0000
  C   C32       1.0  0.73216  0.23195  0.30075  1.0000
  C   C33       1.0  0.99698  0.96214  0.17298  1.0000
  C   C34       1.0  0.00245  0.02201  0.17408  1.0000
  C   C35       1.0  0.50478  0.46294  0.33167  1.0000
  C   C36       1.0  0.49935  0.52283  0.33141  1.0000
  C   C37       1.0  0.84924  0.36797  0.48739  1.0000
  C   C38       1.0  0.16130  0.62868  0.49545  1.0000
  C   C39       1.0  0.64947  0.86332  0.02278  1.0000
  C   C40       1.0  0.34407  0.13762  0.00563  1.0000
  C   C41       1.0  0.73414  0.40210  0.03732  1.0000
  C   C42       1.0  0.26508  0.60628  0.02690  1.0000
  C   C43       1.0  0.76527  0.89719  0.46868  1.0000
  C   C44       1.0  0.23631  0.10047  0.47032  1.0000
  C   C45       1.0  0.65184  0.72816  0.75526  1.0000
  C   C46       1.0  0.35141  0.28153  0.74241  1.0000
  C   C47       1.0  0.84634  0.22659  0.76130  1.0000
  C   C48       1.0  0.14887  0.78442  0.75340  1.0000
  C   C49       1.0  0.69412  0.75309  0.73277  1.0000
  C   C50       1.0  0.30915  0.25580  0.71271  1.0000
  C   C51       1.0  0.80424  0.25159  0.78605  1.0000
  C   C52       1.0  0.19119  0.75827  0.77797  1.0000
  C   C53       1.0  0.73823  0.83266  0.64357  1.0000
  C   C54       1.0  0.26376  0.17348  0.63285  1.0000
  C   C55       1.0  0.76025  0.33264  0.86960  1.0000
  C   C56       1.0  0.23672  0.67666  0.85990  1.0000
  C   C57       1.0  0.69756  0.80822  0.67011  1.0000
  C   C58       1.0  0.30495  0.19851  0.65883  1.0000
  C   C59       1.0  0.80094  0.30801  0.84418  1.0000
  C   C60       1.0  0.19549  0.70187  0.83591  1.0000
  C   C61       1.0  0.18265  0.18412  0.65821  1.0000
  C   C62       1.0  0.81957  0.82555  0.68916  1.0000
  C   C63       1.0  0.31767  0.68657  0.82909  1.0000
  C   C64       1.0  0.67902  0.32421  0.82828  1.0000
  C   C65       1.0  0.22645  0.20672  0.65798  1.0000
  C   C66       1.0  0.77609  0.80176  0.68501  1.0000
  C   C67       1.0  0.27389  0.70913  0.82857  1.0000
  C   C68       1.0  0.72247  0.30051  0.83344  1.0000
  C   C69       1.0  0.27167  0.28882  0.73297  1.0000
  C   C70       1.0  0.73199  0.72175  0.76802  1.0000
  C   C71       1.0  0.22858  0.79024  0.75008  1.0000
  C   C72       1.0  0.76639  0.21916  0.75703  1.0000
  C   C73       1.0  0.23159  0.26524  0.70320  1.0000
  C   C74       1.0  0.77165  0.74540  0.74278  1.0000
  C   C75       1.0  0.26871  0.76669  0.77809  1.0000
  C   C76       1.0  0.72674  0.24283  0.78262  1.0000
  C   C77       1.0  0.99626  0.98032  0.67512  1.0000
  C   C78       1.0  0.00197  0.04012  0.67360  1.0000
  C   C79       1.0  0.50279  0.47904  0.83223  1.0000
  C   C80       1.0  0.49707  0.53885  0.83255  1.0000
  C   C81       1.0  0.84609  0.36493  0.00431  1.0000
  C   C82       1.0  0.15478  0.64272  0.99265  1.0000
  C   C83       1.0  0.64915  0.84451  0.49305  1.0000
  C   C84       1.0  0.34653  0.13570  0.51189  1.0000
  C   C85       1.0  0.74128  0.39867  0.52843  1.0000
  C   C86       1.0  0.26972  0.59792  0.53288  1.0000
  C   C87       1.0  0.76078  0.89791  0.97973  1.0000
  C   C88       1.0  0.23218  0.09972  0.96438  1.0000
  N   N1        1.0  0.64814  0.66684  0.29911  1.0000
  N   N2        1.0  0.35276  0.32444  0.30917  1.0000
  N   N3        1.0  0.85424  0.16670  0.21587  1.0000
  N   N4        1.0  0.14856  0.82367  0.20285  1.0000
  N   N5        1.0  0.17163  0.11960  0.17967  1.0000
  N   N6        1.0  0.82732  0.86914  0.18773  1.0000
  N   N7        1.0  0.33070  0.62123  0.32161  1.0000
  N   N8        1.0  0.67374  0.36763  0.32411  1.0000
  N   N9        1.0  0.64850  0.67752  0.81257  1.0000
  N   N10       1.0  0.35443  0.33270  0.79966  1.0000
  N   N11       1.0  0.84956  0.17590  0.70307  1.0000
  N   N12       1.0  0.14544  0.83537  0.69617  1.0000
  N   N13       1.0  0.17300  0.12983  0.67417  1.0000
  N   N14       1.0  0.82815  0.88069  0.69569  1.0000
  N   N15       1.0  0.32707  0.63209  0.81490  1.0000
  N   N16       1.0  0.67066  0.37911  0.81405  1.0000
  O   O1        1.0  0.73542  0.88227  0.09723  1.0000
  O   O2        1.0  0.26059  0.11182  0.08418  1.0000
  O   O3        1.0  0.76287  0.38298  0.40256  1.0000
  O   O4        1.0  0.24354  0.61108  0.40911  1.0000
  O   O5        1.0  0.65811  0.83300  0.15318  1.0000
  O   O6        1.0  0.33936  0.16162  0.14431  1.0000
  O   O7        1.0  0.84315  0.33238  0.36310  1.0000
  O   O8        1.0  0.16388  0.66179  0.36778  1.0000
  O   O9        1.0  0.73718  0.88604  0.58244  1.0000
  O   O10       1.0  0.26333  0.11664  0.59064  1.0000
  O   O11       1.0  0.76111  0.38786  0.92257  1.0000
  O   O12       1.0  0.23712  0.62072  0.90787  1.0000
  O   O13       1.0  0.66032  0.83894  0.63998  1.0000
  O   O14       1.0  0.34211  0.16773  0.64102  1.0000
  O   O15       1.0  0.83843  0.33874  0.86780  1.0000
  O   O16       1.0  0.15822  0.67231  0.86042  1.0000
  C  Sn1       1.0  0.88832  0.94910  0.26933  1.0000
  C   C89       1.0  0.86962  0.90699  0.18068  1.0000
  C  Sn2       1.0  0.89527  0.87218  0.09818  1.0000
  C  Sn3       1.0  0.94056  0.87957  0.10447  1.0000
  C   C90       1.0  0.95923  0.92164  0.19309  1.0000
  C  Sn4       1.0  0.93360  0.95649  0.27562  1.0000
  O  Te1       1.0  0.86205  0.98341  0.35088  1.0000
  O  Te2       1.0  0.87584  0.83039  0.01032  1.0000
  O  Te3       1.0  0.96682  0.84521  0.02281  1.0000
  O  Te4       1.0  0.95301  0.99824  0.36344  1.0000
  Mg  Mg1       1.0  0.93747  0.79591  0.91957  1.0000
  Mg  Mg2       1.0  0.90322  0.03445  0.45429  1.0000
  C  Sn5       1.0  0.08683  0.03932  0.30171  1.0000
  C   C91       1.0  0.04980  0.05633  0.22555  1.0000
  C  Sn6       1.0  0.05269  0.09411  0.11283  1.0000
  C  Sn7       1.0  0.09343  0.11532  0.07539  1.0000
  C   C92       1.0  0.13043  0.09830  0.15151  1.0000
  C  Sn8       1.0  0.12757  0.06053  0.26427  1.0000
  O  Te5       1.0  0.08318  0.00151  0.41400  1.0000
  O  Te6       1.0  0.01522  0.11052  0.03830  1.0000
  O  Te7       1.0  0.10926  0.15488  0.96300  1.0000
  O  Te8       1.0  0.16501  0.04412  0.33876  1.0000
  Mg  Mg3       1.0  0.04899  0.16461  0.89357  1.0000
  Mg  Mg4       1.0  0.14390  0.99173  0.48345  1.0000
  C  Sn9       1.0  0.58643  0.35408  0.38778  1.0000
  C   C93       1.0  0.62088  0.37056  0.30772  1.0000
  C  Sn10      1.0  0.61999  0.42358  0.23693  1.0000
  C  Sn11      1.0  0.58393  0.46093  0.24641  1.0000
  C   C94       1.0  0.54951  0.44445  0.32645  1.0000
  C  Sn12      1.0  0.55037  0.39143  0.39727  1.0000
  O  Te9       1.0  0.58801  0.30087  0.45768  1.0000
  O  Te10      1.0  0.65481  0.43911  0.15750  1.0000
  O  Te11      1.0  0.58238  0.51417  0.17642  1.0000
  O  Te12      1.0  0.51558  0.37590  0.47668  1.0000
  Mg  Mg5       1.0  0.63763  0.51604  0.08147  1.0000
  Mg  Mg6       1.0  0.53274  0.29900  0.55280  1.0000
  C  Sn13      1.0  0.41540  0.54000  0.20075  1.0000
  C   C95       1.0  0.45226  0.55725  0.27787  1.0000
  C  Sn14      1.0  0.44912  0.59543  0.39047  1.0000
  C  Sn15      1.0  0.40829  0.61678  0.42682  1.0000
  C   C96       1.0  0.37146  0.59952  0.34974  1.0000
  C  Sn16      1.0  0.37457  0.56136  0.23709  1.0000
  O  Te13      1.0  0.41929  0.50180  0.08859  1.0000
  O  Te14      1.0  0.48643  0.61206  0.46598  1.0000
  O  Te15      1.0  0.40443  0.65501  0.53907  1.0000
  O  Te16      1.0  0.33729  0.54471  0.16162  1.0000
  Mg  Mg7       1.0  0.46456  0.66494  0.61009  1.0000
  Mg  Mg8       1.0  0.35912  0.49182  0.01755  1.0000
  C  Sn17      1.0  0.45180  0.37835  0.20393  1.0000
  C   C97       1.0  0.46226  0.42219  0.30070  1.0000
  C  Sn18      1.0  0.43902  0.42810  0.42125  1.0000
  C  Sn19      1.0  0.40463  0.38937  0.44564  1.0000
  C   C98       1.0  0.39420  0.34556  0.34893  1.0000
  C  Sn20      1.0  0.41741  0.33962  0.22833  1.0000
  O  Te17      1.0  0.47547  0.37324  0.08414  1.0000
  O  Te18      1.0  0.45006  0.47228  0.51645  1.0000
  O  Te19      1.0  0.38096  0.39451  0.56556  1.0000
  O  Te20      1.0  0.40639  0.29546  0.13318  1.0000
  Mg  Mg9       1.0  0.40828  0.46160  0.66420  1.0000
  Mg  Mg10      1.0  0.46038  0.30781  0.98544  1.0000
  C  Sn21      1.0  0.57859  0.57014  0.45219  1.0000
  C   C99       1.0  0.53921  0.57286  0.37751  1.0000
  C  Sn22      1.0  0.53474  0.60717  0.25823  1.0000
  C  Sn23      1.0  0.57038  0.63941  0.21256  1.0000
  C   C100      1.0  0.60974  0.63667  0.28719  1.0000
  C  Sn24      1.0  0.61424  0.60238  0.40652  1.0000
  O  Te21      1.0  0.58232  0.53555  0.57114  1.0000
  O  Te22      1.0  0.49504  0.60921  0.18533  1.0000
  O  Te23      1.0  0.56662  0.67401  0.09350  1.0000
  O  Te24      1.0  0.65391  0.60032  0.47938  1.0000
  Mg  Mg11      1.0  0.50597  0.66259  0.02945  1.0000
  Mg  Mg12      1.0  0.64302  0.54694  0.63522  1.0000
  C  Sn25      1.0  0.04932  0.87882  0.30308  1.0000
  C   C101      1.0  0.03899  0.92120  0.20338  1.0000
  C  Sn26      1.0  0.06233  0.92524  0.08270  1.0000
  C  Sn27      1.0  0.09669  0.88609  0.06115  1.0000
  C   C102      1.0  0.10700  0.84374  0.16080  1.0000
  C  Sn28      1.0  0.08369  0.83966  0.28153  1.0000
  O  Te25      1.0  0.02556  0.87557  0.42295  1.0000
  O  Te26      1.0  0.06362  0.96971  0.98454  1.0000
  O  Te27      1.0  0.13267  0.89110  0.94116  1.0000
  O  Te28      1.0  0.09459  0.79695  0.37963  1.0000
  Mg  Mg13      1.0  0.10550  0.95672  0.83792  1.0000
  Mg  Mg14      1.0  0.05271  0.80988  0.52625  1.0000
  C  Sn29      1.0  0.95830  0.11449  0.29719  1.0000
  C   C103      1.0  0.96189  0.06542  0.21198  1.0000
  C  Sn30      1.0  0.93136  0.05461  0.10461  1.0000
  C  Sn31      1.0  0.89653  0.09369  0.08185  1.0000
  C   C104      1.0  0.89296  0.14273  0.16701  1.0000
  C  Sn32      1.0  0.92347  0.15357  0.27444  1.0000
  O  Te29      1.0  0.98920  0.12443  0.40391  1.0000
  O  Te30      1.0  0.93563  0.00525  0.02082  1.0000
  O  Te31      1.0  0.87784  0.08543  0.97503  1.0000
  O  Te32      1.0  0.91923  0.20290  0.35818  1.0000
  Mg  Mg15      1.0  0.89758  0.01225  0.88874  1.0000
  Mg  Mg16      1.0  0.96947  0.19768  0.49023  1.0000
  C  Sn33      1.0  0.93169  0.90219  0.57521  1.0000
  C   C105      1.0  0.94723  0.95134  0.64719  1.0000
  C  Sn34      1.0  0.92516  0.97383  0.75909  1.0000
  C  Sn35      1.0  0.88676  0.94660  0.79997  1.0000
  C   C106      1.0  0.87124  0.89747  0.72803  1.0000
  C  Sn36      1.0  0.89329  0.87496  0.61609  1.0000
  O  Te33      1.0  0.95428  0.88045  0.46366  1.0000
  O  Te34      1.0  0.94091  0.02303  0.82942  1.0000
  O  Te35      1.0  0.86417  0.96838  0.91162  1.0000
  O  Te36      1.0  0.87715  0.82579  0.54580  1.0000
  Mg  Mg17      1.0  0.89865  0.03631  0.97477  1.0000
  Mg  Mg18      1.0  0.91939  0.81245  0.40049  1.0000
  C  Sn37      1.0  0.11414  0.05014  0.75563  1.0000
  C   C107      1.0  0.12986  0.09322  0.66882  1.0000
  C  Sn38      1.0  0.10152  0.12966  0.59399  1.0000
  C  Sn39      1.0  0.05652  0.12292  0.60624  1.0000
  C   C108      1.0  0.04083  0.07987  0.69302  1.0000
  C  Sn40      1.0  0.06915  0.04340  0.76788  1.0000
  O  Te37      1.0  0.14307  0.01421  0.82947  1.0000
  O  Te38      1.0  0.11799  0.17240  0.50783  1.0000
  O  Te39      1.0  0.02760  0.15890  0.53230  1.0000
  O  Te40      1.0  0.05310  0.00069  0.85402  1.0000
  Mg  Mg19      1.0  0.06565  0.21073  0.42846  1.0000
  Mg  Mg20      1.0  0.10541  0.96235  0.93349  1.0000
  C  Sn41      1.0  0.56800  0.40389  0.93919  1.0000
  C   C109      1.0  0.55192  0.45103  0.86180  1.0000
  C  Sn42      1.0  0.57338  0.47075  0.74615  1.0000
  C  Sn43      1.0  0.61170  0.44276  0.70697  1.0000
  C   C110      1.0  0.62776  0.39565  0.78432  1.0000
  C  Sn44      1.0  0.60632  0.37590  0.90001  1.0000
  O  Te41      1.0  0.53380  0.38318  0.05441  1.0000
  O  Te42      1.0  0.55669  0.51797  0.67044  1.0000
  O  Te43      1.0  0.63368  0.46179  0.59165  1.0000
  O  Te44      1.0  0.62298  0.32871  0.97569  1.0000
  Mg  Mg21      1.0  0.59822  0.52778  0.52161  1.0000
  Mg  Mg22      1.0  0.56925  0.31712  0.12448  1.0000
  C  Sn45      1.0  0.41578  0.56099  0.68902  1.0000
  C   C111      1.0  0.45087  0.57554  0.77757  1.0000
  C  Sn46      1.0  0.44483  0.60743  0.89922  1.0000
  C  Sn47      1.0  0.40285  0.62513  0.93313  1.0000
  C   C112      1.0  0.36780  0.61058  0.84463  1.0000
  C  Sn48      1.0  0.37380  0.57869  0.72293  1.0000
  O  Te45      1.0  0.42257  0.52907  0.56795  1.0000
  O  Te46      1.0  0.48040  0.62147  0.98610  1.0000
  O  Te47      1.0  0.38388  0.65535  0.05432  1.0000
  O  Te48      1.0  0.33826  0.56464  0.63610  1.0000
  Mg  Mg23      1.0  0.44251  0.66386  0.13937  1.0000
  Mg  Mg24      1.0  0.36390  0.52051  0.48285  1.0000
  C  Sn49      1.0  0.44443  0.34585  0.76615  1.0000
  C   C113      1.0  0.40546  0.35122  0.83244  1.0000
  C  Sn50      1.0  0.39476  0.40342  0.89766  1.0000
  C  Sn51      1.0  0.42359  0.45128  0.89653  1.0000
  C   C114      1.0  0.46252  0.44590  0.83026  1.0000
  C  Sn52      1.0  0.47326  0.39371  0.76503  1.0000
  O  Te49      1.0  0.45447  0.29325  0.70161  1.0000
  O  Te50      1.0  0.35562  0.40773  0.96330  1.0000
  O  Te51      1.0  0.41352  0.50390  0.96116  1.0000
  O  Te52      1.0  0.51236  0.38939  0.69940  1.0000
  Mg  Mg25      1.0  0.34419  0.48672  0.03675  1.0000
  Mg  Mg26      1.0  0.51160  0.30871  0.62586  1.0000
  C  Sn53      1.0  0.57314  0.58997  0.96615  1.0000
  C   C115      1.0  0.53586  0.59091  0.88027  1.0000
  C  Sn54      1.0  0.53558  0.61945  0.75227  1.0000
  C  Sn55      1.0  0.57335  0.64762  0.70914  1.0000
  C   C116      1.0  0.61059  0.64667  0.79498  1.0000
  C  Sn56      1.0  0.61090  0.61814  0.92302  1.0000
  O  Te53      1.0  0.56048  0.55945  0.09368  1.0000
  O  Te54      1.0  0.49792  0.61982  0.66823  1.0000
  O  Te55      1.0  0.57377  0.67643  0.58149  1.0000
  O  Te56      1.0  0.63632  0.61604  0.00702  1.0000
  Mg  Mg27      1.0  0.51455  0.66482  0.50362  1.0000
  Mg  Mg28      1.0  0.61974  0.57102  0.17161  1.0000
  C  Sn57      1.0  0.07179  0.93333  0.55001  1.0000
  C   C117      1.0  0.03464  0.93019  0.62667  1.0000
  C  Sn58      1.0  0.03376  0.89555  0.74557  1.0000
  C  Sn59      1.0  0.07079  0.86338  0.78881  1.0000
  C   C118      1.0  0.10791  0.86654  0.71218  1.0000
  C  Sn60      1.0  0.10881  0.90117  0.59325  1.0000
  O  Te57      1.0  0.07194  0.96825  0.43149  1.0000
  O  Te58      1.0  0.99625  0.89310  0.82048  1.0000
  O  Te59      1.0  0.07061  0.82845  0.90743  1.0000
  O  Te60      1.0  0.14630  0.90363  0.51837  1.0000
  Mg  Mg29      1.0  0.01187  0.83937  0.97482  1.0000
  Mg  Mg30      1.0  0.13073  0.95737  0.36407  1.0000
  C  Sn61      1.0  0.89477  0.08660  0.59744  1.0000
  C   C119      1.0  0.88686  0.13076  0.69353  1.0000
  C  Sn62      1.0  0.92074  0.15571  0.77267  1.0000
  C  Sn63      1.0  0.96342  0.13613  0.75536  1.0000
  C   C120      1.0  0.97131  0.09201  0.65930  1.0000
  C  Sn64      1.0  0.93745  0.06703  0.58013  1.0000
  O  Te61      1.0  0.86042  0.06229  0.51943  1.0000
  O  Te62      1.0  0.91203  0.19978  0.86812  1.0000
  O  Te63      1.0  0.99778  0.16048  0.83347  1.0000
  O  Te64      1.0  0.94615  0.02299  0.48472  1.0000
  Mg  Mg31      1.0  0.96961  0.21932  0.95011  1.0000
  Mg  Mg32      1.0  0.88859  0.00345  0.40263  1.0000
