data_image0
_chemical_formula_structural       C60N12O12SnCSn2CSnTe4Mg2SnCSn2CSnTe4Mg2SnCSn2CSnTe4Mg2SnCSn2CSnTe4Mg2SnCSn2CSnTe4Mg2SnCSn2CSnTe4Mg2
_chemical_formula_sum              "C72 N12 O12 Sn24 Te24 Mg12"
_cell_length_a       21.4048
_cell_length_b       21.3908
_cell_length_c       8.10017
_cell_angle_alpha    105.244
_cell_angle_beta     107.977
_cell_angle_gamma    120.102

_symmetry_space_group_name_H-M    'P1'
_space_group_IT_number       1

loop_
  _space_group_symop_operation_xyz
  'x, y, z'

loop_
  _atom_site_type_symbol
  _atom_site_label
  _atom_site_symmetry_multiplicity
  _atom_site_fract_x
  _atom_site_fract_y
  _atom_site_fract_z
  _atom_site_occupancy
  C   C1        1.0  0.60019  0.27448  0.25409  1.0000
  C   C2        1.0  0.73258  0.32653  0.25491  1.0000
  C   C3        1.0  0.68153  0.40752  0.25731  1.0000
  C   C4        1.0  0.40951  0.72977  0.25488  1.0000
  C   C5        1.0  0.27788  0.67926  0.25702  1.0000
  C   C6        1.0  0.32653  0.59616  0.24832  1.0000
  C   C7        1.0  0.66221  0.26740  0.25558  1.0000
  C   C8        1.0  0.74101  0.39661  0.25877  1.0000
  C   C9        1.0  0.61148  0.34485  0.25361  1.0000
  C   C10       1.0  0.34856  0.73806  0.25678  1.0000
  C   C11       1.0  0.26829  0.60846  0.25044  1.0000
  C   C12       1.0  0.39685  0.65842  0.25186  1.0000
  C   C13       1.0  0.53901  0.20160  0.25286  1.0000
  C   C14       1.0  0.80360  0.33686  0.24919  1.0000
  C   C15       1.0  0.66876  0.46727  0.25258  1.0000
  C   C16       1.0  0.47108  0.80261  0.25672  1.0000
  C   C17       1.0  0.20734  0.66969  0.26427  1.0000
  C   C18       1.0  0.33737  0.53483  0.24805  1.0000
  C   C19       1.0  0.56745  0.15548  0.25454  1.0000
  C   C20       1.0  0.85130  0.41231  0.25326  1.0000
  C   C21       1.0  0.59323  0.43809  0.24836  1.0000
  C   C22       1.0  0.44426  0.85013  0.25985  1.0000
  C   C23       1.0  0.15919  0.59424  0.25974  1.0000
  C   C24       1.0  0.41204  0.56265  0.24898  1.0000
  C   C25       1.0  0.72290  0.53956  0.24909  1.0000
  C   C26       1.0  0.46800  0.18516  0.26188  1.0000
  C   C27       1.0  0.81932  0.28006  0.24338  1.0000
  C   C28       1.0  0.28285  0.46273  0.25172  1.0000
  C   C29       1.0  0.54026  0.81690  0.24124  1.0000
  C   C30       1.0  0.19169  0.72655  0.27128  1.0000
  C   C31       1.0  0.59186  0.27182  0.75425  1.0000
  C   C32       1.0  0.72419  0.32307  0.75500  1.0000
  C   C33       1.0  0.67393  0.40466  0.75734  1.0000
  C   C34       1.0  0.40130  0.72746  0.75514  1.0000
  C   C35       1.0  0.26971  0.67607  0.75782  1.0000
  C   C36       1.0  0.31907  0.59357  0.74803  1.0000
  C   C37       1.0  0.65362  0.26429  0.75557  1.0000
  C   C38       1.0  0.73301  0.39322  0.75857  1.0000
  C   C39       1.0  0.60363  0.34241  0.75379  1.0000
  C   C40       1.0  0.34007  0.73528  0.75715  1.0000
  C   C41       1.0  0.26030  0.60513  0.74985  1.0000
  C   C42       1.0  0.38924  0.65641  0.75226  1.0000
  C   C43       1.0  0.53062  0.19919  0.75365  1.0000
  C   C44       1.0  0.79501  0.33286  0.74912  1.0000
  C   C45       1.0  0.66207  0.46495  0.75263  1.0000
  C   C46       1.0  0.46251  0.80027  0.75638  1.0000
  C   C47       1.0  0.19904  0.66610  0.76516  1.0000
  C   C48       1.0  0.33083  0.53281  0.74792  1.0000
  C   C49       1.0  0.55840  0.15253  0.75396  1.0000
  C   C50       1.0  0.84294  0.40815  0.75274  1.0000
  C   C51       1.0  0.58671  0.43655  0.74848  1.0000
  C   C52       1.0  0.43498  0.84719  0.75826  1.0000
  C   C53       1.0  0.15072  0.59011  0.75840  1.0000
  C   C54       1.0  0.40578  0.56151  0.74933  1.0000
  C   C55       1.0  0.71673  0.53674  0.74813  1.0000
  C   C56       1.0  0.46068  0.18396  0.76654  1.0000
  C   C57       1.0  0.81087  0.27620  0.74409  1.0000
  C   C58       1.0  0.27606  0.45994  0.74883  1.0000
  C   C59       1.0  0.53203  0.81558  0.74118  1.0000
  C   C60       1.0  0.18428  0.72373  0.77418  1.0000
  N   N1        1.0  0.76847  0.59803  0.24172  1.0000
  N   N2        1.0  0.41115  0.17484  0.27592  1.0000
  N   N3        1.0  0.82954  0.23091  0.23945  1.0000
  N   N4        1.0  0.23734  0.40476  0.26071  1.0000
  N   N5        1.0  0.59509  0.82483  0.22059  1.0000
  N   N6        1.0  0.18091  0.77539  0.27660  1.0000
  N   N7        1.0  0.76242  0.59420  0.73798  1.0000
  N   N8        1.0  0.40481  0.17489  0.78375  1.0000
  N   N9        1.0  0.82162  0.22741  0.74014  1.0000
  N   N10       1.0  0.22996  0.40096  0.75401  1.0000
  N   N11       1.0  0.58740  0.82508  0.72074  1.0000
  N   N12       1.0  0.17534  0.77385  0.78070  1.0000
  O   O1        1.0  0.64278  0.19609  0.25687  1.0000
  O   O2        1.0  0.81279  0.44841  0.25882  1.0000
  O   O3        1.0  0.55851  0.36331  0.24855  1.0000
  O   O4        1.0  0.36934  0.81032  0.25963  1.0000
  O   O5        1.0  0.19665  0.55712  0.25123  1.0000
  O   O6        1.0  0.44808  0.63813  0.25182  1.0000
  O   O7        1.0  0.63360  0.19267  0.75558  1.0000
  O   O8        1.0  0.80478  0.44467  0.75819  1.0000
  O   O9        1.0  0.55119  0.36159  0.74835  1.0000
  O   O10       1.0  0.36025  0.80725  0.75867  1.0000
  O   O11       1.0  0.18844  0.55328  0.74960  1.0000
  O   O12       1.0  0.44101  0.63685  0.75187  1.0000
  C  Sn1       1.0  0.53952  0.56706  0.20822  1.0000
  C   C61       1.0  0.46103  0.52878  0.19354  1.0000
  C  Sn2       1.0  0.42613  0.46043  0.22308  1.0000
  C  Sn3       1.0  0.47065  0.42974  0.26836  1.0000
  C   C62       1.0  0.54910  0.46803  0.28305  1.0000
  C  Sn4       1.0  0.58403  0.53637  0.25350  1.0000
  O  Te1       1.0  0.57320  0.63531  0.17812  1.0000
  O  Te2       1.0  0.34755  0.42317  0.20756  1.0000
  O  Te3       1.0  0.43689  0.36144  0.29846  1.0000
  O  Te4       1.0  0.66257  0.57363  0.26903  1.0000
  Mg  Mg1       1.0  0.32795  0.33188  0.26147  1.0000
  Mg  Mg2       1.0  0.68226  0.66495  0.21526  1.0000
  C  Sn5       1.0  0.57864  0.00797  0.34601  1.0000
  C   C63       1.0  0.50032  0.94836  0.31767  1.0000
  C  Sn6       1.0  0.43288  0.94904  0.23806  1.0000
  C  Sn7       1.0  0.44391  0.01053  0.18554  1.0000
  C   C64       1.0  0.02097  0.07007  0.21384  1.0000
  C  Sn8       1.0  0.08846  0.06946  0.29349  1.0000
  O  Te5       1.0  0.64519  0.00611  0.42581  1.0000
  O  Te6       1.0  0.35519  0.88882  0.21118  1.0000
  O  Te7       1.0  0.37728  0.01234  0.10568  1.0000
  O  Te8       1.0  0.16610  0.12962  0.32034  1.0000
  Mg  Mg3       1.0  0.28360  0.91715  0.09721  1.0000
  Mg  Mg4       1.0  0.23772  0.10132  0.43419  1.0000
  C  Sn9       1.0  0.96776  0.54140  0.21689  1.0000
  C   C65       1.0  0.92402  0.46306  0.20235  1.0000
  C  Sn10      1.0  0.96381  0.42826  0.23526  1.0000
  C  Sn11      1.0  0.04913  0.47270  0.28384  1.0000
  C   C66       1.0  0.09282  0.55100  0.29839  1.0000
  C  Sn12      1.0  0.05307  0.58585  0.26547  1.0000
  O  Te9       1.0  0.92672  0.57500  0.18339  1.0000
  O  Te10      1.0  0.91878  0.34983  0.21982  1.0000
  O  Te11      1.0  0.09015  0.43903  0.31734  1.0000
  O  Te12      1.0  0.09806  0.66423  0.28093  1.0000
  Mg  Mg5       1.0  0.00221  0.33029  0.27903  1.0000
  Mg  Mg6       1.0  0.01471  0.68385  0.22186  1.0000
  C  Sn13      1.0  0.43371  0.44942  0.78687  1.0000
  C   C67       1.0  0.45585  0.52471  0.79867  1.0000
  C  Sn14      1.0  0.52011  0.57198  0.76622  1.0000
  C  Sn15      1.0  0.56311  0.54337  0.72089  1.0000
  C   C68       1.0  0.54095  0.46811  0.70907  1.0000
  C  Sn16      1.0  0.47671  0.42081  0.74154  1.0000
  O  Te13      1.0  0.36927  0.40318  0.81986  1.0000
  O  Te14      1.0  0.54115  0.64706  0.77890  1.0000
  O  Te15      1.0  0.62760  0.58968  0.68791  1.0000
  O  Te16      1.0  0.45566  0.34576  0.72885  1.0000
  Mg  Mg7       1.0  0.63333  0.68784  0.72166  1.0000
  Mg  Mg8       1.0  0.36346  0.30491  0.78595  1.0000
  C  Sn17      1.0  0.40703  0.95225  0.66815  1.0000
  C   C69       1.0  0.44807  0.91836  0.69697  1.0000
  C  Sn18      1.0  0.53554  0.96793  0.77603  1.0000
  C  Sn19      1.0  0.58300  0.05317  0.82747  1.0000
  C   C70       1.0  0.54197  0.08703  0.79868  1.0000
  C  Sn20      1.0  0.45449  0.03750  0.71960  1.0000
  O  Te17      1.0  0.31953  0.90154  0.58892  1.0000
  O  Te18      1.0  0.57515  0.93263  0.80341  1.0000
  O  Te19      1.0  0.67056  0.10388  0.90676  1.0000
  O  Te20      1.0  0.41489  0.07276  0.69225  1.0000
  Mg  Mg9       1.0  0.69569  0.02712  0.91626  1.0000
  Mg  Mg10      1.0  0.29436  0.97834  0.57951  1.0000
  C  Sn21      1.0  0.00822  0.44015  0.67706  1.0000
  C   C71       1.0  0.05406  0.52018  0.70111  1.0000
  C  Sn22      1.0  0.03745  0.57352  0.77274  1.0000
  C  Sn23      1.0  0.97373  0.54633  0.82147  1.0000
  C   C72       1.0  0.92795  0.46636  0.79745  1.0000
  C  Sn24      1.0  0.94450  0.41296  0.72579  1.0000
  O  Te21      1.0  0.02590  0.38787  0.60524  1.0000
  O  Te22      1.0  0.08409  0.65324  0.79546  1.0000
  O  Te23      1.0  0.95608  0.59869  0.89334  1.0000
  O  Te24      1.0  0.89792  0.33329  0.70310  1.0000
  Mg  Mg11      1.0  0.03668  0.70158  0.89867  1.0000
  Mg  Mg12      1.0  0.94530  0.28492  0.60002  1.0000
