data_image0
_chemical_formula_structural       H12C78N12O12SnCSn2CSnTe4Mg2SnCSn2CSnTe4Mg2SnCSn2CSnTe4Mg2
_chemical_formula_sum              "H12 C84 N12 O12 Sn12 Te12 Mg6"
_cell_length_a       21.4048
_cell_length_b       21.3908
_cell_length_c       8.10017
_cell_angle_alpha    105.244
_cell_angle_beta     107.977
_cell_angle_gamma    120.102

_symmetry_space_group_name_H-M    'P1'
_space_group_IT_number       1

loop_
  _space_group_symop_operation_xyz
  'x, y, z'

loop_
  _atom_site_type_symbol
  _atom_site_label
  _atom_site_symmetry_multiplicity
  _atom_site_fract_x
  _atom_site_fract_y
  _atom_site_fract_z
  _atom_site_occupancy
  H   H1        1.0  0.36026  0.41100  0.20664  1.0000
  H   H2        1.0  0.59653  0.96061  0.30488  1.0000
  H   H3        1.0  0.64331  0.58816  0.28542  1.0000
  H   H4        1.0  0.41566  0.04513  0.21098  1.0000
  H   H5        1.0  0.43905  0.35841  0.20688  1.0000
  H   H6        1.0  0.64874  0.09185  0.30369  1.0000
  H   H7        1.0  0.56442  0.64058  0.28462  1.0000
  H   H8        1.0  0.36366  0.91431  0.21309  1.0000
  H   H9        1.0  0.35529  0.41128  0.71074  1.0000
  H   H10       1.0  0.63636  0.58608  0.77917  1.0000
  H   H11       1.0  0.43380  0.35839  0.71084  1.0000
  H   H12       1.0  0.55815  0.63929  0.78115  1.0000
  C   C1        1.0  0.60019  0.27448  0.25409  1.0000
  C   C2        1.0  0.73258  0.32653  0.25491  1.0000
  C   C3        1.0  0.68153  0.40752  0.25731  1.0000
  C   C4        1.0  0.40951  0.72977  0.25488  1.0000
  C   C5        1.0  0.27788  0.67926  0.25702  1.0000
  C   C6        1.0  0.32653  0.59616  0.24832  1.0000
  C   C7        1.0  0.66221  0.26740  0.25558  1.0000
  C   C8        1.0  0.74101  0.39661  0.25877  1.0000
  C   C9        1.0  0.61148  0.34485  0.25361  1.0000
  C   C10       1.0  0.34856  0.73806  0.25678  1.0000
  C   C11       1.0  0.26829  0.60846  0.25044  1.0000
  C   C12       1.0  0.39685  0.65842  0.25186  1.0000
  C   C13       1.0  0.53901  0.20160  0.25286  1.0000
  C   C14       1.0  0.80360  0.33686  0.24919  1.0000
  C   C15       1.0  0.66876  0.46727  0.25258  1.0000
  C   C16       1.0  0.47108  0.80261  0.25672  1.0000
  C   C17       1.0  0.20734  0.66969  0.26427  1.0000
  C   C18       1.0  0.33737  0.53483  0.24805  1.0000
  C   C19       1.0  0.56745  0.15548  0.25454  1.0000
  C   C20       1.0  0.85130  0.41231  0.25326  1.0000
  C   C21       1.0  0.59323  0.43809  0.24836  1.0000
  C   C22       1.0  0.44426  0.85013  0.25985  1.0000
  C   C23       1.0  0.15919  0.59424  0.25974  1.0000
  C   C24       1.0  0.41204  0.56265  0.24898  1.0000
  C   C25       1.0  0.72290  0.53956  0.24909  1.0000
  C   C26       1.0  0.46800  0.18516  0.26188  1.0000
  C   C27       1.0  0.81932  0.28006  0.24338  1.0000
  C   C28       1.0  0.28285  0.46273  0.25172  1.0000
  C   C29       1.0  0.54026  0.81690  0.24124  1.0000
  C   C30       1.0  0.19169  0.72655  0.27128  1.0000
  C   C31       1.0  0.45683  0.53009  0.24665  1.0000
  C   C32       1.0  0.47602  0.92747  0.25874  1.0000
  C   C33       1.0  0.54697  0.46920  0.24609  1.0000
  C   C34       1.0  0.53631  0.07850  0.25725  1.0000
  C   C35       1.0  0.42219  0.45011  0.22464  1.0000
  C   C36       1.0  0.55662  0.97863  0.28369  1.0000
  C   C37       1.0  0.58133  0.54896  0.26693  1.0000
  C   C38       1.0  0.45578  0.02738  0.23275  1.0000
  C   C39       1.0  0.46661  0.42021  0.22447  1.0000
  C   C40       1.0  0.58631  0.05294  0.28320  1.0000
  C   C41       1.0  0.53692  0.57881  0.26703  1.0000
  C   C42       1.0  0.42609  0.95313  0.23339  1.0000
  C   C43       1.0  0.59186  0.27182  0.75425  1.0000
  C   C44       1.0  0.72419  0.32307  0.75500  1.0000
  C   C45       1.0  0.67393  0.40466  0.75734  1.0000
  C   C46       1.0  0.40130  0.72746  0.75514  1.0000
  C   C47       1.0  0.26971  0.67607  0.75782  1.0000
  C   C48       1.0  0.31907  0.59357  0.74803  1.0000
  C   C49       1.0  0.65362  0.26429  0.75557  1.0000
  C   C50       1.0  0.73301  0.39322  0.75857  1.0000
  C   C51       1.0  0.60363  0.34241  0.75379  1.0000
  C   C52       1.0  0.34007  0.73528  0.75715  1.0000
  C   C53       1.0  0.26030  0.60513  0.74985  1.0000
  C   C54       1.0  0.38924  0.65641  0.75226  1.0000
  C   C55       1.0  0.53062  0.19919  0.75365  1.0000
  C   C56       1.0  0.79501  0.33286  0.74912  1.0000
  C   C57       1.0  0.66207  0.46495  0.75263  1.0000
  C   C58       1.0  0.46251  0.80027  0.75638  1.0000
  C   C59       1.0  0.19904  0.66610  0.76516  1.0000
  C   C60       1.0  0.33083  0.53281  0.74792  1.0000
  C   C61       1.0  0.55840  0.15253  0.75396  1.0000
  C   C62       1.0  0.84294  0.40815  0.75274  1.0000
  C   C63       1.0  0.58671  0.43655  0.74848  1.0000
  C   C64       1.0  0.43498  0.84719  0.75826  1.0000
  C   C65       1.0  0.15072  0.59011  0.75840  1.0000
  C   C66       1.0  0.40578  0.56151  0.74933  1.0000
  C   C67       1.0  0.71673  0.53674  0.74813  1.0000
  C   C68       1.0  0.46068  0.18396  0.76654  1.0000
  C   C69       1.0  0.81087  0.27620  0.74409  1.0000
  C   C70       1.0  0.27606  0.45994  0.74883  1.0000
  C   C71       1.0  0.53203  0.81558  0.74118  1.0000
  C   C72       1.0  0.18428  0.72373  0.77418  1.0000
  C   C73       1.0  0.45127  0.52965  0.74772  1.0000
  C   C74       1.0  0.54112  0.46841  0.74656  1.0000
  C   C75       1.0  0.41699  0.45004  0.72763  1.0000
  C   C76       1.0  0.57506  0.54770  0.76456  1.0000
  C   C77       1.0  0.46123  0.42000  0.72736  1.0000
  C   C78       1.0  0.53090  0.57786  0.76562  1.0000
  N   N1        1.0  0.76847  0.59803  0.24172  1.0000
  N   N2        1.0  0.41115  0.17484  0.27592  1.0000
  N   N3        1.0  0.82954  0.23091  0.23945  1.0000
  N   N4        1.0  0.23734  0.40476  0.26071  1.0000
  N   N5        1.0  0.59509  0.82483  0.22059  1.0000
  N   N6        1.0  0.18091  0.77539  0.27660  1.0000
  N   N7        1.0  0.76242  0.59420  0.73798  1.0000
  N   N8        1.0  0.40481  0.17489  0.78375  1.0000
  N   N9        1.0  0.82162  0.22741  0.74014  1.0000
  N   N10       1.0  0.22996  0.40096  0.75401  1.0000
  N   N11       1.0  0.58740  0.82508  0.72074  1.0000
  N   N12       1.0  0.17534  0.77385  0.78070  1.0000
  O   O1        1.0  0.64278  0.19609  0.25687  1.0000
  O   O2        1.0  0.81279  0.44841  0.25882  1.0000
  O   O3        1.0  0.55851  0.36331  0.24855  1.0000
  O   O4        1.0  0.36934  0.81032  0.25963  1.0000
  O   O5        1.0  0.19665  0.55712  0.25123  1.0000
  O   O6        1.0  0.44808  0.63813  0.25182  1.0000
  O   O7        1.0  0.63360  0.19267  0.75558  1.0000
  O   O8        1.0  0.80478  0.44467  0.75819  1.0000
  O   O9        1.0  0.55119  0.36159  0.74835  1.0000
  O   O10       1.0  0.36025  0.80725  0.75867  1.0000
  O   O11       1.0  0.18844  0.55328  0.74960  1.0000
  O   O12       1.0  0.44101  0.63685  0.75187  1.0000
  C  Sn1       1.0  0.40703  0.95225  0.66815  1.0000
  C   C79       1.0  0.44807  0.91836  0.69697  1.0000
  C  Sn2       1.0  0.53554  0.96793  0.77603  1.0000
  C  Sn3       1.0  0.58300  0.05317  0.82747  1.0000
  C   C80       1.0  0.54197  0.08703  0.79868  1.0000
  C  Sn4       1.0  0.45449  0.03750  0.71960  1.0000
  O  Te1       1.0  0.31953  0.90154  0.58892  1.0000
  O  Te2       1.0  0.57515  0.93263  0.80341  1.0000
  O  Te3       1.0  0.67056  0.10388  0.90676  1.0000
  O  Te4       1.0  0.41489  0.07276  0.69225  1.0000
  Mg  Mg1       1.0  0.69569  0.02712  0.91626  1.0000
  Mg  Mg2       1.0  0.29436  0.97834  0.57951  1.0000
  C  Sn5       1.0  0.95925  0.53671  0.71555  1.0000
  C   C81       1.0  0.91563  0.45845  0.70150  1.0000
  C  Sn6       1.0  0.95552  0.42376  0.73469  1.0000
  C  Sn7       1.0  0.04081  0.46822  0.78306  1.0000
  C   C82       1.0  0.08438  0.54642  0.79712  1.0000
  C  Sn8       1.0  0.04453  0.58117  0.76392  1.0000
  O  Te5       1.0  0.91811  0.57020  0.68177  1.0000
  O  Te6       1.0  0.91061  0.34542  0.71973  1.0000
  O  Te7       1.0  0.08193  0.43466  0.81684  1.0000
  O  Te8       1.0  0.08941  0.65946  0.77889  1.0000
  Mg  Mg3       1.0  0.99415  0.32601  0.77917  1.0000
  Mg  Mg4       1.0  0.00595  0.67895  0.71959  1.0000
  C  Sn9       1.0  0.01649  0.44460  0.17757  1.0000
  C   C83       1.0  0.06255  0.52480  0.20264  1.0000
  C  Sn10      1.0  0.04597  0.57813  0.27460  1.0000
  C  Sn11      1.0  0.98203  0.55074  0.32263  1.0000
  C   C84       1.0  0.93602  0.47060  0.29760  1.0000
  C  Sn12      1.0  0.95255  0.41722  0.22560  1.0000
  O  Te9       1.0  0.03414  0.39235  0.10542  1.0000
  O  Te10      1.0  0.09284  0.65802  0.29834  1.0000
  O  Te11      1.0  0.96440  0.60308  0.39482  1.0000
  O  Te12      1.0  0.90573  0.33738  0.20189  1.0000
  Mg  Mg5       1.0  0.04536  0.70625  0.40162  1.0000
  Mg  Mg6       1.0  0.95319  0.28911  0.09873  1.0000
