data_image0
_chemical_formula_structural       H12C78N12O12C2Sn2C2HTe2HMgC2Sn2C2HTe2HMgC2Sn2C2HTe2HMg
_chemical_formula_sum              "H18 C90 N12 O12 Sn6 Te6 Mg3"
_cell_length_a       21.4048
_cell_length_b       21.3908
_cell_length_c       8.10017
_cell_angle_alpha    105.244
_cell_angle_beta     107.977
_cell_angle_gamma    120.102

_symmetry_space_group_name_H-M    'P1'
_space_group_IT_number       1

loop_
  _space_group_symop_operation_xyz
  'x, y, z'

loop_
  _atom_site_type_symbol
  _atom_site_label
  _atom_site_symmetry_multiplicity
  _atom_site_fract_x
  _atom_site_fract_y
  _atom_site_fract_z
  _atom_site_occupancy
  H   H1        1.0  0.36026  0.41100  0.20664  1.0000
  H   H2        1.0  0.64331  0.58816  0.28542  1.0000
  H   H3        1.0  0.43905  0.35841  0.20688  1.0000
  H   H4        1.0  0.56442  0.64058  0.28462  1.0000
  H   H5        1.0  0.35529  0.41128  0.71074  1.0000
  H   H6        1.0  0.58706  0.95755  0.80274  1.0000
  H   H7        1.0  0.63636  0.58608  0.77917  1.0000
  H   H8        1.0  0.40631  0.04221  0.70847  1.0000
  H   H9        1.0  0.43380  0.35839  0.71084  1.0000
  H   H10       1.0  0.63908  0.08857  0.80042  1.0000
  H   H11       1.0  0.55815  0.63929  0.78115  1.0000
  H   H12       1.0  0.35378  0.91069  0.70915  1.0000
  C   C1        1.0  0.60019  0.27448  0.25409  1.0000
  C   C2        1.0  0.73258  0.32653  0.25491  1.0000
  C   C3        1.0  0.68153  0.40752  0.25731  1.0000
  C   C4        1.0  0.40951  0.72977  0.25488  1.0000
  C   C5        1.0  0.27788  0.67926  0.25702  1.0000
  C   C6        1.0  0.32653  0.59616  0.24832  1.0000
  C   C7        1.0  0.66221  0.26740  0.25558  1.0000
  C   C8        1.0  0.74101  0.39661  0.25877  1.0000
  C   C9        1.0  0.61148  0.34485  0.25361  1.0000
  C   C10       1.0  0.34856  0.73806  0.25678  1.0000
  C   C11       1.0  0.26829  0.60846  0.25044  1.0000
  C   C12       1.0  0.39685  0.65842  0.25186  1.0000
  C   C13       1.0  0.53901  0.20160  0.25286  1.0000
  C   C14       1.0  0.80360  0.33686  0.24919  1.0000
  C   C15       1.0  0.66876  0.46727  0.25258  1.0000
  C   C16       1.0  0.47108  0.80261  0.25672  1.0000
  C   C17       1.0  0.20734  0.66969  0.26427  1.0000
  C   C18       1.0  0.33737  0.53483  0.24805  1.0000
  C   C19       1.0  0.56745  0.15548  0.25454  1.0000
  C   C20       1.0  0.85130  0.41231  0.25326  1.0000
  C   C21       1.0  0.59323  0.43809  0.24836  1.0000
  C   C22       1.0  0.44426  0.85013  0.25985  1.0000
  C   C23       1.0  0.15919  0.59424  0.25974  1.0000
  C   C24       1.0  0.41204  0.56265  0.24898  1.0000
  C   C25       1.0  0.72290  0.53956  0.24909  1.0000
  C   C26       1.0  0.46800  0.18516  0.26188  1.0000
  C   C27       1.0  0.81932  0.28006  0.24338  1.0000
  C   C28       1.0  0.28285  0.46273  0.25172  1.0000
  C   C29       1.0  0.54026  0.81690  0.24124  1.0000
  C   C30       1.0  0.19169  0.72655  0.27128  1.0000
  C   C31       1.0  0.45683  0.53009  0.24665  1.0000
  C   C32       1.0  0.54697  0.46920  0.24609  1.0000
  C   C33       1.0  0.42219  0.45011  0.22464  1.0000
  C   C34       1.0  0.58133  0.54896  0.26693  1.0000
  C   C35       1.0  0.46661  0.42021  0.22447  1.0000
  C   C36       1.0  0.53692  0.57881  0.26703  1.0000
  C   C37       1.0  0.59186  0.27182  0.75425  1.0000
  C   C38       1.0  0.72419  0.32307  0.75500  1.0000
  C   C39       1.0  0.67393  0.40466  0.75734  1.0000
  C   C40       1.0  0.40130  0.72746  0.75514  1.0000
  C   C41       1.0  0.26971  0.67607  0.75782  1.0000
  C   C42       1.0  0.31907  0.59357  0.74803  1.0000
  C   C43       1.0  0.65362  0.26429  0.75557  1.0000
  C   C44       1.0  0.73301  0.39322  0.75857  1.0000
  C   C45       1.0  0.60363  0.34241  0.75379  1.0000
  C   C46       1.0  0.34007  0.73528  0.75715  1.0000
  C   C47       1.0  0.26030  0.60513  0.74985  1.0000
  C   C48       1.0  0.38924  0.65641  0.75226  1.0000
  C   C49       1.0  0.53062  0.19919  0.75365  1.0000
  C   C50       1.0  0.79501  0.33286  0.74912  1.0000
  C   C51       1.0  0.66207  0.46495  0.75263  1.0000
  C   C52       1.0  0.46251  0.80027  0.75638  1.0000
  C   C53       1.0  0.19904  0.66610  0.76516  1.0000
  C   C54       1.0  0.33083  0.53281  0.74792  1.0000
  C   C55       1.0  0.55840  0.15253  0.75396  1.0000
  C   C56       1.0  0.84294  0.40815  0.75274  1.0000
  C   C57       1.0  0.58671  0.43655  0.74848  1.0000
  C   C58       1.0  0.43498  0.84719  0.75826  1.0000
  C   C59       1.0  0.15072  0.59011  0.75840  1.0000
  C   C60       1.0  0.40578  0.56151  0.74933  1.0000
  C   C61       1.0  0.71673  0.53674  0.74813  1.0000
  C   C62       1.0  0.46068  0.18396  0.76654  1.0000
  C   C63       1.0  0.81087  0.27620  0.74409  1.0000
  C   C64       1.0  0.27606  0.45994  0.74883  1.0000
  C   C65       1.0  0.53203  0.81558  0.74118  1.0000
  C   C66       1.0  0.18428  0.72373  0.77418  1.0000
  C   C67       1.0  0.45127  0.52965  0.74772  1.0000
  C   C68       1.0  0.46649  0.92438  0.75663  1.0000
  C   C69       1.0  0.54112  0.46841  0.74656  1.0000
  C   C70       1.0  0.52689  0.07542  0.75578  1.0000
  C   C71       1.0  0.41699  0.45004  0.72763  1.0000
  C   C72       1.0  0.54713  0.97554  0.78163  1.0000
  C   C73       1.0  0.57506  0.54770  0.76456  1.0000
  C   C74       1.0  0.44626  0.02426  0.73062  1.0000
  C   C75       1.0  0.46123  0.42000  0.72736  1.0000
  C   C76       1.0  0.57681  0.04978  0.78096  1.0000
  C   C77       1.0  0.53090  0.57786  0.76562  1.0000
  C   C78       1.0  0.41643  0.94987  0.73069  1.0000
  N   N1        1.0  0.76847  0.59803  0.24172  1.0000
  N   N2        1.0  0.41115  0.17484  0.27592  1.0000
  N   N3        1.0  0.82954  0.23091  0.23945  1.0000
  N   N4        1.0  0.23734  0.40476  0.26071  1.0000
  N   N5        1.0  0.59509  0.82483  0.22059  1.0000
  N   N6        1.0  0.18091  0.77539  0.27660  1.0000
  N   N7        1.0  0.76242  0.59420  0.73798  1.0000
  N   N8        1.0  0.40481  0.17489  0.78375  1.0000
  N   N9        1.0  0.82162  0.22741  0.74014  1.0000
  N   N10       1.0  0.22996  0.40096  0.75401  1.0000
  N   N11       1.0  0.58740  0.82508  0.72074  1.0000
  N   N12       1.0  0.17534  0.77385  0.78070  1.0000
  O   O1        1.0  0.64278  0.19609  0.25687  1.0000
  O   O2        1.0  0.81279  0.44841  0.25882  1.0000
  O   O3        1.0  0.55851  0.36331  0.24855  1.0000
  O   O4        1.0  0.36934  0.81032  0.25963  1.0000
  O   O5        1.0  0.19665  0.55712  0.25123  1.0000
  O   O6        1.0  0.44808  0.63813  0.25182  1.0000
  O   O7        1.0  0.63360  0.19267  0.75558  1.0000
  O   O8        1.0  0.80478  0.44467  0.75819  1.0000
  O   O9        1.0  0.55119  0.36159  0.74835  1.0000
  O   O10       1.0  0.36025  0.80725  0.75867  1.0000
  O   O11       1.0  0.18844  0.55328  0.74960  1.0000
  O   O12       1.0  0.44101  0.63685  0.75187  1.0000
  C   C79       1.0  0.57286  0.99671  0.28235  1.0000
  C   C80       1.0  0.49885  0.94060  0.27520  1.0000
  C  Sn1       1.0  0.43865  0.95233  0.24863  1.0000
  C  Sn2       1.0  0.45296  0.02158  0.22886  1.0000
  C   C81       1.0  0.02596  0.07733  0.23608  1.0000
  C   C82       1.0  0.08580  0.06500  0.26279  1.0000
  H   H13       1.0  0.61914  0.98715  0.30290  1.0000
  O  Te1       1.0  0.36507  0.89569  0.24190  1.0000
  O  Te2       1.0  0.39383  0.03478  0.20209  1.0000
  H   H14       1.0  0.14307  0.10843  0.26819  1.0000
  Mg  Mg1       1.0  0.30336  0.94034  0.20283  1.0000
  C   C83       1.0  0.98719  0.42488  0.22943  1.0000
  C   C84       1.0  0.94002  0.44884  0.26034  1.0000
  C  Sn3       1.0  0.96341  0.52599  0.28463  1.0000
  C  Sn4       1.0  0.03539  0.57999  0.27773  1.0000
  C   C85       1.0  0.08213  0.55542  0.24659  1.0000
  C   C86       1.0  0.05817  0.47810  0.22252  1.0000
  H   H15       1.0  0.96863  0.36504  0.21070  1.0000
  O  Te3       1.0  0.91559  0.54897  0.31545  1.0000
  O  Te4       1.0  0.06016  0.65743  0.30148  1.0000
  H   H16       1.0  0.09468  0.45953  0.19847  1.0000
  Mg  Mg2       1.0  0.97468  0.66079  0.33981  1.0000
  C   C87       1.0  0.97492  0.55375  0.78321  1.0000
  C   C88       1.0  0.92563  0.47212  0.74860  1.0000
  C  Sn5       1.0  0.95401  0.42595  0.72683  1.0000
  C  Sn6       1.0  0.03325  0.46235  0.74008  1.0000
  C   C89       1.0  0.08211  0.54409  0.77489  1.0000
  C   C90       1.0  0.05310  0.58972  0.79638  1.0000
  H   H17       1.0  0.95250  0.58908  0.79995  1.0000
  O  Te5       1.0  0.90396  0.34445  0.69224  1.0000
  O  Te6       1.0  0.06315  0.41762  0.71897  1.0000
  H   H18       1.0  0.09130  0.65294  0.82331  1.0000
  Mg  Mg3       1.0  0.97199  0.30865  0.67361  1.0000
