data_image0
_chemical_formula_structural       H46C100N12C2Sn2C2HTe2HMgC2Sn2C2HTe2HMgC2Sn2C2HTe2HMgC2Sn2C2HTe2HMgC2Sn2C2HTe2HMgC2Sn2C2HTe2HMgC2Sn2C2HTe2HMgC2Sn2C2HTe2HMgC2Sn2C2HTe2HMgC2Sn2C2HTe2HMgC2Sn2C2HTe2HMgC2Sn2C2HTe2HMgC2Sn2C2HTe2HMgC2Sn2C2HTe2HMgC2Sn2C2HTe2HMgC2Sn2C2HTe2HMgC2Sn2C2HTe2HMgC2Sn2C2HTe2HMgC2Sn2C2HTe2HMgC2Sn2C2HTe2HMgC2Sn2C2HTe2HMgC2Sn2C2HTe2HMgC2Sn2C2HTe2HMgC2Sn2C2HTe2HMg
_chemical_formula_sum              "H94 C196 N12 Sn48 Te48 Mg24"
_cell_length_a       53.0981
_cell_length_b       52.6313
_cell_length_c       20.4912
_cell_angle_alpha    90.3924
_cell_angle_beta     89.7844
_cell_angle_gamma    120.183

_symmetry_space_group_name_H-M    'P1'
_space_group_IT_number       1

loop_
  _space_group_symop_operation_xyz
  'x, y, z'

loop_
  _atom_site_type_symbol
  _atom_site_label
  _atom_site_symmetry_multiplicity
  _atom_site_fract_x
  _atom_site_fract_y
  _atom_site_fract_z
  _atom_site_occupancy
  H   H1        1.0  0.46855  0.60546  0.69268  1.0000
  H   H2        1.0  0.39588  0.86249  0.69603  1.0000
  H   H3        1.0  0.13650  0.53181  0.70665  1.0000
  H   H4        1.0  0.53264  0.39681  0.69333  1.0000
  H   H5        1.0  0.60490  0.13635  0.69447  1.0000
  H   H6        1.0  0.86320  0.46859  0.70159  1.0000
  H   H7        1.0  0.53852  0.39735  0.28476  1.0000
  H   H8        1.0  0.60234  0.13408  0.31047  1.0000
  H   H9        1.0  0.86764  0.46687  0.31923  1.0000
  H   H10       1.0  0.46756  0.60427  0.30193  1.0000
  H   H11       1.0  0.39440  0.86357  0.30824  1.0000
  H   H12       1.0  0.13408  0.53084  0.30624  1.0000
  H   H13       1.0  0.36662  0.64364  0.62179  1.0000
  H   H14       1.0  0.35259  0.72188  0.61909  1.0000
  H   H15       1.0  0.27596  0.62994  0.62278  1.0000
  H   H16       1.0  0.63145  0.35668  0.61882  1.0000
  H   H17       1.0  0.64620  0.27810  0.62238  1.0000
  H   H18       1.0  0.72224  0.37195  0.62396  1.0000
  H   H19       1.0  0.63347  0.35582  0.37585  1.0000
  H   H20       1.0  0.64538  0.27712  0.37950  1.0000
  H   H21       1.0  0.72476  0.36680  0.38151  1.0000
  H   H22       1.0  0.36737  0.64269  0.37886  1.0000
  H   H23       1.0  0.35308  0.72007  0.37632  1.0000
  H   H24       1.0  0.27410  0.62773  0.37993  1.0000
  H   H25       1.0  0.47360  0.54764  0.94175  1.0000
  H   H26       1.0  0.45491  0.92547  0.93551  1.0000
  H   H27       1.0  0.07282  0.53223  0.94140  1.0000
  H   H28       1.0  0.53124  0.45770  0.93745  1.0000
  H   H29       1.0  0.54625  0.07350  0.94152  1.0000
  H   H30       1.0  0.92516  0.46848  0.94237  1.0000
  H   H31       1.0  0.53247  0.45854  0.05698  1.0000
  H   H32       1.0  0.54514  0.07295  0.06074  1.0000
  H   H33       1.0  0.92511  0.46725  0.06156  1.0000
  H   H34       1.0  0.47322  0.54692  0.06128  1.0000
  H   H35       1.0  0.45366  0.92486  0.05495  1.0000
  H   H36       1.0  0.07290  0.53130  0.06082  1.0000
  H   H37       1.0  0.50290  0.50177  0.22398  1.0000
  H   H38       1.0  0.49728  0.99814  0.22333  1.0000
  H   H39       1.0  0.99900  0.49809  0.22659  1.0000
  H   H40       1.0  0.50253  0.50317  0.77410  1.0000
  H   H41       1.0  0.50037  0.99996  0.77310  1.0000
  H   H42       1.0  0.99921  0.50189  0.77650  1.0000
  H   H43       1.0  0.33196  0.66522  0.61641  1.0000
  H   H44       1.0  0.66582  0.33492  0.61741  1.0000
  H   H45       1.0  0.66816  0.33394  0.38346  1.0000
  H   H46       1.0  0.33110  0.66287  0.38250  1.0000
  C   C1        1.0  0.44497  0.59028  0.68736  1.0000
  C   C2        1.0  0.41108  0.85473  0.68353  1.0000
  C   C3        1.0  0.14423  0.55480  0.69313  1.0000
  C   C4        1.0  0.55548  0.41241  0.68054  1.0000
  C   C5        1.0  0.59007  0.14490  0.68584  1.0000
  C   C6        1.0  0.85541  0.44546  0.68876  1.0000
  C   C7        1.0  0.56016  0.41354  0.30371  1.0000
  C   C8        1.0  0.58793  0.14334  0.31656  1.0000
  C   C9        1.0  0.85722  0.44279  0.32172  1.0000
  C   C10       1.0  0.44491  0.58848  0.31569  1.0000
  C   C11       1.0  0.40858  0.85398  0.31252  1.0000
  C   C12       1.0  0.14186  0.55400  0.31871  1.0000
  C   C13       1.0  0.49077  0.51811  0.92996  1.0000
  C   C14       1.0  0.48491  0.97239  0.92744  1.0000
  C   C15       1.0  0.02612  0.51344  0.93159  1.0000
  C   C16       1.0  0.51467  0.48777  0.92834  1.0000
  C   C17       1.0  0.51552  0.02686  0.92897  1.0000
  C   C18       1.0  0.97200  0.48769  0.93161  1.0000
  C   C19       1.0  0.51523  0.48796  0.06792  1.0000
  C   C20       1.0  0.51447  0.02620  0.06926  1.0000
  C   C21       1.0  0.97196  0.48634  0.07153  1.0000
  C   C22       1.0  0.49067  0.51755  0.06989  1.0000
  C   C23       1.0  0.48371  0.97172  0.06706  1.0000
  C   C24       1.0  0.02613  0.51222  0.07148  1.0000
  C   C25       1.0  0.49005  0.51726  0.86057  1.0000
  C   C26       1.0  0.48618  0.97289  0.85818  1.0000
  C   C27       1.0  0.02595  0.51440  0.86225  1.0000
  C   C28       1.0  0.51517  0.48868  0.85897  1.0000
  C   C29       1.0  0.51474  0.02691  0.85944  1.0000
  C   C30       1.0  0.97238  0.48795  0.86219  1.0000
  C   C31       1.0  0.51597  0.48866  0.13709  1.0000
  C   C32       1.0  0.51284  0.02563  0.13864  1.0000
  C   C33       1.0  0.97234  0.48538  0.14083  1.0000
  C   C34       1.0  0.48988  0.51616  0.13924  1.0000
  C   C35       1.0  0.48393  0.97161  0.13647  1.0000
  C   C36       1.0  0.02590  0.51204  0.14089  1.0000
  C   C37       1.0  0.38360  0.63388  0.53523  1.0000
  C   C38       1.0  0.36228  0.74759  0.53147  1.0000
  C   C39       1.0  0.24902  0.61225  0.53681  1.0000
  C   C40       1.0  0.61619  0.36667  0.53035  1.0000
  C   C41       1.0  0.63656  0.25145  0.53546  1.0000
  C   C42       1.0  0.74938  0.38652  0.53796  1.0000
  C   C43       1.0  0.61672  0.36634  0.46164  1.0000
  C   C44       1.0  0.63582  0.25095  0.46665  1.0000
  C   C45       1.0  0.75024  0.38469  0.46930  1.0000
  C   C46       1.0  0.38412  0.63403  0.46647  1.0000
  C   C47       1.0  0.36255  0.74718  0.46268  1.0000
  C   C48       1.0  0.24859  0.61177  0.46804  1.0000
  C   C49       1.0  0.36668  0.64355  0.56869  1.0000
  C   C50       1.0  0.35225  0.72117  0.56602  1.0000
  C   C51       1.0  0.27572  0.62913  0.56969  1.0000
  C   C52       1.0  0.63184  0.35627  0.56574  1.0000
  C   C53       1.0  0.64635  0.27818  0.56929  1.0000
  C   C54       1.0  0.72253  0.37099  0.57091  1.0000
  C   C55       1.0  0.63295  0.35566  0.42895  1.0000
  C   C56       1.0  0.64563  0.27748  0.43260  1.0000
  C   C57       1.0  0.72402  0.36782  0.43451  1.0000
  C   C58       1.0  0.36736  0.64338  0.43194  1.0000
  C   C59       1.0  0.35269  0.72023  0.42942  1.0000
  C   C60       1.0  0.27484  0.62795  0.43301  1.0000
  C   C61       1.0  0.48085  0.53446  0.96745  1.0000
  C   C62       1.0  0.46792  0.94572  0.96282  1.0000
  C   C63       1.0  0.05248  0.52398  0.96800  1.0000
  C   C64       1.0  0.52445  0.47112  0.96424  1.0000
  C   C65       1.0  0.53230  0.05303  0.96681  1.0000
  C   C66       1.0  0.94558  0.47636  0.96840  1.0000
  C   C67       1.0  0.52504  0.47147  0.03092  1.0000
  C   C68       1.0  0.53179  0.05273  0.03358  1.0000
  C   C69       1.0  0.94554  0.47567  0.03512  1.0000
  C   C70       1.0  0.48063  0.53405  0.03422  1.0000
  C   C71       1.0  0.46726  0.94539  0.02951  1.0000
  C   C72       1.0  0.05251  0.52344  0.03469  1.0000
  C   C73       1.0  0.35061  0.65313  0.53409  1.0000
  C   C74       1.0  0.34265  0.69481  0.53269  1.0000
  C   C75       1.0  0.30138  0.64500  0.53455  1.0000
  C   C76       1.0  0.64786  0.34593  0.53291  1.0000
  C   C77       1.0  0.65563  0.30410  0.53509  1.0000
  C   C78       1.0  0.69697  0.35396  0.53599  1.0000
  C   C79       1.0  0.64853  0.34573  0.46439  1.0000
  C   C80       1.0  0.65573  0.30373  0.46654  1.0000
  C   C81       1.0  0.69765  0.35298  0.46749  1.0000
  C   C82       1.0  0.35066  0.65275  0.46554  1.0000
  C   C83       1.0  0.34267  0.69429  0.46414  1.0000
  C   C84       1.0  0.30108  0.64437  0.46600  1.0000
  C   C85       1.0  0.50261  0.50309  0.82720  1.0000
  C   C86       1.0  0.50045  0.99994  0.82621  1.0000
  C   C87       1.0  0.99920  0.50151  0.82959  1.0000
  C   C88       1.0  0.50294  0.50221  0.17090  1.0000
  C   C89       1.0  0.49796  0.99846  0.17022  1.0000
  C   C90       1.0  0.99911  0.49849  0.17348  1.0000
  C   C91       1.0  0.50294  0.50287  0.03393  1.0000
  C   C92       1.0  0.49934  0.99916  0.03321  1.0000
  C   C93       1.0  0.99905  0.49962  0.03659  1.0000
  C   C94       1.0  0.50286  0.50298  0.96396  1.0000
  C   C95       1.0  0.49993  0.99951  0.96316  1.0000
  C   C96       1.0  0.99905  0.50029  0.96656  1.0000
  C   C97       1.0  0.33129  0.66344  0.43592  1.0000
  C   C98       1.0  0.66759  0.33412  0.43687  1.0000
  C   C99       1.0  0.66645  0.33471  0.56399  1.0000
  C   C100      1.0  0.33168  0.66462  0.56299  1.0000
  N   N1        1.0  0.43190  0.56461  0.71399  1.0000
  N   N2        1.0  0.43772  0.86812  0.70367  1.0000
  N   N3        1.0  0.13114  0.56857  0.71255  1.0000
  N   N4        1.0  0.56899  0.43911  0.70211  1.0000
  N   N5        1.0  0.56409  0.13251  0.70993  1.0000
  N   N6        1.0  0.86841  0.43183  0.70898  1.0000
  N   N7        1.0  0.57240  0.44103  0.28870  1.0000
  N   N8        1.0  0.56229  0.13128  0.29083  1.0000
  N   N9        1.0  0.86796  0.42852  0.29250  1.0000
  N   N10       1.0  0.43186  0.56155  0.29544  1.0000
  N   N11       1.0  0.43373  0.86537  0.28433  1.0000
  N   N12       1.0  0.12891  0.56760  0.29787  1.0000
  C   C101      1.0  0.39150  0.58484  0.64047  1.0000
  C   C102      1.0  0.42143  0.59565  0.64572  1.0000
  C  Sn1       1.0  0.44125  0.62200  0.61558  1.0000
  C  Sn2       1.0  0.43085  0.63779  0.57957  1.0000
  C   C103      1.0  0.40086  0.62680  0.57465  1.0000
  C   C104      1.0  0.38121  0.60040  0.60498  1.0000
  H   H47       1.0  0.37630  0.56442  0.66397  1.0000
  O  Te1       1.0  0.47109  0.63248  0.62130  1.0000
  O  Te2       1.0  0.45017  0.66419  0.54899  1.0000
  H   H48       1.0  0.35804  0.59205  0.60094  1.0000
  Mg  Mg1       1.0  0.48882  0.66948  0.57087  1.0000
  C   C105      1.0  0.36321  0.80772  0.61682  1.0000
  C   C106      1.0  0.39118  0.82391  0.64327  1.0000
  C  Sn3       1.0  0.41217  0.81608  0.62932  1.0000
  C  Sn4       1.0  0.40497  0.79159  0.58809  1.0000
  C   C107      1.0  0.37693  0.77555  0.56183  1.0000
  C   C108      1.0  0.35608  0.78357  0.57613  1.0000
  H   H49       1.0  0.34708  0.81393  0.62785  1.0000
  O  Te3       1.0  0.44001  0.83248  0.65617  1.0000
  O  Te4       1.0  0.42554  0.78329  0.57332  1.0000
  H   H50       1.0  0.33444  0.77105  0.55561  1.0000
  Mg  Mg2       1.0  0.46053  0.81253  0.62169  1.0000
  C   C109      1.0  0.20397  0.56054  0.60254  1.0000
  C   C110      1.0  0.21804  0.58880  0.57620  1.0000
  C  Sn5       1.0  0.20849  0.60848  0.59162  1.0000
  C  Sn6       1.0  0.18440  0.59963  0.63423  1.0000
  C   C111      1.0  0.17048  0.57131  0.66036  1.0000
  C   C112      1.0  0.18022  0.55180  0.64459  1.0000
  H   H51       1.0  0.21151  0.54544  0.59037  1.0000
  O  Te5       1.0  0.22278  0.63663  0.56485  1.0000
  O  Te6       1.0  0.17440  0.61886  0.65047  1.0000
  H   H52       1.0  0.16933  0.52992  0.66502  1.0000
  Mg  Mg3       1.0  0.20106  0.65491  0.60162  1.0000
  C   C113      1.0  0.61334  0.41517  0.58842  1.0000
  C   C114      1.0  0.60450  0.38601  0.57244  1.0000
  C  Sn7       1.0  0.57656  0.36348  0.58880  1.0000
  C  Sn8       1.0  0.55716  0.37035  0.62175  1.0000
  C   C115      1.0  0.56621  0.39959  0.63747  1.0000
  C   C116      1.0  0.59422  0.42196  0.62089  1.0000
  H   H53       1.0  0.63501  0.43248  0.57556  1.0000
  O  Te7       1.0  0.56808  0.33446  0.57249  1.0000
  O  Te8       1.0  0.52911  0.34826  0.63865  1.0000
  H   H54       1.0  0.60105  0.44454  0.63323  1.0000
  Mg  Mg4       1.0  0.52765  0.31206  0.60593  1.0000
  C   C117      1.0  0.63757  0.19260  0.61976  1.0000
  C   C118      1.0  0.60958  0.17565  0.64563  1.0000
  C  Sn9       1.0  0.58808  0.18280  0.63254  1.0000
  C  Sn10      1.0  0.59480  0.20738  0.59278  1.0000
  C   C119      1.0  0.62286  0.22419  0.56710  1.0000
  C   C120      1.0  0.64421  0.21685  0.58052  1.0000
  H   H55       1.0  0.65409  0.18691  0.63012  1.0000
  O  Te9       1.0  0.56023  0.16564  0.65879  1.0000
  O  Te10      1.0  0.57372  0.21501  0.57890  1.0000
  H   H56       1.0  0.66587  0.22996  0.56046  1.0000
  Mg  Mg5       1.0  0.53893  0.18487  0.62595  1.0000
  C   C121      1.0  0.81268  0.39516  0.61696  1.0000
  C   C122      1.0  0.82735  0.42381  0.64187  1.0000
  C  Sn11      1.0  0.81536  0.44198  0.63547  1.0000
  C  Sn12      1.0  0.78817  0.43120  0.60353  1.0000
  C   C123      1.0  0.77365  0.40250  0.57882  1.0000
  C   C124      1.0  0.78585  0.38450  0.58548  1.0000
  H   H57       1.0  0.82211  0.38123  0.62214  1.0000
  O  Te11      1.0  0.83032  0.47056  0.66061  1.0000
  O  Te12      1.0  0.77568  0.44889  0.59648  1.0000
  H   H58       1.0  0.77448  0.36231  0.56623  1.0000
  Mg  Mg6       1.0  0.80442  0.48626  0.63891  1.0000
  C   C125      1.0  0.60783  0.42189  0.38520  1.0000
  C   C126      1.0  0.58206  0.40708  0.34912  1.0000
  C  Sn13      1.0  0.56482  0.37651  0.35253  1.0000
  C  Sn14      1.0  0.57359  0.36053  0.39285  1.0000
  C   C127      1.0  0.59939  0.37555  0.42879  1.0000
  C   C128      1.0  0.61648  0.40615  0.42501  1.0000
  H   H59       1.0  0.62105  0.44557  0.38230  1.0000
  O  Te13      1.0  0.53915  0.36206  0.31614  1.0000
  O  Te14      1.0  0.55676  0.32996  0.39718  1.0000
  H   H60       1.0  0.63642  0.41761  0.45298  1.0000
  Mg  Mg7       1.0  0.52359  0.32019  0.33827  1.0000
  C   C129      1.0  0.58533  0.19380  0.36250  1.0000
  C   C130      1.0  0.59649  0.17510  0.35153  1.0000
  C  Sn15      1.0  0.62202  0.18030  0.38274  1.0000
  C  Sn16      1.0  0.63659  0.20469  0.42572  1.0000
  C   C131      1.0  0.62524  0.22326  0.43641  1.0000
  C   C132      1.0  0.59969  0.21786  0.40491  1.0000
  H   H61       1.0  0.56555  0.18961  0.33816  1.0000
  O  Te15      1.0  0.63287  0.16140  0.37121  1.0000
  O  Te16      1.0  0.66213  0.21039  0.45757  1.0000
  H   H62       1.0  0.59104  0.23233  0.41345  1.0000
  Mg  Mg8       1.0  0.66838  0.17834  0.42603  1.0000
  C   C133      1.0  0.79119  0.38276  0.37980  1.0000
  C   C134      1.0  0.78031  0.39485  0.42496  1.0000
  C  Sn17      1.0  0.79460  0.42523  0.43506  1.0000
  C  Sn18      1.0  0.82024  0.44379  0.39921  1.0000
  C   C135      1.0  0.83094  0.43148  0.35411  1.0000
  C   C136      1.0  0.81648  0.40105  0.34440  1.0000
  H   H63       1.0  0.77999  0.35921  0.37226  1.0000
  O  Te17      1.0  0.78344  0.43695  0.48038  1.0000
  O  Te18      1.0  0.83495  0.47423  0.40833  1.0000
  H   H64       1.0  0.82489  0.39169  0.30941  1.0000
  Mg  Mg9       1.0  0.81123  0.47977  0.47558  1.0000
  C   C137      1.0  0.38705  0.58591  0.40759  1.0000
  C   C138      1.0  0.39740  0.61459  0.43021  1.0000
  C  Sn19      1.0  0.42511  0.63709  0.41226  1.0000
  C  Sn20      1.0  0.44272  0.63070  0.37089  1.0000
  C   C139      1.0  0.43216  0.60194  0.34849  1.0000
  C   C140      1.0  0.40440  0.57959  0.36676  1.0000
  H   H65       1.0  0.36557  0.56862  0.42170  1.0000
  O  Te19      1.0  0.43512  0.66562  0.43531  1.0000
  O  Te20      1.0  0.47049  0.65277  0.35218  1.0000
  H   H66       1.0  0.39639  0.55739  0.34921  1.0000
  Mg  Mg10      1.0  0.47447  0.68821  0.39625  1.0000
  C   C141      1.0  0.35817  0.79653  0.41442  1.0000
  C   C142      1.0  0.36914  0.77751  0.42183  1.0000
  C  Sn21      1.0  0.39596  0.78444  0.39437  1.0000
  C  Sn22      1.0  0.41205  0.81092  0.35886  1.0000
  C   C143      1.0  0.40089  0.82981  0.35176  1.0000
  C   C144      1.0  0.37403  0.82265  0.37943  1.0000
  H   H67       1.0  0.33740  0.79100  0.43585  1.0000
  O  Te21      1.0  0.40660  0.76519  0.40222  1.0000
  O  Te22      1.0  0.43891  0.81839  0.33093  1.0000
  H   H68       1.0  0.36555  0.83739  0.37371  1.0000
  Mg  Mg11      1.0  0.44426  0.78503  0.35504  1.0000
  C   C145      1.0  0.20091  0.55914  0.40939  1.0000
  C   C146      1.0  0.21843  0.58884  0.42572  1.0000
  C  Sn23      1.0  0.20968  0.60899  0.40966  1.0000
  C  Sn24      1.0  0.18287  0.59918  0.37666  1.0000
  C   C147      1.0  0.16549  0.56942  0.36058  1.0000
  C   C148      1.0  0.17446  0.54944  0.37687  1.0000
  H   H69       1.0  0.20785  0.54368  0.42202  1.0000
  O  Te23      1.0  0.22745  0.63858  0.42631  1.0000
  O  Te24      1.0  0.17359  0.61885  0.36004  1.0000
  H   H70       1.0  0.16089  0.52645  0.36426  1.0000
  Mg  Mg12      1.0  0.20539  0.65697  0.39318  1.0000
  C   C149      1.0  0.48357  0.56191  0.73855  1.0000
  C   C150      1.0  0.45456  0.55523  0.74075  1.0000
  C  Sn25      1.0  0.43568  0.53619  0.78823  1.0000
  C  Sn26      1.0  0.44609  0.52363  0.83430  1.0000
  C   C151      1.0  0.47515  0.53047  0.83171  1.0000
  C   C152      1.0  0.49386  0.54955  0.78398  1.0000
  H   H71       1.0  0.49805  0.57668  0.70164  1.0000
  O  Te25      1.0  0.40676  0.52974  0.78972  1.0000
  O  Te26      1.0  0.42769  0.50454  0.88228  1.0000
  H   H72       1.0  0.51632  0.55473  0.78231  1.0000
  Mg  Mg13      1.0  0.39009  0.50249  0.86436  1.0000
  C   C153      1.0  0.44878  0.93728  0.75327  1.0000
  C   C154      1.0  0.46716  0.94456  0.80734  1.0000
  C  Sn27      1.0  0.47788  0.92629  0.82603  1.0000
  C  Sn28      1.0  0.47004  0.90029  0.78981  1.0000
  C   C155      1.0  0.45166  0.89321  0.73576  1.0000
  C   C156      1.0  0.44104  0.91164  0.71750  1.0000
  H   H73       1.0  0.44058  0.95154  0.73911  1.0000
  O  Te27      1.0  0.49621  0.93389  0.88020  1.0000
  O  Te28      1.0  0.48045  0.88165  0.80741  1.0000
  H   H74       1.0  0.42683  0.90601  0.67561  1.0000
  Mg  Mg14      1.0  0.50481  0.90143  0.88496  1.0000
  C   C157      1.0  0.06139  0.51180  0.75834  1.0000
  C   C158      1.0  0.05415  0.52339  0.81203  1.0000
  C  Sn29      1.0  0.07287  0.55232  0.83232  1.0000
  C  Sn30      1.0  0.09930  0.56993  0.79812  1.0000
  C   C159      1.0  0.10633  0.55814  0.74445  1.0000
  C   C160      1.0  0.08745  0.52915  0.72457  1.0000
  H   H75       1.0  0.04677  0.48938  0.74294  1.0000
  O  Te29      1.0  0.06531  0.56355  0.88607  1.0000
  O  Te30      1.0  0.11840  0.59891  0.81735  1.0000
  H   H76       1.0  0.09305  0.52019  0.68298  1.0000
  Mg  Mg15      1.0  0.09848  0.60429  0.89356  1.0000
  C   C161      1.0  0.57060  0.47374  0.80622  1.0000
  C   C162      1.0  0.55857  0.45404  0.75399  1.0000
  C  Sn31      1.0  0.53057  0.44554  0.73173  1.0000
  C  Sn32      1.0  0.51438  0.45702  0.76241  1.0000
  C   C163      1.0  0.52662  0.47674  0.81460  1.0000
  C   C164      1.0  0.55465  0.48509  0.83650  1.0000
  H   H77       1.0  0.59230  0.48022  0.82315  1.0000
  O  Te31      1.0  0.51887  0.42583  0.67950  1.0000
  O  Te32      1.0  0.48635  0.44890  0.74113  1.0000
  H   H78       1.0  0.56397  0.50036  0.87692  1.0000
  Mg  Mg16      1.0  0.47983  0.42140  0.66817  1.0000
  C   C165      1.0  0.53036  0.09860  0.81313  1.0000
  C   C166      1.0  0.54917  0.10640  0.75966  1.0000
  C  Sn33      1.0  0.55672  0.08649  0.73382  1.0000
  C  Sn34      1.0  0.54518  0.05826  0.76214  1.0000
  C   C167      1.0  0.52636  0.05066  0.81560  1.0000
  C   C168      1.0  0.51896  0.07076  0.84108  1.0000
  H   H79       1.0  0.52462  0.11414  0.83283  1.0000
  O  Te33      1.0  0.57556  0.09464  0.68039  1.0000
  O  Te34      1.0  0.55235  0.03794  0.73728  1.0000
  H   H80       1.0  0.50437  0.06471  0.88246  1.0000
  Mg  Mg17      1.0  0.57887  0.05931  0.66395  1.0000
  C   C169      1.0  0.91641  0.43788  0.82959  1.0000
  C   C170      1.0  0.94080  0.46599  0.82431  1.0000
  C  Sn35      1.0  0.94130  0.48577  0.77849  1.0000
  C  Sn36      1.0  0.91687  0.47718  0.73726  1.0000
  C   C171      1.0  0.89257  0.44901  0.74295  1.0000
  C   C172      1.0  0.89231  0.42939  0.78896  1.0000
  H   H81       1.0  0.91620  0.42270  0.86521  1.0000
  O  Te35      1.0  0.96585  0.51377  0.77385  1.0000
  O  Te36      1.0  0.91678  0.49652  0.69106  1.0000
  H   H82       1.0  0.87341  0.40763  0.79306  1.0000
  Mg  Mg18      1.0  0.95534  0.53228  0.70329  1.0000
  C   C173      1.0  0.57402  0.47872  0.19248  1.0000
  C   C174      1.0  0.56231  0.45852  0.24345  1.0000
  C  Sn37      1.0  0.53263  0.44506  0.25813  1.0000
  C  Sn38      1.0  0.51440  0.45198  0.22100  1.0000
  C   C175      1.0  0.52632  0.47220  0.17007  1.0000
  C   C176      1.0  0.55604  0.48555  0.15581  1.0000
  H   H83       1.0  0.59701  0.48904  0.18142  1.0000
  O  Te37      1.0  0.52129  0.42494  0.30924  1.0000
  O  Te38      1.0  0.48466  0.43884  0.23461  1.0000
  H   H84       1.0  0.56510  0.50117  0.11632  1.0000
  Mg  Mg19      1.0  0.47942  0.41282  0.30904  1.0000
  C   C177      1.0  0.51985  0.08221  0.17112  1.0000
  C   C178      1.0  0.52565  0.05909  0.17185  1.0000
  C  Sn39      1.0  0.54389  0.05813  0.21953  1.0000
  C  Sn40      1.0  0.55652  0.08076  0.26731  1.0000
  C   C179      1.0  0.55057  0.10379  0.26619  1.0000
  C   C180      1.0  0.53229  0.10453  0.21825  1.0000
  H   H85       1.0  0.50570  0.08278  0.13405  1.0000
  O  Te39      1.0  0.54947  0.03487  0.21953  1.0000
  O  Te40      1.0  0.57482  0.08034  0.31553  1.0000
  H   H86       1.0  0.52779  0.12243  0.21772  1.0000
  Mg  Mg20      1.0  0.57584  0.04403  0.29517  1.0000
  C   C181      1.0  0.93696  0.48691  0.24590  1.0000
  C   C182      1.0  0.94571  0.47475  0.19613  1.0000
  C  Sn41      1.0  0.92731  0.44580  0.17552  1.0000
  C  Sn42      1.0  0.89963  0.42876  0.20537  1.0000
  C   C183      1.0  0.89107  0.44114  0.25510  1.0000
  C   C184      1.0  0.90966  0.47013  0.27536  1.0000
  H   H87       1.0  0.95133  0.50934  0.26156  1.0000
  O  Te41      1.0  0.93640  0.43398  0.12574  1.0000
  O  Te42      1.0  0.88081  0.39978  0.18570  1.0000
  H   H88       1.0  0.90287  0.47955  0.31387  1.0000
  Mg  Mg21      1.0  0.90302  0.39348  0.11591  1.0000
  C   C185      1.0  0.49036  0.55244  0.24611  1.0000
  C   C186      1.0  0.47893  0.53183  0.19537  1.0000
  C  Sn43      1.0  0.45032  0.52108  0.17426  1.0000
  C  Sn44      1.0  0.43289  0.53119  0.20461  1.0000
  C   C187      1.0  0.44453  0.55182  0.25530  1.0000
  C   C188      1.0  0.47318  0.56243  0.27605  1.0000
  H   H89       1.0  0.51253  0.56066  0.26215  1.0000
  O  Te43      1.0  0.43925  0.50050  0.12351  1.0000
  O  Te44      1.0  0.40423  0.52082  0.18446  1.0000
  H   H90       1.0  0.48203  0.57839  0.31531  1.0000
  Mg  Mg22      1.0  0.39895  0.49290  0.11335  1.0000
  C   C189      1.0  0.44540  0.93503  0.23882  1.0000
  C   C190      1.0  0.46656  0.94416  0.18992  1.0000
  C  Sn45      1.0  0.47665  0.92559  0.16859  1.0000
  C  Sn46      1.0  0.46529  0.89736  0.19681  1.0000
  C   C191      1.0  0.44410  0.88842  0.24567  1.0000
  C   C192      1.0  0.43417  0.90719  0.26666  1.0000
  H   H91       1.0  0.43770  0.94954  0.25504  1.0000
  O  Te45      1.0  0.49781  0.93506  0.11971  1.0000
  O  Te46      1.0  0.47497  0.87835  0.17639  1.0000
  H   H92       1.0  0.41777  0.90011  0.30449  1.0000
  Mg  Mg23      1.0  0.50409  0.90124  0.10833  1.0000
  C   C193      1.0  0.08118  0.56229  0.17718  1.0000
  C   C194      1.0  0.05895  0.53289  0.17458  1.0000
  C  Sn47      1.0  0.05813  0.51276  0.21985  1.0000
  C  Sn48      1.0  0.08000  0.52230  0.26859  1.0000
  C   C195      1.0  0.10213  0.55176  0.27080  1.0000
  C   C196      1.0  0.10275  0.57172  0.22525  1.0000
  H   H93       1.0  0.08164  0.57773  0.14196  1.0000
  O  Te47      1.0  0.03577  0.48346  0.21654  1.0000
  O  Te48      1.0  0.07970  0.50264  0.31445  1.0000
  H   H94       1.0  0.11995  0.59448  0.22730  1.0000
  Mg  Mg24      1.0  0.04475  0.46499  0.28989  1.0000
