data_image0
_chemical_formula_structural       H46C100N12SnCSn2CSnTe4Mg2SnCSn2CSnTe4Mg2SnCSn2CSnTe4Mg2SnCSn2CSnTe4Mg2SnCSn2CSnTe4Mg2SnCSn2CSnTe4Mg2SnCSn2CSnTe4Mg2SnCSn2CSnTe4Mg2SnCSn2CSnTe4Mg2SnCSn2CSnTe4Mg2SnCSn2CSnTe4Mg2SnCSn2CSnTe4Mg2SnCSn2CSnTe4Mg2SnCSn2CSnTe4Mg2SnCSn2CSnTe4Mg2SnCSn2CSnTe4Mg2SnCSn2CSnTe4Mg2SnCSn2CSnTe4Mg2SnCSn2CSnTe4Mg2SnCSn2CSnTe4Mg2SnCSn2CSnTe4Mg2SnCSn2CSnTe4Mg2SnCSn2CSnTe4Mg2SnCSn2CSnTe4Mg2
_chemical_formula_sum              "H46 C148 N12 Sn96 Te96 Mg48"
_cell_length_a       53.0981
_cell_length_b       52.6313
_cell_length_c       20.4912
_cell_angle_alpha    90.3924
_cell_angle_beta     89.7844
_cell_angle_gamma    120.183

_symmetry_space_group_name_H-M    'P1'
_space_group_IT_number       1

loop_
  _space_group_symop_operation_xyz
  'x, y, z'

loop_
  _atom_site_type_symbol
  _atom_site_label
  _atom_site_symmetry_multiplicity
  _atom_site_fract_x
  _atom_site_fract_y
  _atom_site_fract_z
  _atom_site_occupancy
  H   H1        1.0  0.46855  0.60546  0.69268  1.0000
  H   H2        1.0  0.39588  0.86249  0.69603  1.0000
  H   H3        1.0  0.13650  0.53181  0.70665  1.0000
  H   H4        1.0  0.53264  0.39681  0.69333  1.0000
  H   H5        1.0  0.60490  0.13635  0.69447  1.0000
  H   H6        1.0  0.86320  0.46859  0.70159  1.0000
  H   H7        1.0  0.53852  0.39735  0.28476  1.0000
  H   H8        1.0  0.60234  0.13408  0.31047  1.0000
  H   H9        1.0  0.86764  0.46687  0.31923  1.0000
  H   H10       1.0  0.46756  0.60427  0.30193  1.0000
  H   H11       1.0  0.39440  0.86357  0.30824  1.0000
  H   H12       1.0  0.13408  0.53084  0.30624  1.0000
  H   H13       1.0  0.36662  0.64364  0.62179  1.0000
  H   H14       1.0  0.35259  0.72188  0.61909  1.0000
  H   H15       1.0  0.27596  0.62994  0.62278  1.0000
  H   H16       1.0  0.63145  0.35668  0.61882  1.0000
  H   H17       1.0  0.64620  0.27810  0.62238  1.0000
  H   H18       1.0  0.72224  0.37195  0.62396  1.0000
  H   H19       1.0  0.63347  0.35582  0.37585  1.0000
  H   H20       1.0  0.64538  0.27712  0.37950  1.0000
  H   H21       1.0  0.72476  0.36680  0.38151  1.0000
  H   H22       1.0  0.36737  0.64269  0.37886  1.0000
  H   H23       1.0  0.35308  0.72007  0.37632  1.0000
  H   H24       1.0  0.27410  0.62773  0.37993  1.0000
  H   H25       1.0  0.47360  0.54764  0.94175  1.0000
  H   H26       1.0  0.45491  0.92547  0.93551  1.0000
  H   H27       1.0  0.07282  0.53223  0.94140  1.0000
  H   H28       1.0  0.53124  0.45770  0.93745  1.0000
  H   H29       1.0  0.54625  0.07350  0.94152  1.0000
  H   H30       1.0  0.92516  0.46848  0.94237  1.0000
  H   H31       1.0  0.53247  0.45854  0.05698  1.0000
  H   H32       1.0  0.54514  0.07295  0.06074  1.0000
  H   H33       1.0  0.92511  0.46725  0.06156  1.0000
  H   H34       1.0  0.47322  0.54692  0.06128  1.0000
  H   H35       1.0  0.45366  0.92486  0.05495  1.0000
  H   H36       1.0  0.07290  0.53130  0.06082  1.0000
  H   H37       1.0  0.50290  0.50177  0.22398  1.0000
  H   H38       1.0  0.49728  0.99814  0.22333  1.0000
  H   H39       1.0  0.99900  0.49809  0.22659  1.0000
  H   H40       1.0  0.50253  0.50317  0.77410  1.0000
  H   H41       1.0  0.50037  0.99996  0.77310  1.0000
  H   H42       1.0  0.99921  0.50189  0.77650  1.0000
  H   H43       1.0  0.33196  0.66522  0.61641  1.0000
  H   H44       1.0  0.66582  0.33492  0.61741  1.0000
  H   H45       1.0  0.66816  0.33394  0.38346  1.0000
  H   H46       1.0  0.33110  0.66287  0.38250  1.0000
  C   C1        1.0  0.44497  0.59028  0.68736  1.0000
  C   C2        1.0  0.41108  0.85473  0.68353  1.0000
  C   C3        1.0  0.14423  0.55480  0.69313  1.0000
  C   C4        1.0  0.55548  0.41241  0.68054  1.0000
  C   C5        1.0  0.59007  0.14490  0.68584  1.0000
  C   C6        1.0  0.85541  0.44546  0.68876  1.0000
  C   C7        1.0  0.56016  0.41354  0.30371  1.0000
  C   C8        1.0  0.58793  0.14334  0.31656  1.0000
  C   C9        1.0  0.85722  0.44279  0.32172  1.0000
  C   C10       1.0  0.44491  0.58848  0.31569  1.0000
  C   C11       1.0  0.40858  0.85398  0.31252  1.0000
  C   C12       1.0  0.14186  0.55400  0.31871  1.0000
  C   C13       1.0  0.49077  0.51811  0.92996  1.0000
  C   C14       1.0  0.48491  0.97239  0.92744  1.0000
  C   C15       1.0  0.02612  0.51344  0.93159  1.0000
  C   C16       1.0  0.51467  0.48777  0.92834  1.0000
  C   C17       1.0  0.51552  0.02686  0.92897  1.0000
  C   C18       1.0  0.97200  0.48769  0.93161  1.0000
  C   C19       1.0  0.51523  0.48796  0.06792  1.0000
  C   C20       1.0  0.51447  0.02620  0.06926  1.0000
  C   C21       1.0  0.97196  0.48634  0.07153  1.0000
  C   C22       1.0  0.49067  0.51755  0.06989  1.0000
  C   C23       1.0  0.48371  0.97172  0.06706  1.0000
  C   C24       1.0  0.02613  0.51222  0.07148  1.0000
  C   C25       1.0  0.49005  0.51726  0.86057  1.0000
  C   C26       1.0  0.48618  0.97289  0.85818  1.0000
  C   C27       1.0  0.02595  0.51440  0.86225  1.0000
  C   C28       1.0  0.51517  0.48868  0.85897  1.0000
  C   C29       1.0  0.51474  0.02691  0.85944  1.0000
  C   C30       1.0  0.97238  0.48795  0.86219  1.0000
  C   C31       1.0  0.51597  0.48866  0.13709  1.0000
  C   C32       1.0  0.51284  0.02563  0.13864  1.0000
  C   C33       1.0  0.97234  0.48538  0.14083  1.0000
  C   C34       1.0  0.48988  0.51616  0.13924  1.0000
  C   C35       1.0  0.48393  0.97161  0.13647  1.0000
  C   C36       1.0  0.02590  0.51204  0.14089  1.0000
  C   C37       1.0  0.38360  0.63388  0.53523  1.0000
  C   C38       1.0  0.36228  0.74759  0.53147  1.0000
  C   C39       1.0  0.24902  0.61225  0.53681  1.0000
  C   C40       1.0  0.61619  0.36667  0.53035  1.0000
  C   C41       1.0  0.63656  0.25145  0.53546  1.0000
  C   C42       1.0  0.74938  0.38652  0.53796  1.0000
  C   C43       1.0  0.61672  0.36634  0.46164  1.0000
  C   C44       1.0  0.63582  0.25095  0.46665  1.0000
  C   C45       1.0  0.75024  0.38469  0.46930  1.0000
  C   C46       1.0  0.38412  0.63403  0.46647  1.0000
  C   C47       1.0  0.36255  0.74718  0.46268  1.0000
  C   C48       1.0  0.24859  0.61177  0.46804  1.0000
  C   C49       1.0  0.36668  0.64355  0.56869  1.0000
  C   C50       1.0  0.35225  0.72117  0.56602  1.0000
  C   C51       1.0  0.27572  0.62913  0.56969  1.0000
  C   C52       1.0  0.63184  0.35627  0.56574  1.0000
  C   C53       1.0  0.64635  0.27818  0.56929  1.0000
  C   C54       1.0  0.72253  0.37099  0.57091  1.0000
  C   C55       1.0  0.63295  0.35566  0.42895  1.0000
  C   C56       1.0  0.64563  0.27748  0.43260  1.0000
  C   C57       1.0  0.72402  0.36782  0.43451  1.0000
  C   C58       1.0  0.36736  0.64338  0.43194  1.0000
  C   C59       1.0  0.35269  0.72023  0.42942  1.0000
  C   C60       1.0  0.27484  0.62795  0.43301  1.0000
  C   C61       1.0  0.48085  0.53446  0.96745  1.0000
  C   C62       1.0  0.46792  0.94572  0.96282  1.0000
  C   C63       1.0  0.05248  0.52398  0.96800  1.0000
  C   C64       1.0  0.52445  0.47112  0.96424  1.0000
  C   C65       1.0  0.53230  0.05303  0.96681  1.0000
  C   C66       1.0  0.94558  0.47636  0.96840  1.0000
  C   C67       1.0  0.52504  0.47147  0.03092  1.0000
  C   C68       1.0  0.53179  0.05273  0.03358  1.0000
  C   C69       1.0  0.94554  0.47567  0.03512  1.0000
  C   C70       1.0  0.48063  0.53405  0.03422  1.0000
  C   C71       1.0  0.46726  0.94539  0.02951  1.0000
  C   C72       1.0  0.05251  0.52344  0.03469  1.0000
  C   C73       1.0  0.35061  0.65313  0.53409  1.0000
  C   C74       1.0  0.34265  0.69481  0.53269  1.0000
  C   C75       1.0  0.30138  0.64500  0.53455  1.0000
  C   C76       1.0  0.64786  0.34593  0.53291  1.0000
  C   C77       1.0  0.65563  0.30410  0.53509  1.0000
  C   C78       1.0  0.69697  0.35396  0.53599  1.0000
  C   C79       1.0  0.64853  0.34573  0.46439  1.0000
  C   C80       1.0  0.65573  0.30373  0.46654  1.0000
  C   C81       1.0  0.69765  0.35298  0.46749  1.0000
  C   C82       1.0  0.35066  0.65275  0.46554  1.0000
  C   C83       1.0  0.34267  0.69429  0.46414  1.0000
  C   C84       1.0  0.30108  0.64437  0.46600  1.0000
  C   C85       1.0  0.50261  0.50309  0.82720  1.0000
  C   C86       1.0  0.50045  0.99994  0.82621  1.0000
  C   C87       1.0  0.99920  0.50151  0.82959  1.0000
  C   C88       1.0  0.50294  0.50221  0.17090  1.0000
  C   C89       1.0  0.49796  0.99846  0.17022  1.0000
  C   C90       1.0  0.99911  0.49849  0.17348  1.0000
  C   C91       1.0  0.50294  0.50287  0.03393  1.0000
  C   C92       1.0  0.49934  0.99916  0.03321  1.0000
  C   C93       1.0  0.99905  0.49962  0.03659  1.0000
  C   C94       1.0  0.50286  0.50298  0.96396  1.0000
  C   C95       1.0  0.49993  0.99951  0.96316  1.0000
  C   C96       1.0  0.99905  0.50029  0.96656  1.0000
  C   C97       1.0  0.33129  0.66344  0.43592  1.0000
  C   C98       1.0  0.66759  0.33412  0.43687  1.0000
  C   C99       1.0  0.66645  0.33471  0.56399  1.0000
  C   C100      1.0  0.33168  0.66462  0.56299  1.0000
  N   N1        1.0  0.43190  0.56461  0.71399  1.0000
  N   N2        1.0  0.43772  0.86812  0.70367  1.0000
  N   N3        1.0  0.13114  0.56857  0.71255  1.0000
  N   N4        1.0  0.56899  0.43911  0.70211  1.0000
  N   N5        1.0  0.56409  0.13251  0.70993  1.0000
  N   N6        1.0  0.86841  0.43183  0.70898  1.0000
  N   N7        1.0  0.57240  0.44103  0.28870  1.0000
  N   N8        1.0  0.56229  0.13128  0.29083  1.0000
  N   N9        1.0  0.86796  0.42852  0.29250  1.0000
  N   N10       1.0  0.43186  0.56155  0.29544  1.0000
  N   N11       1.0  0.43373  0.86537  0.28433  1.0000
  N   N12       1.0  0.12891  0.56760  0.29787  1.0000
  C  Sn1       1.0  0.44317  0.63615  0.62116  1.0000
  C   C101      1.0  0.43119  0.61022  0.65728  1.0000
  C  Sn2       1.0  0.40241  0.58800  0.64683  1.0000
  C  Sn3       1.0  0.38524  0.59177  0.59927  1.0000
  C   C102      1.0  0.39722  0.61769  0.56317  1.0000
  C  Sn4       1.0  0.42600  0.63992  0.57359  1.0000
  O  Te1       1.0  0.47200  0.65808  0.63241  1.0000
  O  Te2       1.0  0.39091  0.56226  0.68356  1.0000
  O  Te3       1.0  0.35639  0.56982  0.58804  1.0000
  O  Te4       1.0  0.43750  0.66564  0.53689  1.0000
  Mg  Mg1       1.0  0.35055  0.53874  0.65035  1.0000
  Mg  Mg2       1.0  0.47786  0.68917  0.57003  1.0000
  C  Sn5       1.0  0.40660  0.79104  0.61134  1.0000
  C   C103      1.0  0.37805  0.77435  0.58830  1.0000
  C  Sn6       1.0  0.35957  0.78606  0.58816  1.0000
  C  Sn7       1.0  0.36984  0.81507  0.61149  1.0000
  C   C104      1.0  0.39837  0.83174  0.63451  1.0000
  C  Sn8       1.0  0.41687  0.82005  0.63468  1.0000
  O  Te5       1.0  0.42469  0.77889  0.61103  1.0000
  O  Te6       1.0  0.33111  0.76895  0.56490  1.0000
  O  Te7       1.0  0.35171  0.82721  0.61179  1.0000
  O  Te8       1.0  0.44530  0.83714  0.65791  1.0000
  Mg  Mg3       1.0  0.31475  0.79526  0.57518  1.0000
  Mg  Mg4       1.0  0.46169  0.81087  0.64762  1.0000
  C  Sn9       1.0  0.18350  0.60144  0.61136  1.0000
  C   C105      1.0  0.16871  0.57247  0.63365  1.0000
  C  Sn10      1.0  0.18213  0.55546  0.63215  1.0000
  C  Sn11      1.0  0.21095  0.56767  0.60790  1.0000
  C   C106      1.0  0.22573  0.59663  0.58563  1.0000
  C  Sn12      1.0  0.21232  0.61365  0.58711  1.0000
  O  Te9       1.0  0.16965  0.61803  0.61332  1.0000
  O  Te10      1.0  0.16690  0.52655  0.65469  1.0000
  O  Te11      1.0  0.22479  0.55105  0.60596  1.0000
  O  Te12      1.0  0.22754  0.64254  0.56460  1.0000
  Mg  Mg5       1.0  0.19507  0.51274  0.64213  1.0000
  Mg  Mg6       1.0  0.19940  0.65638  0.57717  1.0000
  C  Sn13      1.0  0.61522  0.41139  0.60627  1.0000
  C   C107      1.0  0.60478  0.38249  0.58509  1.0000
  C  Sn14      1.0  0.57494  0.36214  0.58618  1.0000
  C  Sn15      1.0  0.55513  0.37085  0.60888  1.0000
  C   C108      1.0  0.56557  0.39973  0.63003  1.0000
  C  Sn16      1.0  0.59541  0.42009  0.62897  1.0000
  O  Te13      1.0  0.64513  0.43136  0.60474  1.0000
  O  Te14      1.0  0.56502  0.33338  0.56479  1.0000
  O  Te15      1.0  0.52519  0.35084  0.61039  1.0000
  O  Te16      1.0  0.60533  0.44884  0.65034  1.0000
  Mg  Mg7       1.0  0.52228  0.31419  0.57619  1.0000
  Mg  Mg8       1.0  0.64806  0.46805  0.63893  1.0000
  C  Sn17      1.0  0.58242  0.18355  0.60377  1.0000
  C   C109      1.0  0.59717  0.17001  0.62872  1.0000
  C  Sn18      1.0  0.62758  0.18519  0.63131  1.0000
  C  Sn19      1.0  0.64358  0.21453  0.60852  1.0000
  C   C110      1.0  0.62882  0.22806  0.58359  1.0000
  C  Sn20      1.0  0.59841  0.21289  0.58097  1.0000
  O  Te17      1.0  0.55201  0.16796  0.60165  1.0000
  O  Te18      1.0  0.64185  0.17119  0.65645  1.0000
  O  Te19      1.0  0.67401  0.23012  0.61065  1.0000
  O  Te20      1.0  0.58415  0.22688  0.55586  1.0000
  Mg  Mg9       1.0  0.68353  0.20158  0.64918  1.0000
  Mg  Mg10      1.0  0.54247  0.19652  0.56314  1.0000
  C  Sn21      1.0  0.80287  0.44027  0.64669  1.0000
  C   C111      1.0  0.82195  0.43004  0.66082  1.0000
  C  Sn22      1.0  0.81981  0.40583  0.62730  1.0000
  C  Sn23      1.0  0.79816  0.39156  0.57860  1.0000
  C   C112      1.0  0.77910  0.40179  0.56449  1.0000
  C  Sn24      1.0  0.78122  0.42600  0.59800  1.0000
  O  Te21      1.0  0.80542  0.46451  0.68082  1.0000
  O  Te22      1.0  0.83912  0.39599  0.64230  1.0000
  O  Te23      1.0  0.79563  0.36730  0.54448  1.0000
  O  Te24      1.0  0.76193  0.43584  0.58302  1.0000
  Mg  Mg11      1.0  0.82698  0.36213  0.58239  1.0000
  Mg  Mg12      1.0  0.77406  0.46971  0.64286  1.0000
  C  Sn25      1.0  0.61026  0.41914  0.36635  1.0000
  C   C113      1.0  0.58299  0.40407  0.33618  1.0000
  C  Sn26      1.0  0.56289  0.37526  0.35409  1.0000
  C  Sn27      1.0  0.57018  0.36120  0.40321  1.0000
  C   C114      1.0  0.59744  0.37626  0.43336  1.0000
  C  Sn28      1.0  0.61756  0.40508  0.41547  1.0000
  O  Te25      1.0  0.63002  0.44793  0.34768  1.0000
  O  Te26      1.0  0.53577  0.36064  0.32321  1.0000
  O  Te27      1.0  0.55040  0.33238  0.42186  1.0000
  O  Te28      1.0  0.64466  0.41969  0.44633  1.0000
  Mg  Mg13      1.0  0.51623  0.32164  0.36558  1.0000
  Mg  Mg14      1.0  0.66421  0.45869  0.40402  1.0000
  C  Sn29      1.0  0.64130  0.20505  0.40525  1.0000
  C   C115      1.0  0.63001  0.22376  0.41429  1.0000
  C  Sn30      1.0  0.60122  0.21455  0.39715  1.0000
  C  Sn31      1.0  0.58334  0.18605  0.37045  1.0000
  C   C116      1.0  0.59463  0.16736  0.36143  1.0000
  C  Sn32      1.0  0.62341  0.17655  0.37855  1.0000
  O  Te29      1.0  0.67013  0.21471  0.42274  1.0000
  O  Te30      1.0  0.59043  0.23365  0.40662  1.0000
  O  Te31      1.0  0.55449  0.17640  0.35296  1.0000
  O  Te32      1.0  0.63421  0.15747  0.36910  1.0000
  Mg  Mg15      1.0  0.54974  0.21042  0.37522  1.0000
  Mg  Mg16      1.0  0.67488  0.18067  0.40052  1.0000
  C  Sn33      1.0  0.79597  0.38365  0.39867  1.0000
  C   C117      1.0  0.78400  0.39657  0.43843  1.0000
  C  Sn34      1.0  0.79401  0.42665  0.43433  1.0000
  C  Sn35      1.0  0.81645  0.44419  0.38953  1.0000
  C   C118      1.0  0.82840  0.43127  0.34979  1.0000
  C  Sn36      1.0  0.81841  0.40119  0.35387  1.0000
  O  Te33      1.0  0.78562  0.35354  0.40359  1.0000
  O  Te34      1.0  0.78171  0.43907  0.47460  1.0000
  O  Te35      1.0  0.82679  0.47432  0.38464  1.0000
  O  Te36      1.0  0.83069  0.38877  0.31362  1.0000
  Mg  Mg17      1.0  0.80313  0.48107  0.44983  1.0000
  Mg  Mg18      1.0  0.80928  0.34678  0.33832  1.0000
  C  Sn37      1.0  0.44545  0.63342  0.39363  1.0000
  C   C119      1.0  0.43530  0.60424  0.37515  1.0000
  C  Sn38      1.0  0.40563  0.58346  0.37886  1.0000
  C  Sn39      1.0  0.38569  0.59202  0.40147  1.0000
  C   C120      1.0  0.39584  0.62118  0.41992  1.0000
  C  Sn40      1.0  0.42551  0.64198  0.41624  1.0000
  O  Te37      1.0  0.47520  0.65383  0.38951  1.0000
  O  Te38      1.0  0.39600  0.55442  0.36013  1.0000
  O  Te39      1.0  0.35592  0.57158  0.40557  1.0000
  O  Te40      1.0  0.43514  0.67100  0.43493  1.0000
  Mg  Mg19      1.0  0.35339  0.53468  0.37446  1.0000
  Mg  Mg20      1.0  0.47773  0.69076  0.42060  1.0000
  C  Sn41      1.0  0.37000  0.81521  0.40735  1.0000
  C   C121      1.0  0.39581  0.82889  0.37118  1.0000
  C  Sn42      1.0  0.41056  0.81387  0.35613  1.0000
  C  Sn43      1.0  0.39927  0.78456  0.37763  1.0000
  C   C122      1.0  0.37347  0.77089  0.41375  1.0000
  C  Sn44      1.0  0.35871  0.78589  0.42885  1.0000
  O  Te41      1.0  0.35561  0.83065  0.42183  1.0000
  O  Te42      1.0  0.43633  0.82802  0.31993  1.0000
  O  Te43      1.0  0.41368  0.76912  0.36311  1.0000
  O  Te44      1.0  0.33295  0.77176  0.46501  1.0000
  Mg  Mg21      1.0  0.44799  0.79782  0.31247  1.0000
  Mg  Mg22      1.0  0.32126  0.80193  0.47247  1.0000
  C  Sn45      1.0  0.18217  0.55164  0.40404  1.0000
  C   C123      1.0  0.16695  0.56441  0.37761  1.0000
  C  Sn46      1.0  0.18016  0.59493  0.37280  1.0000
  C  Sn47      1.0  0.20919  0.61307  0.39484  1.0000
  C   C124      1.0  0.22440  0.60030  0.42124  1.0000
  C  Sn48      1.0  0.21120  0.56978  0.42608  1.0000
  O  Te45      1.0  0.16853  0.52107  0.40837  1.0000
  O  Te46      1.0  0.16450  0.60720  0.34621  1.0000
  O  Te47      1.0  0.22282  0.64366  0.39049  1.0000
  O  Te48      1.0  0.22685  0.55751  0.45264  1.0000
  Mg  Mg23      1.0  0.19252  0.64997  0.35062  1.0000
  Mg  Mg24      1.0  0.19886  0.51475  0.44822  1.0000
  C  Sn49      1.0  0.49199  0.56028  0.77293  1.0000
  C   C125      1.0  0.48043  0.54010  0.82395  1.0000
  C  Sn50      1.0  0.45035  0.52383  0.83395  1.0000
  C  Sn51      1.0  0.43142  0.52781  0.79205  1.0000
  C   C126      1.0  0.44298  0.54798  0.74106  1.0000
  C  Sn52      1.0  0.47306  0.56425  0.73103  1.0000
  O  Te49      1.0  0.52214  0.57630  0.76384  1.0000
  O  Te50      1.0  0.43931  0.50379  0.88531  1.0000
  O  Te51      1.0  0.40126  0.51177  0.80118  1.0000
  O  Te52      1.0  0.48411  0.58428  0.67971  1.0000
  Mg  Mg25      1.0  0.39668  0.48712  0.87784  1.0000
  Mg  Mg26      1.0  0.52673  0.60096  0.68711  1.0000
  C  Sn53      1.0  0.44909  0.92602  0.72260  1.0000
  C   C127      1.0  0.45357  0.90210  0.72716  1.0000
  C  Sn54      1.0  0.46626  0.89821  0.78296  1.0000
  C  Sn55      1.0  0.47462  0.91863  0.83532  1.0000
  C   C128      1.0  0.47014  0.94253  0.83076  1.0000
  C  Sn56      1.0  0.45745  0.94645  0.77497  1.0000
  O  Te53      1.0  0.43637  0.92948  0.66636  1.0000
  O  Te54      1.0  0.47053  0.87413  0.78638  1.0000
  O  Te55      1.0  0.48735  0.91515  0.89159  1.0000
  O  Te56      1.0  0.45318  0.97050  0.77154  1.0000
  Mg  Mg27      1.0  0.48867  0.87886  0.87319  1.0000
  Mg  Mg28      1.0  0.43503  0.96578  0.68477  1.0000
  C  Sn57      1.0  0.06575  0.51039  0.77573  1.0000
  C   C129      1.0  0.05773  0.52348  0.82489  1.0000
  C  Sn58      1.0  0.07264  0.55401  0.83249  1.0000
  C  Sn59      1.0  0.09605  0.57183  0.79005  1.0000
  C   C130      1.0  0.10406  0.55874  0.74093  1.0000
  C  Sn60      1.0  0.08916  0.52821  0.73330  1.0000
  O  Te57      1.0  0.05054  0.47982  0.76903  1.0000
  O  Te58      1.0  0.06423  0.56659  0.88200  1.0000
  O  Te59      1.0  0.11126  0.60242  0.79680  1.0000
  O  Te60      1.0  0.09756  0.51563  0.68381  1.0000
  Mg  Mg29      1.0  0.09164  0.60923  0.87157  1.0000
  Mg  Mg30      1.0  0.07016  0.47300  0.69418  1.0000
  C  Sn61      1.0  0.56536  0.46474  0.81528  1.0000
  C   C131      1.0  0.55397  0.44750  0.75912  1.0000
  C  Sn62      1.0  0.52988  0.44583  0.72766  1.0000
  C  Sn63      1.0  0.51691  0.46173  0.75283  1.0000
  C   C132      1.0  0.52831  0.47897  0.80896  1.0000
  C  Sn64      1.0  0.55239  0.48065  0.84046  1.0000
  O  Te61      1.0  0.58945  0.46610  0.84594  1.0000
  O  Te62      1.0  0.51887  0.42843  0.67159  1.0000
  O  Te63      1.0  0.49280  0.46037  0.72213  1.0000
  O  Te64      1.0  0.56340  0.49803  0.89649  1.0000
  Mg  Mg31      1.0  0.48573  0.43368  0.64717  1.0000
  Mg  Mg32      1.0  0.59655  0.49282  0.92092  1.0000
  C  Sn65      1.0  0.53937  0.10210  0.82161  1.0000
  C   C133      1.0  0.55568  0.10815  0.76426  1.0000
  C  Sn66      1.0  0.55637  0.08554  0.72966  1.0000
  C  Sn67      1.0  0.54040  0.05627  0.75285  1.0000
  C   C134      1.0  0.52409  0.05023  0.81016  1.0000
  C  Sn68      1.0  0.52340  0.07283  0.84480  1.0000
  O  Te65      1.0  0.53900  0.12504  0.85540  1.0000
  O  Te66      1.0  0.57284  0.09213  0.67246  1.0000
  O  Te67      1.0  0.54078  0.03332  0.71900  1.0000
  O  Te68      1.0  0.50693  0.06625  0.90196  1.0000
  Mg  Mg33      1.0  0.56645  0.05335  0.64360  1.0000
  Mg  Mg34      1.0  0.51330  0.10501  0.93084  1.0000
  C  Sn69      1.0  0.89941  0.43444  0.81731  1.0000
  C   C135      1.0  0.89207  0.44656  0.76538  1.0000
  C  Sn70      1.0  0.91317  0.47269  0.73661  1.0000
  C  Sn71      1.0  0.94221  0.48700  0.76020  1.0000
  C   C136      1.0  0.94954  0.47488  0.81209  1.0000
  C  Sn72      1.0  0.92845  0.44875  0.84090  1.0000
  O  Te69      1.0  0.87796  0.40829  0.84533  1.0000
  O  Te70      1.0  0.90531  0.48439  0.68478  1.0000
  O  Te71      1.0  0.96366  0.51317  0.73213  1.0000
  O  Te72      1.0  0.93630  0.43704  0.89269  1.0000
  Mg  Mg35      1.0  0.94228  0.52046  0.66270  1.0000
  Mg  Mg36      1.0  0.89935  0.40097  0.91479  1.0000
  C  Sn73      1.0  0.52082  0.43586  0.23773  1.0000
  C   C137      1.0  0.55026  0.44404  0.23902  1.0000
  C  Sn74      1.0  0.57121  0.47044  0.21098  1.0000
  C  Sn75      1.0  0.56257  0.48908  0.18106  1.0000
  C   C138      1.0  0.53315  0.48091  0.17979  1.0000
  C  Sn76      1.0  0.51218  0.45450  0.20781  1.0000
  O  Te73      1.0  0.50024  0.40936  0.26607  1.0000
  O  Te74      1.0  0.60051  0.47814  0.21285  1.0000
  O  Te75      1.0  0.58318  0.51560  0.15271  1.0000
  O  Te76      1.0  0.48289  0.44680  0.20596  1.0000
  Mg  Mg37      1.0  0.62042  0.51648  0.16763  1.0000
  Mg  Mg38      1.0  0.46298  0.40848  0.25119  1.0000
  C  Sn77      1.0  0.56264  0.07995  0.25119  1.0000
  C   C139      1.0  0.55815  0.10386  0.24646  1.0000
  C  Sn78      1.0  0.53480  0.10149  0.21034  1.0000
  C  Sn79      1.0  0.51552  0.07466  0.17832  1.0000
  C   C140      1.0  0.52001  0.05077  0.18306  1.0000
  C  Sn80      1.0  0.54336  0.05312  0.21916  1.0000
  O  Te77      1.0  0.58613  0.08282  0.28756  1.0000
  O  Te78      1.0  0.53076  0.12570  0.20631  1.0000
  O  Te79      1.0  0.49201  0.07181  0.14192  1.0000
  O  Te80      1.0  0.54740  0.02893  0.22322  1.0000
  Mg  Mg39      1.0  0.49560  0.11097  0.15098  1.0000
  Mg  Mg40      1.0  0.58254  0.04363  0.27856  1.0000
  C  Sn81      1.0  0.91350  0.43998  0.16184  1.0000
  C   C141      1.0  0.93748  0.46834  0.16803  1.0000
  C  Sn82      1.0  0.94175  0.48454  0.22533  1.0000
  C  Sn83      1.0  0.92164  0.47214  0.27755  1.0000
  C   C142      1.0  0.89768  0.44380  0.27135  1.0000
  C  Sn84      1.0  0.89338  0.42758  0.21406  1.0000
  O  Te81      1.0  0.90966  0.42418  0.10411  1.0000
  O  Te82      1.0  0.96589  0.51286  0.23037  1.0000
  O  Te83      1.0  0.92550  0.48797  0.33530  1.0000
  O  Te84      1.0  0.86927  0.39928  0.20901  1.0000
  Mg  Mg41      1.0  0.96172  0.52568  0.31882  1.0000
  Mg  Mg42      1.0  0.87343  0.38644  0.12060  1.0000
  C  Sn85      1.0  0.48355  0.56424  0.25425  1.0000
  C   C143      1.0  0.45486  0.55839  0.24970  1.0000
  C  Sn86      1.0  0.43443  0.53473  0.21225  1.0000
  C  Sn87      1.0  0.44285  0.51652  0.17866  1.0000
  C   C144      1.0  0.47152  0.52236  0.18322  1.0000
  C  Sn88      1.0  0.49196  0.54602  0.22066  1.0000
  O  Te85      1.0  0.50360  0.58801  0.29198  1.0000
  O  Te86      1.0  0.40588  0.52933  0.20843  1.0000
  O  Te87      1.0  0.42276  0.49273  0.14091  1.0000
  O  Te88      1.0  0.52049  0.55142  0.22449  1.0000
  Mg  Mg43      1.0  0.38648  0.49431  0.15088  1.0000
  Mg  Mg44      1.0  0.53991  0.58643  0.28205  1.0000
  C  Sn89      1.0  0.47515  0.90482  0.20096  1.0000
  C   C145      1.0  0.45510  0.89685  0.25203  1.0000
  C  Sn90      1.0  0.43977  0.91170  0.26188  1.0000
  C  Sn91      1.0  0.44456  0.93500  0.21979  1.0000
  C   C146      1.0  0.46459  0.94296  0.16874  1.0000
  C  Sn92      1.0  0.47994  0.92812  0.15886  1.0000
  O  Te89      1.0  0.49023  0.88966  0.19201  1.0000
  O  Te90      1.0  0.41984  0.90334  0.31329  1.0000
  O  Te91      1.0  0.42945  0.95015  0.22877  1.0000
  O  Te92      1.0  0.49984  0.93646  0.10748  1.0000
  Mg  Mg45      1.0  0.40459  0.93064  0.30557  1.0000
  Mg  Mg46      1.0  0.51510  0.90917  0.11514  1.0000
  C  Sn93      1.0  0.08476  0.55757  0.16519  1.0000
  C   C147      1.0  0.06124  0.52882  0.16793  1.0000
  C  Sn94      1.0  0.05675  0.51163  0.22316  1.0000
  C  Sn95      1.0  0.07617  0.52343  0.27680  1.0000
  C   C148      1.0  0.09967  0.55217  0.27404  1.0000
  C  Sn96      1.0  0.10417  0.56937  0.21882  1.0000
  O  Te93      1.0  0.08883  0.57436  0.10948  1.0000
  O  Te94      1.0  0.03309  0.48294  0.22476  1.0000
  O  Te95      1.0  0.07208  0.50662  0.33253  1.0000
  O  Te96      1.0  0.12782  0.59804  0.21721  1.0000
  Mg  Mg47      1.0  0.03670  0.46874  0.31150  1.0000
  Mg  Mg48      1.0  0.12422  0.61227  0.13051  1.0000
