data_image0
_chemical_formula_structural       H94C172N12SnCSn2CSnTe4Mg2SnCSn2CSnTe4Mg2SnCSn2CSnTe4Mg2SnCSn2CSnTe4Mg2SnCSn2CSnTe4Mg2SnCSn2CSnTe4Mg2SnCSn2CSnTe4Mg2SnCSn2CSnTe4Mg2SnCSn2CSnTe4Mg2SnCSn2CSnTe4Mg2SnCSn2CSnTe4Mg2SnCSn2CSnTe4Mg2
_chemical_formula_sum              "H94 C196 N12 Sn48 Te48 Mg24"
_cell_length_a       53.0981
_cell_length_b       52.6313
_cell_length_c       20.4912
_cell_angle_alpha    90.3924
_cell_angle_beta     89.7844
_cell_angle_gamma    120.183

_symmetry_space_group_name_H-M    'P1'
_space_group_IT_number       1

loop_
  _space_group_symop_operation_xyz
  'x, y, z'

loop_
  _atom_site_type_symbol
  _atom_site_label
  _atom_site_symmetry_multiplicity
  _atom_site_fract_x
  _atom_site_fract_y
  _atom_site_fract_z
  _atom_site_occupancy
  H   H1        1.0  0.21936  0.55475  0.57608  1.0000
  H   H2        1.0  0.77468  0.44178  0.59273  1.0000
  H   H3        1.0  0.65729  0.21322  0.45498  1.0000
  H   H4        1.0  0.21720  0.55356  0.43150  1.0000
  H   H5        1.0  0.17467  0.53051  0.64440  1.0000
  H   H6        1.0  0.82113  0.46718  0.65521  1.0000
  H   H7        1.0  0.63660  0.16751  0.38843  1.0000
  H   H8        1.0  0.17141  0.52941  0.36679  1.0000
  H   H9        1.0  0.17260  0.61106  0.65255  1.0000
  H   H10       1.0  0.83070  0.39113  0.63549  1.0000
  H   H11       1.0  0.56622  0.18007  0.32806  1.0000
  H   H12       1.0  0.17170  0.61108  0.35734  1.0000
  H   H13       1.0  0.21794  0.63561  0.58518  1.0000
  H   H14       1.0  0.78491  0.36623  0.56932  1.0000
  H   H15       1.0  0.58774  0.22681  0.39259  1.0000
  H   H16       1.0  0.21807  0.63551  0.42159  1.0000
  H   H17       1.0  0.46855  0.60546  0.69268  1.0000
  H   H18       1.0  0.39588  0.86249  0.69603  1.0000
  H   H19       1.0  0.13650  0.53181  0.70665  1.0000
  H   H20       1.0  0.53264  0.39681  0.69333  1.0000
  H   H21       1.0  0.60490  0.13635  0.69447  1.0000
  H   H22       1.0  0.86320  0.46859  0.70159  1.0000
  H   H23       1.0  0.53852  0.39735  0.28476  1.0000
  H   H24       1.0  0.60234  0.13408  0.31047  1.0000
  H   H25       1.0  0.86764  0.46687  0.31923  1.0000
  H   H26       1.0  0.46756  0.60427  0.30193  1.0000
  H   H27       1.0  0.39440  0.86357  0.30824  1.0000
  H   H28       1.0  0.13408  0.53084  0.30624  1.0000
  H   H29       1.0  0.41031  0.52768  0.80795  1.0000
  H   H30       1.0  0.47555  0.88252  0.79529  1.0000
  H   H31       1.0  0.11743  0.59308  0.80475  1.0000
  H   H32       1.0  0.53136  0.12082  0.81178  1.0000
  H   H33       1.0  0.88265  0.40785  0.80042  1.0000
  H   H34       1.0  0.52599  0.11748  0.19709  1.0000
  H   H35       1.0  0.88191  0.40546  0.19883  1.0000
  H   H36       1.0  0.47048  0.87942  0.18969  1.0000
  H   H37       1.0  0.48810  0.57628  0.69367  1.0000
  H   H38       1.0  0.42589  0.91299  0.69060  1.0000
  H   H39       1.0  0.08568  0.51234  0.69716  1.0000
  H   H40       1.0  0.56947  0.08440  0.68356  1.0000
  H   H41       1.0  0.91280  0.48857  0.69583  1.0000
  H   H42       1.0  0.57152  0.08470  0.30965  1.0000
  H   H43       1.0  0.91414  0.48488  0.31195  1.0000
  H   H44       1.0  0.42398  0.91153  0.30349  1.0000
  H   H45       1.0  0.51268  0.55579  0.75940  1.0000
  H   H46       1.0  0.44725  0.95801  0.75957  1.0000
  H   H47       1.0  0.04025  0.48987  0.76260  1.0000
  H   H48       1.0  0.54797  0.03914  0.74965  1.0000
  H   H49       1.0  0.95749  0.51233  0.76404  1.0000
  H   H50       1.0  0.54967  0.03932  0.24199  1.0000
  H   H51       1.0  0.95844  0.50866  0.24333  1.0000
  H   H52       1.0  0.44575  0.95687  0.23755  1.0000
  H   H53       1.0  0.43507  0.50710  0.87421  1.0000
  H   H54       1.0  0.49607  0.92718  0.86656  1.0000
  H   H55       1.0  0.07229  0.57011  0.87270  1.0000
  H   H56       1.0  0.51019  0.07559  0.87918  1.0000
  H   H57       1.0  0.92736  0.43179  0.86950  1.0000
  H   H58       1.0  0.50480  0.07232  0.12720  1.0000
  H   H59       1.0  0.92664  0.42953  0.12939  1.0000
  H   H60       1.0  0.49231  0.92502  0.12322  1.0000
  H   H61       1.0  0.36662  0.64364  0.62179  1.0000
  H   H62       1.0  0.35259  0.72188  0.61909  1.0000
  H   H63       1.0  0.27596  0.62994  0.62278  1.0000
  H   H64       1.0  0.63145  0.35668  0.61882  1.0000
  H   H65       1.0  0.64620  0.27810  0.62238  1.0000
  H   H66       1.0  0.72224  0.37195  0.62396  1.0000
  H   H67       1.0  0.63347  0.35582  0.37585  1.0000
  H   H68       1.0  0.64538  0.27712  0.37950  1.0000
  H   H69       1.0  0.72476  0.36680  0.38151  1.0000
  H   H70       1.0  0.36737  0.64269  0.37886  1.0000
  H   H71       1.0  0.35308  0.72007  0.37632  1.0000
  H   H72       1.0  0.27410  0.62773  0.37993  1.0000
  H   H73       1.0  0.47360  0.54764  0.94175  1.0000
  H   H74       1.0  0.45491  0.92547  0.93551  1.0000
  H   H75       1.0  0.07282  0.53223  0.94140  1.0000
  H   H76       1.0  0.53124  0.45770  0.93745  1.0000
  H   H77       1.0  0.54625  0.07350  0.94152  1.0000
  H   H78       1.0  0.92516  0.46848  0.94237  1.0000
  H   H79       1.0  0.53247  0.45854  0.05698  1.0000
  H   H80       1.0  0.54514  0.07295  0.06074  1.0000
  H   H81       1.0  0.92511  0.46725  0.06156  1.0000
  H   H82       1.0  0.47322  0.54692  0.06128  1.0000
  H   H83       1.0  0.45366  0.92486  0.05495  1.0000
  H   H84       1.0  0.07290  0.53130  0.06082  1.0000
  H   H85       1.0  0.50290  0.50177  0.22398  1.0000
  H   H86       1.0  0.49728  0.99814  0.22333  1.0000
  H   H87       1.0  0.99900  0.49809  0.22659  1.0000
  H   H88       1.0  0.50253  0.50317  0.77410  1.0000
  H   H89       1.0  0.50037  0.99996  0.77310  1.0000
  H   H90       1.0  0.99921  0.50189  0.77650  1.0000
  H   H91       1.0  0.33196  0.66522  0.61641  1.0000
  H   H92       1.0  0.66582  0.33492  0.61741  1.0000
  H   H93       1.0  0.66816  0.33394  0.38346  1.0000
  H   H94       1.0  0.33110  0.66287  0.38250  1.0000
  C   C1        1.0  0.22167  0.59682  0.57588  1.0000
  C   C2        1.0  0.77679  0.40236  0.57660  1.0000
  C   C3        1.0  0.62381  0.22308  0.42873  1.0000
  C   C4        1.0  0.22061  0.59616  0.43123  1.0000
  C   C5        1.0  0.20915  0.56710  0.59275  1.0000
  C   C6        1.0  0.78705  0.43077  0.60155  1.0000
  C   C7        1.0  0.63738  0.20606  0.42732  1.0000
  C   C8        1.0  0.20719  0.56615  0.41576  1.0000
  C   C9        1.0  0.18401  0.55352  0.63112  1.0000
  C   C10       1.0  0.81306  0.44496  0.63675  1.0000
  C   C11       1.0  0.62575  0.18040  0.38990  1.0000
  C   C12       1.0  0.18147  0.55262  0.37944  1.0000
  C   C13       1.0  0.17057  0.56923  0.65293  1.0000
  C   C14       1.0  0.82893  0.43072  0.64941  1.0000
  C   C15       1.0  0.59987  0.17063  0.35429  1.0000
  C   C16       1.0  0.16838  0.56864  0.35818  1.0000
  C   C17       1.0  0.18307  0.59901  0.63556  1.0000
  C   C18       1.0  0.81842  0.40207  0.62496  1.0000
  C   C19       1.0  0.58620  0.18765  0.35579  1.0000
  C   C20       1.0  0.18178  0.59872  0.37418  1.0000
  C   C21       1.0  0.20825  0.61254  0.59798  1.0000
  C   C22       1.0  0.79290  0.38828  0.58863  1.0000
  C   C23       1.0  0.59825  0.21360  0.39181  1.0000
  C   C24       1.0  0.20753  0.61219  0.40987  1.0000
  C   C25       1.0  0.44497  0.59028  0.68736  1.0000
  C   C26       1.0  0.41108  0.85473  0.68353  1.0000
  C   C27       1.0  0.14423  0.55480  0.69313  1.0000
  C   C28       1.0  0.55548  0.41241  0.68054  1.0000
  C   C29       1.0  0.59007  0.14490  0.68584  1.0000
  C   C30       1.0  0.85541  0.44546  0.68876  1.0000
  C   C31       1.0  0.56016  0.41354  0.30371  1.0000
  C   C32       1.0  0.58793  0.14334  0.31656  1.0000
  C   C33       1.0  0.85722  0.44279  0.32172  1.0000
  C   C34       1.0  0.44491  0.58848  0.31569  1.0000
  C   C35       1.0  0.40858  0.85398  0.31252  1.0000
  C   C36       1.0  0.14186  0.55400  0.31871  1.0000
  C   C37       1.0  0.43293  0.53414  0.79879  1.0000
  C   C38       1.0  0.46910  0.89896  0.78900  1.0000
  C   C39       1.0  0.10063  0.57027  0.79717  1.0000
  C   C40       1.0  0.53541  0.10304  0.79965  1.0000
  C   C41       1.0  0.89893  0.43089  0.79385  1.0000
  C   C42       1.0  0.53155  0.10049  0.20506  1.0000
  C   C43       1.0  0.89863  0.42824  0.20714  1.0000
  C   C44       1.0  0.46472  0.89625  0.19881  1.0000
  C   C45       1.0  0.44773  0.55436  0.74843  1.0000
  C   C46       1.0  0.44855  0.89413  0.74017  1.0000
  C   C47       1.0  0.10520  0.55404  0.74835  1.0000
  C   C48       1.0  0.55297  0.10636  0.74506  1.0000
  C   C49       1.0  0.89411  0.44685  0.74548  1.0000
  C   C50       1.0  0.55115  0.10484  0.25579  1.0000
  C   C51       1.0  0.89422  0.44374  0.25793  1.0000
  C   C52       1.0  0.44480  0.89162  0.24932  1.0000
  C   C53       1.0  0.47663  0.56172  0.73423  1.0000
  C   C54       1.0  0.44097  0.91588  0.72962  1.0000
  C   C55       1.0  0.08296  0.52489  0.73619  1.0000
  C   C56       1.0  0.55707  0.08277  0.72730  1.0000
  C   C57       1.0  0.91572  0.47634  0.73483  1.0000
  C   C58       1.0  0.55734  0.08228  0.26899  1.0000
  C   C59       1.0  0.91645  0.47282  0.27124  1.0000
  C   C60       1.0  0.43841  0.91408  0.26308  1.0000
  C   C61       1.0  0.49034  0.54988  0.77072  1.0000
  C   C62       1.0  0.45319  0.94129  0.76798  1.0000
  C   C63       1.0  0.05734  0.51235  0.77278  1.0000
  C   C64       1.0  0.54471  0.05719  0.76440  1.0000
  C   C65       1.0  0.94091  0.48955  0.77280  1.0000
  C   C66       1.0  0.54489  0.05669  0.23114  1.0000
  C   C67       1.0  0.94154  0.48611  0.23303  1.0000
  C   C68       1.0  0.45090  0.93974  0.22629  1.0000
  C   C69       1.0  0.47593  0.53054  0.82271  1.0000
  C   C70       1.0  0.47278  0.94558  0.81862  1.0000
  C   C71       1.0  0.05323  0.52808  0.82353  1.0000
  C   C72       1.0  0.52826  0.05429  0.82087  1.0000
  C   C73       1.0  0.94529  0.47402  0.82294  1.0000
  C   C74       1.0  0.52635  0.05292  0.17841  1.0000
  C   C75       1.0  0.94536  0.47108  0.18027  1.0000
  C   C76       1.0  0.46999  0.94396  0.17424  1.0000
  C   C77       1.0  0.44688  0.52282  0.83573  1.0000
  C   C78       1.0  0.48049  0.92390  0.82843  1.0000
  C   C79       1.0  0.07540  0.55735  0.83480  1.0000
  C   C80       1.0  0.52376  0.07777  0.83730  1.0000
  C   C81       1.0  0.92383  0.44438  0.83246  1.0000
  C   C82       1.0  0.51986  0.07533  0.16634  1.0000
  C   C83       1.0  0.92352  0.44177  0.16848  1.0000
  C   C84       1.0  0.47676  0.92171  0.16162  1.0000
  C   C85       1.0  0.49077  0.51811  0.92996  1.0000
  C   C86       1.0  0.48491  0.97239  0.92744  1.0000
  C   C87       1.0  0.02612  0.51344  0.93159  1.0000
  C   C88       1.0  0.51467  0.48777  0.92834  1.0000
  C   C89       1.0  0.51552  0.02686  0.92897  1.0000
  C   C90       1.0  0.97200  0.48769  0.93161  1.0000
  C   C91       1.0  0.51523  0.48796  0.06792  1.0000
  C   C92       1.0  0.51447  0.02620  0.06926  1.0000
  C   C93       1.0  0.97196  0.48634  0.07153  1.0000
  C   C94       1.0  0.49067  0.51755  0.06989  1.0000
  C   C95       1.0  0.48371  0.97172  0.06706  1.0000
  C   C96       1.0  0.02613  0.51222  0.07148  1.0000
  C   C97       1.0  0.49005  0.51726  0.86057  1.0000
  C   C98       1.0  0.48618  0.97289  0.85818  1.0000
  C   C99       1.0  0.02595  0.51440  0.86225  1.0000
  C   C100      1.0  0.51517  0.48868  0.85897  1.0000
  C   C101      1.0  0.51474  0.02691  0.85944  1.0000
  C   C102      1.0  0.97238  0.48795  0.86219  1.0000
  C   C103      1.0  0.51597  0.48866  0.13709  1.0000
  C   C104      1.0  0.51284  0.02563  0.13864  1.0000
  C   C105      1.0  0.97234  0.48538  0.14083  1.0000
  C   C106      1.0  0.48988  0.51616  0.13924  1.0000
  C   C107      1.0  0.48393  0.97161  0.13647  1.0000
  C   C108      1.0  0.02590  0.51204  0.14089  1.0000
  C   C109      1.0  0.38360  0.63388  0.53523  1.0000
  C   C110      1.0  0.36228  0.74759  0.53147  1.0000
  C   C111      1.0  0.24902  0.61225  0.53681  1.0000
  C   C112      1.0  0.61619  0.36667  0.53035  1.0000
  C   C113      1.0  0.63656  0.25145  0.53546  1.0000
  C   C114      1.0  0.74938  0.38652  0.53796  1.0000
  C   C115      1.0  0.61672  0.36634  0.46164  1.0000
  C   C116      1.0  0.63582  0.25095  0.46665  1.0000
  C   C117      1.0  0.75024  0.38469  0.46930  1.0000
  C   C118      1.0  0.38412  0.63403  0.46647  1.0000
  C   C119      1.0  0.36255  0.74718  0.46268  1.0000
  C   C120      1.0  0.24859  0.61177  0.46804  1.0000
  C   C121      1.0  0.36668  0.64355  0.56869  1.0000
  C   C122      1.0  0.35225  0.72117  0.56602  1.0000
  C   C123      1.0  0.27572  0.62913  0.56969  1.0000
  C   C124      1.0  0.63184  0.35627  0.56574  1.0000
  C   C125      1.0  0.64635  0.27818  0.56929  1.0000
  C   C126      1.0  0.72253  0.37099  0.57091  1.0000
  C   C127      1.0  0.63295  0.35566  0.42895  1.0000
  C   C128      1.0  0.64563  0.27748  0.43260  1.0000
  C   C129      1.0  0.72402  0.36782  0.43451  1.0000
  C   C130      1.0  0.36736  0.64338  0.43194  1.0000
  C   C131      1.0  0.35269  0.72023  0.42942  1.0000
  C   C132      1.0  0.27484  0.62795  0.43301  1.0000
  C   C133      1.0  0.48085  0.53446  0.96745  1.0000
  C   C134      1.0  0.46792  0.94572  0.96282  1.0000
  C   C135      1.0  0.05248  0.52398  0.96800  1.0000
  C   C136      1.0  0.52445  0.47112  0.96424  1.0000
  C   C137      1.0  0.53230  0.05303  0.96681  1.0000
  C   C138      1.0  0.94558  0.47636  0.96840  1.0000
  C   C139      1.0  0.52504  0.47147  0.03092  1.0000
  C   C140      1.0  0.53179  0.05273  0.03358  1.0000
  C   C141      1.0  0.94554  0.47567  0.03512  1.0000
  C   C142      1.0  0.48063  0.53405  0.03422  1.0000
  C   C143      1.0  0.46726  0.94539  0.02951  1.0000
  C   C144      1.0  0.05251  0.52344  0.03469  1.0000
  C   C145      1.0  0.35061  0.65313  0.53409  1.0000
  C   C146      1.0  0.34265  0.69481  0.53269  1.0000
  C   C147      1.0  0.30138  0.64500  0.53455  1.0000
  C   C148      1.0  0.64786  0.34593  0.53291  1.0000
  C   C149      1.0  0.65563  0.30410  0.53509  1.0000
  C   C150      1.0  0.69697  0.35396  0.53599  1.0000
  C   C151      1.0  0.64853  0.34573  0.46439  1.0000
  C   C152      1.0  0.65573  0.30373  0.46654  1.0000
  C   C153      1.0  0.69765  0.35298  0.46749  1.0000
  C   C154      1.0  0.35066  0.65275  0.46554  1.0000
  C   C155      1.0  0.34267  0.69429  0.46414  1.0000
  C   C156      1.0  0.30108  0.64437  0.46600  1.0000
  C   C157      1.0  0.50261  0.50309  0.82720  1.0000
  C   C158      1.0  0.50045  0.99994  0.82621  1.0000
  C   C159      1.0  0.99920  0.50151  0.82959  1.0000
  C   C160      1.0  0.50294  0.50221  0.17090  1.0000
  C   C161      1.0  0.49796  0.99846  0.17022  1.0000
  C   C162      1.0  0.99911  0.49849  0.17348  1.0000
  C   C163      1.0  0.50294  0.50287  0.03393  1.0000
  C   C164      1.0  0.49934  0.99916  0.03321  1.0000
  C   C165      1.0  0.99905  0.49962  0.03659  1.0000
  C   C166      1.0  0.50286  0.50298  0.96396  1.0000
  C   C167      1.0  0.49993  0.99951  0.96316  1.0000
  C   C168      1.0  0.99905  0.50029  0.96656  1.0000
  C   C169      1.0  0.33129  0.66344  0.43592  1.0000
  C   C170      1.0  0.66759  0.33412  0.43687  1.0000
  C   C171      1.0  0.66645  0.33471  0.56399  1.0000
  C   C172      1.0  0.33168  0.66462  0.56299  1.0000
  N   N1        1.0  0.43190  0.56461  0.71399  1.0000
  N   N2        1.0  0.43772  0.86812  0.70367  1.0000
  N   N3        1.0  0.13114  0.56857  0.71255  1.0000
  N   N4        1.0  0.56899  0.43911  0.70211  1.0000
  N   N5        1.0  0.56409  0.13251  0.70993  1.0000
  N   N6        1.0  0.86841  0.43183  0.70898  1.0000
  N   N7        1.0  0.57240  0.44103  0.28870  1.0000
  N   N8        1.0  0.56229  0.13128  0.29083  1.0000
  N   N9        1.0  0.86796  0.42852  0.29250  1.0000
  N   N10       1.0  0.43186  0.56155  0.29544  1.0000
  N   N11       1.0  0.43373  0.86537  0.28433  1.0000
  N   N12       1.0  0.12891  0.56760  0.29787  1.0000
  C  Sn1       1.0  0.55803  0.36789  0.37929  1.0000
  C   C173      1.0  0.56867  0.39724  0.36248  1.0000
  C  Sn2       1.0  0.59811  0.41803  0.37097  1.0000
  C  Sn3       1.0  0.61733  0.40930  0.39676  1.0000
  C   C174      1.0  0.60670  0.37996  0.41356  1.0000
  C  Sn4       1.0  0.57725  0.35915  0.40509  1.0000
  O  Te1       1.0  0.52851  0.34748  0.37039  1.0000
  O  Te2       1.0  0.60824  0.44725  0.35382  1.0000
  O  Te3       1.0  0.64687  0.42974  0.40566  1.0000
  O  Te4       1.0  0.56713  0.32995  0.42222  1.0000
  Mg  Mg1       1.0  0.65027  0.46692  0.37500  1.0000
  Mg  Mg2       1.0  0.52510  0.31026  0.40102  1.0000
  C  Sn5       1.0  0.79752  0.43601  0.41376  1.0000
  C   C175      1.0  0.77782  0.40588  0.41897  1.0000
  C  Sn6       1.0  0.78559  0.38547  0.39782  1.0000
  C  Sn7       1.0  0.81365  0.39536  0.37094  1.0000
  C   C176      1.0  0.83333  0.42547  0.36575  1.0000
  C  Sn8       1.0  0.82558  0.44590  0.38688  1.0000
  O  Te5       1.0  0.78928  0.45603  0.43522  1.0000
  O  Te6       1.0  0.76552  0.35546  0.40350  1.0000
  O  Te7       1.0  0.82187  0.37531  0.34947  1.0000
  O  Te8       1.0  0.84563  0.47589  0.38122  1.0000
  Mg  Mg3       1.0  0.78693  0.33673  0.36747  1.0000
  Mg  Mg4       1.0  0.82425  0.49463  0.41727  1.0000
  C  Sn9       1.0  0.51139  0.44675  0.76498  1.0000
  C   C177      1.0  0.52346  0.46545  0.81882  1.0000
  C  Sn10      1.0  0.55343  0.47962  0.83036  1.0000
  C  Sn11      1.0  0.57172  0.47503  0.78715  1.0000
  C   C178      1.0  0.55964  0.45634  0.73334  1.0000
  C  Sn12      1.0  0.52967  0.44215  0.72178  1.0000
  O  Te9       1.0  0.48137  0.43281  0.75440  1.0000
  O  Te10      1.0  0.56500  0.49821  0.88452  1.0000
  O  Te11      1.0  0.60175  0.48898  0.79778  1.0000
  O  Te12      1.0  0.51810  0.42358  0.66765  1.0000
  Mg  Mg5       1.0  0.60721  0.51224  0.87821  1.0000
  Mg  Mg6       1.0  0.47590  0.40955  0.67389  1.0000
  C  Sn13      1.0  0.56108  0.36517  0.63332  1.0000
  C   C179      1.0  0.57099  0.39432  0.65160  1.0000
  C  Sn14      1.0  0.59548  0.41725  0.62162  1.0000
  C  Sn15      1.0  0.61037  0.41092  0.57231  1.0000
  C   C180      1.0  0.60046  0.38179  0.55404  1.0000
  C  Sn16      1.0  0.57597  0.35884  0.58401  1.0000
  O  Te13      1.0  0.53655  0.34259  0.66395  1.0000
  O  Te14      1.0  0.60498  0.44622  0.64073  1.0000
  O  Te15      1.0  0.63492  0.43353  0.54168  1.0000
  O  Te16      1.0  0.56647  0.32989  0.56491  1.0000
  Mg  Mg7       1.0  0.63944  0.46940  0.58457  1.0000
  Mg  Mg8       1.0  0.53200  0.30669  0.62101  1.0000
  C  Sn17      1.0  0.43028  0.64216  0.38096  1.0000
  C   C181      1.0  0.40260  0.62664  0.40912  1.0000
  C  Sn18      1.0  0.38889  0.59619  0.41650  1.0000
  C  Sn19      1.0  0.40315  0.58092  0.39535  1.0000
  C   C182      1.0  0.43081  0.59643  0.36722  1.0000
  C  Sn20      1.0  0.44454  0.62689  0.35980  1.0000
  O  Te17      1.0  0.44357  0.67260  0.37406  1.0000
  O  Te18      1.0  0.36121  0.58115  0.44477  1.0000
  O  Te19      1.0  0.38983  0.55045  0.40227  1.0000
  O  Te20      1.0  0.47220  0.64192  0.33157  1.0000
  Mg  Mg9       1.0  0.35206  0.53975  0.44369  1.0000
  Mg  Mg10      1.0  0.48138  0.68332  0.33266  1.0000
  C  Sn21      1.0  0.43062  0.52122  0.20741  1.0000
  C   C183      1.0  0.44202  0.54048  0.26058  1.0000
  C  Sn22      1.0  0.47208  0.55667  0.27094  1.0000
  C  Sn23      1.0  0.49115  0.55356  0.22723  1.0000
  C   C184      1.0  0.47975  0.53432  0.17411  1.0000
  C  Sn24      1.0  0.44969  0.51812  0.16371  1.0000
  O  Te21      1.0  0.40050  0.50526  0.19800  1.0000
  O  Te22      1.0  0.48296  0.57577  0.32444  1.0000
  O  Te23      1.0  0.52129  0.56954  0.23669  1.0000
  O  Te24      1.0  0.43881  0.49903  0.11024  1.0000
  Mg  Mg11      1.0  0.52562  0.59275  0.31658  1.0000
  Mg  Mg12      1.0  0.39615  0.48205  0.11803  1.0000
  C  Sn25      1.0  0.59316  0.20804  0.61627  1.0000
  C   C185      1.0  0.62153  0.22508  0.59249  1.0000
  C  Sn26      1.0  0.64047  0.21391  0.59124  1.0000
  C  Sn27      1.0  0.63084  0.18509  0.61421  1.0000
  C   C186      1.0  0.60248  0.16806  0.63796  1.0000
  C  Sn28      1.0  0.58354  0.17922  0.63924  1.0000
  O  Te25      1.0  0.57461  0.21966  0.61706  1.0000
  O  Te26      1.0  0.66873  0.23137  0.56726  1.0000
  O  Te27      1.0  0.64942  0.17348  0.61341  1.0000
  O  Te28      1.0  0.55529  0.16178  0.66319  1.0000
  Mg  Mg13      1.0  0.68589  0.20575  0.57613  1.0000
  Mg  Mg14      1.0  0.53810  0.18736  0.65431  1.0000
  C  Sn29      1.0  0.57414  0.48396  0.21020  1.0000
  C   C187      1.0  0.56131  0.46152  0.25632  1.0000
  C  Sn30      1.0  0.53110  0.44306  0.25795  1.0000
  C  Sn31      1.0  0.51334  0.44708  0.21249  1.0000
  C   C188      1.0  0.52617  0.46949  0.16639  1.0000
  C  Sn32      1.0  0.55638  0.48798  0.16474  1.0000
  O  Te29      1.0  0.60439  0.50216  0.20946  1.0000
  O  Te30      1.0  0.51878  0.42079  0.30453  1.0000
  O  Te31      1.0  0.48307  0.42885  0.21326  1.0000
  O  Te32      1.0  0.56871  0.51023  0.11819  1.0000
  Mg  Mg15      1.0  0.47653  0.40163  0.28597  1.0000
  Mg  Mg16      1.0  0.61095  0.52939  0.13668  1.0000
  C  Sn33      1.0  0.38497  0.59671  0.63311  1.0000
  C   C189      1.0  0.39699  0.62224  0.59556  1.0000
  C  Sn34      1.0  0.42652  0.63679  0.57902  1.0000
  C  Sn35      1.0  0.44440  0.62559  0.60043  1.0000
  C   C190      1.0  0.43238  0.60008  0.63795  1.0000
  C  Sn36      1.0  0.40286  0.58551  0.65452  1.0000
  O  Te33      1.0  0.35540  0.58252  0.64906  1.0000
  O  Te34      1.0  0.43804  0.66228  0.54145  1.0000
  O  Te35      1.0  0.47399  0.63981  0.58445  1.0000
  O  Te36      1.0  0.39134  0.56003  0.69206  1.0000
  Mg  Mg17      1.0  0.47956  0.67377  0.53227  1.0000
  Mg  Mg18      1.0  0.34982  0.54852  0.70124  1.0000
  C  Sn37      1.0  0.41778  0.81540  0.59939  1.0000
  C   C191      1.0  0.40372  0.82971  0.62479  1.0000
  C  Sn38      1.0  0.37333  0.81527  0.62765  1.0000
  C  Sn39      1.0  0.35665  0.78590  0.60467  1.0000
  C   C192      1.0  0.37071  0.77161  0.57929  1.0000
  C  Sn40      1.0  0.40110  0.78604  0.57640  1.0000
  O  Te37      1.0  0.44818  0.83027  0.59701  1.0000
  O  Te38      1.0  0.35976  0.83003  0.65324  1.0000
  O  Te39      1.0  0.32623  0.77104  0.60706  1.0000
  O  Te40      1.0  0.41467  0.77129  0.55084  1.0000
  Mg  Mg19      1.0  0.31780  0.80046  0.64619  1.0000
  Mg  Mg20      1.0  0.45663  0.80083  0.55790  1.0000
  C  Sn41      1.0  0.40769  0.80151  0.34666  1.0000
  C   C193      1.0  0.39570  0.81957  0.33787  1.0000
  C  Sn42      1.0  0.37317  0.81672  0.37823  1.0000
  C  Sn43      1.0  0.36242  0.79540  0.42844  1.0000
  C   C194      1.0  0.37441  0.77736  0.43722  1.0000
  C  Sn44      1.0  0.39694  0.78018  0.39687  1.0000
  O  Te41      1.0  0.43020  0.80474  0.30574  1.0000
  O  Te42      1.0  0.36152  0.83502  0.36848  1.0000
  O  Te43      1.0  0.33989  0.79218  0.46937  1.0000
  O  Te44      1.0  0.40859  0.76190  0.40660  1.0000
  Mg  Mg21      1.0  0.33114  0.82223  0.43682  1.0000
  Mg  Mg22      1.0  0.43897  0.77468  0.33833  1.0000
  C  Sn45      1.0  0.07993  0.51594  0.25141  1.0000
  C   C195      1.0  0.10286  0.54503  0.25042  1.0000
  C  Sn46      1.0  0.09999  0.56648  0.21696  1.0000
  C  Sn47      1.0  0.07365  0.55869  0.18384  1.0000
  C   C196      1.0  0.05074  0.52961  0.18484  1.0000
  C  Sn48      1.0  0.05359  0.50815  0.21828  1.0000
  O  Te45      1.0  0.08328  0.49486  0.28517  1.0000
  O  Te46      1.0  0.12322  0.59542  0.21665  1.0000
  O  Te47      1.0  0.07032  0.57979  0.15006  1.0000
  O  Te48      1.0  0.03038  0.47922  0.21861  1.0000
  Mg  Mg23      1.0  0.10815  0.61626  0.16385  1.0000
  Mg  Mg24      1.0  0.04542  0.45837  0.27142  1.0000
