data_image0
_chemical_formula_structural       H94C172N12C2Sn2C2HTe2HMgC2Sn2C2HTe2HMgC2Sn2C2HTe2HMgC2Sn2C2HTe2HMgC2Sn2C2HTe2HMgC2Sn2C2HTe2HMgC2Sn2C2HTe2HMgC2Sn2C2HTe2HMgC2Sn2C2HTe2HMgC2Sn2C2HTe2HMgC2Sn2C2HTe2HMgC2Sn2C2HTe2HMg
_chemical_formula_sum              "H118 C220 N12 Sn24 Te24 Mg12"
_cell_length_a       53.0981
_cell_length_b       52.6313
_cell_length_c       20.4912
_cell_angle_alpha    90.3924
_cell_angle_beta     89.7844
_cell_angle_gamma    120.183

_symmetry_space_group_name_H-M    'P1'
_space_group_IT_number       1

loop_
  _space_group_symop_operation_xyz
  'x, y, z'

loop_
  _atom_site_type_symbol
  _atom_site_label
  _atom_site_symmetry_multiplicity
  _atom_site_fract_x
  _atom_site_fract_y
  _atom_site_fract_z
  _atom_site_occupancy
  H   H1        1.0  0.44263  0.65872  0.55037  1.0000
  H   H2        1.0  0.33450  0.77643  0.57625  1.0000
  H   H3        1.0  0.21936  0.55475  0.57608  1.0000
  H   H4        1.0  0.56361  0.33613  0.40178  1.0000
  H   H5        1.0  0.78997  0.44347  0.46515  1.0000
  H   H6        1.0  0.43927  0.66491  0.41545  1.0000
  H   H7        1.0  0.33770  0.78132  0.44323  1.0000
  H   H8        1.0  0.46851  0.64002  0.61807  1.0000
  H   H9        1.0  0.35607  0.82242  0.64239  1.0000
  H   H10       1.0  0.17467  0.53051  0.64440  1.0000
  H   H11       1.0  0.53958  0.35692  0.33393  1.0000
  H   H12       1.0  0.83541  0.46816  0.39987  1.0000
  H   H13       1.0  0.46539  0.64477  0.35164  1.0000
  H   H14       1.0  0.35760  0.82696  0.37786  1.0000
  H   H15       1.0  0.38669  0.56475  0.67116  1.0000
  H   H16       1.0  0.43922  0.82728  0.63793  1.0000
  H   H17       1.0  0.17260  0.61106  0.65255  1.0000
  H   H18       1.0  0.61223  0.44400  0.36487  1.0000
  H   H19       1.0  0.81879  0.38448  0.32617  1.0000
  H   H20       1.0  0.39167  0.55766  0.36951  1.0000
  H   H21       1.0  0.43329  0.82076  0.33133  1.0000
  H   H22       1.0  0.36052  0.58422  0.60523  1.0000
  H   H23       1.0  0.41754  0.78098  0.57167  1.0000
  H   H24       1.0  0.21794  0.63561  0.58518  1.0000
  H   H25       1.0  0.63632  0.42309  0.43338  1.0000
  H   H26       1.0  0.77269  0.35953  0.39095  1.0000
  H   H27       1.0  0.36561  0.57784  0.43519  1.0000
  H   H28       1.0  0.41308  0.77450  0.39617  1.0000
  H   H29       1.0  0.46855  0.60546  0.69268  1.0000
  H   H30       1.0  0.39588  0.86249  0.69603  1.0000
  H   H31       1.0  0.13650  0.53181  0.70665  1.0000
  H   H32       1.0  0.53264  0.39681  0.69333  1.0000
  H   H33       1.0  0.60490  0.13635  0.69447  1.0000
  H   H34       1.0  0.86320  0.46859  0.70159  1.0000
  H   H35       1.0  0.53852  0.39735  0.28476  1.0000
  H   H36       1.0  0.60234  0.13408  0.31047  1.0000
  H   H37       1.0  0.86764  0.46687  0.31923  1.0000
  H   H38       1.0  0.46756  0.60427  0.30193  1.0000
  H   H39       1.0  0.39440  0.86357  0.30824  1.0000
  H   H40       1.0  0.13408  0.53084  0.30624  1.0000
  H   H41       1.0  0.47555  0.88252  0.79529  1.0000
  H   H42       1.0  0.53136  0.12082  0.81178  1.0000
  H   H43       1.0  0.59681  0.48247  0.20305  1.0000
  H   H44       1.0  0.88191  0.40546  0.19883  1.0000
  H   H45       1.0  0.47048  0.87942  0.18969  1.0000
  H   H46       1.0  0.42589  0.91299  0.69060  1.0000
  H   H47       1.0  0.56947  0.08440  0.68356  1.0000
  H   H48       1.0  0.51448  0.42397  0.29337  1.0000
  H   H49       1.0  0.91414  0.48488  0.31195  1.0000
  H   H50       1.0  0.42398  0.91153  0.30349  1.0000
  H   H51       1.0  0.44725  0.95801  0.75957  1.0000
  H   H52       1.0  0.54797  0.03914  0.74965  1.0000
  H   H53       1.0  0.49074  0.44485  0.22551  1.0000
  H   H54       1.0  0.95844  0.50866  0.24333  1.0000
  H   H55       1.0  0.44575  0.95687  0.23755  1.0000
  H   H56       1.0  0.49607  0.92718  0.86656  1.0000
  H   H57       1.0  0.51019  0.07559  0.87918  1.0000
  H   H58       1.0  0.57265  0.50287  0.13372  1.0000
  H   H59       1.0  0.92664  0.42953  0.12939  1.0000
  H   H60       1.0  0.49231  0.92502  0.12322  1.0000
  H   H61       1.0  0.36662  0.64364  0.62179  1.0000
  H   H62       1.0  0.35259  0.72188  0.61909  1.0000
  H   H63       1.0  0.27596  0.62994  0.62278  1.0000
  H   H64       1.0  0.63145  0.35668  0.61882  1.0000
  H   H65       1.0  0.64620  0.27810  0.62238  1.0000
  H   H66       1.0  0.72224  0.37195  0.62396  1.0000
  H   H67       1.0  0.63347  0.35582  0.37585  1.0000
  H   H68       1.0  0.64538  0.27712  0.37950  1.0000
  H   H69       1.0  0.72476  0.36680  0.38151  1.0000
  H   H70       1.0  0.36737  0.64269  0.37886  1.0000
  H   H71       1.0  0.35308  0.72007  0.37632  1.0000
  H   H72       1.0  0.27410  0.62773  0.37993  1.0000
  H   H73       1.0  0.47360  0.54764  0.94175  1.0000
  H   H74       1.0  0.45491  0.92547  0.93551  1.0000
  H   H75       1.0  0.07282  0.53223  0.94140  1.0000
  H   H76       1.0  0.53124  0.45770  0.93745  1.0000
  H   H77       1.0  0.54625  0.07350  0.94152  1.0000
  H   H78       1.0  0.92516  0.46848  0.94237  1.0000
  H   H79       1.0  0.53247  0.45854  0.05698  1.0000
  H   H80       1.0  0.54514  0.07295  0.06074  1.0000
  H   H81       1.0  0.92511  0.46725  0.06156  1.0000
  H   H82       1.0  0.47322  0.54692  0.06128  1.0000
  H   H83       1.0  0.45366  0.92486  0.05495  1.0000
  H   H84       1.0  0.07290  0.53130  0.06082  1.0000
  H   H85       1.0  0.50290  0.50177  0.22398  1.0000
  H   H86       1.0  0.49728  0.99814  0.22333  1.0000
  H   H87       1.0  0.99900  0.49809  0.22659  1.0000
  H   H88       1.0  0.50253  0.50317  0.77410  1.0000
  H   H89       1.0  0.50037  0.99996  0.77310  1.0000
  H   H90       1.0  0.99921  0.50189  0.77650  1.0000
  H   H91       1.0  0.33196  0.66522  0.61641  1.0000
  H   H92       1.0  0.66582  0.33492  0.61741  1.0000
  H   H93       1.0  0.66816  0.33394  0.38346  1.0000
  H   H94       1.0  0.33110  0.66287  0.38250  1.0000
  C   C1        1.0  0.39978  0.62280  0.57354  1.0000
  C   C2        1.0  0.37460  0.77565  0.56922  1.0000
  C   C3        1.0  0.22167  0.59682  0.57588  1.0000
  C   C4        1.0  0.60147  0.37827  0.42245  1.0000
  C   C5        1.0  0.77810  0.39978  0.43254  1.0000
  C   C6        1.0  0.40063  0.62266  0.42932  1.0000
  C   C7        1.0  0.37411  0.77482  0.42457  1.0000
  C   C8        1.0  0.43032  0.63825  0.57696  1.0000
  C   C9        1.0  0.35743  0.78755  0.58946  1.0000
  C   C10       1.0  0.20915  0.56710  0.59275  1.0000
  C   C11       1.0  0.57418  0.35974  0.39402  1.0000
  C   C12       1.0  0.79623  0.43047  0.43501  1.0000
  C   C13       1.0  0.42885  0.64142  0.40567  1.0000
  C   C14       1.0  0.35873  0.78998  0.41924  1.0000
  C   C15       1.0  0.44482  0.62770  0.61485  1.0000
  C   C16       1.0  0.36955  0.81337  0.62650  1.0000
  C   C17       1.0  0.18401  0.55352  0.63112  1.0000
  C   C18       1.0  0.56078  0.37145  0.35584  1.0000
  C   C19       1.0  0.82176  0.44432  0.39831  1.0000
  C   C20       1.0  0.44346  0.63012  0.36979  1.0000
  C   C21       1.0  0.36994  0.81564  0.38247  1.0000
  C   C22       1.0  0.42921  0.60106  0.64889  1.0000
  C   C23       1.0  0.39911  0.82792  0.64417  1.0000
  C   C24       1.0  0.17057  0.56923  0.65293  1.0000
  C   C25       1.0  0.57441  0.40192  0.34499  1.0000
  C   C26       1.0  0.83023  0.42783  0.35915  1.0000
  C   C27       1.0  0.42999  0.59987  0.35603  1.0000
  C   C28       1.0  0.39704  0.82708  0.35086  1.0000
  C   C29       1.0  0.39859  0.58539  0.64491  1.0000
  C   C30       1.0  0.41637  0.81597  0.62390  1.0000
  C   C31       1.0  0.18307  0.59901  0.63556  1.0000
  C   C32       1.0  0.60180  0.42048  0.37367  1.0000
  C   C33       1.0  0.81219  0.39705  0.35689  1.0000
  C   C34       1.0  0.40178  0.58104  0.38026  1.0000
  C   C35       1.0  0.41245  0.81188  0.35624  1.0000
  C   C36       1.0  0.38418  0.59631  0.60826  1.0000
  C   C37       1.0  0.40422  0.79026  0.58704  1.0000
  C   C38       1.0  0.20825  0.61254  0.59798  1.0000
  C   C39       1.0  0.61504  0.40876  0.41176  1.0000
  C   C40       1.0  0.78649  0.38334  0.39271  1.0000
  C   C41       1.0  0.38743  0.59233  0.41651  1.0000
  C   C42       1.0  0.40106  0.78614  0.39220  1.0000
  C   C43       1.0  0.44497  0.59028  0.68736  1.0000
  C   C44       1.0  0.41108  0.85473  0.68353  1.0000
  C   C45       1.0  0.14423  0.55480  0.69313  1.0000
  C   C46       1.0  0.55548  0.41241  0.68054  1.0000
  C   C47       1.0  0.59007  0.14490  0.68584  1.0000
  C   C48       1.0  0.85541  0.44546  0.68876  1.0000
  C   C49       1.0  0.56016  0.41354  0.30371  1.0000
  C   C50       1.0  0.58793  0.14334  0.31656  1.0000
  C   C51       1.0  0.85722  0.44279  0.32172  1.0000
  C   C52       1.0  0.44491  0.58848  0.31569  1.0000
  C   C53       1.0  0.40858  0.85398  0.31252  1.0000
  C   C54       1.0  0.14186  0.55400  0.31871  1.0000
  C   C55       1.0  0.46910  0.89896  0.78900  1.0000
  C   C56       1.0  0.53541  0.10304  0.79965  1.0000
  C   C57       1.0  0.57349  0.47403  0.20667  1.0000
  C   C58       1.0  0.89863  0.42824  0.20714  1.0000
  C   C59       1.0  0.46472  0.89625  0.19881  1.0000
  C   C60       1.0  0.44855  0.89413  0.74017  1.0000
  C   C61       1.0  0.55297  0.10636  0.74506  1.0000
  C   C62       1.0  0.55726  0.45119  0.25114  1.0000
  C   C63       1.0  0.89422  0.44374  0.25793  1.0000
  C   C64       1.0  0.44480  0.89162  0.24932  1.0000
  C   C65       1.0  0.44097  0.91588  0.72962  1.0000
  C   C66       1.0  0.55707  0.08277  0.72730  1.0000
  C   C67       1.0  0.52721  0.44086  0.25764  1.0000
  C   C68       1.0  0.91645  0.47282  0.27124  1.0000
  C   C69       1.0  0.43841  0.91408  0.26308  1.0000
  C   C70       1.0  0.45319  0.94129  0.76798  1.0000
  C   C71       1.0  0.54471  0.05719  0.76440  1.0000
  C   C72       1.0  0.51393  0.45284  0.22012  1.0000
  C   C73       1.0  0.94154  0.48611  0.23303  1.0000
  C   C74       1.0  0.45090  0.93974  0.22629  1.0000
  C   C75       1.0  0.47278  0.94558  0.81862  1.0000
  C   C76       1.0  0.52826  0.05429  0.82087  1.0000
  C   C77       1.0  0.52995  0.47511  0.17461  1.0000
  C   C78       1.0  0.94536  0.47108  0.18027  1.0000
  C   C79       1.0  0.46999  0.94396  0.17424  1.0000
  C   C80       1.0  0.48049  0.92390  0.82843  1.0000
  C   C81       1.0  0.52376  0.07777  0.83730  1.0000
  C   C82       1.0  0.55992  0.48529  0.16806  1.0000
  C   C83       1.0  0.92352  0.44177  0.16848  1.0000
  C   C84       1.0  0.47676  0.92171  0.16162  1.0000
  C   C85       1.0  0.49077  0.51811  0.92996  1.0000
  C   C86       1.0  0.48491  0.97239  0.92744  1.0000
  C   C87       1.0  0.02612  0.51344  0.93159  1.0000
  C   C88       1.0  0.51467  0.48777  0.92834  1.0000
  C   C89       1.0  0.51552  0.02686  0.92897  1.0000
  C   C90       1.0  0.97200  0.48769  0.93161  1.0000
  C   C91       1.0  0.51523  0.48796  0.06792  1.0000
  C   C92       1.0  0.51447  0.02620  0.06926  1.0000
  C   C93       1.0  0.97196  0.48634  0.07153  1.0000
  C   C94       1.0  0.49067  0.51755  0.06989  1.0000
  C   C95       1.0  0.48371  0.97172  0.06706  1.0000
  C   C96       1.0  0.02613  0.51222  0.07148  1.0000
  C   C97       1.0  0.49005  0.51726  0.86057  1.0000
  C   C98       1.0  0.48618  0.97289  0.85818  1.0000
  C   C99       1.0  0.02595  0.51440  0.86225  1.0000
  C   C100      1.0  0.51517  0.48868  0.85897  1.0000
  C   C101      1.0  0.51474  0.02691  0.85944  1.0000
  C   C102      1.0  0.97238  0.48795  0.86219  1.0000
  C   C103      1.0  0.51597  0.48866  0.13709  1.0000
  C   C104      1.0  0.51284  0.02563  0.13864  1.0000
  C   C105      1.0  0.97234  0.48538  0.14083  1.0000
  C   C106      1.0  0.48988  0.51616  0.13924  1.0000
  C   C107      1.0  0.48393  0.97161  0.13647  1.0000
  C   C108      1.0  0.02590  0.51204  0.14089  1.0000
  C   C109      1.0  0.38360  0.63388  0.53523  1.0000
  C   C110      1.0  0.36228  0.74759  0.53147  1.0000
  C   C111      1.0  0.24902  0.61225  0.53681  1.0000
  C   C112      1.0  0.61619  0.36667  0.53035  1.0000
  C   C113      1.0  0.63656  0.25145  0.53546  1.0000
  C   C114      1.0  0.74938  0.38652  0.53796  1.0000
  C   C115      1.0  0.61672  0.36634  0.46164  1.0000
  C   C116      1.0  0.63582  0.25095  0.46665  1.0000
  C   C117      1.0  0.75024  0.38469  0.46930  1.0000
  C   C118      1.0  0.38412  0.63403  0.46647  1.0000
  C   C119      1.0  0.36255  0.74718  0.46268  1.0000
  C   C120      1.0  0.24859  0.61177  0.46804  1.0000
  C   C121      1.0  0.36668  0.64355  0.56869  1.0000
  C   C122      1.0  0.35225  0.72117  0.56602  1.0000
  C   C123      1.0  0.27572  0.62913  0.56969  1.0000
  C   C124      1.0  0.63184  0.35627  0.56574  1.0000
  C   C125      1.0  0.64635  0.27818  0.56929  1.0000
  C   C126      1.0  0.72253  0.37099  0.57091  1.0000
  C   C127      1.0  0.63295  0.35566  0.42895  1.0000
  C   C128      1.0  0.64563  0.27748  0.43260  1.0000
  C   C129      1.0  0.72402  0.36782  0.43451  1.0000
  C   C130      1.0  0.36736  0.64338  0.43194  1.0000
  C   C131      1.0  0.35269  0.72023  0.42942  1.0000
  C   C132      1.0  0.27484  0.62795  0.43301  1.0000
  C   C133      1.0  0.48085  0.53446  0.96745  1.0000
  C   C134      1.0  0.46792  0.94572  0.96282  1.0000
  C   C135      1.0  0.05248  0.52398  0.96800  1.0000
  C   C136      1.0  0.52445  0.47112  0.96424  1.0000
  C   C137      1.0  0.53230  0.05303  0.96681  1.0000
  C   C138      1.0  0.94558  0.47636  0.96840  1.0000
  C   C139      1.0  0.52504  0.47147  0.03092  1.0000
  C   C140      1.0  0.53179  0.05273  0.03358  1.0000
  C   C141      1.0  0.94554  0.47567  0.03512  1.0000
  C   C142      1.0  0.48063  0.53405  0.03422  1.0000
  C   C143      1.0  0.46726  0.94539  0.02951  1.0000
  C   C144      1.0  0.05251  0.52344  0.03469  1.0000
  C   C145      1.0  0.35061  0.65313  0.53409  1.0000
  C   C146      1.0  0.34265  0.69481  0.53269  1.0000
  C   C147      1.0  0.30138  0.64500  0.53455  1.0000
  C   C148      1.0  0.64786  0.34593  0.53291  1.0000
  C   C149      1.0  0.65563  0.30410  0.53509  1.0000
  C   C150      1.0  0.69697  0.35396  0.53599  1.0000
  C   C151      1.0  0.64853  0.34573  0.46439  1.0000
  C   C152      1.0  0.65573  0.30373  0.46654  1.0000
  C   C153      1.0  0.69765  0.35298  0.46749  1.0000
  C   C154      1.0  0.35066  0.65275  0.46554  1.0000
  C   C155      1.0  0.34267  0.69429  0.46414  1.0000
  C   C156      1.0  0.30108  0.64437  0.46600  1.0000
  C   C157      1.0  0.50261  0.50309  0.82720  1.0000
  C   C158      1.0  0.50045  0.99994  0.82621  1.0000
  C   C159      1.0  0.99920  0.50151  0.82959  1.0000
  C   C160      1.0  0.50294  0.50221  0.17090  1.0000
  C   C161      1.0  0.49796  0.99846  0.17022  1.0000
  C   C162      1.0  0.99911  0.49849  0.17348  1.0000
  C   C163      1.0  0.50294  0.50287  0.03393  1.0000
  C   C164      1.0  0.49934  0.99916  0.03321  1.0000
  C   C165      1.0  0.99905  0.49962  0.03659  1.0000
  C   C166      1.0  0.50286  0.50298  0.96396  1.0000
  C   C167      1.0  0.49993  0.99951  0.96316  1.0000
  C   C168      1.0  0.99905  0.50029  0.96656  1.0000
  C   C169      1.0  0.33129  0.66344  0.43592  1.0000
  C   C170      1.0  0.66759  0.33412  0.43687  1.0000
  C   C171      1.0  0.66645  0.33471  0.56399  1.0000
  C   C172      1.0  0.33168  0.66462  0.56299  1.0000
  N   N1        1.0  0.43190  0.56461  0.71399  1.0000
  N   N2        1.0  0.43772  0.86812  0.70367  1.0000
  N   N3        1.0  0.13114  0.56857  0.71255  1.0000
  N   N4        1.0  0.56899  0.43911  0.70211  1.0000
  N   N5        1.0  0.56409  0.13251  0.70993  1.0000
  N   N6        1.0  0.86841  0.43183  0.70898  1.0000
  N   N7        1.0  0.57240  0.44103  0.28870  1.0000
  N   N8        1.0  0.56229  0.13128  0.29083  1.0000
  N   N9        1.0  0.86796  0.42852  0.29250  1.0000
  N   N10       1.0  0.43186  0.56155  0.29544  1.0000
  N   N11       1.0  0.43373  0.86537  0.28433  1.0000
  N   N12       1.0  0.12891  0.56760  0.29787  1.0000
  C   C173      1.0  0.63757  0.19260  0.61976  1.0000
  C   C174      1.0  0.60958  0.17565  0.64563  1.0000
  C  Sn1       1.0  0.58808  0.18280  0.63254  1.0000
  C  Sn2       1.0  0.59480  0.20738  0.59278  1.0000
  C   C175      1.0  0.62286  0.22419  0.56710  1.0000
  C   C176      1.0  0.64421  0.21685  0.58052  1.0000
  H   H95       1.0  0.65409  0.18691  0.63012  1.0000
  O  Te1       1.0  0.56023  0.16564  0.65879  1.0000
  O  Te2       1.0  0.57372  0.21501  0.57890  1.0000
  H   H96       1.0  0.66587  0.22996  0.56046  1.0000
  Mg  Mg1       1.0  0.53893  0.18487  0.62595  1.0000
  C   C177      1.0  0.63198  0.18604  0.39988  1.0000
  C   C178      1.0  0.60595  0.17203  0.36455  1.0000
  C  Sn3       1.0  0.58870  0.18504  0.35910  1.0000
  C  Sn4       1.0  0.59773  0.21257  0.38964  1.0000
  C   C179      1.0  0.62381  0.22642  0.42484  1.0000
  C   C180      1.0  0.64090  0.21321  0.42999  1.0000
  H   H97       1.0  0.64521  0.17583  0.40384  1.0000
  O  Te3       1.0  0.56276  0.17074  0.32364  1.0000
  O  Te4       1.0  0.58091  0.22606  0.38496  1.0000
  H   H98       1.0  0.66106  0.22406  0.45732  1.0000
  Mg  Mg2       1.0  0.54731  0.19794  0.33130  1.0000
  C   C181      1.0  0.48357  0.56191  0.73855  1.0000
  C   C182      1.0  0.45456  0.55523  0.74075  1.0000
  C  Sn5       1.0  0.43568  0.53619  0.78823  1.0000
  C  Sn6       1.0  0.44609  0.52363  0.83430  1.0000
  C   C183      1.0  0.47515  0.53047  0.83171  1.0000
  C   C184      1.0  0.49386  0.54955  0.78398  1.0000
  H   H99       1.0  0.49805  0.57668  0.70164  1.0000
  O  Te5       1.0  0.40676  0.52974  0.78972  1.0000
  O  Te6       1.0  0.42769  0.50454  0.88228  1.0000
  H   H100      1.0  0.51632  0.55473  0.78231  1.0000
  Mg  Mg3       1.0  0.39009  0.50249  0.86436  1.0000
  C   C185      1.0  0.09601  0.57124  0.80967  1.0000
  C   C186      1.0  0.10484  0.55847  0.76140  1.0000
  C  Sn7       1.0  0.08628  0.52942  0.74166  1.0000
  C  Sn8       1.0  0.05839  0.51290  0.77087  1.0000
  C   C187      1.0  0.04976  0.52588  0.81908  1.0000
  C   C188      1.0  0.06850  0.55497  0.83848  1.0000
  H   H101      1.0  0.11051  0.59375  0.82465  1.0000
  O  Te7       1.0  0.09544  0.51700  0.69339  1.0000
  O  Te8       1.0  0.03941  0.48383  0.75204  1.0000
  H   H102      1.0  0.06166  0.56485  0.87582  1.0000
  Mg  Mg4       1.0  0.06180  0.47662  0.68426  1.0000
  C   C189      1.0  0.55623  0.36464  0.61479  1.0000
  C   C190      1.0  0.56666  0.39303  0.63935  1.0000
  C  Sn9       1.0  0.59479  0.41547  0.62399  1.0000
  C  Sn10      1.0  0.61275  0.40930  0.58327  1.0000
  C   C191      1.0  0.60210  0.38082  0.55891  1.0000
  C   C192      1.0  0.57393  0.35853  0.57460  1.0000
  H   H103      1.0  0.53443  0.34739  0.62690  1.0000
  O  Te9       1.0  0.60487  0.44371  0.64896  1.0000
  O  Te10      1.0  0.64094  0.43131  0.56713  1.0000
  H   H104      1.0  0.56585  0.33656  0.55555  1.0000
  Mg  Mg5       1.0  0.64485  0.46633  0.61311  1.0000
  C   C193      1.0  0.48243  0.55747  0.26922  1.0000
  C   C194      1.0  0.45488  0.55440  0.26165  1.0000
  C  Sn11      1.0  0.43629  0.53649  0.21213  1.0000
  C  Sn12      1.0  0.44550  0.52138  0.16947  1.0000
  C   C195      1.0  0.47309  0.52458  0.17747  1.0000
  C   C196      1.0  0.49152  0.54257  0.22718  1.0000
  H   H105      1.0  0.49669  0.57137  0.30769  1.0000
  O  Te11      1.0  0.40885  0.53368  0.20524  1.0000
  O  Te12      1.0  0.42735  0.50333  0.11958  1.0000
  H   H106      1.0  0.51284  0.54492  0.23305  1.0000
  Mg  Mg6       1.0  0.39196  0.50655  0.12984  1.0000
  C   C197      1.0  0.52744  0.09661  0.18993  1.0000
  C   C198      1.0  0.54436  0.10317  0.24634  1.0000
  C  Sn13      1.0  0.55364  0.08408  0.26785  1.0000
  C  Sn14      1.0  0.54580  0.05795  0.23212  1.0000
  C   C199      1.0  0.52888  0.05160  0.17572  1.0000
  C   C200      1.0  0.51971  0.07085  0.15464  1.0000
  H   H107      1.0  0.52036  0.11152  0.17360  1.0000
  O  Te13      1.0  0.57052  0.09097  0.32432  1.0000
  O  Te14      1.0  0.55478  0.03849  0.25251  1.0000
  H   H108      1.0  0.50662  0.06578  0.11095  1.0000
  Mg  Mg7       1.0  0.57748  0.05751  0.33250  1.0000
  C   C201      1.0  0.51352  0.45343  0.74904  1.0000
  C   C202      1.0  0.52391  0.46964  0.80684  1.0000
  C  Sn15      1.0  0.55172  0.47775  0.82973  1.0000
  C  Sn16      1.0  0.56941  0.46945  0.79397  1.0000
  C   C203      1.0  0.55883  0.45325  0.73618  1.0000
  C   C204      1.0  0.53096  0.44525  0.71373  1.0000
  H   H109      1.0  0.49196  0.44725  0.73164  1.0000
  O  Te15      1.0  0.56176  0.49394  0.88758  1.0000
  O  Te16      1.0  0.59730  0.47727  0.81573  1.0000
  H   H110      1.0  0.52293  0.43271  0.66895  1.0000
  Mg  Mg8       1.0  0.60128  0.49936  0.89731  1.0000
  C   C205      1.0  0.18769  0.55215  0.38668  1.0000
  C   C206      1.0  0.17050  0.56368  0.36553  1.0000
  C  Sn17      1.0  0.17965  0.59335  0.37576  1.0000
  C  Sn18      1.0  0.20652  0.61177  0.40775  1.0000
  C   C207      1.0  0.22357  0.60003  0.42868  1.0000
  C   C208      1.0  0.21420  0.57030  0.41822  1.0000
  H   H111      1.0  0.18045  0.52916  0.37855  1.0000
  O  Te17      1.0  0.16220  0.60451  0.35434  1.0000
  O  Te18      1.0  0.21620  0.64151  0.41858  1.0000
  H   H112      1.0  0.22753  0.56139  0.43456  1.0000
  Mg  Mg9       1.0  0.18474  0.64646  0.38040  1.0000
  C   C209      1.0  0.92245  0.48327  0.73989  1.0000
  C   C210      1.0  0.90004  0.45393  0.73888  1.0000
  C  Sn19      1.0  0.89977  0.43401  0.78400  1.0000
  C  Sn20      1.0  0.92239  0.44372  0.83095  1.0000
  C   C211      1.0  0.94469  0.47312  0.83158  1.0000
  C   C212      1.0  0.94475  0.49286  0.78619  1.0000
  H   H113      1.0  0.92249  0.49855  0.70480  1.0000
  O  Te19      1.0  0.87723  0.40478  0.78230  1.0000
  O  Te20      1.0  0.92265  0.42428  0.87662  1.0000
  H   H114      1.0  0.96210  0.51558  0.78701  1.0000
  Mg  Mg10      1.0  0.88716  0.38661  0.85466  1.0000
  C   C213      1.0  0.09523  0.56911  0.19669  1.0000
  C   C214      1.0  0.10168  0.55779  0.25154  1.0000
  C  Sn21      1.0  0.08337  0.52854  0.26960  1.0000
  C  Sn22      1.0  0.05815  0.51035  0.23197  1.0000
  C   C215      1.0  0.05190  0.52188  0.17716  1.0000
  C   C216      1.0  0.07037  0.55118  0.15953  1.0000
  H   H115      1.0  0.10953  0.59178  0.18303  1.0000
  O  Te21      1.0  0.09013  0.51758  0.32455  1.0000
  O  Te22      1.0  0.03947  0.48104  0.24891  1.0000
  H   H116      1.0  0.06538  0.55994  0.11704  1.0000
  Mg  Mg11      1.0  0.05797  0.47622  0.32797  1.0000
  C   C217      1.0  0.81268  0.39516  0.61696  1.0000
  C   C218      1.0  0.82735  0.42381  0.64187  1.0000
  C  Sn23      1.0  0.81536  0.44198  0.63547  1.0000
  C  Sn24      1.0  0.78817  0.43120  0.60353  1.0000
  C   C219      1.0  0.77365  0.40250  0.57882  1.0000
  C   C220      1.0  0.78585  0.38450  0.58548  1.0000
  H   H117      1.0  0.82211  0.38123  0.62214  1.0000
  O  Te23      1.0  0.83032  0.47056  0.66061  1.0000
  O  Te24      1.0  0.77568  0.44889  0.59648  1.0000
  H   H118      1.0  0.77448  0.36231  0.56623  1.0000
  Mg  Mg12      1.0  0.80442  0.48626  0.63891  1.0000
