data_image0
_chemical_formula_structural       H8C16N8C2Sn2C2HTe2HMgC2Sn2C2HTe2HMgC2Sn2C2HTe2HMgC2Sn2C2HTe2HMgC2Sn2C2HTe2HMgC2Sn2C2HTe2HMgC2Sn2C2HTe2HMgC2Sn2C2HTe2HMgC2Sn2C2HTe2HMgC2Sn2C2HTe2HMgC2Sn2C2HTe2HMgC2Sn2C2HTe2HMgC2Sn2C2HTe2HMgC2Sn2C2HTe2HMgC2Sn2C2HTe2HMgC2Sn2C2HTe2HMgC2Sn2C2HTe2HMgC2Sn2C2HTe2HMgC2Sn2C2HTe2HMgC2Sn2C2HTe2HMgC2Sn2C2HTe2HMgC2Sn2C2HTe2HMgC2Sn2C2HTe2HMgC2Sn2C2HTe2HMgC2Sn2C2HTe2HMgC2Sn2C2HTe2HMgC2Sn2C2HTe2HMgC2Sn2C2HTe2HMgC2Sn2C2HTe2HMgC2Sn2C2HTe2HMgC2Sn2C2HTe2HMgC2Sn2C2HTe2HMg
_chemical_formula_sum              "H72 C144 N8 Sn64 Te64 Mg32"
_cell_length_a       35.8803
_cell_length_b       24.2567
_cell_length_c       9.65543
_cell_angle_alpha    89.7028
_cell_angle_beta     93.9131
_cell_angle_gamma    90.0212

_symmetry_space_group_name_H-M    'P1'
_space_group_IT_number       1

loop_
  _space_group_symop_operation_xyz
  'x, y, z'

loop_
  _atom_site_type_symbol
  _atom_site_label
  _atom_site_symmetry_multiplicity
  _atom_site_fract_x
  _atom_site_fract_y
  _atom_site_fract_z
  _atom_site_occupancy
  H   H1        1.0  0.16184  0.31801  0.40731  1.0000
  H   H2        1.0  0.83892  0.31640  0.09037  1.0000
  H   H3        1.0  0.13741  0.99642  0.39481  1.0000
  H   H4        1.0  0.86841  0.98696  0.11480  1.0000
  H   H5        1.0  0.15650  0.31852  0.92353  1.0000
  H   H6        1.0  0.84089  0.32040  0.58091  1.0000
  H   H7        1.0  0.13361  0.99205  0.89534  1.0000
  H   H8        1.0  0.86315  0.99019  0.60414  1.0000
  C   C1        1.0  0.16206  0.34121  0.30917  1.0000
  C   C2        1.0  0.83911  0.34126  0.18538  1.0000
  C   C3        1.0  0.15056  0.00358  0.29655  1.0000
  C   C4        1.0  0.85383  0.99666  0.20831  1.0000
  C   C5        1.0  0.00044  0.15660  0.24901  1.0000
  C   C6        1.0  0.00050  0.21374  0.24935  1.0000
  C   C7        1.0  0.50101  0.71375  0.24690  1.0000
  C   C8        1.0  0.50099  0.65689  0.25016  1.0000
  C   C9        1.0  0.15937  0.33805  0.82165  1.0000
  C   C10       1.0  0.83900  0.34092  0.68161  1.0000
  C   C11       1.0  0.14797  0.00067  0.80048  1.0000
  C   C12       1.0  0.85066  0.99530  0.70423  1.0000
  C   C13       1.0  0.99852  0.15321  0.74631  1.0000
  C   C14       1.0  0.99861  0.21029  0.74788  1.0000
  C   C15       1.0  0.49773  0.70972  0.74875  1.0000
  C   C16       1.0  0.49846  0.65281  0.74773  1.0000
  N   N1        1.0  0.13413  0.34144  0.21675  1.0000
  N   N2        1.0  0.86720  0.34226  0.27702  1.0000
  N   N3        1.0  0.13598  0.03556  0.19964  1.0000
  N   N4        1.0  0.86643  0.03202  0.30014  1.0000
  N   N5        1.0  0.13297  0.33661  0.72342  1.0000
  N   N6        1.0  0.86556  0.33870  0.77908  1.0000
  N   N7        1.0  0.13443  0.03339  0.70328  1.0000
  N   N8        1.0  0.86548  0.02649  0.80170  1.0000
  C   C17       1.0  0.45158  0.80014  0.14181  1.0000
  C   C18       1.0  0.46697  0.76172  0.23773  1.0000
  C  Sn1       1.0  0.44660  0.74379  0.34772  1.0000
  C  Sn2       1.0  0.41015  0.76477  0.36164  1.0000
  C   C19       1.0  0.39499  0.80317  0.26508  1.0000
  C   C20       1.0  0.41562  0.82084  0.15544  1.0000
  H   H9        1.0  0.46753  0.81380  0.05694  1.0000
  O  Te1       1.0  0.46241  0.70540  0.44265  1.0000
  O  Te2       1.0  0.38917  0.74754  0.47055  1.0000
  H   H10       1.0  0.40368  0.85056  0.08114  1.0000
  Mg  Mg1       1.0  0.42283  0.69459  0.57351  1.0000
  C   C21       1.0  0.57203  0.73381  0.13147  1.0000
  C   C22       1.0  0.54302  0.73960  0.21978  1.0000
  C  Sn3       1.0  0.54377  0.78230  0.31649  1.0000
  C  Sn4       1.0  0.57416  0.81984  0.32467  1.0000
  C   C23       1.0  0.60304  0.81372  0.23580  1.0000
  C   C24       1.0  0.60201  0.77084  0.13944  1.0000
  H   H11       1.0  0.57123  0.70065  0.05686  1.0000
  O  Te3       1.0  0.51456  0.78747  0.40397  1.0000
  O  Te4       1.0  0.57561  0.86290  0.42034  1.0000
  H   H12       1.0  0.62447  0.76639  0.07102  1.0000
  Mg  Mg2       1.0  0.52917  0.85284  0.51719  1.0000
  C   C25       1.0  0.44165  0.54544  0.33345  1.0000
  C   C26       1.0  0.40678  0.55582  0.26480  1.0000
  C  Sn5       1.0  0.40199  0.60063  0.17383  1.0000
  C  Sn6       1.0  0.43272  0.63561  0.15135  1.0000
  C   C27       1.0  0.46749  0.62486  0.22045  1.0000
  C   C28       1.0  0.47198  0.57992  0.31129  1.0000
  H   H13       1.0  0.44513  0.51066  0.40368  1.0000
  O  Te5       1.0  0.36696  0.61041  0.10613  1.0000
  O  Te6       1.0  0.42870  0.68067  0.06094  1.0000
  H   H14       1.0  0.49898  0.57187  0.36436  1.0000
  Mg  Mg3       1.0  0.39381  0.67494  0.99290  1.0000
  C   C29       1.0  0.57658  0.63256  0.36481  1.0000
  C   C30       1.0  0.54468  0.62983  0.27361  1.0000
  C  Sn7       1.0  0.53978  0.58597  0.18092  1.0000
  C  Sn8       1.0  0.56737  0.54412  0.17977  1.0000
  C   C31       1.0  0.59917  0.54721  0.27150  1.0000
  C   C32       1.0  0.60380  0.59129  0.36379  1.0000
  H   H15       1.0  0.58015  0.66664  0.43628  1.0000
  O  Te7       1.0  0.50775  0.58389  0.09046  1.0000
  O  Te8       1.0  0.56317  0.49982  0.08824  1.0000
  H   H16       1.0  0.62849  0.59337  0.43445  1.0000
  Mg  Mg4       1.0  0.53305  0.51321  0.98497  1.0000
  C   C33       1.0  0.30258  0.82506  0.31982  1.0000
  C   C34       1.0  0.29299  0.87897  0.28003  1.0000
  C  Sn9       1.0  0.31900  0.91295  0.22017  1.0000
  C  Sn10      1.0  0.35524  0.89247  0.19987  1.0000
  C   C35       1.0  0.36455  0.83846  0.23994  1.0000
  C   C36       1.0  0.33832  0.80482  0.29978  1.0000
  H   H17       1.0  0.28228  0.79902  0.36606  1.0000
  O  Te9       1.0  0.30896  0.96672  0.18107  1.0000
  O  Te10      1.0  0.38177  0.92554  0.14023  1.0000
  H   H18       1.0  0.34574  0.76307  0.33049  1.0000
  Mg  Mg5       1.0  0.35482  0.99592  0.10406  1.0000
  C   C37       1.0  0.65238  0.89769  0.30882  1.0000
  C   C38       1.0  0.64128  0.84692  0.25197  1.0000
  C  Sn11      1.0  0.66726  0.81288  0.19305  1.0000
  C  Sn12      1.0  0.70502  0.83008  0.19120  1.0000
  C   C39       1.0  0.71584  0.88093  0.24843  1.0000
  C   C40       1.0  0.68962  0.91468  0.30708  1.0000
  H   H19       1.0  0.63209  0.92379  0.35427  1.0000
  O  Te11      1.0  0.65570  0.76230  0.13666  1.0000
  O  Te12      1.0  0.73156  0.79686  0.13301  1.0000
  H   H20       1.0  0.69822  0.95397  0.35117  1.0000
  Mg  Mg6       1.0  0.70222  0.73153  0.06910  1.0000
  C   C41       1.0  0.30202  0.53217  0.19197  1.0000
  C   C42       1.0  0.29698  0.47646  0.22324  1.0000
  C  Sn13      1.0  0.32762  0.44353  0.26592  1.0000
  C  Sn14      1.0  0.36395  0.46693  0.27745  1.0000
  C   C43       1.0  0.36868  0.52272  0.24602  1.0000
  C   C44       1.0  0.33783  0.55529  0.20336  1.0000
  H   H21       1.0  0.27814  0.55738  0.15904  1.0000
  O  Te13      1.0  0.32210  0.38794  0.29672  1.0000
  O  Te14      1.0  0.39506  0.43497  0.31992  1.0000
  H   H22       1.0  0.34173  0.59843  0.17924  1.0000
  Mg  Mg7       1.0  0.37325  0.36125  0.35029  1.0000
  C   C45       1.0  0.69921  0.53249  0.29299  1.0000
  C   C46       1.0  0.70443  0.47602  0.27389  1.0000
  C  Sn15      1.0  0.67371  0.44143  0.24609  1.0000
  C  Sn16      1.0  0.63712  0.46392  0.23728  1.0000
  C   C47       1.0  0.63220  0.52047  0.25645  1.0000
  C   C48       1.0  0.66313  0.55470  0.28427  1.0000
  H   H23       1.0  0.72314  0.55898  0.31444  1.0000
  O  Te15      1.0  0.67943  0.38510  0.22733  1.0000
  O  Te16      1.0  0.60593  0.43029  0.20957  1.0000
  H   H24       1.0  0.65908  0.59843  0.29896  1.0000
  Mg  Mg8       1.0  0.62807  0.35611  0.19183  1.0000
  C   C49       1.0  0.25569  0.38128  0.38320  1.0000
  C   C50       1.0  0.26372  0.42014  0.28210  1.0000
  C  Sn17      1.0  0.23588  0.43729  0.18303  1.0000
  C  Sn18      1.0  0.19934  0.41507  0.18550  1.0000
  C   C51       1.0  0.19159  0.37624  0.28713  1.0000
  C   C52       1.0  0.21966  0.35936  0.38575  1.0000
  H   H25       1.0  0.27740  0.36824  0.45956  1.0000
  O  Te17      1.0  0.24438  0.47614  0.08271  1.0000
  O  Te18      1.0  0.17098  0.43150  0.08774  1.0000
  H   H26       1.0  0.21343  0.32930  0.46406  1.0000
  Mg  Mg9       1.0  0.21466  0.48345  0.97163  1.0000
  C   C53       1.0  0.79986  0.42883  0.31405  1.0000
  C   C54       1.0  0.80570  0.38294  0.23134  1.0000
  C  Sn19      1.0  0.77681  0.36284  0.14111  1.0000
  C  Sn20      1.0  0.74145  0.38927  0.13376  1.0000
  C   C55       1.0  0.73590  0.43517  0.21687  1.0000
  C   C56       1.0  0.76500  0.45493  0.30683  1.0000
  H   H27       1.0  0.82238  0.44414  0.38361  1.0000
  O  Te19      1.0  0.78311  0.31694  0.05923  1.0000
  O  Te20      1.0  0.71210  0.37005  0.04444  1.0000
  H   H28       1.0  0.76048  0.49048  0.37079  1.0000
  Mg  Mg10      1.0  0.75275  0.30409  0.95370  1.0000
  C   C57       1.0  0.07130  0.13841  0.12937  1.0000
  C   C58       1.0  0.04027  0.12677  0.20449  1.0000
  C  Sn21      1.0  0.04039  0.08083  0.29240  1.0000
  C  Sn22      1.0  0.07220  0.04598  0.30516  1.0000
  C   C59       1.0  0.10311  0.05799  0.22964  1.0000
  C   C60       1.0  0.10269  0.10406  0.14194  1.0000
  H   H29       1.0  0.07099  0.17407  0.06157  1.0000
  O  Te21      1.0  0.00915  0.06980  0.36665  1.0000
  O  Te22      1.0  0.07306  0.99980  0.39231  1.0000
  H   H30       1.0  0.12673  0.11308  0.08386  1.0000
  Mg  Mg11      1.0  0.02368  0.00199  0.47201  1.0000
  C   C61       1.0  0.92919  0.13746  0.36679  1.0000
  C   C62       1.0  0.96057  0.12658  0.29324  1.0000
  C  Sn23      1.0  0.96130  0.08045  0.20743  1.0000
  C  Sn24      1.0  0.92999  0.04462  0.19520  1.0000
  C   C63       1.0  0.89872  0.05589  0.26913  1.0000
  C   C64       1.0  0.89829  0.10216  0.35474  1.0000
  H   H31       1.0  0.92884  0.17327  0.43297  1.0000
  O  Te23      1.0  0.99289  0.07018  0.13473  1.0000
  O  Te24      1.0  0.93023  0.99824  0.11012  1.0000
  H   H32       1.0  0.87398  0.11058  0.41159  1.0000
  Mg  Mg12      1.0  0.97954  0.00171  0.03198  1.0000
  C   C65       1.0  0.04177  0.30564  0.14791  1.0000
  C   C66       1.0  0.03498  0.25842  0.22580  1.0000
  C  Sn25      1.0  0.06302  0.23660  0.31760  1.0000
  C  Sn26      1.0  0.09849  0.26264  0.33148  1.0000
  C   C67       1.0  0.10499  0.30989  0.25317  1.0000
  C   C68       1.0  0.07673  0.33137  0.16158  1.0000
  H   H33       1.0  0.01990  0.32228  0.07710  1.0000
  O  Te25      1.0  0.05577  0.18938  0.39459  1.0000
  O  Te26      1.0  0.12701  0.24171  0.42250  1.0000
  H   H34       1.0  0.08199  0.36795  0.10136  1.0000
  Mg  Mg13      1.0  0.10359  0.17646  0.50486  1.0000
  C   C69       1.0  0.95920  0.30497  0.35061  1.0000
  C   C70       1.0  0.96580  0.25760  0.27426  1.0000
  C  Sn27      1.0  0.93779  0.23623  0.18214  1.0000
  C  Sn28      1.0  0.90255  0.26289  0.16635  1.0000
  C   C71       1.0  0.89623  0.31028  0.24313  1.0000
  C   C72       1.0  0.92445  0.33130  0.33506  1.0000
  H   H35       1.0  0.98103  0.32126  0.42168  1.0000
  O  Te27      1.0  0.94485  0.18885  0.10671  1.0000
  O  Te28      1.0  0.87407  0.24242  0.07497  1.0000
  H   H36       1.0  0.91934  0.36800  0.39408  1.0000
  Mg  Mg14      1.0  0.91554  0.17467  0.99522  1.0000
  C   C73       1.0  0.22211  0.90749  0.38603  1.0000
  C   C74       1.0  0.24892  0.91399  0.28882  1.0000
  C  Sn29      1.0  0.24479  0.95519  0.18728  1.0000
  C  Sn30      1.0  0.21321  0.99049  0.18328  1.0000
  C   C75       1.0  0.18655  0.98368  0.28106  1.0000
  C   C76       1.0  0.19096  0.94231  0.38219  1.0000
  H   H37       1.0  0.22552  0.87550  0.46433  1.0000
  O  Te29      1.0  0.27184  0.96109  0.09092  1.0000
  O  Te30      1.0  0.20815  0.03201  0.08294  1.0000
  H   H38       1.0  0.17020  0.93731  0.45750  1.0000
  Mg  Mg15      1.0  0.27097  0.02169  0.97411  1.0000
  C   C77       1.0  0.76525  0.97059  0.33700  1.0000
  C   C78       1.0  0.74893  0.92925  0.25277  1.0000
  C  Sn31      1.0  0.76891  0.90518  0.14955  1.0000
  C  Sn32      1.0  0.80591  0.92290  0.13057  1.0000
  C   C79       1.0  0.82200  0.96426  0.21544  1.0000
  C   C80       1.0  0.80175  0.98807  0.31839  1.0000
  H   H39       1.0  0.74960  0.98900  0.41671  1.0000
  O  Te31      1.0  0.75217  0.86394  0.06627  1.0000
  O  Te32      1.0  0.82651  0.89953  0.02822  1.0000
  H   H40       1.0  0.81416  0.02005  0.38365  1.0000
  Mg  Mg16      1.0  0.80992  0.84265  0.94078  1.0000
  C   C81       1.0  0.40620  0.74176  0.85126  1.0000
  C   C82       1.0  0.39694  0.79305  0.79197  1.0000
  C  Sn33      1.0  0.42113  0.81900  0.70482  1.0000
  C  Sn34      1.0  0.45520  0.79302  0.67668  1.0000
  C   C83       1.0  0.46420  0.74169  0.73643  1.0000
  C   C84       1.0  0.43979  0.71609  0.82352  1.0000
  H   H41       1.0  0.38730  0.72193  0.91859  1.0000
  O  Te33      1.0  0.41146  0.87025  0.64647  1.0000
  O  Te34      1.0  0.47989  0.81804  0.58991  1.0000
  H   H42       1.0  0.44695  0.67637  0.86934  1.0000
  Mg  Mg17      1.0  0.45429  0.88788  0.53501  1.0000
  C   C85       1.0  0.58694  0.74550  0.63209  1.0000
  C   C86       1.0  0.59843  0.79317  0.70357  1.0000
  C  Sn35      1.0  0.57649  0.81545  0.80349  1.0000
  C  Sn36      1.0  0.54242  0.78942  0.83217  1.0000
  C   C87       1.0  0.53118  0.74172  0.76015  1.0000
  C   C88       1.0  0.55335  0.71979  0.66035  1.0000
  H   H43       1.0  0.60409  0.72851  0.55492  1.0000
  O  Te35      1.0  0.58839  0.86312  0.87391  1.0000
  O  Te36      1.0  0.51996  0.81081  0.93155  1.0000
  H   H44       1.0  0.54445  0.68286  0.60508  1.0000
  Mg  Mg18      1.0  0.52975  0.87862  0.00008  1.0000
  C   C89       1.0  0.43983  0.54428  0.85322  1.0000
  C   C90       1.0  0.40521  0.55117  0.77972  1.0000
  C  Sn37      1.0  0.40059  0.59135  0.67578  1.0000
  C  Sn38      1.0  0.43125  0.62519  0.64507  1.0000
  C   C91       1.0  0.46578  0.61794  0.71913  1.0000
  C   C92       1.0  0.47008  0.57762  0.82296  1.0000
  H   H45       1.0  0.44317  0.51306  0.93351  1.0000
  O  Te37      1.0  0.36581  0.59771  0.60339  1.0000
  O  Te38      1.0  0.42741  0.66566  0.54167  1.0000
  H   H46       1.0  0.49690  0.57227  0.87979  1.0000
  Mg  Mg19      1.0  0.37447  0.65854  0.47175  1.0000
  C   C93       1.0  0.54095  0.56333  0.64642  1.0000
  C   C94       1.0  0.53201  0.60476  0.73857  1.0000
  C  Sn39      1.0  0.55896  0.62412  0.83784  1.0000
  C  Sn40      1.0  0.59551  0.60151  0.84470  1.0000
  C   C95       1.0  0.60418  0.56010  0.75198  1.0000
  C   C96       1.0  0.57700  0.54102  0.65308  1.0000
  H   H47       1.0  0.51993  0.54858  0.56984  1.0000
  O  Te39      1.0  0.54956  0.66552  0.92914  1.0000
  O  Te40      1.0  0.62298  0.62012  0.94286  1.0000
  H   H48       1.0  0.58393  0.50897  0.58169  1.0000
  Mg  Mg20      1.0  0.57827  0.67927  0.04467  1.0000
  C   C97       1.0  0.29748  0.81972  0.80240  1.0000
  C   C98       1.0  0.28984  0.87598  0.78651  1.0000
  C  Sn41      1.0  0.31785  0.91242  0.75097  1.0000
  C  Sn42      1.0  0.35414  0.89204  0.73101  1.0000
  C   C99       1.0  0.36149  0.83568  0.74705  1.0000
  C   C100      1.0  0.33327  0.79958  0.78267  1.0000
  H   H49       1.0  0.27564  0.79178  0.82988  1.0000
  O  Te41      1.0  0.30974  0.96850  0.73556  1.0000
  O  Te42      1.0  0.38265  0.92754  0.69540  1.0000
  H   H50       1.0  0.33918  0.75603  0.79487  1.0000
  Mg  Mg21      1.0  0.35765  0.00054  0.68626  1.0000
  C   C101      1.0  0.69846  0.81619  0.68597  1.0000
  C   C102      1.0  0.70768  0.87111  0.71492  1.0000
  C  Sn43      1.0  0.68103  0.90693  0.76318  1.0000
  C  Sn44      1.0  0.64450  0.88729  0.78275  1.0000
  C   C103      1.0  0.63556  0.83226  0.75358  1.0000
  C   C104      1.0  0.66244  0.79678  0.70529  1.0000
  H   H51       1.0  0.71926  0.78872  0.64868  1.0000
  O  Te43      1.0  0.69071  0.96168  0.79155  1.0000
  O  Te44      1.0  0.61733  0.92220  0.83092  1.0000
  H   H52       1.0  0.65530  0.75425  0.68297  1.0000
  Mg  Mg22      1.0  0.64399  0.99335  0.85509  1.0000
  C   C105      1.0  0.35983  0.45268  0.81824  1.0000
  C   C106      1.0  0.36483  0.50567  0.76506  1.0000
  C  Sn45      1.0  0.33395  0.53747  0.71885  1.0000
  C  Sn46      1.0  0.29741  0.51573  0.72617  1.0000
  C   C107      1.0  0.29271  0.46269  0.77963  1.0000
  C   C108      1.0  0.32381  0.43121  0.82554  1.0000
  H   H53       1.0  0.38390  0.42834  0.85383  1.0000
  O  Te45      1.0  0.33944  0.59032  0.66597  1.0000
  O  Te46      1.0  0.26605  0.54663  0.68075  1.0000
  H   H54       1.0  0.31993  0.39021  0.86679  1.0000
  Mg  Mg23      1.0  0.28792  0.61650  0.61696  1.0000
  C   C109      1.0  0.65669  0.43831  0.68349  1.0000
  C   C110      1.0  0.69369  0.45576  0.70748  1.0000
  C  Sn47      1.0  0.70155  0.50870  0.75771  1.0000
  C  Sn48      1.0  0.67178  0.54476  0.78437  1.0000
  C   C111      1.0  0.63486  0.52690  0.76012  1.0000
  C   C112      1.0  0.62731  0.47384  0.70980  1.0000
  H   H55       1.0  0.65084  0.39725  0.64462  1.0000
  O  Te47      1.0  0.73867  0.52548  0.78106  1.0000
  O  Te48      1.0  0.67885  0.59789  0.83466  1.0000
  H   H56       1.0  0.59866  0.46034  0.69132  1.0000
  Mg  Mg24      1.0  0.73410  0.60177  0.85005  1.0000
  C   C113      1.0  0.20293  0.41704  0.67912  1.0000
  C   C114      1.0  0.19504  0.37463  0.77116  1.0000
  C  Sn49      1.0  0.22168  0.35853  0.87583  1.0000
  C  Sn50      1.0  0.25684  0.38548  0.88836  1.0000
  C   C115      1.0  0.26446  0.42789  0.79583  1.0000
  C   C116      1.0  0.23760  0.44366  0.69143  1.0000
  H   H57       1.0  0.18215  0.42927  0.59839  1.0000
  O  Te49      1.0  0.21334  0.31607  0.96688  1.0000
  O  Te50      1.0  0.28397  0.37022  0.99206  1.0000
  H   H58       1.0  0.24371  0.47652  0.62025  1.0000
  Mg  Mg25      1.0  0.24107  0.31209  0.09112  1.0000
  C   C117      1.0  0.76368  0.36401  0.59055  1.0000
  C   C118      1.0  0.79784  0.37003  0.66756  1.0000
  C  Sn51      1.0  0.80103  0.40602  0.78024  1.0000
  C  Sn52      1.0  0.76940  0.43650  0.81625  1.0000
  C   C119      1.0  0.73534  0.43016  0.73861  1.0000
  C   C120      1.0  0.73246  0.39403  0.62603  1.0000
  H   H59       1.0  0.76144  0.33604  0.50349  1.0000
  O  Te51      1.0  0.83537  0.41156  0.85604  1.0000
  O  Te52      1.0  0.77181  0.47275  0.92840  1.0000
  H   H60       1.0  0.70600  0.38936  0.56647  1.0000
  Mg  Mg26      1.0  0.82466  0.46612  0.99998  1.0000
  C   C121      1.0  0.04478  0.05909  0.82018  1.0000
  C   C122      1.0  0.03448  0.10908  0.75594  1.0000
  C  Sn53      1.0  0.05707  0.13307  0.65991  1.0000
  C  Sn54      1.0  0.09058  0.10642  0.62778  1.0000
  C   C123      1.0  0.10063  0.05640  0.69254  1.0000
  C   C124      1.0  0.07782  0.03277  0.78851  1.0000
  H   H61       1.0  0.02713  0.04079  0.89438  1.0000
  O  Te53      1.0  0.04637  0.18304  0.59673  1.0000
  O  Te54      1.0  0.11367  0.12947  0.53215  1.0000
  H   H62       1.0  0.08604  0.99404  0.83816  1.0000
  Mg  Mg27      1.0  0.08712  0.19814  0.47340  1.0000
  C   C125      1.0  0.91288  0.11154  0.88575  1.0000
  C   C126      1.0  0.89997  0.06695  0.80490  1.0000
  C  Sn55      1.0  0.92135  0.04637  0.70111  1.0000
  C  Sn56      1.0  0.95629  0.07097  0.67810  1.0000
  C   C127      1.0  0.96897  0.11554  0.75962  1.0000
  C   C128      1.0  0.94735  0.13581  0.86317  1.0000
  H   H63       1.0  0.89616  0.12721  0.96593  1.0000
  O  Te55      1.0  0.90802  0.00181  0.62124  1.0000
  O  Te56      1.0  0.97822  0.05122  0.57510  1.0000
  H   H64       1.0  0.95736  0.17031  0.92582  1.0000
  Mg  Mg28      1.0  0.94831  0.98964  0.49328  1.0000
  C   C129      1.0  0.09389  0.24708  0.84230  1.0000
  C   C130      1.0  0.10144  0.29274  0.75991  1.0000
  C  Sn57      1.0  0.07301  0.31670  0.67360  1.0000
  C  Sn58      1.0  0.03638  0.29445  0.66995  1.0000
  C   C131      1.0  0.02911  0.24879  0.75285  1.0000
  C   C132      1.0  0.05777  0.22512  0.83881  1.0000
  H   H65       1.0  0.11606  0.22878  0.90887  1.0000
  O  Te57      1.0  0.08103  0.36229  0.59191  1.0000
  O  Te58      1.0  0.00745  0.31761  0.58466  1.0000
  H   H66       1.0  0.05191  0.18979  0.90266  1.0000
  Mg  Mg29      1.0  0.03225  0.37936  0.49252  1.0000
  C   C133      1.0  0.94003  0.31807  0.85561  1.0000
  C   C134      1.0  0.90564  0.31212  0.78011  1.0000
  C  Sn59      1.0  0.89990  0.26877  0.68632  1.0000
  C  Sn60      1.0  0.92917  0.23074  0.66804  1.0000
  C   C135      1.0  0.96346  0.23703  0.74414  1.0000
  C   C136      1.0  0.96892  0.28056  0.83768  1.0000
  H   H67       1.0  0.94425  0.35173  0.92804  1.0000
  O  Te59      1.0  0.86537  0.26344  0.61169  1.0000
  O  Te60      1.0  0.92418  0.18704  0.57503  1.0000
  H   H68       1.0  0.99554  0.28514  0.89619  1.0000
  Mg  Mg30      1.0  0.87212  0.19713  0.49720  1.0000
  C   C137      1.0  0.19970  0.91688  0.89142  1.0000
  C   C138      1.0  0.18647  0.96430  0.82148  1.0000
  C  Sn61      1.0  0.20720  0.98882  0.72043  1.0000
  C  Sn62      1.0  0.24182  0.96533  0.68903  1.0000
  C   C139      1.0  0.25481  0.91787  0.75951  1.0000
  C   C140      1.0  0.23384  0.89368  0.86047  1.0000
  H   H69       1.0  0.18347  0.89815  0.96948  1.0000
  O  Te61      1.0  0.19332  0.03619  0.65158  1.0000
  O  Te62      1.0  0.26311  0.98898  0.58846  1.0000
  H   H70       1.0  0.24408  0.85695  0.91454  1.0000
  Mg  Mg31      1.0  0.23249  0.05331  0.52290  1.0000
  C   C141      1.0  0.79802  0.91327  0.61022  1.0000
  C   C142      1.0  0.81267  0.95747  0.68866  1.0000
  C  Sn63      1.0  0.79351  0.97811  0.79845  1.0000
  C  Sn64      1.0  0.75906  0.95395  0.83007  1.0000
  C   C143      1.0  0.74466  0.90972  0.75104  1.0000
  C   C144      1.0  0.76406  0.88941  0.64137  1.0000
  H   H71       1.0  0.81304  0.89753  0.52542  1.0000
  O  Te63      1.0  0.80828  0.02231  0.87573  1.0000
  O  Te64      1.0  0.73934  0.97375  0.93927  1.0000
  H   H72       1.0  0.75272  0.85516  0.58072  1.0000
  Mg  Mg32      1.0  0.75262  0.03679  0.01441  1.0000
