data_image0
_chemical_formula_structural       H72C112N8SnCSn2CSnTe4Mg2SnCSn2CSnTe4Mg2SnCSn2CSnTe4Mg2SnCSn2CSnTe4Mg2SnCSn2CSnTe4Mg2SnCSn2CSnTe4Mg2SnCSn2CSnTe4Mg2SnCSn2CSnTe4Mg2SnCSn2CSnTe4Mg2SnCSn2CSnTe4Mg2SnCSn2CSnTe4Mg2SnCSn2CSnTe4Mg2SnCSn2CSnTe4Mg2SnCSn2CSnTe4Mg2SnCSn2CSnTe4Mg2SnCSn2CSnTe4Mg2
_chemical_formula_sum              "H72 C144 N8 Sn64 Te64 Mg32"
_cell_length_a       35.8803
_cell_length_b       24.2567
_cell_length_c       9.65543
_cell_angle_alpha    89.7028
_cell_angle_beta     93.9131
_cell_angle_gamma    90.0212

_symmetry_space_group_name_H-M    'P1'
_space_group_IT_number       1

loop_
  _space_group_symop_operation_xyz
  'x, y, z'

loop_
  _atom_site_type_symbol
  _atom_site_label
  _atom_site_symmetry_multiplicity
  _atom_site_fract_x
  _atom_site_fract_y
  _atom_site_fract_z
  _atom_site_occupancy
  H   H1        1.0  0.56727  0.67321  0.40881  1.0000
  H   H2        1.0  0.62259  0.61402  0.42537  1.0000
  H   H3        1.0  0.57050  0.50741  0.11367  1.0000
  H   H4        1.0  0.51338  0.56355  0.11067  1.0000
  H   H5        1.0  0.67206  0.59206  0.32047  1.0000
  H   H6        1.0  0.73045  0.54004  0.30962  1.0000
  H   H7        1.0  0.66721  0.39339  0.20549  1.0000
  H   H8        1.0  0.60874  0.44541  0.21825  1.0000
  H   H9        1.0  0.16184  0.31801  0.40731  1.0000
  H   H10       1.0  0.83892  0.31640  0.09037  1.0000
  H   H11       1.0  0.02069  0.06076  0.38131  1.0000
  H   H12       1.0  0.07818  0.00709  0.36517  1.0000
  H   H13       1.0  0.11495  0.12161  0.06097  1.0000
  H   H14       1.0  0.05686  0.17630  0.08040  1.0000
  H   H15       1.0  0.93369  0.19935  0.09406  1.0000
  H   H16       1.0  0.87632  0.25302  0.10243  1.0000
  H   H17       1.0  0.92976  0.35675  0.41741  1.0000
  H   H18       1.0  0.98873  0.30344  0.40270  1.0000
  H   H19       1.0  0.73938  0.97459  0.39767  1.0000
  H   H20       1.0  0.80049  0.02066  0.38315  1.0000
  H   H21       1.0  0.82714  0.91089  0.05634  1.0000
  H   H22       1.0  0.76634  0.86542  0.06745  1.0000
  H   H23       1.0  0.13741  0.99642  0.39481  1.0000
  H   H24       1.0  0.86841  0.98696  0.11480  1.0000
  H   H25       1.0  0.47793  0.80005  0.08213  1.0000
  H   H26       1.0  0.52094  0.80633  0.38852  1.0000
  H   H27       1.0  0.41864  0.85080  0.08155  1.0000
  H   H28       1.0  0.58092  0.85515  0.39363  1.0000
  H   H29       1.0  0.38948  0.75810  0.44062  1.0000
  H   H30       1.0  0.61693  0.74686  0.07540  1.0000
  H   H31       1.0  0.44791  0.70514  0.43307  1.0000
  H   H32       1.0  0.55798  0.69599  0.08122  1.0000
  H   H33       1.0  0.56449  0.66661  0.90987  1.0000
  H   H34       1.0  0.62048  0.60877  0.91555  1.0000
  H   H35       1.0  0.56895  0.50947  0.58701  1.0000
  H   H36       1.0  0.51126  0.56340  0.59593  1.0000
  H   H37       1.0  0.32686  0.58584  0.68176  1.0000
  H   H38       1.0  0.67089  0.58784  0.82202  1.0000
  H   H39       1.0  0.26914  0.53181  0.69230  1.0000
  H   H40       1.0  0.72890  0.53525  0.80914  1.0000
  H   H41       1.0  0.33351  0.39227  0.84783  1.0000
  H   H42       1.0  0.66588  0.39608  0.64784  1.0000
  H   H43       1.0  0.39119  0.44609  0.83596  1.0000
  H   H44       1.0  0.60774  0.44802  0.66322  1.0000
  H   H45       1.0  0.23329  0.46342  0.59978  1.0000
  H   H46       1.0  0.76566  0.46835  0.89724  1.0000
  H   H47       1.0  0.17403  0.41236  0.62228  1.0000
  H   H48       1.0  0.82492  0.41700  0.87792  1.0000
  H   H49       1.0  0.22319  0.32816  0.98286  1.0000
  H   H50       1.0  0.77650  0.33327  0.51800  1.0000
  H   H51       1.0  0.28221  0.37867  0.96080  1.0000
  H   H52       1.0  0.71728  0.38393  0.53649  1.0000
  H   H53       1.0  0.15650  0.31852  0.92353  1.0000
  H   H54       1.0  0.84089  0.32040  0.58091  1.0000
  H   H55       1.0  0.93077  0.19381  0.60097  1.0000
  H   H56       1.0  0.87353  0.24839  0.61033  1.0000
  H   H57       1.0  0.92919  0.35569  0.91168  1.0000
  H   H58       1.0  0.98793  0.30248  0.89429  1.0000
  H   H59       1.0  0.13361  0.99205  0.89534  1.0000
  H   H60       1.0  0.86315  0.99019  0.60414  1.0000
  H   H61       1.0  0.47927  0.80611  0.61834  1.0000
  H   H62       1.0  0.51964  0.80047  0.89952  1.0000
  H   H63       1.0  0.42075  0.85808  0.61940  1.0000
  H   H64       1.0  0.57927  0.84983  0.89992  1.0000
  H   H65       1.0  0.37984  0.74097  0.91031  1.0000
  H   H66       1.0  0.61204  0.74683  0.56640  1.0000
  H   H67       1.0  0.43745  0.68771  0.90099  1.0000
  H   H68       1.0  0.55307  0.69546  0.57531  1.0000
  H   H69       1.0  0.38042  0.91221  0.70345  1.0000
  H   H70       1.0  0.32073  0.96099  0.70902  1.0000
  H   H71       1.0  0.26751  0.81046  0.82661  1.0000
  H   H72       1.0  0.32699  0.76143  0.81929  1.0000
  C   C1        1.0  0.53572  0.62320  0.25868  1.0000
  C   C2        1.0  0.44101  0.73671  0.35547  1.0000
  C   C3        1.0  0.56320  0.73110  0.14890  1.0000
  C   C4        1.0  0.56744  0.63630  0.34609  1.0000
  C   C5        1.0  0.59921  0.60345  0.35263  1.0000
  C   C6        1.0  0.60130  0.55618  0.26930  1.0000
  C   C7        1.0  0.56955  0.54263  0.18257  1.0000
  C   C8        1.0  0.53748  0.57498  0.17879  1.0000
  C   C9        1.0  0.63580  0.52322  0.26911  1.0000
  C   C10       1.0  0.67087  0.54822  0.29771  1.0000
  C   C11       1.0  0.70391  0.51878  0.29056  1.0000
  C   C12       1.0  0.70348  0.46277  0.25288  1.0000
  C   C13       1.0  0.66838  0.43722  0.22874  1.0000
  C   C14       1.0  0.63531  0.46668  0.23648  1.0000
  C   C15       1.0  0.16206  0.34121  0.30917  1.0000
  C   C16       1.0  0.83911  0.34126  0.18538  1.0000
  C   C17       1.0  0.03481  0.12371  0.23453  1.0000
  C   C18       1.0  0.96569  0.24692  0.24830  1.0000
  C   C19       1.0  0.04141  0.07468  0.31176  1.0000
  C   C20       1.0  0.07405  0.04432  0.30268  1.0000
  C   C21       1.0  0.10168  0.06190  0.21499  1.0000
  C   C22       1.0  0.09430  0.10926  0.13245  1.0000
  C   C23       1.0  0.06179  0.13941  0.14287  1.0000
  C   C24       1.0  0.93331  0.23435  0.16344  1.0000
  C   C25       1.0  0.90069  0.26467  0.16900  1.0000
  C   C26       1.0  0.89892  0.30965  0.26063  1.0000
  C   C27       1.0  0.93123  0.32269  0.34515  1.0000
  C   C28       1.0  0.96400  0.29260  0.33715  1.0000
  C   C29       1.0  0.74801  0.91552  0.23481  1.0000
  C   C30       1.0  0.75820  0.96061  0.32149  1.0000
  C   C31       1.0  0.79253  0.98646  0.31498  1.0000
  C   C32       1.0  0.81821  0.96881  0.22038  1.0000
  C   C33       1.0  0.80818  0.92426  0.13289  1.0000
  C   C34       1.0  0.77388  0.89823  0.14033  1.0000
  C   C35       1.0  0.15056  0.00358  0.29655  1.0000
  C   C36       1.0  0.85383  0.99666  0.20831  1.0000
  C   C37       1.0  0.46652  0.74695  0.25449  1.0000
  C   C38       1.0  0.53555  0.74627  0.23742  1.0000
  C   C39       1.0  0.45839  0.79044  0.16015  1.0000
  C   C40       1.0  0.54216  0.79324  0.32045  1.0000
  C   C41       1.0  0.00044  0.15660  0.24901  1.0000
  C   C42       1.0  0.42497  0.81959  0.16098  1.0000
  C   C43       1.0  0.57607  0.82111  0.32182  1.0000
  C   C44       1.0  0.00050  0.21374  0.24935  1.0000
  C   C45       1.0  0.39856  0.80752  0.25832  1.0000
  C   C46       1.0  0.60448  0.80445  0.23728  1.0000
  C   C47       1.0  0.50101  0.71375  0.24690  1.0000
  C   C48       1.0  0.40792  0.76622  0.35804  1.0000
  C   C49       1.0  0.59672  0.75941  0.14801  1.0000
  C   C50       1.0  0.50099  0.65689  0.25016  1.0000
  C   C51       1.0  0.53346  0.61994  0.75180  1.0000
  C   C52       1.0  0.43394  0.72513  0.83967  1.0000
  C   C53       1.0  0.55910  0.72936  0.64611  1.0000
  C   C54       1.0  0.56514  0.63158  0.84071  1.0000
  C   C55       1.0  0.35893  0.83289  0.76296  1.0000
  C   C56       1.0  0.59724  0.59951  0.84106  1.0000
  C   C57       1.0  0.35574  0.88935  0.72940  1.0000
  C   C58       1.0  0.59976  0.55474  0.74956  1.0000
  C   C59       1.0  0.32184  0.91710  0.73272  1.0000
  C   C60       1.0  0.56790  0.54267  0.66177  1.0000
  C   C61       1.0  0.28936  0.88985  0.77062  1.0000
  C   C62       1.0  0.53545  0.57381  0.66474  1.0000
  C   C63       1.0  0.29235  0.83317  0.80172  1.0000
  C   C64       1.0  0.36369  0.52031  0.75740  1.0000
  C   C65       1.0  0.63446  0.52244  0.74366  1.0000
  C   C66       1.0  0.32615  0.80545  0.79754  1.0000
  C   C67       1.0  0.32855  0.54311  0.71627  1.0000
  C   C68       1.0  0.66943  0.54543  0.78608  1.0000
  C   C69       1.0  0.29587  0.51253  0.72236  1.0000
  C   C70       1.0  0.70235  0.51564  0.77870  1.0000
  C   C71       1.0  0.29674  0.45768  0.77105  1.0000
  C   C72       1.0  0.70207  0.46140  0.72748  1.0000
  C   C73       1.0  0.33185  0.43496  0.81292  1.0000
  C   C74       1.0  0.66715  0.43832  0.68515  1.0000
  C   C75       1.0  0.36450  0.46549  0.80623  1.0000
  C   C76       1.0  0.63419  0.46795  0.69357  1.0000
  C   C77       1.0  0.26213  0.42542  0.77977  1.0000
  C   C78       1.0  0.73701  0.43013  0.71797  1.0000
  C   C79       1.0  0.23097  0.43442  0.68500  1.0000
  C   C80       1.0  0.76809  0.43925  0.81298  1.0000
  C   C81       1.0  0.19788  0.40562  0.69614  1.0000
  C   C82       1.0  0.80118  0.41034  0.80365  1.0000
  C   C83       1.0  0.19441  0.36704  0.80415  1.0000
  C   C84       1.0  0.80462  0.37153  0.69720  1.0000
  C   C85       1.0  0.22554  0.35729  0.89772  1.0000
  C   C86       1.0  0.77379  0.36235  0.60219  1.0000
  C   C87       1.0  0.25890  0.38553  0.88469  1.0000
  C   C88       1.0  0.74046  0.39070  0.61309  1.0000
  C   C89       1.0  0.15937  0.33805  0.82165  1.0000
  C   C90       1.0  0.83900  0.34092  0.68161  1.0000
  C   C91       1.0  0.96383  0.24340  0.74786  1.0000
  C   C92       1.0  0.93090  0.22984  0.66718  1.0000
  C   C93       1.0  0.89847  0.26064  0.67300  1.0000
  C   C94       1.0  0.89741  0.30669  0.76154  1.0000
  C   C95       1.0  0.93020  0.32079  0.84175  1.0000
  C   C96       1.0  0.96280  0.29051  0.83249  1.0000
  C   C97       1.0  0.14797  0.00067  0.80048  1.0000
  C   C98       1.0  0.85066  0.99530  0.70423  1.0000
  C   C99       1.0  0.46290  0.74204  0.75790  1.0000
  C   C100      1.0  0.53236  0.74277  0.73998  1.0000
  C   C101      1.0  0.45750  0.79172  0.68281  1.0000
  C   C102      1.0  0.53997  0.78840  0.82680  1.0000
  C   C103      1.0  0.99852  0.15321  0.74631  1.0000
  C   C104      1.0  0.42428  0.82139  0.68432  1.0000
  C   C105      1.0  0.57376  0.81672  0.82578  1.0000
  C   C106      1.0  0.99861  0.21029  0.74788  1.0000
  C   C107      1.0  0.39488  0.80328  0.76285  1.0000
  C   C108      1.0  0.60129  0.80161  0.73570  1.0000
  C   C109      1.0  0.49773  0.70972  0.74875  1.0000
  C   C110      1.0  0.40099  0.75483  0.84252  1.0000
  C   C111      1.0  0.59259  0.75787  0.64329  1.0000
  C   C112      1.0  0.49846  0.65281  0.74773  1.0000
  N   N1        1.0  0.13413  0.34144  0.21675  1.0000
  N   N2        1.0  0.86720  0.34226  0.27702  1.0000
  N   N3        1.0  0.13598  0.03556  0.19964  1.0000
  N   N4        1.0  0.86643  0.03202  0.30014  1.0000
  N   N5        1.0  0.13297  0.33661  0.72342  1.0000
  N   N6        1.0  0.86556  0.33870  0.77908  1.0000
  N   N7        1.0  0.13443  0.03339  0.70328  1.0000
  N   N8        1.0  0.86548  0.02649  0.80170  1.0000
  C  Sn1       1.0  0.31994  0.80752  0.28016  1.0000
  C   C113      1.0  0.35349  0.82716  0.23321  1.0000
  C  Sn2       1.0  0.35827  0.88339  0.20795  1.0000
  C  Sn3       1.0  0.32891  0.92078  0.23015  1.0000
  C   C114      1.0  0.29539  0.90114  0.27709  1.0000
  C  Sn4       1.0  0.29058  0.84491  0.30236  1.0000
  O  Te1       1.0  0.31578  0.75114  0.30474  1.0000
  O  Te2       1.0  0.39205  0.90204  0.16102  1.0000
  O  Te3       1.0  0.33309  0.97720  0.20552  1.0000
  O  Te4       1.0  0.25683  0.82625  0.34929  1.0000
  Mg  Mg1       1.0  0.38431  0.98262  0.14236  1.0000
  Mg  Mg2       1.0  0.26455  0.74569  0.36804  1.0000
  C  Sn5       1.0  0.32103  0.55030  0.22822  1.0000
  C   C115      1.0  0.35774  0.53272  0.25951  1.0000
  C  Sn6       1.0  0.36596  0.47655  0.27200  1.0000
  C  Sn7       1.0  0.33689  0.43713  0.25273  1.0000
  C   C116      1.0  0.30021  0.45472  0.22144  1.0000
  C  Sn8       1.0  0.29195  0.51088  0.20895  1.0000
  O  Te5       1.0  0.31345  0.60665  0.21622  1.0000
  O  Te6       1.0  0.40288  0.45997  0.30340  1.0000
  O  Te7       1.0  0.34450  0.38074  0.26476  1.0000
  O  Te8       1.0  0.25507  0.52746  0.17755  1.0000
  Mg  Mg3       1.0  0.39917  0.37856  0.30887  1.0000
  Mg  Mg4       1.0  0.25875  0.60886  0.17198  1.0000
  C  Sn9       1.0  0.20660  0.41103  0.15038  1.0000
  C   C117      1.0  0.19976  0.37048  0.24883  1.0000
  C  Sn10      1.0  0.22407  0.36373  0.36698  1.0000
  C  Sn11      1.0  0.25587  0.39826  0.38722  1.0000
  C   C118      1.0  0.26269  0.43878  0.28883  1.0000
  C  Sn12      1.0  0.23840  0.44555  0.17062  1.0000
  O  Te9       1.0  0.18193  0.41704  0.03304  1.0000
  O  Te10      1.0  0.21665  0.32290  0.46393  1.0000
  O  Te11      1.0  0.28055  0.39221  0.50469  1.0000
  O  Te12      1.0  0.24580  0.48636  0.07373  1.0000
  Mg  Mg5       1.0  0.25849  0.33075  0.60710  1.0000
  Mg  Mg6       1.0  0.22234  0.47652  0.93057  1.0000
  C  Sn13      1.0  0.05925  0.03634  0.78148  1.0000
  C   C119      1.0  0.08916  0.04705  0.69990  1.0000
  C  Sn14      1.0  0.09298  0.09876  0.63809  1.0000
  C  Sn15      1.0  0.06635  0.14065  0.65830  1.0000
  C   C120      1.0  0.03646  0.12993  0.73985  1.0000
  C  Sn16      1.0  0.03262  0.07822  0.80169  1.0000
  O  Te13      1.0  0.05624  0.98435  0.84228  1.0000
  O  Te14      1.0  0.12311  0.10849  0.55694  1.0000
  O  Te15      1.0  0.06963  0.19266  0.59741  1.0000
  O  Te16      1.0  0.00251  0.06849  0.88282  1.0000
  Mg  Mg7       1.0  0.11550  0.18595  0.49591  1.0000
  Mg  Mg8       1.0  0.01036  0.99105  0.94395  1.0000
  C  Sn17      1.0  0.90727  0.12572  0.33754  1.0000
  C   C121      1.0  0.89766  0.07614  0.27119  1.0000
  C  Sn18      1.0  0.92457  0.04570  0.20683  1.0000
  C  Sn19      1.0  0.96188  0.06519  0.20891  1.0000
  C   C122      1.0  0.97147  0.11474  0.27525  1.0000
  C  Sn20      1.0  0.94457  0.14521  0.33962  1.0000
  O  Te17      1.0  0.87990  0.15547  0.40121  1.0000
  O  Te18      1.0  0.91455  0.99626  0.14112  1.0000
  O  Te19      1.0  0.98925  0.03539  0.14516  1.0000
  O  Te20      1.0  0.95483  0.19462  0.40532  1.0000
  Mg  Mg9       1.0  0.96183  0.97045  0.06907  1.0000
  Mg  Mg10      1.0  0.90758  0.22044  0.47746  1.0000
  C  Sn21      1.0  0.67159  0.90311  0.82604  1.0000
  C   C123      1.0  0.70516  0.88273  0.78149  1.0000
  C  Sn22      1.0  0.70543  0.83519  0.70055  1.0000
  C  Sn23      1.0  0.67144  0.80745  0.66327  1.0000
  C   C124      1.0  0.63790  0.82783  0.70778  1.0000
  C  Sn24      1.0  0.63761  0.87537  0.78876  1.0000
  O  Te21      1.0  0.67198  0.95071  0.90687  1.0000
  O  Te22      1.0  0.73934  0.81559  0.65730  1.0000
  O  Te23      1.0  0.67108  0.75981  0.58238  1.0000
  O  Te24      1.0  0.60373  0.89496  0.83198  1.0000
  Mg  Mg11      1.0  0.72440  0.74921  0.54869  1.0000
  Mg  Mg12      1.0  0.61863  0.96135  0.94053  1.0000
  C  Sn25      1.0  0.90693  0.11898  0.84729  1.0000
  C   C125      1.0  0.89657  0.07107  0.77466  1.0000
  C  Sn26      1.0  0.92252  0.04288  0.69999  1.0000
  C  Sn27      1.0  0.95961  0.06298  0.69795  1.0000
  C   C126      1.0  0.96995  0.11085  0.77056  1.0000
  C  Sn28      1.0  0.94402  0.13907  0.84524  1.0000
  O  Te25      1.0  0.88053  0.14650  0.92125  1.0000
  O  Te26      1.0  0.91175  0.99509  0.62815  1.0000
  O  Te27      1.0  0.98601  0.03542  0.62390  1.0000
  O  Te28      1.0  0.95502  0.18684  0.91707  1.0000
  Mg  Mg13      1.0  0.95783  0.97210  0.54255  1.0000
  Mg  Mg14      1.0  0.89061  0.21189  0.00276  1.0000
  C  Sn29      1.0  0.78297  0.88967  0.64553  1.0000
  C   C127      1.0  0.75528  0.89892  0.73774  1.0000
  C  Sn30      1.0  0.75584  0.94672  0.81794  1.0000
  C  Sn31      1.0  0.78467  0.98611  0.80567  1.0000
  C   C128      1.0  0.81234  0.97685  0.71349  1.0000
  C  Sn32      1.0  0.81180  0.92906  0.63326  1.0000
  O  Te29      1.0  0.78185  0.84160  0.56637  1.0000
  O  Te30      1.0  0.72787  0.95505  0.90944  1.0000
  O  Te31      1.0  0.78552  0.03420  0.88493  1.0000
  O  Te32      1.0  0.83975  0.92072  0.54179  1.0000
  Mg  Mg15      1.0  0.74118  0.02696  0.99490  1.0000
  Mg  Mg16      1.0  0.82620  0.84884  0.45623  1.0000
  C  Sn33      1.0  0.64969  0.90091  0.26304  1.0000
  C   C129      1.0  0.64028  0.84768  0.21840  1.0000
  C  Sn34      1.0  0.66819  0.80930  0.19553  1.0000
  C  Sn35      1.0  0.70630  0.82443  0.21781  1.0000
  C   C130      1.0  0.71570  0.87763  0.26244  1.0000
  C  Sn36      1.0  0.68781  0.91604  0.28532  1.0000
  O  Te33      1.0  0.62133  0.93861  0.28526  1.0000
  O  Te34      1.0  0.65809  0.75633  0.15087  1.0000
  O  Te35      1.0  0.73467  0.78667  0.19554  1.0000
  O  Te36      1.0  0.69789  0.96898  0.32998  1.0000
  Mg  Mg17      1.0  0.70685  0.71956  0.13496  1.0000
  Mg  Mg18      1.0  0.64890  0.00577  0.34599  1.0000
  C  Sn37      1.0  0.24380  0.98411  0.19938  1.0000
  C   C131      1.0  0.25793  0.93933  0.27805  1.0000
  C  Sn38      1.0  0.23448  0.90818  0.35765  1.0000
  C  Sn39      1.0  0.19610  0.92206  0.35859  1.0000
  C   C132      1.0  0.18199  0.96681  0.27994  1.0000
  C  Sn40      1.0  0.20542  0.99799  0.20032  1.0000
  O  Te37      1.0  0.26750  0.01467  0.12056  1.0000
  O  Te38      1.0  0.24925  0.86361  0.43548  1.0000
  O  Te39      1.0  0.17215  0.89145  0.43750  1.0000
  O  Te40      1.0  0.19042  0.04253  0.12250  1.0000
  Mg  Mg19      1.0  0.20542  0.83448  0.52618  1.0000
  Mg  Mg20      1.0  0.23421  0.07167  0.03171  1.0000
  C  Sn41      1.0  0.09643  0.24020  0.80052  1.0000
  C   C133      1.0  0.10223  0.28912  0.72799  1.0000
  C  Sn42      1.0  0.07188  0.32027  0.67355  1.0000
  C  Sn43      1.0  0.03495  0.30216  0.69205  1.0000
  C   C134      1.0  0.02916  0.25327  0.76456  1.0000
  C  Sn44      1.0  0.05950  0.22209  0.81902  1.0000
  O  Te41      1.0  0.12718  0.20972  0.85405  1.0000
  O  Te42      1.0  0.07839  0.36902  0.60139  1.0000
  O  Te43      1.0  0.00419  0.33268  0.63844  1.0000
  O  Te44      1.0  0.05300  0.17337  0.89116  1.0000
  Mg  Mg21      1.0  0.02739  0.39625  0.54796  1.0000
  Mg  Mg22      1.0  0.10398  0.14613  0.94469  1.0000
  C  Sn45      1.0  0.41229  0.60616  0.11467  1.0000
  C   C135      1.0  0.40539  0.55820  0.18954  1.0000
  C  Sn46      1.0  0.42804  0.54438  0.30805  1.0000
  C  Sn47      1.0  0.45820  0.57924  0.35270  1.0000
  C   C136      1.0  0.46508  0.62718  0.27786  1.0000
  C  Sn48      1.0  0.44245  0.64103  0.15932  1.0000
  O  Te45      1.0  0.40765  0.61712  0.99651  1.0000
  O  Te46      1.0  0.42060  0.49620  0.38117  1.0000
  O  Te47      1.0  0.48121  0.56619  0.47096  1.0000
  O  Te48      1.0  0.44987  0.68917  0.08623  1.0000
  Mg  Mg23      1.0  0.45982  0.49617  0.53569  1.0000
  Mg  Mg24      1.0  0.42902  0.68720  0.93175  1.0000
  C  Sn49      1.0  0.78284  0.45288  0.28834  1.0000
  C   C137      1.0  0.74769  0.44490  0.21984  1.0000
  C  Sn50      1.0  0.73980  0.39650  0.14571  1.0000
  C  Sn51      1.0  0.76762  0.35520  0.13999  1.0000
  C   C138      1.0  0.80275  0.36319  0.20848  1.0000
  C  Sn52      1.0  0.81066  0.41158  0.28263  1.0000
  O  Te49      1.0  0.79011  0.50158  0.36184  1.0000
  O  Te50      1.0  0.70446  0.38947  0.07802  1.0000
  O  Te51      1.0  0.76032  0.30648  0.06641  1.0000
  O  Te52      1.0  0.84598  0.41862  0.35030  1.0000
  Mg  Mg25      1.0  0.72635  0.31396  0.99139  1.0000
  Mg  Mg26      1.0  0.84248  0.49203  0.43702  1.0000
  C  Sn53      1.0  0.07239  0.24883  0.37065  1.0000
  C   C139      1.0  0.03863  0.25536  0.29116  1.0000
  C  Sn54      1.0  0.03695  0.28760  0.17060  1.0000
  C  Sn55      1.0  0.06969  0.31383  0.12854  1.0000
  C   C140      1.0  0.10342  0.30728  0.20799  1.0000
  C  Sn56      1.0  0.10513  0.27506  0.32859  1.0000
  O  Te53      1.0  0.07342  0.21641  0.49080  1.0000
  O  Te54      1.0  0.00288  0.29353  0.09286  1.0000
  O  Te55      1.0  0.06862  0.34627  0.00828  1.0000
  O  Te56      1.0  0.13917  0.26911  0.40629  1.0000
  Mg  Mg27      1.0  0.03402  0.33981  0.93717  1.0000
  Mg  Mg28      1.0  0.12643  0.22077  0.56196  1.0000
  C  Sn57      1.0  0.24233  0.98358  0.71575  1.0000
  C   C141      1.0  0.25580  0.93782  0.79219  1.0000
  C  Sn58      1.0  0.23160  0.90556  0.86592  1.0000
  C  Sn59      1.0  0.19313  0.91929  0.86314  1.0000
  C   C142      1.0  0.17968  0.96501  0.78671  1.0000
  C  Sn60      1.0  0.20387  0.99731  0.71296  1.0000
  O  Te57      1.0  0.26678  0.01524  0.64280  1.0000
  O  Te58      1.0  0.24571  0.86003  0.94164  1.0000
  O  Te59      1.0  0.16844  0.88758  0.93617  1.0000
  O  Te60      1.0  0.18952  0.04281  0.63726  1.0000
  Mg  Mg29      1.0  0.18263  0.83162  0.02401  1.0000
  Mg  Mg30      1.0  0.23420  0.07328  0.55480  1.0000
  C  Sn61      1.0  0.42076  0.63334  0.66886  1.0000
  C   C143      1.0  0.45382  0.62937  0.75362  1.0000
  C  Sn62      1.0  0.46169  0.58185  0.83258  1.0000
  C  Sn63      1.0  0.43598  0.53735  0.82664  1.0000
  C   C144      1.0  0.40295  0.54133  0.74190  1.0000
  C  Sn64      1.0  0.39505  0.58884  0.66292  1.0000
  O  Te61      1.0  0.41347  0.68123  0.59080  1.0000
  O  Te62      1.0  0.49492  0.57885  0.91658  1.0000
  O  Te63      1.0  0.44330  0.48944  0.90479  1.0000
  O  Te64      1.0  0.36185  0.59185  0.57894  1.0000
  Mg  Mg31      1.0  0.47395  0.50702  0.00347  1.0000
  Mg  Mg32      1.0  0.36443  0.66570  0.49195  1.0000
