data_image0
_chemical_formula_structural       H72C112N8C2Sn2C2HTe2HMgC2Sn2C2HTe2HMgC2Sn2C2HTe2HMgC2Sn2C2HTe2HMgC2Sn2C2HTe2HMgC2Sn2C2HTe2HMgC2Sn2C2HTe2HMgC2Sn2C2HTe2HMgC2Sn2C2HTe2HMgC2Sn2C2HTe2HMgC2Sn2C2HTe2HMgC2Sn2C2HTe2HMgC2Sn2C2HTe2HMgC2Sn2C2HTe2HMgC2Sn2C2HTe2HMgC2Sn2C2HTe2HMg
_chemical_formula_sum              "H104 C176 N8 Sn32 Te32 Mg16"
_cell_length_a       35.8803
_cell_length_b       24.2567
_cell_length_c       9.65543
_cell_angle_alpha    89.7028
_cell_angle_beta     93.9131
_cell_angle_gamma    90.0212

_symmetry_space_group_name_H-M    'P1'
_space_group_IT_number       1

loop_
  _space_group_symop_operation_xyz
  'x, y, z'

loop_
  _atom_site_type_symbol
  _atom_site_label
  _atom_site_symmetry_multiplicity
  _atom_site_fract_x
  _atom_site_fract_y
  _atom_site_fract_z
  _atom_site_occupancy
  H   H1        1.0  0.56727  0.67321  0.40881  1.0000
  H   H2        1.0  0.62259  0.61402  0.42537  1.0000
  H   H3        1.0  0.57050  0.50741  0.11367  1.0000
  H   H4        1.0  0.51338  0.56355  0.11067  1.0000
  H   H5        1.0  0.32878  0.59124  0.15668  1.0000
  H   H6        1.0  0.27088  0.53852  0.16711  1.0000
  H   H7        1.0  0.33408  0.39728  0.31876  1.0000
  H   H8        1.0  0.39207  0.44977  0.30731  1.0000
  H   H9        1.0  0.77146  0.47832  0.39079  1.0000
  H   H10       1.0  0.83002  0.42635  0.36121  1.0000
  H   H11       1.0  0.77297  0.32853  0.04318  1.0000
  H   H12       1.0  0.71456  0.37968  0.07205  1.0000
  H   H13       1.0  0.16184  0.31801  0.40731  1.0000
  H   H14       1.0  0.83892  0.31640  0.09037  1.0000
  H   H15       1.0  0.06734  0.19924  0.40466  1.0000
  H   H16       1.0  0.93369  0.19935  0.09406  1.0000
  H   H17       1.0  0.12479  0.25270  0.39514  1.0000
  H   H18       1.0  0.87632  0.25302  0.10243  1.0000
  H   H19       1.0  0.07135  0.35710  0.07913  1.0000
  H   H20       1.0  0.92976  0.35675  0.41741  1.0000
  H   H21       1.0  0.01214  0.30496  0.09719  1.0000
  H   H22       1.0  0.98873  0.30344  0.40270  1.0000
  H   H23       1.0  0.26384  0.97768  0.09861  1.0000
  H   H24       1.0  0.73938  0.97459  0.39767  1.0000
  H   H25       1.0  0.20361  0.02585  0.11470  1.0000
  H   H26       1.0  0.80049  0.02066  0.38315  1.0000
  H   H27       1.0  0.17816  0.92017  0.45447  1.0000
  H   H28       1.0  0.82714  0.91089  0.05634  1.0000
  H   H29       1.0  0.23813  0.87245  0.44050  1.0000
  H   H30       1.0  0.76634  0.86542  0.06745  1.0000
  H   H31       1.0  0.13741  0.99642  0.39481  1.0000
  H   H32       1.0  0.86841  0.98696  0.11480  1.0000
  H   H33       1.0  0.52094  0.80633  0.38852  1.0000
  H   H34       1.0  0.58092  0.85515  0.39363  1.0000
  H   H35       1.0  0.61693  0.74686  0.07540  1.0000
  H   H36       1.0  0.55798  0.69599  0.08122  1.0000
  H   H37       1.0  0.38025  0.91060  0.15563  1.0000
  H   H38       1.0  0.62300  0.90726  0.33876  1.0000
  H   H39       1.0  0.32029  0.95811  0.15862  1.0000
  H   H40       1.0  0.68320  0.95391  0.33886  1.0000
  H   H41       1.0  0.27370  0.81654  0.35601  1.0000
  H   H42       1.0  0.73006  0.81164  0.14916  1.0000
  H   H43       1.0  0.33380  0.76967  0.35504  1.0000
  H   H44       1.0  0.67000  0.76510  0.14931  1.0000
  H   H45       1.0  0.56449  0.66661  0.90987  1.0000
  H   H46       1.0  0.62048  0.60877  0.91555  1.0000
  H   H47       1.0  0.56895  0.50947  0.58701  1.0000
  H   H48       1.0  0.51126  0.56340  0.59593  1.0000
  H   H49       1.0  0.67089  0.58784  0.82202  1.0000
  H   H50       1.0  0.72890  0.53525  0.80914  1.0000
  H   H51       1.0  0.66588  0.39608  0.64784  1.0000
  H   H52       1.0  0.60774  0.44802  0.66322  1.0000
  H   H53       1.0  0.76566  0.46835  0.89724  1.0000
  H   H54       1.0  0.82492  0.41700  0.87792  1.0000
  H   H55       1.0  0.77650  0.33327  0.51800  1.0000
  H   H56       1.0  0.71728  0.38393  0.53649  1.0000
  H   H57       1.0  0.15650  0.31852  0.92353  1.0000
  H   H58       1.0  0.84089  0.32040  0.58091  1.0000
  H   H59       1.0  0.97756  0.06160  0.60341  1.0000
  H   H60       1.0  0.92138  0.00500  0.62181  1.0000
  H   H61       1.0  0.88700  0.10960  0.94856  1.0000
  H   H62       1.0  0.94373  0.16741  0.92636  1.0000
  H   H63       1.0  0.13361  0.99205  0.89534  1.0000
  H   H64       1.0  0.86315  0.99019  0.60414  1.0000
  H   H65       1.0  0.51964  0.80047  0.89952  1.0000
  H   H66       1.0  0.57927  0.84983  0.89992  1.0000
  H   H67       1.0  0.61204  0.74683  0.56640  1.0000
  H   H68       1.0  0.55307  0.69546  0.57531  1.0000
  H   H69       1.0  0.38042  0.91221  0.70345  1.0000
  H   H70       1.0  0.32073  0.96099  0.70902  1.0000
  H   H71       1.0  0.26751  0.81046  0.82661  1.0000
  H   H72       1.0  0.32699  0.76143  0.81929  1.0000
  C   C1        1.0  0.53572  0.62320  0.25868  1.0000
  C   C2        1.0  0.56320  0.73110  0.14890  1.0000
  C   C3        1.0  0.56744  0.63630  0.34609  1.0000
  C   C4        1.0  0.36232  0.83644  0.25701  1.0000
  C   C5        1.0  0.64098  0.83260  0.24105  1.0000
  C   C6        1.0  0.59921  0.60345  0.35263  1.0000
  C   C7        1.0  0.35696  0.88955  0.19936  1.0000
  C   C8        1.0  0.64633  0.88580  0.29700  1.0000
  C   C9        1.0  0.60130  0.55618  0.26930  1.0000
  C   C10       1.0  0.32271  0.91651  0.20083  1.0000
  C   C11       1.0  0.68070  0.91244  0.29695  1.0000
  C   C12       1.0  0.56955  0.54263  0.18257  1.0000
  C   C13       1.0  0.29190  0.89180  0.25993  1.0000
  C   C14       1.0  0.71170  0.88734  0.24077  1.0000
  C   C15       1.0  0.53748  0.57498  0.17879  1.0000
  C   C16       1.0  0.29707  0.83809  0.31431  1.0000
  C   C17       1.0  0.70658  0.83348  0.18864  1.0000
  C   C18       1.0  0.36527  0.52532  0.23353  1.0000
  C   C19       1.0  0.33130  0.81134  0.31349  1.0000
  C   C20       1.0  0.67230  0.80694  0.18877  1.0000
  C   C21       1.0  0.33032  0.54846  0.19076  1.0000
  C   C22       1.0  0.29739  0.51851  0.19661  1.0000
  C   C23       1.0  0.29765  0.46381  0.24621  1.0000
  C   C24       1.0  0.33269  0.44007  0.28467  1.0000
  C   C25       1.0  0.36560  0.46995  0.27833  1.0000
  C   C26       1.0  0.73837  0.43231  0.23548  1.0000
  C   C27       1.0  0.77177  0.44579  0.31378  1.0000
  C   C28       1.0  0.80453  0.41677  0.29846  1.0000
  C   C29       1.0  0.80536  0.37333  0.20236  1.0000
  C   C30       1.0  0.77242  0.36079  0.12101  1.0000
  C   C31       1.0  0.73947  0.38939  0.13804  1.0000
  C   C32       1.0  0.16206  0.34121  0.30917  1.0000
  C   C33       1.0  0.83911  0.34126  0.18538  1.0000
  C   C34       1.0  0.03526  0.24720  0.25048  1.0000
  C   C35       1.0  0.96569  0.24692  0.24830  1.0000
  C   C36       1.0  0.06770  0.23446  0.33514  1.0000
  C   C37       1.0  0.93331  0.23435  0.16344  1.0000
  C   C38       1.0  0.10038  0.26471  0.32896  1.0000
  C   C39       1.0  0.90069  0.26467  0.16900  1.0000
  C   C40       1.0  0.10222  0.30956  0.23588  1.0000
  C   C41       1.0  0.89892  0.30965  0.26063  1.0000
  C   C42       1.0  0.06981  0.32307  0.15229  1.0000
  C   C43       1.0  0.93123  0.32269  0.34515  1.0000
  C   C44       1.0  0.03690  0.29336  0.16187  1.0000
  C   C45       1.0  0.96400  0.29260  0.33715  1.0000
  C   C46       1.0  0.25585  0.92072  0.26751  1.0000
  C   C47       1.0  0.74801  0.91552  0.23481  1.0000
  C   C48       1.0  0.24543  0.96515  0.17791  1.0000
  C   C49       1.0  0.75820  0.96061  0.32149  1.0000
  C   C50       1.0  0.21148  0.99209  0.18535  1.0000
  C   C51       1.0  0.79253  0.98646  0.31498  1.0000
  C   C52       1.0  0.18633  0.97599  0.28405  1.0000
  C   C53       1.0  0.81821  0.96881  0.22038  1.0000
  C   C54       1.0  0.19674  0.93230  0.37509  1.0000
  C   C55       1.0  0.80818  0.92426  0.13289  1.0000
  C   C56       1.0  0.23061  0.90514  0.36642  1.0000
  C   C57       1.0  0.77388  0.89823  0.14033  1.0000
  C   C58       1.0  0.15056  0.00358  0.29655  1.0000
  C   C59       1.0  0.85383  0.99666  0.20831  1.0000
  C   C60       1.0  0.53555  0.74627  0.23742  1.0000
  C   C61       1.0  0.54216  0.79324  0.32045  1.0000
  C   C62       1.0  0.00044  0.15660  0.24901  1.0000
  C   C63       1.0  0.57607  0.82111  0.32182  1.0000
  C   C64       1.0  0.00050  0.21374  0.24935  1.0000
  C   C65       1.0  0.60448  0.80445  0.23728  1.0000
  C   C66       1.0  0.50101  0.71375  0.24690  1.0000
  C   C67       1.0  0.59672  0.75941  0.14801  1.0000
  C   C68       1.0  0.50099  0.65689  0.25016  1.0000
  C   C69       1.0  0.53346  0.61994  0.75180  1.0000
  C   C70       1.0  0.55910  0.72936  0.64611  1.0000
  C   C71       1.0  0.56514  0.63158  0.84071  1.0000
  C   C72       1.0  0.35893  0.83289  0.76296  1.0000
  C   C73       1.0  0.59724  0.59951  0.84106  1.0000
  C   C74       1.0  0.35574  0.88935  0.72940  1.0000
  C   C75       1.0  0.59976  0.55474  0.74956  1.0000
  C   C76       1.0  0.32184  0.91710  0.73272  1.0000
  C   C77       1.0  0.56790  0.54267  0.66177  1.0000
  C   C78       1.0  0.28936  0.88985  0.77062  1.0000
  C   C79       1.0  0.53545  0.57381  0.66474  1.0000
  C   C80       1.0  0.29235  0.83317  0.80172  1.0000
  C   C81       1.0  0.63446  0.52244  0.74366  1.0000
  C   C82       1.0  0.32615  0.80545  0.79754  1.0000
  C   C83       1.0  0.66943  0.54543  0.78608  1.0000
  C   C84       1.0  0.70235  0.51564  0.77870  1.0000
  C   C85       1.0  0.70207  0.46140  0.72748  1.0000
  C   C86       1.0  0.66715  0.43832  0.68515  1.0000
  C   C87       1.0  0.63419  0.46795  0.69357  1.0000
  C   C88       1.0  0.73701  0.43013  0.71797  1.0000
  C   C89       1.0  0.76809  0.43925  0.81298  1.0000
  C   C90       1.0  0.80118  0.41034  0.80365  1.0000
  C   C91       1.0  0.80462  0.37153  0.69720  1.0000
  C   C92       1.0  0.77379  0.36235  0.60219  1.0000
  C   C93       1.0  0.74046  0.39070  0.61309  1.0000
  C   C94       1.0  0.15937  0.33805  0.82165  1.0000
  C   C95       1.0  0.83900  0.34092  0.68161  1.0000
  C   C96       1.0  0.96440  0.11978  0.76127  1.0000
  C   C97       1.0  0.95759  0.07259  0.67846  1.0000
  C   C98       1.0  0.92569  0.04067  0.68879  1.0000
  C   C99       1.0  0.89909  0.05462  0.78395  1.0000
  C   C100      1.0  0.90671  0.10020  0.87132  1.0000
  C   C101      1.0  0.93847  0.13209  0.85936  1.0000
  C   C102      1.0  0.14797  0.00067  0.80048  1.0000
  C   C103      1.0  0.85066  0.99530  0.70423  1.0000
  C   C104      1.0  0.53236  0.74277  0.73998  1.0000
  C   C105      1.0  0.53997  0.78840  0.82680  1.0000
  C   C106      1.0  0.99852  0.15321  0.74631  1.0000
  C   C107      1.0  0.57376  0.81672  0.82578  1.0000
  C   C108      1.0  0.99861  0.21029  0.74788  1.0000
  C   C109      1.0  0.60129  0.80161  0.73570  1.0000
  C   C110      1.0  0.49773  0.70972  0.74875  1.0000
  C   C111      1.0  0.59259  0.75787  0.64329  1.0000
  C   C112      1.0  0.49846  0.65281  0.74773  1.0000
  N   N1        1.0  0.13413  0.34144  0.21675  1.0000
  N   N2        1.0  0.86720  0.34226  0.27702  1.0000
  N   N3        1.0  0.13598  0.03556  0.19964  1.0000
  N   N4        1.0  0.86643  0.03202  0.30014  1.0000
  N   N5        1.0  0.13297  0.33661  0.72342  1.0000
  N   N6        1.0  0.86556  0.33870  0.77908  1.0000
  N   N7        1.0  0.13443  0.03339  0.70328  1.0000
  N   N8        1.0  0.86548  0.02649  0.80170  1.0000
  C   C113      1.0  0.21961  0.99137  0.68493  1.0000
  C   C114      1.0  0.18960  0.97812  0.76385  1.0000
  C  Sn1       1.0  0.19263  0.93483  0.85996  1.0000
  C  Sn2       1.0  0.22637  0.90432  0.87719  1.0000
  C   C115      1.0  0.25625  0.91792  0.79781  1.0000
  C   C116      1.0  0.25291  0.96131  0.70189  1.0000
  H   H73       1.0  0.21679  0.02495  0.61077  1.0000
  O  Te1       1.0  0.16236  0.92213  0.93792  1.0000
  O  Te2       1.0  0.23016  0.86086  0.97255  1.0000
  H   H74       1.0  0.27616  0.97157  0.64087  1.0000
  Mg  Mg1       1.0  0.16271  0.86134  0.05460  1.0000
  C   C117      1.0  0.04478  0.05909  0.82018  1.0000
  C   C118      1.0  0.03448  0.10908  0.75594  1.0000
  C  Sn3       1.0  0.05707  0.13307  0.65991  1.0000
  C  Sn4       1.0  0.09058  0.10642  0.62778  1.0000
  C   C119      1.0  0.10063  0.05640  0.69254  1.0000
  C   C120      1.0  0.07782  0.03277  0.78851  1.0000
  H   H75       1.0  0.02713  0.04079  0.89438  1.0000
  O  Te3       1.0  0.04637  0.18304  0.59673  1.0000
  O  Te4       1.0  0.11367  0.12947  0.53215  1.0000
  H   H76       1.0  0.08604  0.99404  0.83816  1.0000
  Mg  Mg2       1.0  0.08712  0.19814  0.47340  1.0000
  C   C121      1.0  0.78150  0.97948  0.83558  1.0000
  C   C122      1.0  0.81030  0.96927  0.74875  1.0000
  C  Sn5       1.0  0.80568  0.93003  0.64355  1.0000
  C  Sn6       1.0  0.77156  0.90055  0.62517  1.0000
  C   C123      1.0  0.74290  0.91110  0.71251  1.0000
  C   C124      1.0  0.74783  0.95044  0.81748  1.0000
  H   H77       1.0  0.78505  0.00994  0.91674  1.0000
  O  Te5       1.0  0.83475  0.92032  0.55776  1.0000
  O  Te6       1.0  0.76619  0.86112  0.52081  1.0000
  H   H78       1.0  0.72551  0.95836  0.88463  1.0000
  Mg  Mg3       1.0  0.81406  0.86253  0.43028  1.0000
  C   C125      1.0  0.05795  0.31924  0.64782  1.0000
  C   C126      1.0  0.09233  0.31166  0.72251  1.0000
  C  Sn7       1.0  0.09777  0.26683  0.81307  1.0000
  C  Sn8       1.0  0.06820  0.22895  0.82889  1.0000
  C   C127      1.0  0.03392  0.23688  0.75362  1.0000
  C   C128      1.0  0.02877  0.28189  0.66332  1.0000
  H   H79       1.0  0.05397  0.35404  0.57789  1.0000
  O  Te7       1.0  0.13229  0.25988  0.88694  1.0000
  O  Te8       1.0  0.07289  0.18378  0.91866  1.0000
  H   H80       1.0  0.00216  0.28772  0.60543  1.0000
  Mg  Mg4       1.0  0.12507  0.19196  0.99666  1.0000
  C   C129      1.0  0.91264  0.11921  0.37811  1.0000
  C   C130      1.0  0.90061  0.07276  0.30255  1.0000
  C  Sn9       1.0  0.92340  0.04922  0.20714  1.0000
  C  Sn10      1.0  0.95888  0.07270  0.18726  1.0000
  C   C131      1.0  0.97067  0.11914  0.26343  1.0000
  C   C132      1.0  0.94763  0.14238  0.35860  1.0000
  H   H81       1.0  0.89483  0.13717  0.45180  1.0000
  O  Te9       1.0  0.91095  0.00283  0.13247  1.0000
  O  Te10      1.0  0.98222  0.04999  0.09260  1.0000
  H   H82       1.0  0.95696  0.17832  0.41715  1.0000
  Mg  Mg5       1.0  0.95308  0.98680  0.01542  1.0000
  C   C133      1.0  0.45832  0.56477  0.34177  1.0000
  C   C134      1.0  0.46739  0.60885  0.25658  1.0000
  C  Sn11      1.0  0.44066  0.63062  0.15940  1.0000
  C  Sn12      1.0  0.40418  0.60777  0.14756  1.0000
  C   C135      1.0  0.39537  0.56370  0.23334  1.0000
  C   C136      1.0  0.42234  0.54222  0.33020  1.0000
  H   H83       1.0  0.47918  0.54817  0.41677  1.0000
  O  Te11      1.0  0.45020  0.67465  0.07507  1.0000
  O  Te12      1.0  0.37691  0.62875  0.05136  1.0000
  H   H84       1.0  0.41530  0.50812  0.39621  1.0000
  Mg  Mg6       1.0  0.42176  0.68691  0.95966  1.0000
  C   C137      1.0  0.43445  0.81835  0.14731  1.0000
  C   C138      1.0  0.40426  0.80982  0.22900  1.0000
  C  Sn13      1.0  0.40660  0.77052  0.33554  1.0000
  C  Sn14      1.0  0.43982  0.73926  0.36053  1.0000
  C   C139      1.0  0.46987  0.74813  0.27828  1.0000
  C   C140      1.0  0.46723  0.78755  0.17192  1.0000
  H   H85       1.0  0.43241  0.84887  0.06506  1.0000
  O  Te13      1.0  0.37618  0.76250  0.41615  1.0000
  O  Te14      1.0  0.44291  0.69973  0.46636  1.0000
  H   H86       1.0  0.49061  0.79417  0.10874  1.0000
  Mg  Mg7       1.0  0.39387  0.70384  0.54814  1.0000
  C   C141      1.0  0.25569  0.38128  0.38320  1.0000
  C   C142      1.0  0.26372  0.42014  0.28210  1.0000
  C  Sn15      1.0  0.23588  0.43729  0.18303  1.0000
  C  Sn16      1.0  0.19934  0.41507  0.18550  1.0000
  C   C143      1.0  0.19159  0.37624  0.28713  1.0000
  C   C144      1.0  0.21966  0.35936  0.38575  1.0000
  H   H87       1.0  0.27740  0.36824  0.45956  1.0000
  O  Te15      1.0  0.24438  0.47614  0.08271  1.0000
  O  Te16      1.0  0.17098  0.43150  0.08774  1.0000
  H   H88       1.0  0.21343  0.32930  0.46406  1.0000
  Mg  Mg8       1.0  0.21466  0.48345  0.97163  1.0000
  C   C145      1.0  0.35983  0.45268  0.81824  1.0000
  C   C146      1.0  0.36483  0.50567  0.76506  1.0000
  C  Sn17      1.0  0.33395  0.53747  0.71885  1.0000
  C  Sn18      1.0  0.29741  0.51573  0.72617  1.0000
  C   C147      1.0  0.29271  0.46269  0.77963  1.0000
  C   C148      1.0  0.32381  0.43121  0.82554  1.0000
  H   H89       1.0  0.38390  0.42834  0.85383  1.0000
  O  Te17      1.0  0.33944  0.59032  0.66597  1.0000
  O  Te18      1.0  0.26605  0.54663  0.68075  1.0000
  H   H90       1.0  0.31993  0.39021  0.86679  1.0000
  Mg  Mg9       1.0  0.28792  0.61650  0.61696  1.0000
  C   C149      1.0  0.04677  0.06175  0.32066  1.0000
  C   C150      1.0  0.03646  0.11210  0.25832  1.0000
  C  Sn19      1.0  0.05908  0.13674  0.16338  1.0000
  C  Sn20      1.0  0.09262  0.11039  0.13042  1.0000
  C   C151      1.0  0.10267  0.06000  0.19327  1.0000
  C   C152      1.0  0.07984  0.03572  0.28817  1.0000
  H   H91       1.0  0.02909  0.04294  0.39403  1.0000
  O  Te19      1.0  0.04838  0.18707  0.10209  1.0000
  O  Te20      1.0  0.11574  0.13410  0.03584  1.0000
  H   H92       1.0  0.08806  0.99672  0.33635  1.0000
  Mg  Mg10      1.0  0.10755  0.20098  0.97962  1.0000
  C   C153      1.0  0.95808  0.30303  0.84560  1.0000
  C   C154      1.0  0.96417  0.25479  0.77191  1.0000
  C  Sn21      1.0  0.93554  0.23230  0.68445  1.0000
  C  Sn22      1.0  0.90019  0.25870  0.67069  1.0000
  C   C155      1.0  0.89439  0.30696  0.74478  1.0000
  C   C156      1.0  0.92323  0.32910  0.83204  1.0000
  H   H93       1.0  0.98040  0.32018  0.91306  1.0000
  O  Te21      1.0  0.94209  0.18408  0.61163  1.0000
  O  Te22      1.0  0.87109  0.23712  0.58396  1.0000
  H   H94       1.0  0.91851  0.36647  0.88901  1.0000
  Mg  Mg11      1.0  0.89366  0.17057  0.50633  1.0000
  C   C157      1.0  0.64879  0.89663  0.79432  1.0000
  C   C158      1.0  0.63814  0.84461  0.74426  1.0000
  C  Sn23      1.0  0.66461  0.80913  0.69348  1.0000
  C  Sn24      1.0  0.70244  0.82616  0.69298  1.0000
  C   C159      1.0  0.71282  0.87827  0.74339  1.0000
  C   C160      1.0  0.68610  0.91345  0.79392  1.0000
  H   H95       1.0  0.62812  0.92384  0.83350  1.0000
  O  Te23      1.0  0.65349  0.75730  0.64380  1.0000
  O  Te24      1.0  0.72948  0.79152  0.64287  1.0000
  H   H96       1.0  0.69436  0.95371  0.83276  1.0000
  Mg  Mg12      1.0  0.70061  0.72483  0.58608  1.0000
  C   C161      1.0  0.45649  0.56365  0.85626  1.0000
  C   C162      1.0  0.46562  0.60365  0.75953  1.0000
  C  Sn25      1.0  0.43909  0.62074  0.65550  1.0000
  C  Sn26      1.0  0.40278  0.59729  0.64847  1.0000
  C   C163      1.0  0.39392  0.55733  0.74579  1.0000
  C   C164      1.0  0.42068  0.54051  0.84943  1.0000
  H   H97       1.0  0.47719  0.55065  0.93649  1.0000
  O  Te25      1.0  0.44868  0.66073  0.55966  1.0000
  O  Te26      1.0  0.37573  0.61364  0.54561  1.0000
  H   H98       1.0  0.41360  0.50957  0.92436  1.0000
  Mg  Mg13      1.0  0.40219  0.66948  0.43867  1.0000
  C   C165      1.0  0.64004  0.45367  0.22654  1.0000
  C   C166      1.0  0.63473  0.50811  0.26757  1.0000
  C  Sn27      1.0  0.66544  0.54246  0.29798  1.0000
  C  Sn28      1.0  0.70211  0.52180  0.28698  1.0000
  C   C167      1.0  0.70712  0.46729  0.24576  1.0000
  C   C168      1.0  0.67619  0.43327  0.21562  1.0000
  H   H99       1.0  0.61611  0.42735  0.20315  1.0000
  O  Te27      1.0  0.65964  0.59674  0.33887  1.0000
  O  Te28      1.0  0.73329  0.55524  0.31671  1.0000
  H   H100      1.0  0.68031  0.39113  0.18377  1.0000
  Mg  Mg14      1.0  0.71103  0.62628  0.36832  1.0000
  C   C169      1.0  0.43416  0.82079  0.67423  1.0000
  C   C170      1.0  0.40137  0.80761  0.73729  1.0000
  C  Sn29      1.0  0.39996  0.76100  0.82240  1.0000
  C  Sn30      1.0  0.43203  0.72705  0.84463  1.0000
  C   C171      1.0  0.46471  0.74061  0.78115  1.0000
  C   C172      1.0  0.46581  0.78734  0.69614  1.0000
  H   H101      1.0  0.43502  0.85696  0.60851  1.0000
  O  Te29      1.0  0.36697  0.74842  0.88456  1.0000
  O  Te30      1.0  0.43139  0.68024  0.92925  1.0000
  H   H102      1.0  0.49121  0.79755  0.64741  1.0000
  Mg  Mg15      1.0  0.37989  0.68026  0.99104  1.0000
  C   C173      1.0  0.22148  0.43065  0.66937  1.0000
  C   C174      1.0  0.25393  0.43073  0.75807  1.0000
  C  Sn31      1.0  0.25713  0.39541  0.87301  1.0000
  C  Sn32      1.0  0.22725  0.35936  0.89935  1.0000
  C   C175      1.0  0.19491  0.35955  0.80994  1.0000
  C   C176      1.0  0.19200  0.39509  0.69525  1.0000
  H   H103      1.0  0.21923  0.45811  0.58059  1.0000
  O  Te31      1.0  0.28974  0.39604  0.96060  1.0000
  O  Te32      1.0  0.21135  0.32566  0.01345  1.0000
  H   H104      1.0  0.16688  0.39498  0.62654  1.0000
  Mg  Mg16      1.0  0.26147  0.34175  0.10270  1.0000
