data_image0
_chemical_formula_structural       H8C16N8SnCSn2CSnTe4Mg2SnCSn2CSnTe4Mg2SnCSn2CSnTe4Mg2SnCSn2CSnTe4Mg2SnCSn2CSnTe4Mg2SnCSn2CSnTe4Mg2SnCSn2CSnTe4Mg2SnCSn2CSnTe4Mg2SnCSn2CSnTe4Mg2SnCSn2CSnTe4Mg2SnCSn2CSnTe4Mg2SnCSn2CSnTe4Mg2SnCSn2CSnTe4Mg2SnCSn2CSnTe4Mg2SnCSn2CSnTe4Mg2SnCSn2CSnTe4Mg2SnCSn2CSnTe4Mg2SnCSn2CSnTe4Mg2SnCSn2CSnTe4Mg2SnCSn2CSnTe4Mg2SnCSn2CSnTe4Mg2SnCSn2CSnTe4Mg2SnCSn2CSnTe4Mg2SnCSn2CSnTe4Mg2SnCSn2CSnTe4Mg2SnCSn2CSnTe4Mg2SnCSn2CSnTe4Mg2SnCSn2CSnTe4Mg2SnCSn2CSnTe4Mg2SnCSn2CSnTe4Mg2SnCSn2CSnTe4Mg2SnCSn2CSnTe4Mg2
_chemical_formula_sum              "H8 C80 N8 Sn128 Te128 Mg64"
_cell_length_a       35.8803
_cell_length_b       24.2567
_cell_length_c       9.65543
_cell_angle_alpha    89.7028
_cell_angle_beta     93.9131
_cell_angle_gamma    90.0212

_symmetry_space_group_name_H-M    'P1'
_space_group_IT_number       1

loop_
  _space_group_symop_operation_xyz
  'x, y, z'

loop_
  _atom_site_type_symbol
  _atom_site_label
  _atom_site_symmetry_multiplicity
  _atom_site_fract_x
  _atom_site_fract_y
  _atom_site_fract_z
  _atom_site_occupancy
  H   H1        1.0  0.16184  0.31801  0.40731  1.0000
  H   H2        1.0  0.83892  0.31640  0.09037  1.0000
  H   H3        1.0  0.13741  0.99642  0.39481  1.0000
  H   H4        1.0  0.86841  0.98696  0.11480  1.0000
  H   H5        1.0  0.15650  0.31852  0.92353  1.0000
  H   H6        1.0  0.84089  0.32040  0.58091  1.0000
  H   H7        1.0  0.13361  0.99205  0.89534  1.0000
  H   H8        1.0  0.86315  0.99019  0.60414  1.0000
  C   C1        1.0  0.16206  0.34121  0.30917  1.0000
  C   C2        1.0  0.83911  0.34126  0.18538  1.0000
  C   C3        1.0  0.15056  0.00358  0.29655  1.0000
  C   C4        1.0  0.85383  0.99666  0.20831  1.0000
  C   C5        1.0  0.00044  0.15660  0.24901  1.0000
  C   C6        1.0  0.00050  0.21374  0.24935  1.0000
  C   C7        1.0  0.50101  0.71375  0.24690  1.0000
  C   C8        1.0  0.50099  0.65689  0.25016  1.0000
  C   C9        1.0  0.15937  0.33805  0.82165  1.0000
  C   C10       1.0  0.83900  0.34092  0.68161  1.0000
  C   C11       1.0  0.14797  0.00067  0.80048  1.0000
  C   C12       1.0  0.85066  0.99530  0.70423  1.0000
  C   C13       1.0  0.99852  0.15321  0.74631  1.0000
  C   C14       1.0  0.99861  0.21029  0.74788  1.0000
  C   C15       1.0  0.49773  0.70972  0.74875  1.0000
  C   C16       1.0  0.49846  0.65281  0.74773  1.0000
  N   N1        1.0  0.13413  0.34144  0.21675  1.0000
  N   N2        1.0  0.86720  0.34226  0.27702  1.0000
  N   N3        1.0  0.13598  0.03556  0.19964  1.0000
  N   N4        1.0  0.86643  0.03202  0.30014  1.0000
  N   N5        1.0  0.13297  0.33661  0.72342  1.0000
  N   N6        1.0  0.86556  0.33870  0.77908  1.0000
  N   N7        1.0  0.13443  0.03339  0.70328  1.0000
  N   N8        1.0  0.86548  0.02649  0.80170  1.0000
  C  Sn1       1.0  0.45689  0.81013  0.17732  1.0000
  C   C17       1.0  0.46999  0.76771  0.26625  1.0000
  C  Sn2       1.0  0.44565  0.74025  0.35005  1.0000
  C  Sn3       1.0  0.40742  0.75549  0.34479  1.0000
  C   C18       1.0  0.39434  0.79788  0.25588  1.0000
  C  Sn4       1.0  0.41866  0.82537  0.17206  1.0000
  O  Te1       1.0  0.48173  0.83702  0.09447  1.0000
  O  Te2       1.0  0.45940  0.69799  0.43816  1.0000
  O  Te3       1.0  0.38259  0.72856  0.42774  1.0000
  O  Te4       1.0  0.40493  0.86760  0.08398  1.0000
  Mg  Mg1       1.0  0.41462  0.67365  0.53084  1.0000
  Mg  Mg2       1.0  0.46804  0.88989  0.99120  1.0000
  C  Sn5       1.0  0.57581  0.72472  0.17098  1.0000
  C   C19       1.0  0.54546  0.73489  0.25053  1.0000
  C  Sn6       1.0  0.54217  0.78540  0.31746  1.0000
  C  Sn7       1.0  0.56978  0.82662  0.30455  1.0000
  C   C20       1.0  0.60010  0.81645  0.22502  1.0000
  C  Sn8       1.0  0.60342  0.76595  0.15807  1.0000
  O  Te5       1.0  0.57853  0.67393  0.10497  1.0000
  O  Te6       1.0  0.51158  0.79460  0.39646  1.0000
  O  Te7       1.0  0.56703  0.87744  0.37065  1.0000
  O  Te8       1.0  0.63398  0.75674  0.07909  1.0000
  Mg  Mg3       1.0  0.52023  0.87041  0.46657  1.0000
  Mg  Mg4       1.0  0.62535  0.68096  0.00888  1.0000
  C  Sn9       1.0  0.41229  0.60616  0.11467  1.0000
  C   C21       1.0  0.40539  0.55820  0.18954  1.0000
  C  Sn10      1.0  0.42804  0.54438  0.30805  1.0000
  C  Sn11      1.0  0.45820  0.57924  0.35270  1.0000
  C   C22       1.0  0.46508  0.62718  0.27786  1.0000
  C  Sn12      1.0  0.44245  0.64103  0.15932  1.0000
  O  Te9       1.0  0.40765  0.61712  0.99651  1.0000
  O  Te10      1.0  0.42060  0.49620  0.38117  1.0000
  O  Te11      1.0  0.48121  0.56619  0.47096  1.0000
  O  Te12      1.0  0.44987  0.68917  0.08623  1.0000
  Mg  Mg5       1.0  0.45982  0.49617  0.53569  1.0000
  Mg  Mg6       1.0  0.42902  0.68720  0.93175  1.0000
  C  Sn13      1.0  0.53931  0.55622  0.20247  1.0000
  C   C23       1.0  0.53274  0.60388  0.27776  1.0000
  C  Sn14      1.0  0.56249  0.63278  0.34404  1.0000
  C  Sn15      1.0  0.59958  0.61366  0.33483  1.0000
  C   C24       1.0  0.60614  0.56603  0.25956  1.0000
  C  Sn16      1.0  0.57640  0.53710  0.19325  1.0000
  O  Te13      1.0  0.50914  0.52798  0.13703  1.0000
  O  Te14      1.0  0.55522  0.68032  0.41875  1.0000
  O  Te15      1.0  0.62975  0.64194  0.40036  1.0000
  O  Te16      1.0  0.58365  0.48960  0.11857  1.0000
  Mg  Mg7       1.0  0.60562  0.70454  0.48978  1.0000
  Mg  Mg8       1.0  0.53328  0.46536  0.04744  1.0000
  C  Sn17      1.0  0.31994  0.80752  0.28016  1.0000
  C   C25       1.0  0.35349  0.82716  0.23321  1.0000
  C  Sn18      1.0  0.35827  0.88339  0.20795  1.0000
  C  Sn19      1.0  0.32891  0.92078  0.23015  1.0000
  C   C26       1.0  0.29539  0.90114  0.27709  1.0000
  C  Sn20      1.0  0.29058  0.84491  0.30236  1.0000
  O  Te17      1.0  0.31578  0.75114  0.30474  1.0000
  O  Te18      1.0  0.39205  0.90204  0.16102  1.0000
  O  Te19      1.0  0.33309  0.97720  0.20552  1.0000
  O  Te20      1.0  0.25683  0.82625  0.34929  1.0000
  Mg  Mg9       1.0  0.38431  0.98262  0.14236  1.0000
  Mg  Mg10      1.0  0.26455  0.74569  0.36804  1.0000
  C  Sn21      1.0  0.67528  0.90354  0.33920  1.0000
  C   C27       1.0  0.70846  0.88479  0.28787  1.0000
  C  Sn22      1.0  0.70819  0.83946  0.19915  1.0000
  C  Sn23      1.0  0.67403  0.81233  0.16087  1.0000
  C   C28       1.0  0.64088  0.83109  0.21217  1.0000
  C  Sn24      1.0  0.64113  0.87641  0.30092  1.0000
  O  Te21      1.0  0.67622  0.94894  0.42775  1.0000
  O  Te22      1.0  0.74171  0.82146  0.14920  1.0000
  O  Te23      1.0  0.67312  0.76690  0.07225  1.0000
  O  Te24      1.0  0.60763  0.89442  0.35084  1.0000
  Mg  Mg11      1.0  0.72608  0.75787  0.03132  1.0000
  Mg  Mg12      1.0  0.62323  0.95802  0.46866  1.0000
  C  Sn25      1.0  0.34023  0.44840  0.32616  1.0000
  C   C29       1.0  0.30366  0.46517  0.28852  1.0000
  C  Sn26      1.0  0.29695  0.51254  0.20777  1.0000
  C  Sn27      1.0  0.32743  0.54378  0.16363  1.0000
  C   C30       1.0  0.36397  0.52701  0.20125  1.0000
  C  Sn28      1.0  0.37071  0.47965  0.28202  1.0000
  O  Te25      1.0  0.34629  0.40091  0.40694  1.0000
  O  Te26      1.0  0.26015  0.52848  0.17149  1.0000
  O  Te27      1.0  0.32135  0.59131  0.08280  1.0000
  O  Te28      1.0  0.40749  0.46370  0.31828  1.0000
  Mg  Mg13      1.0  0.26620  0.59624  0.06002  1.0000
  Mg  Mg14      1.0  0.40147  0.39594  0.42968  1.0000
  C  Sn29      1.0  0.66007  0.44401  0.18711  1.0000
  C   C31       1.0  0.69676  0.46262  0.21223  1.0000
  C  Sn30      1.0  0.70401  0.51259  0.28015  1.0000
  C  Sn31      1.0  0.67395  0.54461  0.32396  1.0000
  C   C32       1.0  0.63728  0.52600  0.29886  1.0000
  C  Sn32      1.0  0.63001  0.47604  0.23092  1.0000
  O  Te29      1.0  0.65348  0.39393  0.11904  1.0000
  O  Te30      1.0  0.74092  0.53034  0.30406  1.0000
  O  Te31      1.0  0.68057  0.59472  0.39207  1.0000
  O  Te32      1.0  0.59312  0.45827  0.20703  1.0000
  Mg  Mg15      1.0  0.73566  0.60139  0.40082  1.0000
  Mg  Mg16      1.0  0.59836  0.38722  0.11034  1.0000
  C  Sn33      1.0  0.23297  0.37763  0.40883  1.0000
  C   C33       1.0  0.19912  0.38140  0.32869  1.0000
  C  Sn34      1.0  0.19733  0.40850  0.20040  1.0000
  C  Sn35      1.0  0.23006  0.43230  0.15113  1.0000
  C   C34       1.0  0.26388  0.42852  0.23123  1.0000
  C  Sn36      1.0  0.26570  0.40143  0.35955  1.0000
  O  Te33      1.0  0.23411  0.35034  0.53676  1.0000
  O  Te34      1.0  0.16317  0.41175  0.12217  1.0000
  O  Te35      1.0  0.22890  0.45960  0.02308  1.0000
  O  Te36      1.0  0.29983  0.39817  0.43775  1.0000
  Mg  Mg17      1.0  0.19419  0.45111  0.95447  1.0000
  Mg  Mg18      1.0  0.28721  0.35675  0.60542  1.0000
  C  Sn37      1.0  0.79602  0.41410  0.33822  1.0000
  C   C35       1.0  0.80212  0.37195  0.24428  1.0000
  C  Sn38      1.0  0.77654  0.36258  0.13123  1.0000
  C  Sn39      1.0  0.74419  0.39606  0.11160  1.0000
  C   C36       1.0  0.73810  0.43818  0.20549  1.0000
  C  Sn40      1.0  0.76367  0.44758  0.31860  1.0000
  O  Te37      1.0  0.82196  0.42273  0.45050  1.0000
  O  Te38      1.0  0.78324  0.32018  0.03873  1.0000
  O  Te39      1.0  0.73660  0.38533  0.99921  1.0000
  O  Te40      1.0  0.75698  0.48996  0.41104  1.0000
  Mg  Mg19      1.0  0.75807  0.32252  0.90162  1.0000
  Mg  Mg20      1.0  0.80050  0.48561  0.54813  1.0000
  C  Sn41      1.0  0.06427  0.12640  0.10313  1.0000
  C   C37       1.0  0.03531  0.11695  0.19001  1.0000
  C  Sn42      1.0  0.04028  0.08050  0.30222  1.0000
  C  Sn43      1.0  0.07493  0.05294  0.32820  1.0000
  C   C38       1.0  0.10387  0.06241  0.24137  1.0000
  C  Sn44      1.0  0.09892  0.09885  0.12911  1.0000
  O  Te41      1.0  0.07705  0.16097  0.99156  1.0000
  O  Te42      1.0  0.01091  0.07170  0.38759  1.0000
  O  Te43      1.0  0.08049  0.01630  0.43987  1.0000
  O  Te44      1.0  0.12827  0.10766  0.04378  1.0000
  Mg  Mg21      1.0  0.03209  0.01799  0.52660  1.0000
  Mg  Mg22      1.0  0.12549  0.15932  0.90480  1.0000
  C  Sn45      1.0  0.94110  0.03818  0.21987  1.0000
  C   C39       1.0  0.91088  0.04849  0.29997  1.0000
  C  Sn46      1.0  0.90596  0.10062  0.35673  1.0000
  C  Sn47      1.0  0.93177  0.14336  0.33287  1.0000
  C   C40       1.0  0.96197  0.13305  0.25279  1.0000
  C  Sn48      1.0  0.96691  0.08092  0.19600  1.0000
  O  Te45      1.0  0.94572  0.98575  0.16414  1.0000
  O  Te46      1.0  0.87554  0.10993  0.43650  1.0000
  O  Te47      1.0  0.92738  0.19582  0.38868  1.0000
  O  Te48      1.0  0.99731  0.07161  0.11626  1.0000
  Mg  Mg23      1.0  0.88153  0.18826  0.49016  1.0000
  Mg  Mg24      1.0  0.99158  0.99330  0.06250  1.0000
  C  Sn49      1.0  0.09799  0.24589  0.30666  1.0000
  C   C41       1.0  0.10408  0.29295  0.22721  1.0000
  C  Sn50      1.0  0.07392  0.32240  0.16482  1.0000
  C  Sn51      1.0  0.03690  0.30446  0.18227  1.0000
  C   C42       1.0  0.03083  0.25743  0.26170  1.0000
  C  Sn52      1.0  0.06097  0.22795  0.32412  1.0000
  O  Te49      1.0  0.12856  0.21708  0.36809  1.0000
  O  Te50      1.0  0.08071  0.36931  0.08583  1.0000
  O  Te51      1.0  0.00633  0.33331  0.12076  1.0000
  O  Te52      1.0  0.05420  0.18107  0.40309  1.0000
  Mg  Mg25      1.0  0.02988  0.39469  0.02291  1.0000
  Mg  Mg26      1.0  0.10500  0.15567  0.46611  1.0000
  C  Sn53      1.0  0.94256  0.32905  0.32010  1.0000
  C   C43       1.0  0.90790  0.31987  0.24892  1.0000
  C  Sn54      1.0  0.90046  0.26990  0.18127  1.0000
  C  Sn55      1.0  0.92823  0.22823  0.18490  1.0000
  C   C44       1.0  0.96286  0.23741  0.25606  1.0000
  C  Sn56      1.0  0.97033  0.28738  0.32373  1.0000
  O  Te53      1.0  0.94939  0.37932  0.38701  1.0000
  O  Te54      1.0  0.86561  0.26169  0.11074  1.0000
  O  Te55      1.0  0.92138  0.17793  0.11790  1.0000
  O  Te56      1.0  0.00516  0.29560  0.39424  1.0000
  Mg  Mg27      1.0  0.86962  0.18628  0.03565  1.0000
  Mg  Mg28      1.0  0.00117  0.37097  0.46943  1.0000
  C  Sn57      1.0  0.21424  0.97778  0.14884  1.0000
  C   C45       1.0  0.18709  0.96890  0.24363  1.0000
  C  Sn58      1.0  0.19549  0.93808  0.36434  1.0000
  C  Sn59      1.0  0.23180  0.91570  0.39091  1.0000
  C   C46       1.0  0.25894  0.92459  0.29617  1.0000
  C  Sn60      1.0  0.25055  0.95540  0.17541  1.0000
  O  Te57      1.0  0.20497  0.00872  0.02885  1.0000
  O  Te58      1.0  0.16787  0.92975  0.45754  1.0000
  O  Te59      1.0  0.24080  0.88474  0.51102  1.0000
  O  Te60      1.0  0.27815  0.96374  0.08227  1.0000
  Mg  Mg29      1.0  0.19370  0.88475  0.60645  1.0000
  Mg  Mg30      1.0  0.27047  0.00670  0.93337  1.0000
  C  Sn61      1.0  0.76023  0.97929  0.29860  1.0000
  C   C47       1.0  0.74610  0.93413  0.22257  1.0000
  C  Sn62      1.0  0.76977  0.90150  0.14832  1.0000
  C  Sn63      1.0  0.80838  0.91424  0.15016  1.0000
  C   C48       1.0  0.82250  0.95937  0.22617  1.0000
  C  Sn64      1.0  0.79885  0.99203  0.30044  1.0000
  O  Te61      1.0  0.73581  0.01134  0.37207  1.0000
  O  Te62      1.0  0.75498  0.85658  0.07304  1.0000
  O  Te63      1.0  0.83255  0.88215  0.07660  1.0000
  O  Te64      1.0  0.81336  0.03692  0.37570  1.0000
  Mg  Mg31      1.0  0.81753  0.82320  0.98966  1.0000
  Mg  Mg32      1.0  0.76921  0.06826  0.45917  1.0000
  C  Sn65      1.0  0.45573  0.80975  0.70858  1.0000
  C   C49       1.0  0.46575  0.76090  0.77891  1.0000
  C  Sn66      1.0  0.43860  0.72850  0.83709  1.0000
  C  Sn67      1.0  0.40065  0.74526  0.82466  1.0000
  C   C50       1.0  0.39065  0.79408  0.75436  1.0000
  C  Sn68      1.0  0.41778  0.82651  0.69616  1.0000
  O  Te65      1.0  0.48333  0.84150  0.65122  1.0000
  O  Te66      1.0  0.44930  0.67984  0.90695  1.0000
  O  Te67      1.0  0.37305  0.71347  0.88211  1.0000
  O  Te68      1.0  0.40710  0.87514  0.62631  1.0000
  Mg  Mg33      1.0  0.40147  0.65059  0.96735  1.0000
  Mg  Mg34      1.0  0.45490  0.90441  0.56581  1.0000
  C  Sn69      1.0  0.58135  0.75968  0.60819  1.0000
  C   C51       1.0  0.59394  0.80387  0.69109  1.0000
  C  Sn70      1.0  0.57694  0.81594  0.81327  1.0000
  C  Sn71      1.0  0.54674  0.78313  0.85349  1.0000
  C   C52       1.0  0.53417  0.73896  0.77064  1.0000
  C  Sn72      1.0  0.55115  0.72687  0.64842  1.0000
  O  Te69      1.0  0.59876  0.74836  0.48648  1.0000
  O  Te70      1.0  0.59001  0.86035  0.89441  1.0000
  O  Te71      1.0  0.52933  0.79449  0.97531  1.0000
  O  Te72      1.0  0.53811  0.68249  0.56731  1.0000
  Mg  Mg35      1.0  0.53882  0.86137  0.05112  1.0000
  Mg  Mg36      1.0  0.57092  0.68347  0.41063  1.0000
  C  Sn73      1.0  0.42076  0.63334  0.66886  1.0000
  C   C53       1.0  0.45382  0.62937  0.75362  1.0000
  C  Sn74      1.0  0.46169  0.58185  0.83258  1.0000
  C  Sn75      1.0  0.43598  0.53735  0.82664  1.0000
  C   C54       1.0  0.40295  0.54133  0.74190  1.0000
  C  Sn76      1.0  0.39505  0.58884  0.66292  1.0000
  O  Te73      1.0  0.41347  0.68123  0.59080  1.0000
  O  Te74      1.0  0.49492  0.57885  0.91658  1.0000
  O  Te75      1.0  0.44330  0.48944  0.90479  1.0000
  O  Te76      1.0  0.36185  0.59185  0.57894  1.0000
  Mg  Mg37      1.0  0.47395  0.50702  0.00347  1.0000
  Mg  Mg38      1.0  0.36443  0.66570  0.49195  1.0000
  C  Sn77      1.0  0.56324  0.55709  0.62599  1.0000
  C   C55       1.0  0.59691  0.56355  0.70583  1.0000
  C  Sn78      1.0  0.59845  0.59557  0.82592  1.0000
  C  Sn79      1.0  0.56564  0.62165  0.86713  1.0000
  C   C56       1.0  0.53199  0.61518  0.78733  1.0000
  C  Sn80      1.0  0.53042  0.58317  0.66720  1.0000
  O  Te77      1.0  0.56235  0.52489  0.50633  1.0000
  O  Te78      1.0  0.63245  0.60144  0.90402  1.0000
  O  Te79      1.0  0.56656  0.65387  0.98690  1.0000
  O  Te80      1.0  0.49645  0.57729  0.58914  1.0000
  Mg  Mg39      1.0  0.60111  0.65151  0.05880  1.0000
  Mg  Mg40      1.0  0.50939  0.52927  0.43439  1.0000
  C  Sn81      1.0  0.31533  0.80450  0.76045  1.0000
  C   C57       1.0  0.35020  0.82568  0.73156  1.0000
  C  Sn82      1.0  0.35653  0.88251  0.73342  1.0000
  C  Sn83      1.0  0.32740  0.91892  0.76491  1.0000
  C   C58       1.0  0.29256  0.89774  0.79380  1.0000
  C  Sn84      1.0  0.28620  0.84091  0.79194  1.0000
  O  Te81      1.0  0.30963  0.74755  0.75801  1.0000
  O  Te82      1.0  0.39162  0.90271  0.70414  1.0000
  O  Te83      1.0  0.33313  0.97591  0.76733  1.0000
  O  Te84      1.0  0.25114  0.82070  0.82122  1.0000
  Mg  Mg41      1.0  0.38574  0.98353  0.72044  1.0000
  Mg  Mg42      1.0  0.25699  0.73990  0.80503  1.0000
  C  Sn85      1.0  0.69500  0.82577  0.64688  1.0000
  C   C59       1.0  0.70446  0.87917  0.69006  1.0000
  C  Sn86      1.0  0.68091  0.90885  0.77174  1.0000
  C  Sn87      1.0  0.64722  0.88464  0.81116  1.0000
  C   C60       1.0  0.63777  0.83127  0.76801  1.0000
  C  Sn88      1.0  0.66130  0.80156  0.68630  1.0000
  O  Te85      1.0  0.71896  0.79686  0.56528  1.0000
  O  Te86      1.0  0.69096  0.96219  0.81360  1.0000
  O  Te87      1.0  0.62325  0.91360  0.89282  1.0000
  O  Te88      1.0  0.65127  0.74825  0.64446  1.0000
  Mg  Mg43      1.0  0.64914  0.98499  0.92401  1.0000
  Mg  Mg44      1.0  0.69308  0.72540  0.53412  1.0000
  C  Sn89      1.0  0.35994  0.45068  0.77172  1.0000
  C   C61       1.0  0.36388  0.50568  0.73145  1.0000
  C  Sn90      1.0  0.33299  0.54088  0.72203  1.0000
  C  Sn91      1.0  0.29743  0.52069  0.75361  1.0000
  C   C62       1.0  0.29351  0.46573  0.79387  1.0000
  C  Sn92      1.0  0.32438  0.43049  0.80329  1.0000
  O  Te89      1.0  0.39120  0.41623  0.78043  1.0000
  O  Te90      1.0  0.33762  0.59570  0.68151  1.0000
  O  Te91      1.0  0.26617  0.55520  0.74485  1.0000
  O  Te92      1.0  0.31977  0.37571  0.84381  1.0000
  Mg  Mg45      1.0  0.28663  0.62658  0.68504  1.0000
  Mg  Mg46      1.0  0.37074  0.34480  0.84038  1.0000
  C  Sn93      1.0  0.65956  0.44717  0.64427  1.0000
  C   C63       1.0  0.69612  0.46371  0.68257  1.0000
  C  Sn94      1.0  0.70278  0.50997  0.76618  1.0000
  C  Sn95      1.0  0.67228  0.54033  0.81256  1.0000
  C   C64       1.0  0.63575  0.52379  0.77428  1.0000
  C  Sn96      1.0  0.62905  0.47753  0.69064  1.0000
  O  Te93      1.0  0.65355  0.40079  0.56061  1.0000
  O  Te94      1.0  0.73958  0.52571  0.80308  1.0000
  O  Te95      1.0  0.67832  0.58674  0.89628  1.0000
  O  Te96      1.0  0.59229  0.46178  0.65377  1.0000
  Mg  Mg47      1.0  0.73346  0.59181  0.91880  1.0000
  Mg  Mg48      1.0  0.59837  0.39567  0.53812  1.0000
  C  Sn97      1.0  0.23008  0.37356  0.92767  1.0000
  C   C65       1.0  0.19724  0.37632  0.84137  1.0000
  C  Sn98      1.0  0.19737  0.40050  0.70979  1.0000
  C  Sn99      1.0  0.23104  0.42236  0.66346  1.0000
  C   C66       1.0  0.26386  0.41959  0.74972  1.0000
  C  Sn100     1.0  0.26375  0.39542  0.88133  1.0000
  O  Te97      1.0  0.21093  0.35125  0.05880  1.0000
  O  Te98      1.0  0.16418  0.40280  0.62540  1.0000
  O  Te99      1.0  0.23180  0.44674  0.53221  1.0000
  O  Te100     1.0  0.29691  0.39311  0.96569  1.0000
  Mg  Mg49      1.0  0.17944  0.44002  0.45529  1.0000
  Mg  Mg50      1.0  0.26333  0.35792  0.13577  1.0000
  C  Sn101     1.0  0.79151  0.40623  0.83870  1.0000
  C   C67       1.0  0.80012  0.36798  0.73799  1.0000
  C  Sn102     1.0  0.77769  0.36357  0.61450  1.0000
  C  Sn103     1.0  0.74599  0.39815  0.59113  1.0000
  C   C68       1.0  0.73739  0.43638  0.69179  1.0000
  C  Sn104     1.0  0.75981  0.44081  0.81534  1.0000
  O  Te101     1.0  0.81433  0.40993  0.96139  1.0000
  O  Te102     1.0  0.78686  0.32500  0.51537  1.0000
  O  Te103     1.0  0.72317  0.39442  0.46833  1.0000
  O  Te104     1.0  0.75065  0.47936  0.91441  1.0000
  Mg  Mg51      1.0  0.74720  0.33553  0.36475  1.0000
  Mg  Mg52      1.0  0.77194  0.47094  0.06503  1.0000
  C  Sn105     1.0  0.05066  0.07235  0.84624  1.0000
  C   C69       1.0  0.03920  0.11922  0.77008  1.0000
  C  Sn106     1.0  0.05665  0.13384  0.65023  1.0000
  C  Sn107     1.0  0.08615  0.10091  0.60550  1.0000
  C   C70       1.0  0.09759  0.05406  0.68162  1.0000
  C  Sn108     1.0  0.08016  0.03941  0.80151  1.0000
  O  Te105     1.0  0.03282  0.05851  0.96573  1.0000
  O  Te106     1.0  0.04472  0.18091  0.57584  1.0000
  O  Te107     1.0  0.10399  0.11479  0.48590  1.0000
  O  Te108     1.0  0.09232  0.99238  0.87586  1.0000
  Mg  Mg53      1.0  0.07773  0.18271  0.41975  1.0000
  Mg  Mg54      1.0  0.04095  0.99257  0.03191  1.0000
  C  Sn109     1.0  0.93674  0.11796  0.89776  1.0000
  C   C71       1.0  0.96455  0.11212  0.80437  1.0000
  C  Sn110     1.0  0.95868  0.07846  0.68797  1.0000
  C  Sn111     1.0  0.92429  0.05006  0.66436  1.0000
  C   C72       1.0  0.89650  0.05591  0.75770  1.0000
  C  Sn112     1.0  0.90235  0.08956  0.87415  1.0000
  O  Te109     1.0  0.92484  0.15389  0.01343  1.0000
  O  Te110     1.0  0.98691  0.07325  0.59610  1.0000
  O  Te111     1.0  0.91784  0.01617  0.54858  1.0000
  O  Te112     1.0  0.87414  0.09478  0.96597  1.0000
  Mg  Mg55      1.0  0.96482  0.02234  0.45341  1.0000
  Mg  Mg56      1.0  0.87783  0.14776  0.10865  1.0000
  C  Sn113     1.0  0.07140  0.24164  0.86758  1.0000
  C   C73       1.0  0.03715  0.25060  0.79307  1.0000
  C  Sn114     1.0  0.03477  0.28605  0.67833  1.0000
  C  Sn115     1.0  0.06731  0.31309  0.63714  1.0000
  C   C74       1.0  0.10154  0.30411  0.71160  1.0000
  C  Sn116     1.0  0.10394  0.26868  0.82638  1.0000
  O  Te113     1.0  0.07313  0.20603  0.98194  1.0000
  O  Te114     1.0  0.00021  0.29437  0.60551  1.0000
  O  Te115     1.0  0.06556  0.34872  0.52267  1.0000
  O  Te116     1.0  0.13848  0.26035  0.89916  1.0000
  Mg  Mg57      1.0  0.01212  0.34670  0.45681  1.0000
  Mg  Mg58      1.0  0.10825  0.21006  0.04783  1.0000
  C  Sn117     1.0  0.90091  0.24205  0.69692  1.0000
  C   C75       1.0  0.89549  0.29005  0.77242  1.0000
  C  Sn118     1.0  0.92609  0.31979  0.82959  1.0000
  C  Sn119     1.0  0.96287  0.30119  0.81085  1.0000
  C   C76       1.0  0.96827  0.25322  0.73537  1.0000
  C  Sn120     1.0  0.93769  0.22345  0.67818  1.0000
  O  Te117     1.0  0.86991  0.21297  0.64068  1.0000
  O  Te118     1.0  0.91998  0.36764  0.90471  1.0000
  O  Te119     1.0  0.99387  0.33031  0.86717  1.0000
  O  Te120     1.0  0.94379  0.17562  0.60309  1.0000
  Mg  Mg59      1.0  0.97119  0.39306  0.96112  1.0000
  Mg  Mg60      1.0  0.89259  0.15019  0.54656  1.0000
  C  Sn121     1.0  0.21325  0.97788  0.66135  1.0000
  C   C77       1.0  0.18519  0.96737  0.75149  1.0000
  C  Sn122     1.0  0.19256  0.93475  0.86983  1.0000
  C  Sn123     1.0  0.22874  0.91219  0.89875  1.0000
  C   C78       1.0  0.25677  0.92271  0.80866  1.0000
  C  Sn124     1.0  0.24943  0.95532  0.69027  1.0000
  O  Te121     1.0  0.20501  0.01061  0.54365  1.0000
  O  Te122     1.0  0.16406  0.92480  0.95837  1.0000
  O  Te123     1.0  0.21835  0.88149  0.01656  1.0000
  O  Te124     1.0  0.27791  0.96528  0.60178  1.0000
  Mg  Mg61      1.0  0.17029  0.87973  0.10566  1.0000
  Mg  Mg62      1.0  0.25310  0.01241  0.45451  1.0000
  C  Sn125     1.0  0.78297  0.88967  0.64553  1.0000
  C   C79       1.0  0.75528  0.89892  0.73774  1.0000
  C  Sn126     1.0  0.75584  0.94672  0.81794  1.0000
  C  Sn127     1.0  0.78467  0.98611  0.80567  1.0000
  C   C80       1.0  0.81234  0.97685  0.71349  1.0000
  C  Sn128     1.0  0.81180  0.92906  0.63326  1.0000
  O  Te125     1.0  0.78185  0.84160  0.56637  1.0000
  O  Te126     1.0  0.72787  0.95505  0.90944  1.0000
  O  Te127     1.0  0.78552  0.03420  0.88493  1.0000
  O  Te128     1.0  0.83975  0.92072  0.54179  1.0000
  Mg  Mg63      1.0  0.74118  0.02696  0.99490  1.0000
  Mg  Mg64      1.0  0.82620  0.84884  0.45623  1.0000
