data_image0
_chemical_formula_structural       H12C36O24SnCSn2CSnTe4Mg2SnCSn2CSnTe4Mg2SnCSn2CSnTe4Mg2SnCSn2CSnTe4Mg2SnCSn2CSnTe4Mg2SnCSn2CSnTe4Mg2SnCSn2CSnTe4Mg2SnCSn2CSnTe4Mg2SnCSn2CSnTe4Mg2SnCSn2CSnTe4Mg2SnCSn2CSnTe4Mg2SnCSn2CSnTe4Mg2SnCSn2CSnTe4Mg2SnCSn2CSnTe4Mg2SnCSn2CSnTe4Mg2SnCSn2CSnTe4Mg2SnCSn2CSnTe4Mg2SnCSn2CSnTe4Mg2SnCSn2CSnTe4Mg2SnCSn2CSnTe4Mg2SnCSn2CSnTe4Mg2SnCSn2CSnTe4Mg2SnCSn2CSnTe4Mg2SnCSn2CSnTe4Mg2
_chemical_formula_sum              "H12 C84 O24 Sn96 Te96 Mg48"
_cell_length_a       41.2066
_cell_length_b       41.6606
_cell_length_c       8.09123
_cell_angle_alpha    90.5662
_cell_angle_beta     89.7815
_cell_angle_gamma    120.184

_symmetry_space_group_name_H-M    'P1'
_space_group_IT_number       1

loop_
  _space_group_symop_operation_xyz
  'x, y, z'

loop_
  _atom_site_type_symbol
  _atom_site_label
  _atom_site_symmetry_multiplicity
  _atom_site_fract_x
  _atom_site_fract_y
  _atom_site_fract_z
  _atom_site_occupancy
  H   H1        1.0  0.70607  0.30322  0.25252  1.0000
  H   H2        1.0  0.70036  0.40336  0.24527  1.0000
  H   H3        1.0  0.59897  0.29727  0.24560  1.0000
  H   H4        1.0  0.29772  0.69953  0.25693  1.0000
  H   H5        1.0  0.30618  0.60094  0.25921  1.0000
  H   H6        1.0  0.40606  0.70844  0.27447  1.0000
  H   H7        1.0  0.70234  0.30111  0.75227  1.0000
  H   H8        1.0  0.69465  0.40010  0.74132  1.0000
  H   H9        1.0  0.59436  0.29295  0.73080  1.0000
  H   H10       1.0  0.29384  0.69615  0.75625  1.0000
  H   H11       1.0  0.30087  0.59669  0.75616  1.0000
  H   H12       1.0  0.40155  0.70337  0.75724  1.0000
  C   C1        1.0  0.65028  0.29549  0.25296  1.0000
  C   C2        1.0  0.70813  0.35594  0.25293  1.0000
  C   C3        1.0  0.64706  0.35253  0.24892  1.0000
  C   C4        1.0  0.35400  0.70868  0.26164  1.0000
  C   C5        1.0  0.29714  0.64753  0.25336  1.0000
  C   C6        1.0  0.35890  0.65248  0.26356  1.0000
  C   C7        1.0  0.68958  0.31699  0.25566  1.0000
  C   C8        1.0  0.68643  0.37326  0.25195  1.0000
  C   C9        1.0  0.62943  0.31369  0.25201  1.0000
  C   C10       1.0  0.31482  0.68641  0.25446  1.0000
  C   C11       1.0  0.31958  0.63104  0.25596  1.0000
  C   C12       1.0  0.37570  0.69132  0.26448  1.0000
  C   C13       1.0  0.58553  0.46196  0.03493  1.0000
  C   C14       1.0  0.53582  0.12227  0.06275  1.0000
  C   C15       1.0  0.88221  0.41780  0.05716  1.0000
  C   C16       1.0  0.42134  0.54215  0.45510  1.0000
  C   C17       1.0  0.46138  0.88133  0.46161  1.0000
  C   C18       1.0  0.12155  0.58336  0.42846  1.0000
  C   C19       1.0  0.64620  0.29232  0.74637  1.0000
  C   C20       1.0  0.70342  0.35334  0.75142  1.0000
  C   C21       1.0  0.64183  0.34877  0.73881  1.0000
  C   C22       1.0  0.34995  0.70464  0.75423  1.0000
  C   C23       1.0  0.29242  0.64377  0.75239  1.0000
  C   C24       1.0  0.35383  0.64791  0.75226  1.0000
  C   C25       1.0  0.68542  0.31442  0.75333  1.0000
  C   C26       1.0  0.68116  0.37001  0.74681  1.0000
  C   C27       1.0  0.62474  0.30991  0.74104  1.0000
  C   C28       1.0  0.31065  0.68274  0.75175  1.0000
  C   C29       1.0  0.31445  0.62680  0.75097  1.0000
  C   C30       1.0  0.37109  0.68673  0.75192  1.0000
  C   C31       1.0  0.57964  0.45890  0.53275  1.0000
  C   C32       1.0  0.53735  0.11912  0.54607  1.0000
  C   C33       1.0  0.87851  0.41632  0.56778  1.0000
  C   C34       1.0  0.41505  0.53806  0.95164  1.0000
  C   C35       1.0  0.46195  0.87686  0.95544  1.0000
  C   C36       1.0  0.11805  0.58124  0.94122  1.0000
  O   O1        1.0  0.61945  0.48250  0.04393  1.0000
  O   O2        1.0  0.51389  0.13315  0.09185  1.0000
  O   O3        1.0  0.86994  0.38459  0.07328  1.0000
  O   O4        1.0  0.38782  0.52090  0.43437  1.0000
  O   O5        1.0  0.48250  0.86882  0.45270  1.0000
  O   O6        1.0  0.13293  0.61634  0.40886  1.0000
  O   O7        1.0  0.56658  0.42578  0.09130  1.0000
  O   O8        1.0  0.57338  0.14117  0.10732  1.0000
  O   O9        1.0  0.86445  0.43635  0.11601  1.0000
  O   O10       1.0  0.44000  0.57898  0.40834  1.0000
  O   O11       1.0  0.42510  0.86335  0.40060  1.0000
  O   O12       1.0  0.14036  0.56539  0.37528  1.0000
  O   O13       1.0  0.61325  0.48035  0.55019  1.0000
  O   O14       1.0  0.51516  0.13006  0.56674  1.0000
  O   O15       1.0  0.86718  0.38345  0.59088  1.0000
  O   O16       1.0  0.38128  0.51758  0.93428  1.0000
  O   O17       1.0  0.48241  0.86357  0.94960  1.0000
  O   O18       1.0  0.13035  0.61446  0.92533  1.0000
  O   O19       1.0  0.56127  0.42218  0.58168  1.0000
  O   O20       1.0  0.57434  0.13801  0.59918  1.0000
  O   O21       1.0  0.85965  0.43445  0.61722  1.0000
  O   O22       1.0  0.43461  0.57454  0.89936  1.0000
  O   O23       1.0  0.42585  0.85963  0.89204  1.0000
  O   O24       1.0  0.13595  0.56270  0.88429  1.0000
  C  Sn1       1.0  0.57221  0.20322  0.23454  1.0000
  C   C37       1.0  0.58391  0.18269  0.13953  1.0000
  C  Sn2       1.0  0.62178  0.19758  0.09957  1.0000
  C  Sn3       1.0  0.64853  0.23373  0.15581  1.0000
  C   C38       1.0  0.63683  0.25424  0.25078  1.0000
  C  Sn4       1.0  0.59896  0.23938  0.29079  1.0000
  O  Te1       1.0  0.53421  0.18779  0.27302  1.0000
  O  Te2       1.0  0.63279  0.17653  0.00438  1.0000
  O  Te3       1.0  0.68655  0.24916  0.11724  1.0000
  O  Te4       1.0  0.58795  0.26040  0.38594  1.0000
  Mg  Mg1       1.0  0.68806  0.21171  0.98431  1.0000
  Mg  Mg2       1.0  0.53299  0.22732  0.40614  1.0000
  C  Sn5       1.0  0.77184  0.41009  0.08506  1.0000
  C   C39       1.0  0.75142  0.37847  0.18154  1.0000
  C  Sn6       1.0  0.76991  0.36697  0.28937  1.0000
  C  Sn7       1.0  0.80963  0.38751  0.30110  1.0000
  C   C40       1.0  0.83003  0.41911  0.20468  1.0000
  C  Sn8       1.0  0.81156  0.43063  0.09679  1.0000
  O  Te5       1.0  0.75308  0.42315  0.97811  1.0000
  O  Te6       1.0  0.74889  0.33527  0.38453  1.0000
  O  Te7       1.0  0.82869  0.37650  0.40816  1.0000
  O  Te8       1.0  0.83256  0.46231  0.00169  1.0000
  Mg  Mg3       1.0  0.78769  0.33144  0.51219  1.0000
  Mg  Mg4       1.0  0.79410  0.46825  0.87407  1.0000
  C  Sn9       1.0  0.56879  0.36211  0.12933  1.0000
  C   C41       1.0  0.57772  0.39804  0.17571  1.0000
  C  Sn10      1.0  0.61318  0.42300  0.23962  1.0000
  C  Sn11      1.0  0.64030  0.41183  0.25745  1.0000
  C   C42       1.0  0.63137  0.37592  0.21106  1.0000
  C  Sn12      1.0  0.59591  0.35094  0.14716  1.0000
  O  Te9       1.0  0.53317  0.33761  0.06571  1.0000
  O  Te10      1.0  0.62144  0.45877  0.28519  1.0000
  O  Te11      1.0  0.67594  0.43636  0.32113  1.0000
  O  Te12      1.0  0.58765  0.31519  0.10158  1.0000
  Mg  Mg5       1.0  0.67385  0.48209  0.36565  1.0000
  Mg  Mg6       1.0  0.53526  0.29186  0.02104  1.0000
  C  Sn13      1.0  0.41994  0.80585  0.19953  1.0000
  C   C43       1.0  0.40778  0.82505  0.30109  1.0000
  C  Sn14      1.0  0.37773  0.80577  0.40937  1.0000
  C  Sn15      1.0  0.35948  0.76648  0.41638  1.0000
  C   C44       1.0  0.37165  0.74730  0.31489  1.0000
  C  Sn16      1.0  0.40169  0.76656  0.20655  1.0000
  O  Te13      1.0  0.45004  0.82570  0.09222  1.0000
  O  Te14      1.0  0.36607  0.82557  0.50964  1.0000
  O  Te15      1.0  0.32936  0.74664  0.52380  1.0000
  O  Te16      1.0  0.41336  0.74678  0.10634  1.0000
  Mg  Mg7       1.0  0.32380  0.78606  0.63569  1.0000
  Mg  Mg8       1.0  0.45594  0.78833  0.98031  1.0000
  C  Sn17      1.0  0.19959  0.61715  0.17734  1.0000
  C   C45       1.0  0.17915  0.58585  0.27565  1.0000
  C  Sn18      1.0  0.19759  0.57481  0.38599  1.0000
  C  Sn19      1.0  0.23730  0.59549  0.39841  1.0000
  C   C46       1.0  0.25772  0.62677  0.30017  1.0000
  C  Sn20      1.0  0.23930  0.63783  0.18977  1.0000
  O  Te17      1.0  0.18056  0.62768  0.06789  1.0000
  O  Te18      1.0  0.17655  0.54342  0.48294  1.0000
  O  Te19      1.0  0.25632  0.58493  0.50798  1.0000
  O  Te20      1.0  0.26032  0.66920  0.09288  1.0000
  Mg  Mg9       1.0  0.21530  0.54018  0.61376  1.0000
  Mg  Mg10      1.0  0.22191  0.67455  0.96209  1.0000
  C  Sn21      1.0  0.42660  0.65334  0.35384  1.0000
  C   C47       1.0  0.39357  0.64078  0.26282  1.0000
  C  Sn22      1.0  0.37083  0.60304  0.22579  1.0000
  C  Sn23      1.0  0.38131  0.57731  0.28098  1.0000
  C   C48       1.0  0.41432  0.58987  0.37197  1.0000
  C  Sn24      1.0  0.43709  0.62761  0.40903  1.0000
  O  Te21      1.0  0.44891  0.69120  0.38944  1.0000
  O  Te22      1.0  0.33794  0.59115  0.13456  1.0000
  O  Te23      1.0  0.35897  0.53943  0.24530  1.0000
  O  Te24      1.0  0.46995  0.63950  0.50023  1.0000
  Mg  Mg11      1.0  0.31683  0.53678  0.11736  1.0000
  Mg  Mg12      1.0  0.49107  0.69386  0.51757  1.0000
  C  Sn25      1.0  0.49335  0.45080  0.38513  1.0000
  C   C49       1.0  0.50336  0.48654  0.33379  1.0000
  C  Sn26      1.0  0.54104  0.51454  0.33021  1.0000
  C  Sn27      1.0  0.56931  0.50665  0.37886  1.0000
  C   C50       1.0  0.55930  0.47093  0.43013  1.0000
  C  Sn28      1.0  0.52163  0.44291  0.43378  1.0000
  O  Te25      1.0  0.45551  0.42324  0.38772  1.0000
  O  Te26      1.0  0.55035  0.55006  0.27847  1.0000
  O  Te27      1.0  0.60718  0.53425  0.37623  1.0000
  O  Te28      1.0  0.51231  0.40741  0.48545  1.0000
  Mg  Mg13      1.0  0.60579  0.57828  0.29617  1.0000
  Mg  Mg14      1.0  0.45689  0.37916  0.46772  1.0000
  C  Sn29      1.0  0.48422  0.04768  0.43809  1.0000
  C   C51       1.0  0.52034  0.07517  0.48501  1.0000
  C  Sn30      1.0  0.55181  0.07582  0.41620  1.0000
  C  Sn31      1.0  0.54707  0.04843  0.29794  1.0000
  C   C52       1.0  0.51096  0.02096  0.25106  1.0000
  C  Sn32      1.0  0.47948  0.02029  0.31983  1.0000
  O  Te29      1.0  0.45317  0.04757  0.50848  1.0000
  O  Te30      1.0  0.58764  0.10357  0.46509  1.0000
  O  Te31      1.0  0.57816  0.04855  0.22757  1.0000
  O  Te32      1.0  0.95198  0.99256  0.27098  1.0000
  Mg  Mg15      1.0  0.62121  0.09202  0.33392  1.0000
  Mg  Mg16      1.0  0.41008  0.00409  0.40200  1.0000
  C  Sn33      1.0  0.95500  0.43961  0.30284  1.0000
  C   C53       1.0  0.97186  0.47745  0.26804  1.0000
  C  Sn34      1.0  0.96129  0.49991  0.35471  1.0000
  C  Sn35      1.0  0.93331  0.48423  0.47883  1.0000
  C   C54       1.0  0.91647  0.44642  0.51361  1.0000
  C  Sn36      1.0  0.92702  0.42393  0.42697  1.0000
  O  Te33      1.0  0.96599  0.41767  0.21466  1.0000
  O  Te34      1.0  0.97854  0.53766  0.31767  1.0000
  O  Te35      1.0  0.92232  0.50620  0.56702  1.0000
  O  Te36      1.0  0.90979  0.38620  0.46397  1.0000
  Mg  Mg17      1.0  0.95401  0.55612  0.47174  1.0000
  Mg  Mg18      1.0  0.93431  0.36772  0.31005  1.0000
  C  Sn37      1.0  0.49851  0.54803  0.13907  1.0000
  C   C55       1.0  0.48686  0.51459  0.22086  1.0000
  C  Sn38      1.0  0.45035  0.48482  0.19995  1.0000
  C  Sn39      1.0  0.42497  0.48855  0.09503  1.0000
  C   C56       1.0  0.43663  0.52198  0.01329  1.0000
  C  Sn40      1.0  0.47313  0.55177  0.03414  1.0000
  O  Te37      1.0  0.53514  0.57743  0.16178  1.0000
  O  Te38      1.0  0.43934  0.45166  0.28307  1.0000
  O  Te39      1.0  0.38832  0.45913  0.07237  1.0000
  O  Te40      1.0  0.48445  0.58698  0.95107  1.0000
  Mg  Mg19      1.0  0.38653  0.41956  0.21223  1.0000
  Mg  Mg20      1.0  0.53695  0.61702  0.02175  1.0000
  C  Sn41      1.0  0.50475  0.93250  0.18647  1.0000
  C   C57       1.0  0.47334  0.91187  0.08582  1.0000
  C  Sn42      1.0  0.45318  0.92791  0.02443  1.0000
  C  Sn43      1.0  0.46467  0.96536  0.06439  1.0000
  C   C58       1.0  0.49606  0.98597  0.16497  1.0000
  C  Sn44      1.0  0.51624  0.96995  0.22644  1.0000
  O  Te41      1.0  0.52449  0.91590  0.24646  1.0000
  O  Te42      1.0  0.42216  0.90879  0.92407  1.0000
  O  Te43      1.0  0.44490  0.98195  0.00431  1.0000
  O  Te44      1.0  0.54754  0.99112  0.32671  1.0000
  Mg  Mg21      1.0  0.40445  0.94380  0.87229  1.0000
  Mg  Mg22      1.0  0.56529  0.95615  0.37848  1.0000
  C  Sn45      1.0  0.05880  0.57059  0.14753  1.0000
  C   C59       1.0  0.08371  0.56057  0.07944  1.0000
  C  Sn46      1.0  0.07300  0.52317  0.05988  1.0000
  C  Sn47      1.0  0.03664  0.49521  0.10930  1.0000
  C   C60       1.0  0.01176  0.50524  0.17732  1.0000
  C  Sn48      1.0  0.02244  0.54263  0.19696  1.0000
  O  Te45      1.0  0.07010  0.60815  0.16593  1.0000
  O  Te46      1.0  0.09869  0.51590  0.99155  1.0000
  O  Te47      1.0  0.02535  0.45763  0.09085  1.0000
  O  Te48      1.0  0.99707  0.55198  0.26521  1.0000
  Mg  Mg23      1.0  0.07023  0.46093  0.99147  1.0000
  Mg  Mg24      1.0  0.02550  0.60694  0.26527  1.0000
  C  Sn49      1.0  0.63934  0.23017  0.57634  1.0000
  C   C61       1.0  0.62686  0.24952  0.67504  1.0000
  C  Sn50      1.0  0.59649  0.23041  0.78190  1.0000
  C  Sn51      1.0  0.57822  0.19114  0.79039  1.0000
  C   C62       1.0  0.59070  0.17181  0.69176  1.0000
  C  Sn52      1.0  0.62107  0.19089  0.58482  1.0000
  O  Te49      1.0  0.66976  0.24984  0.47040  1.0000
  O  Te50      1.0  0.58452  0.25036  0.87932  1.0000
  O  Te51      1.0  0.54778  0.17147  0.89644  1.0000
  O  Te52      1.0  0.63305  0.17096  0.48747  1.0000
  Mg  Mg25      1.0  0.54157  0.20899  0.00443  1.0000
  Mg  Mg26      1.0  0.67570  0.21023  0.36239  1.0000
  C  Sn53      1.0  0.79272  0.43166  0.64867  1.0000
  C   C63       1.0  0.81980  0.42303  0.69957  1.0000
  C  Sn54      1.0  0.80902  0.38790  0.76163  1.0000
  C  Sn55      1.0  0.77038  0.36080  0.77296  1.0000
  C   C64       1.0  0.74333  0.36943  0.72205  1.0000
  C  Sn56      1.0  0.75408  0.40456  0.65999  1.0000
  O  Te53      1.0  0.80413  0.46696  0.58701  1.0000
  O  Te54      1.0  0.83660  0.37993  0.81181  1.0000
  O  Te55      1.0  0.75898  0.32548  0.83469  1.0000
  O  Te56      1.0  0.72652  0.41253  0.60981  1.0000
  Mg  Mg27      1.0  0.80704  0.32790  0.88725  1.0000
  Mg  Mg28      1.0  0.75605  0.46454  0.53428  1.0000
  C  Sn57      1.0  0.62582  0.42491  0.70871  1.0000
  C   C65       1.0  0.59381  0.41262  0.61059  1.0000
  C  Sn58      1.0  0.57119  0.37492  0.57247  1.0000
  C  Sn59      1.0  0.58075  0.34896  0.63378  1.0000
  C   C66       1.0  0.61274  0.36125  0.73186  1.0000
  C  Sn60      1.0  0.63538  0.39895  0.77002  1.0000
  O  Te57      1.0  0.64802  0.46273  0.74527  1.0000
  O  Te58      1.0  0.53933  0.36330  0.47410  1.0000
  O  Te59      1.0  0.55851  0.31111  0.59713  1.0000
  O  Te60      1.0  0.66721  0.41057  0.86835  1.0000
  Mg  Mg29      1.0  0.51795  0.30887  0.45840  1.0000
  Mg  Mg30      1.0  0.68860  0.46499  0.88420  1.0000
  C  Sn61      1.0  0.36997  0.78979  0.94386  1.0000
  C   C67       1.0  0.40543  0.81664  0.88786  1.0000
  C  Sn62      1.0  0.42239  0.80873  0.75616  1.0000
  C  Sn63      1.0  0.40350  0.77325  0.67874  1.0000
  C   C68       1.0  0.36806  0.74642  0.73471  1.0000
  C  Sn64      1.0  0.35108  0.75431  0.86643  1.0000
  O  Te61      1.0  0.35325  0.79624  0.07571  1.0000
  O  Te62      1.0  0.45786  0.83601  0.70240  1.0000
  O  Te63      1.0  0.41995  0.76475  0.54679  1.0000
  O  Te64      1.0  0.31563  0.72705  0.92018  1.0000
  Mg  Mg31      1.0  0.46862  0.81113  0.51819  1.0000
  Mg  Mg32      1.0  0.30453  0.74984  0.10431  1.0000
  C  Sn65      1.0  0.22519  0.57669  0.83676  1.0000
  C   C69       1.0  0.24588  0.60943  0.74759  1.0000
  C  Sn66      1.0  0.23028  0.63143  0.70889  1.0000
  C  Sn67      1.0  0.19324  0.62051  0.76048  1.0000
  C   C70       1.0  0.17257  0.58779  0.84962  1.0000
  C  Sn68      1.0  0.18814  0.56576  0.88835  1.0000
  O  Te65      1.0  0.24134  0.55512  0.87407  1.0000
  O  Te66      1.0  0.25151  0.66404  0.61958  1.0000
  O  Te67      1.0  0.17709  0.64211  0.72308  1.0000
  O  Te68      1.0  0.16694  0.53318  0.97763  1.0000
  Mg  Mg33      1.0  0.21720  0.68411  0.59887  1.0000
  Mg  Mg34      1.0  0.20123  0.51310  0.99848  1.0000
  C  Sn69      1.0  0.42150  0.64907  0.84336  1.0000
  C   C71       1.0  0.38895  0.63662  0.74884  1.0000
  C  Sn70      1.0  0.36665  0.59898  0.70878  1.0000
  C  Sn71      1.0  0.37709  0.57325  0.76444  1.0000
  C   C72       1.0  0.40962  0.58571  0.85892  1.0000
  C  Sn72      1.0  0.43193  0.62334  0.89902  1.0000
  O  Te69      1.0  0.44336  0.68682  0.88195  1.0000
  O  Te70      1.0  0.33425  0.58719  0.61408  1.0000
  O  Te71      1.0  0.35519  0.53548  0.72576  1.0000
  O  Te72      1.0  0.46432  0.63513  0.99368  1.0000
  Mg  Mg35      1.0  0.31363  0.53295  0.59365  1.0000
  Mg  Mg36      1.0  0.48464  0.68730  0.01426  1.0000
  C  Sn73      1.0  0.56887  0.51650  0.93891  1.0000
  C   C73       1.0  0.55917  0.48054  0.98529  1.0000
  C  Sn74      1.0  0.52696  0.44989  0.92099  1.0000
  C  Sn75      1.0  0.50395  0.45529  0.80788  1.0000
  C   C74       1.0  0.51365  0.49123  0.76153  1.0000
  C  Sn76      1.0  0.54587  0.52190  0.82580  1.0000
  O  Te73      1.0  0.60090  0.54466  0.00474  1.0000
  O  Te74      1.0  0.51784  0.41421  0.96924  1.0000
  O  Te75      1.0  0.47160  0.42502  0.74206  1.0000
  O  Te76      1.0  0.55499  0.55757  0.77758  1.0000
  Mg  Mg37      1.0  0.47097  0.38185  0.84549  1.0000
  Mg  Mg38      1.0  0.60186  0.58994  0.90119  1.0000
  C  Sn77      1.0  0.55465  0.07697  0.86239  1.0000
  C   C75       1.0  0.53196  0.09032  0.92494  1.0000
  C  Sn78      1.0  0.49310  0.06694  0.93504  1.0000
  C  Sn79      1.0  0.47658  0.02943  0.88160  1.0000
  C   C76       1.0  0.49926  0.01610  0.81912  1.0000
  C  Sn80      1.0  0.53812  0.03946  0.80895  1.0000
  O  Te77      1.0  0.59343  0.10084  0.85344  1.0000
  O  Te78      1.0  0.47100  0.08092  0.99796  1.0000
  O  Te79      1.0  0.43777  0.00556  0.89059  1.0000
  O  Te80      1.0  0.56022  0.02549  0.74610  1.0000
  Mg  Mg39      1.0  0.41950  0.03756  0.98550  1.0000
  Mg  Mg40      1.0  0.61172  0.06882  0.75858  1.0000
  C  Sn81      1.0  0.96162  0.50295  0.92144  1.0000
  C   C77       1.0  0.98553  0.49261  0.84521  1.0000
  C  Sn82      1.0  0.97351  0.45519  0.81532  1.0000
  C  Sn83      1.0  0.93683  0.42753  0.86250  1.0000
  C   C78       1.0  0.91294  0.43786  0.93865  1.0000
  C  Sn84      1.0  0.92493  0.47528  0.96862  1.0000
  O  Te81      1.0  0.97422  0.54052  0.95011  1.0000
  O  Te82      1.0  0.99792  0.44554  0.73899  1.0000
  O  Te83      1.0  0.92424  0.38993  0.83376  1.0000
  O  Te84      1.0  0.90024  0.48287  0.04488  1.0000
  Mg  Mg41      1.0  0.96783  0.39067  0.72617  1.0000
  Mg  Mg42      1.0  0.93029  0.53773  0.05767  1.0000
  C  Sn85      1.0  0.50421  0.55229  0.65145  1.0000
  C   C79       1.0  0.49270  0.51795  0.72443  1.0000
  C  Sn86      1.0  0.45694  0.48777  0.69285  1.0000
  C  Sn87      1.0  0.43216  0.49199  0.58601  1.0000
  C   C80       1.0  0.44366  0.52632  0.51308  1.0000
  C  Sn88      1.0  0.47942  0.55652  0.54462  1.0000
  O  Te85      1.0  0.54009  0.58208  0.68477  1.0000
  O  Te86      1.0  0.44607  0.45371  0.76728  1.0000
  O  Te87      1.0  0.39625  0.46217  0.55274  1.0000
  O  Te88      1.0  0.49030  0.59055  0.47023  1.0000
  Mg  Mg43      1.0  0.39438  0.42136  0.68347  1.0000
  Mg  Mg44      1.0  0.54199  0.62291  0.55388  1.0000
  C  Sn89      1.0  0.52082  0.96774  0.65756  1.0000
  C   C81       1.0  0.50108  0.98685  0.66847  1.0000
  C  Sn90      1.0  0.46320  0.96933  0.62427  1.0000
  C  Sn91      1.0  0.44464  0.93191  0.56808  1.0000
  C   C82       1.0  0.46437  0.91281  0.55722  1.0000
  C  Sn92      1.0  0.50226  0.93032  0.60137  1.0000
  O  Te89      1.0  0.55868  0.98580  0.70241  1.0000
  O  Te90      1.0  0.44406  0.98902  0.63617  1.0000
  O  Te91      1.0  0.40675  0.91386  0.52322  1.0000
  O  Te92      1.0  0.52139  0.91065  0.58952  1.0000
  Mg  Mg45      1.0  0.39274  0.95235  0.56087  1.0000
  Mg  Mg46      1.0  0.57270  0.94728  0.66486  1.0000
  C  Sn93      1.0  0.06158  0.57224  0.63123  1.0000
  C   C83       1.0  0.08731  0.56284  0.56750  1.0000
  C  Sn94      1.0  0.07770  0.52565  0.55291  1.0000
  C  Sn95      1.0  0.04161  0.49725  0.60297  1.0000
  C   C84       1.0  0.01589  0.50665  0.66663  1.0000
  C  Sn96      1.0  0.02548  0.54384  0.68129  1.0000
  O  Te93      1.0  0.07179  0.60960  0.64469  1.0000
  O  Te94      1.0  0.10391  0.51694  0.48888  1.0000
  O  Te95      1.0  0.03141  0.45987  0.58945  1.0000
  O  Te96      1.0  0.99929  0.55255  0.74525  1.0000
  Mg  Mg47      1.0  0.07681  0.46200  0.49472  1.0000
  Mg  Mg48      1.0  0.02636  0.60748  0.73938  1.0000
