data_image0
_chemical_formula_structural       H84C120O24SnCSn2CSnTe4Mg2SnCSn2CSnTe4Mg2SnCSn2CSnTe4Mg2SnCSn2CSnTe4Mg2SnCSn2CSnTe4Mg2SnCSn2CSnTe4Mg2SnCSn2CSnTe4Mg2SnCSn2CSnTe4Mg2SnCSn2CSnTe4Mg2SnCSn2CSnTe4Mg2SnCSn2CSnTe4Mg2SnCSn2CSnTe4Mg2SnCSn2CSnTe4Mg2SnCSn2CSnTe4Mg2SnCSn2CSnTe4Mg2SnCSn2CSnTe4Mg2SnCSn2CSnTe4Mg2SnCSn2CSnTe4Mg2SnCSn2CSnTe4Mg2SnCSn2CSnTe4Mg2SnCSn2CSnTe4Mg2SnCSn2CSnTe4Mg2SnCSn2CSnTe4Mg2SnCSn2CSnTe4Mg2SnCSn2CSnTe4Mg2SnCSn2CSnTe4Mg2SnCSn2CSnTe4Mg2SnCSn2CSnTe4Mg2SnCSn2CSnTe4Mg2SnCSn2CSnTe4Mg2SnCSn2CSnTe4Mg2SnCSn2CSnTe4Mg2SnCSn2CSnTe4Mg2SnCSn2CSnTe4Mg2SnCSn2CSnTe4Mg2SnCSn2CSnTe4Mg2
_chemical_formula_sum              "H84 C192 O24 Sn144 Te144 Mg72"
_cell_length_a       68.0387
_cell_length_b       68.372
_cell_length_c       7.99524
_cell_angle_alpha    92.3175
_cell_angle_beta     89.3811
_cell_angle_gamma    120.331

_symmetry_space_group_name_H-M    'P1'
_space_group_IT_number       1

loop_
  _space_group_symop_operation_xyz
  'x, y, z'

loop_
  _atom_site_type_symbol
  _atom_site_label
  _atom_site_symmetry_multiplicity
  _atom_site_fract_x
  _atom_site_fract_y
  _atom_site_fract_z
  _atom_site_occupancy
  H   H1        1.0  0.30122  0.67484  0.47451  1.0000
  H   H2        1.0  0.32783  0.62966  0.47019  1.0000
  H   H3        1.0  0.37351  0.70160  0.48112  1.0000
  H   H4        1.0  0.69921  0.32700  0.02278  1.0000
  H   H5        1.0  0.67297  0.37242  0.01852  1.0000
  H   H6        1.0  0.62703  0.30049  0.01049  1.0000
  H   H7        1.0  0.46584  0.49860  0.24403  1.0000
  H   H8        1.0  0.50597  0.96925  0.24188  1.0000
  H   H9        1.0  0.03497  0.53281  0.23814  1.0000
  H   H10       1.0  0.53493  0.49968  0.32510  1.0000
  H   H11       1.0  0.50427  0.03671  0.30594  1.0000
  H   H12       1.0  0.96656  0.46241  0.27015  1.0000
  H   H13       1.0  0.53633  0.52851  0.38784  1.0000
  H   H14       1.0  0.47465  0.00953  0.34192  1.0000
  H   H15       1.0  0.99227  0.46437  0.39312  1.0000
  H   H16       1.0  0.46883  0.47605  0.10447  1.0000
  H   H17       1.0  0.52708  0.99326  0.08580  1.0000
  H   H18       1.0  0.00869  0.53251  0.15108  1.0000
  H   H19       1.0  0.46625  0.53258  0.35602  1.0000
  H   H20       1.0  0.47203  0.93630  0.34785  1.0000
  H   H21       1.0  0.06804  0.53236  0.34834  1.0000
  H   H22       1.0  0.53395  0.46555  0.20983  1.0000
  H   H23       1.0  0.53808  0.06947  0.19654  1.0000
  H   H24       1.0  0.93383  0.46254  0.14885  1.0000
  H   H25       1.0  0.55502  0.57889  0.43494  1.0000
  H   H26       1.0  0.42457  0.97783  0.38896  1.0000
  H   H27       1.0  0.02263  0.44447  0.42180  1.0000
  H   H28       1.0  0.44759  0.42416  0.06402  1.0000
  H   H29       1.0  0.57908  0.02415  0.05411  1.0000
  H   H30       1.0  0.98042  0.55215  0.10596  1.0000
  H   H31       1.0  0.55833  0.56522  0.96901  1.0000
  H   H32       1.0  0.43565  0.99102  0.02013  1.0000
  H   H33       1.0  0.00513  0.45478  0.06824  1.0000
  H   H34       1.0  0.45290  0.44372  0.40451  1.0000
  H   H35       1.0  0.57431  0.02545  0.56573  1.0000
  H   H36       1.0  0.99151  0.55223  0.42574  1.0000
  H   H37       1.0  0.54212  0.56199  0.15191  1.0000
  H   H38       1.0  0.42378  0.96379  0.10630  1.0000
  H   H39       1.0  0.03474  0.46592  0.09830  1.0000
  H   H40       1.0  0.46395  0.42510  0.38555  1.0000
  H   H41       1.0  0.55242  0.00785  0.41984  1.0000
  H   H42       1.0  0.96169  0.54166  0.42142  1.0000
  H   H43       1.0  0.29954  0.66966  0.97297  1.0000
  H   H44       1.0  0.32587  0.62440  0.98027  1.0000
  H   H45       1.0  0.37174  0.69629  0.97118  1.0000
  H   H46       1.0  0.69846  0.32764  0.51689  1.0000
  H   H47       1.0  0.67197  0.37284  0.52156  1.0000
  H   H48       1.0  0.62624  0.30085  0.52355  1.0000
  H   H49       1.0  0.46510  0.49771  0.75061  1.0000
  H   H50       1.0  0.50312  0.96884  0.77471  1.0000
  H   H51       1.0  0.03459  0.53713  0.70328  1.0000
  H   H52       1.0  0.53408  0.49862  0.82257  1.0000
  H   H53       1.0  0.49772  0.03434  0.83310  1.0000
  H   H54       1.0  0.96632  0.46681  0.72924  1.0000
  H   H55       1.0  0.53639  0.52781  0.86924  1.0000
  H   H56       1.0  0.46765  0.00546  0.85742  1.0000
  H   H57       1.0  0.99072  0.46953  0.87023  1.0000
  H   H58       1.0  0.46812  0.47512  0.60058  1.0000
  H   H59       1.0  0.52265  0.99274  0.61171  1.0000
  H   H60       1.0  0.00748  0.53768  0.63002  1.0000
  H   H61       1.0  0.46666  0.53265  0.85567  1.0000
  H   H62       1.0  0.46954  0.93448  0.86941  1.0000
  H   H63       1.0  0.06712  0.53664  0.82503  1.0000
  H   H64       1.0  0.53314  0.46446  0.70819  1.0000
  H   H65       1.0  0.53046  0.06773  0.71947  1.0000
  H   H66       1.0  0.93305  0.46710  0.62093  1.0000
  H   H67       1.0  0.54689  0.58324  0.01134  1.0000
  H   H68       1.0  0.41514  0.96655  0.90522  1.0000
  H   H69       1.0  0.02086  0.44915  0.91498  1.0000
  H   H70       1.0  0.44663  0.42339  0.55805  1.0000
  H   H71       1.0  0.56936  0.03738  0.38906  1.0000
  H   H72       1.0  0.97806  0.55679  0.60175  1.0000
  H   H73       1.0  0.55162  0.55967  0.59039  1.0000
  H   H74       1.0  0.44456  0.99594  0.54403  1.0000
  H   H75       1.0  0.00784  0.44956  0.58565  1.0000
  H   H76       1.0  0.45298  0.44474  0.91473  1.0000
  H   H77       1.0  0.55821  0.00835  0.89716  1.0000
  H   H78       1.0  0.99352  0.54610  0.93456  1.0000
  H   H79       1.0  0.53958  0.57732  0.61872  1.0000
  H   H80       1.0  0.42711  0.96653  0.57787  1.0000
  H   H81       1.0  0.03768  0.46066  0.60330  1.0000
  H   H82       1.0  0.46429  0.42645  0.88614  1.0000
  H   H83       1.0  0.57666  0.03801  0.87982  1.0000
  H   H84       1.0  0.96397  0.53634  0.92708  1.0000
  C   C1        1.0  0.33778  0.69098  0.47568  1.0000
  C   C2        1.0  0.31166  0.64984  0.46933  1.0000
  C   C3        1.0  0.35292  0.66519  0.47382  1.0000
  C   C4        1.0  0.66268  0.31098  0.01900  1.0000
  C   C5        1.0  0.68893  0.35207  0.02269  1.0000
  C   C6        1.0  0.64773  0.33688  0.01683  1.0000
  C   C7        1.0  0.31564  0.67211  0.47164  1.0000
  C   C8        1.0  0.33053  0.64674  0.46920  1.0000
  C   C9        1.0  0.35624  0.68718  0.47565  1.0000
  C   C10       1.0  0.68483  0.32978  0.02302  1.0000
  C   C11       1.0  0.67015  0.35530  0.02096  1.0000
  C   C12       1.0  0.64431  0.31487  0.01636  1.0000
  C   C13       1.0  0.50606  0.36994  0.42636  1.0000
  C   C14       1.0  0.62365  0.13596  0.43569  1.0000
  C   C15       1.0  0.86260  0.49228  0.44212  1.0000
  C   C16       1.0  0.49262  0.62849  0.06009  1.0000
  C   C17       1.0  0.37315  0.86091  0.04496  1.0000
  C   C18       1.0  0.13386  0.50939  0.07373  1.0000
  C   C19       1.0  0.50152  0.55048  0.43118  1.0000
  C   C20       1.0  0.45366  0.95368  0.40511  1.0000
  C   C21       1.0  0.04968  0.49782  0.42271  1.0000
  C   C22       1.0  0.50028  0.45025  0.10404  1.0000
  C   C23       1.0  0.55307  0.05066  0.09269  1.0000
  C   C24       1.0  0.95195  0.49764  0.08677  1.0000
  C   C25       1.0  0.48174  0.53168  0.36217  1.0000
  C   C26       1.0  0.47266  0.95250  0.34683  1.0000
  C   C27       1.0  0.05130  0.51730  0.35613  1.0000
  C   C28       1.0  0.51947  0.46781  0.18898  1.0000
  C   C29       1.0  0.53570  0.05263  0.17421  1.0000
  C   C30       1.0  0.95037  0.47801  0.15053  1.0000
  C   C31       1.0  0.48157  0.51245  0.29775  1.0000
  C   C32       1.0  0.49178  0.97112  0.28465  1.0000
  C   C33       1.0  0.03246  0.51753  0.29438  1.0000
  C   C34       1.0  0.52008  0.48730  0.25284  1.0000
  C   C35       1.0  0.51640  0.03402  0.23407  1.0000
  C   C36       1.0  0.96896  0.47799  0.21998  1.0000
  C   C37       1.0  0.50140  0.51089  0.30007  1.0000
  C   C38       1.0  0.49285  0.99214  0.27605  1.0000
  C   C39       1.0  0.01061  0.49819  0.30019  1.0000
  C   C40       1.0  0.50153  0.49063  0.22884  1.0000
  C   C41       1.0  0.51297  0.01205  0.20802  1.0000
  C   C42       1.0  0.99055  0.49781  0.22689  1.0000
  C   C43       1.0  0.52080  0.52924  0.37720  1.0000
  C   C44       1.0  0.47426  0.99345  0.34130  1.0000
  C   C45       1.0  0.00894  0.47929  0.37717  1.0000
  C   C46       1.0  0.48296  0.47361  0.13519  1.0000
  C   C47       1.0  0.52971  0.01005  0.11692  1.0000
  C   C48       1.0  0.99221  0.51704  0.15577  1.0000
  C   C49       1.0  0.52136  0.54884  0.44269  1.0000
  C   C50       1.0  0.45494  0.97500  0.40668  1.0000
  C   C51       1.0  0.02780  0.47852  0.43668  1.0000
  C   C52       1.0  0.48166  0.45347  0.07499  1.0000
  C   C53       1.0  0.54976  0.02872  0.06110  1.0000
  C   C54       1.0  0.97365  0.51753  0.08672  1.0000
  C   C55       1.0  0.54355  0.56588  0.01839  1.0000
  C   C56       1.0  0.42989  0.97310  0.99050  1.0000
  C   C57       1.0  0.02156  0.46217  0.00433  1.0000
  C   C58       1.0  0.46000  0.43521  0.47480  1.0000
  C   C59       1.0  0.56098  0.02463  0.48398  1.0000
  C   C60       1.0  0.97597  0.54441  0.50089  1.0000
  C   C61       1.0  0.33613  0.68577  0.97021  1.0000
  C   C62       1.0  0.31000  0.64474  0.97404  1.0000
  C   C63       1.0  0.35120  0.65992  0.97321  1.0000
  C   C64       1.0  0.66193  0.31152  0.52301  1.0000
  C   C65       1.0  0.68798  0.35258  0.52128  1.0000
  C   C66       1.0  0.64674  0.33730  0.52438  1.0000
  C   C67       1.0  0.31399  0.66698  0.97058  1.0000
  C   C68       1.0  0.32878  0.64152  0.97477  1.0000
  C   C69       1.0  0.35450  0.68186  0.96970  1.0000
  C   C70       1.0  0.68403  0.33035  0.52174  1.0000
  C   C71       1.0  0.66914  0.35573  0.52389  1.0000
  C   C72       1.0  0.64347  0.31533  0.52523  1.0000
  C   C73       1.0  0.50800  0.37127  0.93760  1.0000
  C   C74       1.0  0.63084  0.13767  0.95158  1.0000
  C   C75       1.0  0.86519  0.48839  0.92636  1.0000
  C   C76       1.0  0.49080  0.62836  0.55921  1.0000
  C   C77       1.0  0.37570  0.86624  0.53493  1.0000
  C   C78       1.0  0.13752  0.50842  0.56735  1.0000
  C   C79       1.0  0.50222  0.55032  0.92139  1.0000
  C   C80       1.0  0.44916  0.94992  0.91715  1.0000
  C   C81       1.0  0.04815  0.50232  0.90454  1.0000
  C   C82       1.0  0.49946  0.44920  0.60232  1.0000
  C   C83       1.0  0.54641  0.04994  0.61180  1.0000
  C   C84       1.0  0.95065  0.50257  0.56995  1.0000
  C   C85       1.0  0.48200  0.53145  0.85856  1.0000
  C   C86       1.0  0.46915  0.95018  0.86659  1.0000
  C   C87       1.0  0.05027  0.52171  0.83225  1.0000
  C   C88       1.0  0.51869  0.46674  0.68691  1.0000
  C   C89       1.0  0.52887  0.05119  0.69754  1.0000
  C   C90       1.0  0.94948  0.48269  0.62413  1.0000
  C   C91       1.0  0.48120  0.51175  0.79756  1.0000
  C   C92       1.0  0.48807  0.96959  0.81075  1.0000
  C   C93       1.0  0.03174  0.52202  0.76426  1.0000
  C   C94       1.0  0.51930  0.48624  0.74983  1.0000
  C   C95       1.0  0.51013  0.03220  0.76021  1.0000
  C   C96       1.0  0.96836  0.48259  0.68647  1.0000
  C   C97       1.0  0.50097  0.51006  0.79453  1.0000
  C   C98       1.0  0.48789  0.98998  0.80034  1.0000
  C   C99       1.0  0.00975  0.50289  0.77023  1.0000
  C   C100      1.0  0.50080  0.48961  0.72500  1.0000
  C   C101      1.0  0.50758  0.01055  0.73490  1.0000
  C   C102      1.0  0.98976  0.50259  0.69660  1.0000
  C   C103      1.0  0.52085  0.52861  0.86404  1.0000
  C   C104      1.0  0.46827  0.98989  0.85847  1.0000
  C   C105      1.0  0.00757  0.48411  0.85237  1.0000
  C   C106      1.0  0.48219  0.47261  0.63169  1.0000
  C   C107      1.0  0.52464  0.00928  0.64268  1.0000
  C   C108      1.0  0.99110  0.52204  0.63217  1.0000
  C   C109      1.0  0.52195  0.54843  0.92946  1.0000
  C   C110      1.0  0.44918  0.97066  0.91836  1.0000
  C   C111      1.0  0.02608  0.48322  0.91767  1.0000
  C   C112      1.0  0.48089  0.45244  0.57225  1.0000
  C   C113      1.0  0.54397  0.02826  0.58250  1.0000
  C   C114      1.0  0.97224  0.52256  0.56968  1.0000
  C   C115      1.0  0.54302  0.56720  0.52601  1.0000
  C   C116      1.0  0.43679  0.97894  0.48329  1.0000
  C   C117      1.0  0.02386  0.45722  0.51620  1.0000
  C   C118      1.0  0.46055  0.43625  0.97968  1.0000
  C   C119      1.0  0.56685  0.02465  0.96800  1.0000
  C   C120      1.0  0.97798  0.53914  0.00962  1.0000
  O   O1        1.0  0.52560  0.37569  0.33555  1.0000
  O   O2        1.0  0.61695  0.14893  0.35080  1.0000
  O   O3        1.0  0.84908  0.47309  0.34207  1.0000
  O   O4        1.0  0.47343  0.62294  0.15386  1.0000
  O   O5        1.0  0.38006  0.84827  0.13217  1.0000
  O   O6        1.0  0.14777  0.52918  0.16694  1.0000
  O   O7        1.0  0.50421  0.64651  0.99340  1.0000
  O   O8        1.0  0.35424  0.85357  0.98437  1.0000
  O   O9        1.0  0.13977  0.49641  0.01660  1.0000
  O   O10       1.0  0.49313  0.35111  0.47664  1.0000
  O   O11       1.0  0.64303  0.14252  0.48325  1.0000
  O   O12       1.0  0.85601  0.50384  0.51548  1.0000
  O   O13       1.0  0.52771  0.37718  0.84895  1.0000
  O   O14       1.0  0.62422  0.15005  0.85847  1.0000
  O   O15       1.0  0.85117  0.46855  0.83396  1.0000
  O   O16       1.0  0.47137  0.62281  0.65017  1.0000
  O   O17       1.0  0.38134  0.85344  0.63163  1.0000
  O   O18       1.0  0.15109  0.52860  0.65789  1.0000
  O   O19       1.0  0.50254  0.64636  0.49288  1.0000
  O   O20       1.0  0.35731  0.85927  0.46619  1.0000
  O   O21       1.0  0.14410  0.49609  0.50766  1.0000
  O   O22       1.0  0.49540  0.35259  0.99171  1.0000
  O   O23       1.0  0.64984  0.14495  0.01042  1.0000
  O   O24       1.0  0.85913  0.50092  0.99073  1.0000
  C  Sn1       1.0  0.32135  0.71801  0.02649  1.0000
  C   C121      1.0  0.33635  0.71555  0.95258  1.0000
  C  Sn2       1.0  0.35935  0.73050  0.92183  1.0000
  C  Sn3       1.0  0.36909  0.75390  0.96598  1.0000
  C   C122      1.0  0.35409  0.75635  0.03987  1.0000
  C  Sn4       1.0  0.33109  0.74141  0.07064  1.0000
  O  Te1       1.0  0.29839  0.70276  0.05608  1.0000
  O  Te2       1.0  0.37248  0.72215  0.84776  1.0000
  O  Te3       1.0  0.39207  0.76916  0.93632  1.0000
  O  Te4       1.0  0.31796  0.74975  0.14469  1.0000
  Mg  Mg1       1.0  0.40296  0.74961  0.83273  1.0000
  Mg  Mg2       1.0  0.28749  0.72230  0.15985  1.0000
  C  Sn5       1.0  0.25012  0.61020  0.88962  1.0000
  C   C123      1.0  0.24237  0.59101  0.98483  1.0000
  C  Sn6       1.0  0.25545  0.58401  0.09834  1.0000
  C  Sn7       1.0  0.27827  0.60206  0.11715  1.0000
  C   C124      1.0  0.28601  0.62124  0.02200  1.0000
  C  Sn8       1.0  0.27294  0.62826  0.90844  1.0000
  O  Te5       1.0  0.23523  0.61135  0.77691  1.0000
  O  Te6       1.0  0.24731  0.56464  0.19210  1.0000
  O  Te7       1.0  0.29316  0.60090  0.22997  1.0000
  O  Te8       1.0  0.28107  0.64761  0.81474  1.0000
  Mg  Mg3       1.0  0.27411  0.57103  0.32937  1.0000
  Mg  Mg4       1.0  0.25428  0.64124  0.67750  1.0000
  C  Sn9       1.0  0.38490  0.63362  0.89992  1.0000
  C   C125      1.0  0.40571  0.64755  0.98223  1.0000
  C  Sn10      1.0  0.40743  0.66062  0.08333  1.0000
  C  Sn11      1.0  0.38947  0.66535  0.10264  1.0000
  C   C126      1.0  0.36867  0.65143  0.02038  1.0000
  C  Sn12      1.0  0.36694  0.63835  0.91923  1.0000
  O  Te9       1.0  0.38205  0.61516  0.79948  1.0000
  O  Te10      1.0  0.42839  0.67431  0.16431  1.0000
  O  Te11      1.0  0.39234  0.68384  0.20317  1.0000
  O  Te12      1.0  0.34600  0.62467  0.83830  1.0000
  Mg  Mg5       1.0  0.42400  0.69748  0.28774  1.0000
  Mg  Mg6       1.0  0.35036  0.60148  0.71493  1.0000
  C  Sn13      1.0  0.67418  0.26664  0.44584  1.0000
  C   C127      1.0  0.65553  0.24698  0.50464  1.0000
  C  Sn14      1.0  0.63613  0.24723  0.56038  1.0000
  C  Sn15      1.0  0.63534  0.26755  0.55720  1.0000
  C   C128      1.0  0.65398  0.28719  0.49841  1.0000
  C  Sn16      1.0  0.67339  0.28696  0.44266  1.0000
  O  Te13      1.0  0.69340  0.26600  0.39071  1.0000
  O  Te14      1.0  0.61770  0.22737  0.61867  1.0000
  O  Te15      1.0  0.61610  0.26817  0.61240  1.0000
  O  Te16      1.0  0.69181  0.30680  0.38438  1.0000
  Mg  Mg7       1.0  0.59533  0.23676  0.68043  1.0000
  Mg  Mg8       1.0  0.71418  0.29743  0.32251  1.0000
  C  Sn17      1.0  0.73517  0.37701  0.61760  1.0000
  C   C129      1.0  0.71494  0.37526  0.56155  1.0000
  C  Sn18      1.0  0.71534  0.38934  0.43806  1.0000
  C  Sn19      1.0  0.73641  0.40549  0.36907  1.0000
  C   C130      1.0  0.75662  0.40723  0.42509  1.0000
  C  Sn20      1.0  0.75624  0.39316  0.54861  1.0000
  O  Te17      1.0  0.73437  0.36277  0.74116  1.0000
  O  Te18      1.0  0.69489  0.38728  0.38407  1.0000
  O  Te19      1.0  0.73720  0.41974  0.24541  1.0000
  O  Te20      1.0  0.77667  0.39522  0.60257  1.0000
  Mg  Mg9       1.0  0.70480  0.41049  0.21296  1.0000
  Mg  Mg10      1.0  0.76678  0.37201  0.77360  1.0000
  C  Sn21      1.0  0.62333  0.36124  0.61761  1.0000
  C   C131      1.0  0.62432  0.34197  0.56641  1.0000
  C  Sn22      1.0  0.60907  0.32665  0.44543  1.0000
  C  Sn23      1.0  0.59251  0.33067  0.37404  1.0000
  C   C132      1.0  0.59153  0.34993  0.42522  1.0000
  C  Sn24      1.0  0.60676  0.36527  0.54623  1.0000
  O  Te21      1.0  0.63874  0.37634  0.73874  1.0000
  O  Te22      1.0  0.61039  0.30750  0.39629  1.0000
  O  Te23      1.0  0.57709  0.31556  0.25283  1.0000
  O  Te24      1.0  0.60546  0.38441  0.59534  1.0000
  Mg  Mg11      1.0  0.58567  0.29192  0.22694  1.0000
  Mg  Mg12      1.0  0.63018  0.40000  0.76460  1.0000
  C  Sn25      1.0  0.33208  0.73730  0.63793  1.0000
  C   C133      1.0  0.35032  0.75698  0.57563  1.0000
  C  Sn26      1.0  0.36413  0.75554  0.45096  1.0000
  C  Sn27      1.0  0.35961  0.73398  0.38716  1.0000
  C   C134      1.0  0.34138  0.71432  0.44943  1.0000
  C  Sn28      1.0  0.32756  0.71574  0.57412  1.0000
  O  Te25      1.0  0.31849  0.73914  0.76255  1.0000
  O  Te26      1.0  0.38228  0.77545  0.39069  1.0000
  O  Te27      1.0  0.37321  0.73216  0.26244  1.0000
  O  Te28      1.0  0.30942  0.69585  0.63436  1.0000
  Mg  Mg13      1.0  0.39591  0.76415  0.22057  1.0000
  Mg  Mg14      1.0  0.29577  0.70713  0.80441  1.0000
  C  Sn29      1.0  0.26630  0.59813  0.61800  1.0000
  C   C135      1.0  0.24605  0.59618  0.56007  1.0000
  C  Sn30      1.0  0.24653  0.61072  0.44025  1.0000
  C  Sn31      1.0  0.26769  0.62756  0.37691  1.0000
  C   C136      1.0  0.28792  0.62950  0.43481  1.0000
  C  Sn32      1.0  0.28746  0.61497  0.55466  1.0000
  O  Te29      1.0  0.26542  0.58341  0.73782  1.0000
  O  Te30      1.0  0.22606  0.60844  0.38429  1.0000
  O  Te31      1.0  0.26855  0.64229  0.25700  1.0000
  O  Te32      1.0  0.30790  0.61724  0.61059  1.0000
  Mg  Mg15      1.0  0.23610  0.63249  0.21987  1.0000
  Mg  Mg16      1.0  0.29789  0.59319  0.77493  1.0000
  C  Sn33      1.0  0.38752  0.64015  0.38808  1.0000
  C   C137      1.0  0.40699  0.65227  0.48898  1.0000
  C  Sn34      1.0  0.40870  0.66877  0.60627  1.0000
  C  Sn35      1.0  0.39055  0.67326  0.62315  1.0000
  C   C138      1.0  0.37109  0.66114  0.52231  1.0000
  C  Sn36      1.0  0.36937  0.64464  0.40495  1.0000
  O  Te33      1.0  0.38618  0.62373  0.27166  1.0000
  O  Te34      1.0  0.42834  0.68067  0.70570  1.0000
  O  Te35      1.0  0.39190  0.68970  0.73969  1.0000
  O  Te36      1.0  0.34975  0.63274  0.30559  1.0000
  Mg  Mg17      1.0  0.42213  0.70141  0.84640  1.0000
  Mg  Mg18      1.0  0.35593  0.61200  0.16491  1.0000
  C  Sn37      1.0  0.67192  0.27767  0.87925  1.0000
  C   C139      1.0  0.65846  0.28547  0.95579  1.0000
  C  Sn38      1.0  0.63923  0.26609  0.06117  1.0000
  C  Sn39      1.0  0.63488  0.24395  0.09075  1.0000
  C   C140      1.0  0.64835  0.23616  0.01426  1.0000
  C  Sn40      1.0  0.66758  0.25553  0.90883  1.0000
  O  Te37      1.0  0.68954  0.29185  0.77438  1.0000
  O  Te38      1.0  0.62599  0.27426  0.13623  1.0000
  O  Te39      1.0  0.61725  0.22977  0.19572  1.0000
  O  Te40      1.0  0.68081  0.24737  0.83382  1.0000
  Mg  Mg19      1.0  0.60395  0.24857  0.26912  1.0000
  Mg  Mg20      1.0  0.70287  0.27305  0.70099  1.0000
  C  Sn41      1.0  0.73623  0.37553  0.11930  1.0000
  C   C141      1.0  0.71618  0.37453  0.06755  1.0000
  C  Sn42      1.0  0.71832  0.39464  0.94773  1.0000
  C  Sn43      1.0  0.73944  0.41058  0.87809  1.0000
  C   C142      1.0  0.75947  0.41157  0.92982  1.0000
  C  Sn44      1.0  0.75734  0.39147  0.04966  1.0000
  O  Te41      1.0  0.73520  0.36076  0.23924  1.0000
  O  Te42      1.0  0.69805  0.39333  0.89802  1.0000
  O  Te43      1.0  0.74045  0.42536  0.75807  1.0000
  O  Te44      1.0  0.77759  0.39277  0.09935  1.0000
  Mg  Mg21      1.0  0.70824  0.41705  0.73078  1.0000
  Mg  Mg22      1.0  0.76743  0.36905  0.26651  1.0000
  C  Sn45      1.0  0.62356  0.35956  0.12039  1.0000
  C   C143      1.0  0.62507  0.34098  0.05778  1.0000
  C  Sn46      1.0  0.61210  0.33241  0.92835  1.0000
  C  Sn47      1.0  0.59578  0.33701  0.85998  1.0000
  C   C144      1.0  0.59428  0.35557  0.92256  1.0000
  C  Sn48      1.0  0.60723  0.36416  0.05202  1.0000
  O  Te45      1.0  0.63822  0.37339  0.24982  1.0000
  O  Te46      1.0  0.61393  0.31394  0.86786  1.0000
  O  Te47      1.0  0.58112  0.32315  0.73046  1.0000
  O  Te48      1.0  0.60542  0.38262  0.11248  1.0000
  Mg  Mg23      1.0  0.59018  0.30005  0.69029  1.0000
  Mg  Mg24      1.0  0.62917  0.39653  0.28998  1.0000
  C  Sn49      1.0  0.34296  0.80331  0.08479  1.0000
  C   C145      1.0  0.36404  0.82099  0.14303  1.0000
  C  Sn50      1.0  0.38295  0.81811  0.14672  1.0000
  C  Sn51      1.0  0.38074  0.79713  0.09094  1.0000
  C   C146      1.0  0.35967  0.77947  0.03271  1.0000
  C  Sn52      1.0  0.34075  0.78233  0.02900  1.0000
  O  Te49      1.0  0.32429  0.80657  0.08220  1.0000
  O  Te50      1.0  0.40384  0.83603  0.20554  1.0000
  O  Te51      1.0  0.39944  0.79389  0.09357  1.0000
  O  Te52      1.0  0.32139  0.76992  0.97020  1.0000
  Mg  Mg25      1.0  0.42431  0.82336  0.18464  1.0000
  Mg  Mg26      1.0  0.30091  0.78258  0.99096  1.0000
  C  Sn53      1.0  0.20214  0.54548  0.01320  1.0000
  C   C147      1.0  0.21348  0.56914  0.02911  1.0000
  C  Sn54      1.0  0.20375  0.58000  0.11924  1.0000
  C  Sn55      1.0  0.18225  0.56694  0.19516  1.0000
  C   C148      1.0  0.17093  0.54329  0.17927  1.0000
  C  Sn56      1.0  0.18064  0.53242  0.08912  1.0000
  O  Te53      1.0  0.21371  0.54048  0.92253  1.0000
  O  Te54      1.0  0.21541  0.60367  0.13336  1.0000
  O  Te55      1.0  0.17221  0.57745  0.28588  1.0000
  O  Te56      1.0  0.16900  0.50876  0.07501  1.0000
  Mg  Mg27      1.0  0.19473  0.61013  0.26974  1.0000
  Mg  Mg28      1.0  0.19119  0.50778  0.93874  1.0000
  C  Sn57      1.0  0.43079  0.61353  0.12162  1.0000
  C   C149      1.0  0.45418  0.62651  0.09332  1.0000
  C  Sn58      1.0  0.46423  0.64956  0.06250  1.0000
  C  Sn59      1.0  0.45062  0.65985  0.06002  1.0000
  C   C150      1.0  0.42725  0.64687  0.08834  1.0000
  C  Sn60      1.0  0.41718  0.62381  0.11914  1.0000
  O  Te57      1.0  0.42111  0.59051  0.15219  1.0000
  O  Te58      1.0  0.48764  0.66220  0.03450  1.0000
  O  Te59      1.0  0.46032  0.68288  0.02941  1.0000
  O  Te60      1.0  0.39379  0.61118  0.14716  1.0000
  Mg  Mg29      1.0  0.49445  0.69846  0.99848  1.0000
  Mg  Mg30      1.0  0.38847  0.58041  0.18327  1.0000
  C  Sn61      1.0  0.61520  0.18654  0.29226  1.0000
  C   C151      1.0  0.62716  0.17538  0.32344  1.0000
  C  Sn62      1.0  0.64651  0.18567  0.42676  1.0000
  C  Sn63      1.0  0.65405  0.20756  0.50056  1.0000
  C   C152      1.0  0.64209  0.21871  0.46940  1.0000
  C  Sn64      1.0  0.62274  0.20843  0.36606  1.0000
  O  Te61      1.0  0.59590  0.17593  0.18856  1.0000
  O  Te62      1.0  0.65819  0.17418  0.45603  1.0000
  O  Te63      1.0  0.67336  0.21817  0.60432  1.0000
  O  Te64      1.0  0.61107  0.21990  0.33680  1.0000
  Mg  Mg31      1.0  0.68352  0.19568  0.60643  1.0000
  Mg  Mg32      1.0  0.58573  0.19842  0.18650  1.0000
  C  Sn65      1.0  0.79109  0.45414  0.41468  1.0000
  C   C153      1.0  0.78078  0.43061  0.39162  1.0000
  C  Sn66      1.0  0.79406  0.42045  0.36913  1.0000
  C  Sn67      1.0  0.81815  0.43410  0.36981  1.0000
  C   C154      1.0  0.82844  0.45761  0.39289  1.0000
  C  Sn68      1.0  0.81517  0.46778  0.41536  1.0000
  O  Te65      1.0  0.77747  0.46392  0.43693  1.0000
  O  Te66      1.0  0.78337  0.39690  0.34625  1.0000
  O  Te67      1.0  0.83176  0.42429  0.34753  1.0000
  O  Te68      1.0  0.82585  0.49132  0.43826  1.0000
  Mg  Mg33      1.0  0.80925  0.39149  0.32110  1.0000
  Mg  Mg34      1.0  0.79999  0.49674  0.46350  1.0000
  C  Sn69      1.0  0.53650  0.34630  0.49260  1.0000
  C   C155      1.0  0.53939  0.36576  0.41885  1.0000
  C  Sn70      1.0  0.55939  0.37981  0.33357  1.0000
  C  Sn71      1.0  0.57685  0.37428  0.32165  1.0000
  C   C156      1.0  0.57395  0.35483  0.39533  1.0000
  C  Sn72      1.0  0.55396  0.34077  0.48067  1.0000
  O  Te69      1.0  0.51637  0.33250  0.57723  1.0000
  O  Te70      1.0  0.56189  0.39918  0.26092  1.0000
  O  Te71      1.0  0.59699  0.38810  0.23692  1.0000
  O  Te72      1.0  0.55145  0.32141  0.55326  1.0000
  Mg  Mg35      1.0  0.59241  0.41263  0.15875  1.0000
  Mg  Mg36      1.0  0.52094  0.30794  0.65538  1.0000
  C  Sn73      1.0  0.47760  0.57055  0.04414  1.0000
  C   C157      1.0  0.49637  0.57527  0.95289  1.0000
  C  Sn74      1.0  0.51641  0.59527  0.91718  1.0000
  C  Sn75      1.0  0.51928  0.61649  0.97393  1.0000
  C   C158      1.0  0.50053  0.61177  0.06514  1.0000
  C  Sn76      1.0  0.48047  0.59177  0.10089  1.0000
  O  Te73      1.0  0.45771  0.55034  0.07840  1.0000
  O  Te74      1.0  0.53341  0.59407  0.82569  1.0000
  O  Te75      1.0  0.53920  0.63671  0.93958  1.0000
  O  Te76      1.0  0.46349  0.59297  0.19234  1.0000
  Mg  Mg37      1.0  0.55744  0.62629  0.81068  1.0000
  Mg  Mg38      1.0  0.43945  0.56076  0.20749  1.0000
  C  Sn77      1.0  0.41790  0.89813  0.13207  1.0000
  C   C159      1.0  0.39529  0.88808  0.07712  1.0000
  C  Sn78      1.0  0.39095  0.90288  0.94788  1.0000
  C  Sn79      1.0  0.40803  0.92265  0.87190  1.0000
  C   C160      1.0  0.43062  0.93269  0.92682  1.0000
  C  Sn80      1.0  0.43498  0.91790  0.05608  1.0000
  O  Te77      1.0  0.42337  0.88853  0.26146  1.0000
  O  Te78      1.0  0.36823  0.89253  0.89513  1.0000
  O  Te79      1.0  0.40254  0.93225  0.74242  1.0000
  O  Te80      1.0  0.45768  0.92824  0.10881  1.0000
  Mg  Mg39      1.0  0.36924  0.91197  0.71436  1.0000
  Mg  Mg40      1.0  0.45669  0.90881  0.28951  1.0000
  C  Sn81      1.0  0.09358  0.52726  0.02186  1.0000
  C   C161      1.0  0.07666  0.51472  0.93598  1.0000
  C  Sn82      1.0  0.07513  0.49359  0.91781  1.0000
  C  Sn83      1.0  0.09237  0.49040  0.98700  1.0000
  C   C162      1.0  0.10927  0.50293  0.07284  1.0000
  C  Sn84      1.0  0.11082  0.52408  0.09105  1.0000
  O  Te81      1.0  0.09477  0.54825  0.03853  1.0000
  O  Te82      1.0  0.05654  0.47582  0.83138  1.0000
  O  Te83      1.0  0.09117  0.46939  0.97026  1.0000
  O  Te84      1.0  0.12940  0.54184  0.17744  1.0000
  Mg  Mg41      1.0  0.06252  0.45040  0.84185  1.0000
  Mg  Mg42      1.0  0.12342  0.56726  0.16712  1.0000
  C  Sn85      1.0  0.47940  0.39008  0.50990  1.0000
  C   C163      1.0  0.49762  0.38952  0.43223  1.0000
  C  Sn86      1.0  0.51882  0.40931  0.42289  1.0000
  C  Sn87      1.0  0.52188  0.43008  0.49274  1.0000
  C   C164      1.0  0.50367  0.43063  0.57038  1.0000
  C  Sn88      1.0  0.48246  0.41085  0.57975  1.0000
  O  Te85      1.0  0.45835  0.37010  0.51780  1.0000
  O  Te86      1.0  0.53678  0.40833  0.34456  1.0000
  O  Te87      1.0  0.54295  0.45007  0.48477  1.0000
  O  Te88      1.0  0.46451  0.41182  0.65805  1.0000
  Mg  Mg43      1.0  0.56222  0.44009  0.36536  1.0000
  Mg  Mg44      1.0  0.43907  0.38007  0.63740  1.0000
  C  Sn89      1.0  0.56576  0.08968  0.42303  1.0000
  C   C165      1.0  0.56621  0.07219  0.50427  1.0000
  C  Sn90      1.0  0.58619  0.07594  0.58184  1.0000
  C  Sn91      1.0  0.60613  0.09763  0.57822  1.0000
  C   C166      1.0  0.60567  0.11511  0.49705  1.0000
  C  Sn92      1.0  0.58570  0.11137  0.41942  1.0000
  O  Te89      1.0  0.54560  0.08554  0.34633  1.0000
  O  Te90      1.0  0.58622  0.05819  0.66223  1.0000
  O  Te91      1.0  0.62630  0.10175  0.65501  1.0000
  O  Te92      1.0  0.58566  0.12911  0.33909  1.0000
  Mg  Mg45      1.0  0.61783  0.07218  0.74867  1.0000
  Mg  Mg46      1.0  0.55406  0.11514  0.25269  1.0000
  C  Sn93      1.0  0.91715  0.51508  0.62073  1.0000
  C   C167      1.0  0.92569  0.50115  0.56639  1.0000
  C  Sn94      1.0  0.91491  0.48499  0.43593  1.0000
  C  Sn95      1.0  0.89519  0.48271  0.35809  1.0000
  C   C168      1.0  0.88666  0.49663  0.41241  1.0000
  C  Sn96      1.0  0.89743  0.51280  0.54289  1.0000
  O  Te93      1.0  0.92821  0.53112  0.75135  1.0000
  O  Te94      1.0  0.92377  0.47126  0.38382  1.0000
  O  Te95      1.0  0.88414  0.46666  0.22738  1.0000
  O  Te96      1.0  0.88859  0.52653  0.59498  1.0000
  Mg  Mg47      1.0  0.90269  0.45191  0.20084  1.0000
  Mg  Mg48      1.0  0.90965  0.54589  0.77788  1.0000
  C  Sn97      1.0  0.51248  0.60695  0.40758  1.0000
  C   C169      1.0  0.49499  0.60765  0.49593  1.0000
  C  Sn98      1.0  0.48056  0.58985  0.59681  1.0000
  C  Sn99      1.0  0.48367  0.57096  0.60975  1.0000
  C   C170      1.0  0.50115  0.57027  0.52147  1.0000
  C  Sn100     1.0  0.51559  0.58806  0.42053  1.0000
  O  Te97      1.0  0.52670  0.62494  0.30748  1.0000
  O  Te98      1.0  0.46320  0.59093  0.68389  1.0000
  O  Te99      1.0  0.46943  0.55297  0.70996  1.0000
  O  Te100     1.0  0.53295  0.58699  0.33351  1.0000
  Mg  Mg49      1.0  0.44822  0.56227  0.80421  1.0000
  Mg  Mg50      1.0  0.54794  0.61565  0.21323  1.0000
  C  Sn101     1.0  0.43404  0.90899  0.51143  1.0000
  C   C171      1.0  0.43421  0.92685  0.43109  1.0000
  C  Sn102     1.0  0.41398  0.92702  0.40738  1.0000
  C  Sn103     1.0  0.39315  0.90896  0.46525  1.0000
  C   C172      1.0  0.39299  0.89112  0.54555  1.0000
  C  Sn104     1.0  0.41321  0.89093  0.56930  1.0000
  O  Te101     1.0  0.45446  0.90918  0.53380  1.0000
  O  Te102     1.0  0.41458  0.94505  0.32666  1.0000
  O  Te103     1.0  0.37272  0.90879  0.44281  1.0000
  O  Te104     1.0  0.41262  0.87291  0.64998  1.0000
  Mg  Mg51      1.0  0.38228  0.93715  0.32577  1.0000
  Mg  Mg52      1.0  0.44490  0.88081  0.65102  1.0000
  C  Sn105     1.0  0.07819  0.47822  0.46607  1.0000
  C   C173      1.0  0.07000  0.49286  0.50725  1.0000
  C  Sn106     1.0  0.08498  0.51528  0.56091  1.0000
  C  Sn107     1.0  0.10864  0.52324  0.57359  1.0000
  C   C174      1.0  0.11681  0.50861  0.53241  1.0000
  C  Sn108     1.0  0.10185  0.48618  0.47876  1.0000
  O  Te105     1.0  0.06291  0.45587  0.41270  1.0000
  O  Te106     1.0  0.07639  0.52960  0.60143  1.0000
  O  Te107     1.0  0.12392  0.54561  0.62703  1.0000
  O  Te108     1.0  0.11042  0.47187  0.43822  1.0000
  Mg  Mg53      1.0  0.10400  0.55861  0.66795  1.0000
  Mg  Mg54      1.0  0.08283  0.44286  0.37161  1.0000
  C  Sn109     1.0  0.51912  0.42834  0.90818  1.0000
  C   C175      1.0  0.50156  0.42896  0.99612  1.0000
  C  Sn110     1.0  0.48424  0.40470  0.08335  1.0000
  C  Sn111     1.0  0.48603  0.38491  0.08277  1.0000
  C   C176      1.0  0.50510  0.38979  0.99489  1.0000
  C  Sn112     1.0  0.52090  0.40855  0.90760  1.0000
  O  Te109     1.0  0.53472  0.44730  0.82185  1.0000
  O  Te110     1.0  0.46684  0.40572  0.17031  1.0000
  O  Te111     1.0  0.47040  0.36595  0.16919  1.0000
  O  Te112     1.0  0.53830  0.40754  0.82070  1.0000
  Mg  Mg55      1.0  0.44972  0.37555  0.26908  1.0000
  Mg  Mg56      1.0  0.55544  0.43770  0.72197  1.0000
  C  Sn113     1.0  0.58359  0.10781  0.97640  1.0000
  C   C177      1.0  0.60517  0.11015  0.00409  1.0000
  C  Sn114     1.0  0.61245  0.09504  0.04210  1.0000
  C  Sn115     1.0  0.59632  0.07161  0.05255  1.0000
  C   C178      1.0  0.57324  0.06378  0.02484  1.0000
  C  Sn116     1.0  0.56746  0.08437  0.98685  1.0000
  O  Te113     1.0  0.57669  0.12322  0.93856  1.0000
  O  Te114     1.0  0.63563  0.10327  0.06933  1.0000
  O  Te115     1.0  0.60324  0.05619  0.09042  1.0000
  O  Te116     1.0  0.54430  0.07615  0.95960  1.0000
  Mg  Mg57      1.0  0.63666  0.07561  0.11708  1.0000
  Mg  Mg58      1.0  0.54325  0.10379  0.91176  1.0000
  C  Sn117     1.0  0.91219  0.51615  0.00604  1.0000
  C   C179      1.0  0.89562  0.50357  0.91757  1.0000
  C  Sn118     1.0  0.89494  0.48290  0.89300  1.0000
  C  Sn119     1.0  0.91270  0.48021  0.95830  1.0000
  C   C180      1.0  0.92925  0.49277  0.04673  1.0000
  C  Sn120     1.0  0.92995  0.51346  0.07134  1.0000
  O  Te117     1.0  0.91252  0.53667  0.02911  1.0000
  O  Te118     1.0  0.87669  0.46508  0.80409  1.0000
  O  Te119     1.0  0.91235  0.45967  0.93515  1.0000
  O  Te120     1.0  0.94819  0.53126  0.16022  1.0000
  Mg  Mg59      1.0  0.88388  0.44041  0.80555  1.0000
  Mg  Mg60      1.0  0.94101  0.55594  0.15890  1.0000
  C  Sn121     1.0  0.37757  0.80274  0.70345  1.0000
  C   C181      1.0  0.35799  0.78569  0.62135  1.0000
  C  Sn122     1.0  0.34531  0.79126  0.51747  1.0000
  C  Sn123     1.0  0.35237  0.81436  0.49509  1.0000
  C   C182      1.0  0.37194  0.83139  0.57713  1.0000
  C  Sn124     1.0  0.38462  0.82584  0.68106  1.0000
  O  Te121     1.0  0.38998  0.79678  0.80669  1.0000
  O  Te122     1.0  0.32580  0.77392  0.43676  1.0000
  O  Te123     1.0  0.33994  0.82031  0.39174  1.0000
  O  Te124     1.0  0.40413  0.84316  0.76171  1.0000
  Mg  Mg61      1.0  0.31458  0.79060  0.30881  1.0000
  Mg  Mg62      1.0  0.41536  0.82650  0.88962  1.0000
  C  Sn125     1.0  0.20526  0.54843  0.48609  1.0000
  C   C183      1.0  0.21555  0.57196  0.50876  1.0000
  C  Sn126     1.0  0.20528  0.58147  0.60846  1.0000
  C  Sn127     1.0  0.18430  0.56717  0.68724  1.0000
  C   C184      1.0  0.17402  0.54365  0.66458  1.0000
  C  Sn128     1.0  0.18428  0.53412  0.56487  1.0000
  O  Te125     1.0  0.21583  0.53929  0.38588  1.0000
  O  Te126     1.0  0.21589  0.60504  0.62921  1.0000
  O  Te127     1.0  0.17374  0.57633  0.78750  1.0000
  O  Te128     1.0  0.17368  0.51057  0.54413  1.0000
  Mg  Mg63      1.0  0.19483  0.60942  0.77773  1.0000
  Mg  Mg64      1.0  0.19473  0.50617  0.39571  1.0000
  C  Sn129     1.0  0.42926  0.61493  0.61164  1.0000
  C   C185      1.0  0.45281  0.62759  0.59008  1.0000
  C  Sn130     1.0  0.46366  0.65100  0.57203  1.0000
  C  Sn131     1.0  0.45069  0.66199  0.57569  1.0000
  C   C186      1.0  0.42715  0.64934  0.59727  1.0000
  C  Sn132     1.0  0.41629  0.62592  0.61531  1.0000
  O  Te129     1.0  0.41877  0.59154  0.62945  1.0000
  O  Te130     1.0  0.48723  0.66330  0.55057  1.0000
  O  Te131     1.0  0.46120  0.68540  0.55785  1.0000
  O  Te132     1.0  0.39273  0.61363  0.63678  1.0000
  Mg  Mg65      1.0  0.49372  0.69480  0.53179  1.0000
  Mg  Mg66      1.0  0.38623  0.58213  0.65566  1.0000
  C  Sn133     1.0  0.61770  0.19595  0.89763  1.0000
  C   C187      1.0  0.63765  0.21388  0.96936  1.0000
  C  Sn134     1.0  0.65701  0.21196  0.98663  1.0000
  C  Sn135     1.0  0.65642  0.19171  0.93095  1.0000
  C   C188      1.0  0.63648  0.17380  0.85926  1.0000
  C  Sn136     1.0  0.61711  0.17570  0.84196  1.0000
  O  Te133     1.0  0.59854  0.19824  0.88160  1.0000
  O  Te134     1.0  0.67523  0.22461  0.05878  1.0000
  O  Te135     1.0  0.67559  0.18943  0.94705  1.0000
  O  Te136     1.0  0.59738  0.15757  0.76984  1.0000
  Mg  Mg67      1.0  0.69694  0.21335  0.05334  1.0000
  Mg  Mg68      1.0  0.57566  0.16882  0.77513  1.0000
  C  Sn137     1.0  0.80376  0.41820  0.90925  1.0000
  C   C189      1.0  0.78684  0.42265  0.96564  1.0000
  C  Sn138     1.0  0.78996  0.44441  0.95766  1.0000
  C  Sn139     1.0  0.81041  0.46209  0.89187  1.0000
  C   C190      1.0  0.82732  0.45764  0.83551  1.0000
  C  Sn140     1.0  0.82422  0.43588  0.84346  1.0000
  O  Te137     1.0  0.80028  0.39632  0.91841  1.0000
  O  Te138     1.0  0.77128  0.44296  0.01484  1.0000
  O  Te139     1.0  0.81389  0.48399  0.88275  1.0000
  O  Te140     1.0  0.84136  0.43184  0.78630  1.0000
  Mg  Mg69      1.0  0.78551  0.48107  0.97622  1.0000
  Mg  Mg70      1.0  0.82866  0.39922  0.82478  1.0000
  C  Sn141     1.0  0.56814  0.38018  0.79284  1.0000
  C   C191      1.0  0.54476  0.36778  0.82279  1.0000
  C  Sn142     1.0  0.53578  0.34914  0.92497  1.0000
  C  Sn143     1.0  0.55048  0.34278  0.99886  1.0000
  C   C192      1.0  0.57385  0.35518  0.96892  1.0000
  C  Sn144     1.0  0.58284  0.37382  0.86672  1.0000
  O  Te141     1.0  0.57675  0.39875  0.69028  1.0000
  O  Te142     1.0  0.51235  0.33700  0.95304  1.0000
  O  Te143     1.0  0.54034  0.31870  0.10148  1.0000
  O  Te144     1.0  0.60626  0.38596  0.83868  1.0000
  Mg  Mg71      1.0  0.50724  0.30752  0.10217  1.0000
  Mg  Mg72      1.0  0.60987  0.40996  0.68964  1.0000
