data_image0
_chemical_formula_structural       H156C228O24SnCSn2CSnTe4Mg2SnCSn2CSnTe4Mg2SnCSn2CSnTe4Mg2SnCSn2CSnTe4Mg2SnCSn2CSnTe4Mg2SnCSn2CSnTe4Mg2SnCSn2CSnTe4Mg2SnCSn2CSnTe4Mg2SnCSn2CSnTe4Mg2SnCSn2CSnTe4Mg2SnCSn2CSnTe4Mg2SnCSn2CSnTe4Mg2SnCSn2CSnTe4Mg2SnCSn2CSnTe4Mg2SnCSn2CSnTe4Mg2SnCSn2CSnTe4Mg2SnCSn2CSnTe4Mg2SnCSn2CSnTe4Mg2
_chemical_formula_sum              "H156 C264 O24 Sn72 Te72 Mg36"
_cell_length_a       68.0387
_cell_length_b       68.372
_cell_length_c       7.99524
_cell_angle_alpha    92.3175
_cell_angle_beta     89.3811
_cell_angle_gamma    120.331

_symmetry_space_group_name_H-M    'P1'
_space_group_IT_number       1

loop_
  _space_group_symop_operation_xyz
  'x, y, z'

loop_
  _atom_site_type_symbol
  _atom_site_label
  _atom_site_symmetry_multiplicity
  _atom_site_fract_x
  _atom_site_fract_y
  _atom_site_fract_z
  _atom_site_occupancy
  H   H1        1.0  0.67961  0.25686  0.33261  1.0000
  H   H2        1.0  0.68776  0.29623  0.36612  1.0000
  H   H3        1.0  0.37349  0.72925  0.35364  1.0000
  H   H4        1.0  0.35702  0.63036  0.33282  1.0000
  H   H5        1.0  0.38207  0.76870  0.40040  1.0000
  H   H6        1.0  0.38750  0.62177  0.38351  1.0000
  H   H7        1.0  0.30122  0.67484  0.47451  1.0000
  H   H8        1.0  0.32783  0.62966  0.47019  1.0000
  H   H9        1.0  0.37351  0.70160  0.48112  1.0000
  H   H10       1.0  0.69921  0.32700  0.02278  1.0000
  H   H11       1.0  0.67297  0.37242  0.01852  1.0000
  H   H12       1.0  0.62703  0.30049  0.01049  1.0000
  H   H13       1.0  0.38995  0.78842  0.15173  1.0000
  H   H14       1.0  0.40237  0.61076  0.17068  1.0000
  H   H15       1.0  0.60848  0.20978  0.33954  1.0000
  H   H16       1.0  0.40188  0.82926  0.19954  1.0000
  H   H17       1.0  0.43236  0.60109  0.22694  1.0000
  H   H18       1.0  0.59585  0.16881  0.28609  1.0000
  H   H19       1.0  0.33694  0.81575  0.01604  1.0000
  H   H20       1.0  0.48298  0.66376  0.02248  1.0000
  H   H21       1.0  0.66043  0.18079  0.46415  1.0000
  H   H22       1.0  0.32773  0.78076  0.44636  1.0000
  H   H23       1.0  0.22329  0.54774  0.47926  1.0000
  H   H24       1.0  0.45416  0.67687  0.49255  1.0000
  H   H25       1.0  0.67512  0.22331  0.04934  1.0000
  H   H26       1.0  0.77972  0.45317  0.00554  1.0000
  H   H27       1.0  0.54590  0.32406  0.01333  1.0000
  H   H28       1.0  0.41725  0.87985  0.16187  1.0000
  H   H29       1.0  0.11938  0.53923  0.16399  1.0000
  H   H30       1.0  0.57843  0.12078  0.37795  1.0000
  H   H31       1.0  0.87901  0.46528  0.31717  1.0000
  H   H32       1.0  0.44937  0.91809  0.10581  1.0000
  H   H33       1.0  0.08275  0.53603  0.08421  1.0000
  H   H34       1.0  0.54569  0.08429  0.46288  1.0000
  H   H35       1.0  0.91686  0.47003  0.37664  1.0000
  H   H36       1.0  0.06443  0.46766  0.34583  1.0000
  H   H37       1.0  0.46843  0.40542  0.14984  1.0000
  H   H38       1.0  0.10255  0.47292  0.41229  1.0000
  H   H39       1.0  0.47239  0.37189  0.07684  1.0000
  H   H40       1.0  0.46584  0.49860  0.24403  1.0000
  H   H41       1.0  0.50597  0.96925  0.24188  1.0000
  H   H42       1.0  0.03497  0.53281  0.23814  1.0000
  H   H43       1.0  0.53493  0.49968  0.32510  1.0000
  H   H44       1.0  0.50427  0.03671  0.30594  1.0000
  H   H45       1.0  0.96656  0.46241  0.27015  1.0000
  H   H46       1.0  0.53633  0.52851  0.38784  1.0000
  H   H47       1.0  0.47465  0.00953  0.34192  1.0000
  H   H48       1.0  0.99227  0.46437  0.39312  1.0000
  H   H49       1.0  0.46883  0.47605  0.10447  1.0000
  H   H50       1.0  0.52708  0.99326  0.08580  1.0000
  H   H51       1.0  0.00869  0.53251  0.15108  1.0000
  H   H52       1.0  0.46625  0.53258  0.35602  1.0000
  H   H53       1.0  0.47203  0.93630  0.34785  1.0000
  H   H54       1.0  0.06804  0.53236  0.34834  1.0000
  H   H55       1.0  0.53395  0.46555  0.20983  1.0000
  H   H56       1.0  0.53808  0.06947  0.19654  1.0000
  H   H57       1.0  0.93383  0.46254  0.14885  1.0000
  H   H58       1.0  0.55502  0.57889  0.43494  1.0000
  H   H59       1.0  0.42457  0.97783  0.38896  1.0000
  H   H60       1.0  0.02263  0.44447  0.42180  1.0000
  H   H61       1.0  0.44759  0.42416  0.06402  1.0000
  H   H62       1.0  0.57908  0.02415  0.05411  1.0000
  H   H63       1.0  0.98042  0.55215  0.10596  1.0000
  H   H64       1.0  0.55833  0.56522  0.96901  1.0000
  H   H65       1.0  0.43565  0.99102  0.02013  1.0000
  H   H66       1.0  0.00513  0.45478  0.06824  1.0000
  H   H67       1.0  0.45290  0.44372  0.40451  1.0000
  H   H68       1.0  0.57431  0.02545  0.56573  1.0000
  H   H69       1.0  0.99151  0.55223  0.42574  1.0000
  H   H70       1.0  0.54212  0.56199  0.15191  1.0000
  H   H71       1.0  0.42378  0.96379  0.10630  1.0000
  H   H72       1.0  0.03474  0.46592  0.09830  1.0000
  H   H73       1.0  0.46395  0.42510  0.38555  1.0000
  H   H74       1.0  0.55242  0.00785  0.41984  1.0000
  H   H75       1.0  0.96169  0.54166  0.42142  1.0000
  H   H76       1.0  0.31912  0.74517  0.66151  1.0000
  H   H77       1.0  0.42390  0.68312  0.68652  1.0000
  H   H78       1.0  0.31137  0.70586  0.62851  1.0000
  H   H79       1.0  0.39273  0.69108  0.64553  1.0000
  H   H80       1.0  0.62713  0.27378  0.65781  1.0000
  H   H81       1.0  0.61833  0.23423  0.61512  1.0000
  H   H82       1.0  0.29954  0.66966  0.97297  1.0000
  H   H83       1.0  0.32587  0.62440  0.98027  1.0000
  H   H84       1.0  0.37174  0.69629  0.97118  1.0000
  H   H85       1.0  0.69846  0.32764  0.51689  1.0000
  H   H86       1.0  0.67197  0.37284  0.52156  1.0000
  H   H87       1.0  0.62624  0.30085  0.52355  1.0000
  H   H88       1.0  0.38852  0.79252  0.69550  1.0000
  H   H89       1.0  0.20908  0.60016  0.63539  1.0000
  H   H90       1.0  0.40103  0.61278  0.66025  1.0000
  H   H91       1.0  0.61161  0.20804  0.82478  1.0000
  H   H92       1.0  0.79051  0.39841  0.85156  1.0000
  H   H93       1.0  0.59838  0.38809  0.84061  1.0000
  H   H94       1.0  0.40084  0.83349  0.73622  1.0000
  H   H95       1.0  0.16925  0.57064  0.70022  1.0000
  H   H96       1.0  0.42989  0.60121  0.71018  1.0000
  H   H97       1.0  0.60184  0.16792  0.77353  1.0000
  H   H98       1.0  0.83098  0.42635  0.79025  1.0000
  H   H99       1.0  0.56917  0.39904  0.78672  1.0000
  H   H100      1.0  0.34002  0.82172  0.48663  1.0000
  H   H101      1.0  0.18340  0.51830  0.54276  1.0000
  H   H102      1.0  0.48276  0.66513  0.53897  1.0000
  H   H103      1.0  0.66527  0.18313  0.99930  1.0000
  H   H104      1.0  0.82021  0.48108  0.94342  1.0000
  H   H105      1.0  0.51682  0.33517  0.96375  1.0000
  H   H106      1.0  0.32497  0.77503  0.97044  1.0000
  H   H107      1.0  0.45308  0.67358  0.96794  1.0000
  H   H108      1.0  0.67308  0.22154  0.51685  1.0000
  H   H109      1.0  0.12104  0.53584  0.67677  1.0000
  H   H110      1.0  0.53741  0.41534  0.85819  1.0000
  H   H111      1.0  0.08339  0.53097  0.60737  1.0000
  H   H112      1.0  0.53400  0.44883  0.93853  1.0000
  H   H113      1.0  0.40424  0.93195  0.82812  1.0000
  H   H114      1.0  0.06105  0.47054  0.84824  1.0000
  H   H115      1.0  0.59190  0.06418  0.64269  1.0000
  H   H116      1.0  0.93588  0.53215  0.65728  1.0000
  H   H117      1.0  0.37202  0.89386  0.88964  1.0000
  H   H118      1.0  0.09820  0.47432  0.92242  1.0000
  H   H119      1.0  0.62460  0.10114  0.56357  1.0000
  H   H120      1.0  0.89789  0.52731  0.59649  1.0000
  H   H121      1.0  0.46510  0.49771  0.75061  1.0000
  H   H122      1.0  0.50312  0.96884  0.77471  1.0000
  H   H123      1.0  0.03459  0.53713  0.70328  1.0000
  H   H124      1.0  0.53408  0.49862  0.82257  1.0000
  H   H125      1.0  0.49772  0.03434  0.83310  1.0000
  H   H126      1.0  0.96632  0.46681  0.72924  1.0000
  H   H127      1.0  0.53639  0.52781  0.86924  1.0000
  H   H128      1.0  0.46765  0.00546  0.85742  1.0000
  H   H129      1.0  0.99072  0.46953  0.87023  1.0000
  H   H130      1.0  0.46812  0.47512  0.60058  1.0000
  H   H131      1.0  0.52265  0.99274  0.61171  1.0000
  H   H132      1.0  0.00748  0.53768  0.63002  1.0000
  H   H133      1.0  0.46666  0.53265  0.85567  1.0000
  H   H134      1.0  0.46954  0.93448  0.86941  1.0000
  H   H135      1.0  0.06712  0.53664  0.82503  1.0000
  H   H136      1.0  0.53314  0.46446  0.70819  1.0000
  H   H137      1.0  0.53046  0.06773  0.71947  1.0000
  H   H138      1.0  0.93305  0.46710  0.62093  1.0000
  H   H139      1.0  0.54689  0.58324  0.01134  1.0000
  H   H140      1.0  0.41514  0.96655  0.90522  1.0000
  H   H141      1.0  0.02086  0.44915  0.91498  1.0000
  H   H142      1.0  0.44663  0.42339  0.55805  1.0000
  H   H143      1.0  0.56936  0.03738  0.38906  1.0000
  H   H144      1.0  0.97806  0.55679  0.60175  1.0000
  H   H145      1.0  0.55162  0.55967  0.59039  1.0000
  H   H146      1.0  0.44456  0.99594  0.54403  1.0000
  H   H147      1.0  0.00784  0.44956  0.58565  1.0000
  H   H148      1.0  0.45298  0.44474  0.91473  1.0000
  H   H149      1.0  0.55821  0.00835  0.89716  1.0000
  H   H150      1.0  0.99352  0.54610  0.93456  1.0000
  H   H151      1.0  0.53958  0.57732  0.61872  1.0000
  H   H152      1.0  0.42711  0.96653  0.57787  1.0000
  H   H153      1.0  0.03768  0.46066  0.60330  1.0000
  H   H154      1.0  0.46429  0.42645  0.88614  1.0000
  H   H155      1.0  0.57666  0.03801  0.87982  1.0000
  H   H156      1.0  0.96397  0.53634  0.92708  1.0000
  C   C1        1.0  0.64815  0.24255  0.46899  1.0000
  C   C2        1.0  0.66822  0.26055  0.40604  1.0000
  C   C3        1.0  0.67287  0.28285  0.42615  1.0000
  C   C4        1.0  0.34184  0.71441  0.48898  1.0000
  C   C5        1.0  0.37230  0.66123  0.48800  1.0000
  C   C6        1.0  0.36175  0.73261  0.42521  1.0000
  C   C7        1.0  0.37129  0.64171  0.41450  1.0000
  C   C8        1.0  0.36653  0.75487  0.45010  1.0000
  C   C9        1.0  0.38859  0.63694  0.44153  1.0000
  C   C10       1.0  0.33778  0.69098  0.47568  1.0000
  C   C11       1.0  0.31166  0.64984  0.46933  1.0000
  C   C12       1.0  0.35292  0.66519  0.47382  1.0000
  C   C13       1.0  0.66268  0.31098  0.01900  1.0000
  C   C14       1.0  0.68893  0.35207  0.02269  1.0000
  C   C15       1.0  0.64773  0.33688  0.01683  1.0000
  C   C16       1.0  0.31564  0.67211  0.47164  1.0000
  C   C17       1.0  0.33053  0.64674  0.46920  1.0000
  C   C18       1.0  0.35624  0.68718  0.47565  1.0000
  C   C19       1.0  0.68483  0.32978  0.02302  1.0000
  C   C20       1.0  0.67015  0.35530  0.02096  1.0000
  C   C21       1.0  0.64431  0.31487  0.01636  1.0000
  C   C22       1.0  0.35662  0.77877  0.05660  1.0000
  C   C23       1.0  0.42555  0.64289  0.06489  1.0000
  C   C24       1.0  0.64160  0.21860  0.43414  1.0000
  C   C25       1.0  0.37836  0.79438  0.12156  1.0000
  C   C26       1.0  0.41995  0.62238  0.13776  1.0000
  C   C27       1.0  0.61981  0.20343  0.36782  1.0000
  C   C28       1.0  0.38511  0.81712  0.14894  1.0000
  C   C29       1.0  0.43657  0.61688  0.16980  1.0000
  C   C30       1.0  0.61269  0.18064  0.33703  1.0000
  C   C31       1.0  0.37027  0.82479  0.10828  1.0000
  C   C32       1.0  0.45914  0.63166  0.12560  1.0000
  C   C33       1.0  0.62720  0.17249  0.37528  1.0000
  C   C34       1.0  0.34833  0.80967  0.04719  1.0000
  C   C35       1.0  0.46542  0.65242  0.05618  1.0000
  C   C36       1.0  0.64922  0.18722  0.43629  1.0000
  C   C37       1.0  0.34180  0.78679  0.02233  1.0000
  C   C38       1.0  0.44846  0.65776  0.02678  1.0000
  C   C39       1.0  0.65615  0.21014  0.46490  1.0000
  C   C40       1.0  0.50606  0.36994  0.42636  1.0000
  C   C41       1.0  0.62365  0.13596  0.43569  1.0000
  C   C42       1.0  0.86260  0.49228  0.44212  1.0000
  C   C43       1.0  0.49262  0.62849  0.06009  1.0000
  C   C44       1.0  0.37315  0.86091  0.04496  1.0000
  C   C45       1.0  0.13386  0.50939  0.07373  1.0000
  C   C46       1.0  0.39246  0.88439  0.02984  1.0000
  C   C47       1.0  0.11113  0.50690  0.04846  1.0000
  C   C48       1.0  0.60368  0.11326  0.46458  1.0000
  C   C49       1.0  0.88599  0.49601  0.45389  1.0000
  C   C50       1.0  0.41444  0.89138  0.09008  1.0000
  C   C51       1.0  0.10657  0.52423  0.09500  1.0000
  C   C52       1.0  0.58128  0.10830  0.43566  1.0000
  C   C53       1.0  0.89151  0.47992  0.39117  1.0000
  C   C54       1.0  0.43248  0.91284  0.05728  1.0000
  C   C55       1.0  0.08597  0.52235  0.05027  1.0000
  C   C56       1.0  0.56295  0.08774  0.48288  1.0000
  C   C57       1.0  0.91272  0.48256  0.42561  1.0000
  C   C58       1.0  0.07111  0.49900  0.47284  1.0000
  C   C59       1.0  0.50095  0.42967  0.04874  1.0000
  C   C60       1.0  0.07659  0.48238  0.42142  1.0000
  C   C61       1.0  0.48342  0.40762  0.08361  1.0000
  C   C62       1.0  0.09789  0.48523  0.45780  1.0000
  C   C63       1.0  0.48555  0.38877  0.04284  1.0000
  C   C64       1.0  0.50152  0.55048  0.43118  1.0000
  C   C65       1.0  0.45366  0.95368  0.40511  1.0000
  C   C66       1.0  0.04968  0.49782  0.42271  1.0000
  C   C67       1.0  0.50028  0.45025  0.10404  1.0000
  C   C68       1.0  0.55307  0.05066  0.09269  1.0000
  C   C69       1.0  0.95195  0.49764  0.08677  1.0000
  C   C70       1.0  0.48174  0.53168  0.36217  1.0000
  C   C71       1.0  0.47266  0.95250  0.34683  1.0000
  C   C72       1.0  0.05130  0.51730  0.35613  1.0000
  C   C73       1.0  0.51947  0.46781  0.18898  1.0000
  C   C74       1.0  0.53570  0.05263  0.17421  1.0000
  C   C75       1.0  0.95037  0.47801  0.15053  1.0000
  C   C76       1.0  0.48157  0.51245  0.29775  1.0000
  C   C77       1.0  0.49178  0.97112  0.28465  1.0000
  C   C78       1.0  0.03246  0.51753  0.29438  1.0000
  C   C79       1.0  0.52008  0.48730  0.25284  1.0000
  C   C80       1.0  0.51640  0.03402  0.23407  1.0000
  C   C81       1.0  0.96896  0.47799  0.21998  1.0000
  C   C82       1.0  0.50140  0.51089  0.30007  1.0000
  C   C83       1.0  0.49285  0.99214  0.27605  1.0000
  C   C84       1.0  0.01061  0.49819  0.30019  1.0000
  C   C85       1.0  0.50153  0.49063  0.22884  1.0000
  C   C86       1.0  0.51297  0.01205  0.20802  1.0000
  C   C87       1.0  0.99055  0.49781  0.22689  1.0000
  C   C88       1.0  0.52080  0.52924  0.37720  1.0000
  C   C89       1.0  0.47426  0.99345  0.34130  1.0000
  C   C90       1.0  0.00894  0.47929  0.37717  1.0000
  C   C91       1.0  0.48296  0.47361  0.13519  1.0000
  C   C92       1.0  0.52971  0.01005  0.11692  1.0000
  C   C93       1.0  0.99221  0.51704  0.15577  1.0000
  C   C94       1.0  0.52136  0.54884  0.44269  1.0000
  C   C95       1.0  0.45494  0.97500  0.40668  1.0000
  C   C96       1.0  0.02780  0.47852  0.43668  1.0000
  C   C97       1.0  0.48166  0.45347  0.07499  1.0000
  C   C98       1.0  0.54976  0.02872  0.06110  1.0000
  C   C99       1.0  0.97365  0.51753  0.08672  1.0000
  C   C100      1.0  0.54355  0.56588  0.01839  1.0000
  C   C101      1.0  0.42989  0.97310  0.99050  1.0000
  C   C102      1.0  0.02156  0.46217  0.00433  1.0000
  C   C103      1.0  0.46000  0.43521  0.47480  1.0000
  C   C104      1.0  0.56098  0.02463  0.48398  1.0000
  C   C105      1.0  0.97597  0.54441  0.50089  1.0000
  C   C106      1.0  0.35129  0.75986  0.53450  1.0000
  C   C107      1.0  0.40791  0.65171  0.53890  1.0000
  C   C108      1.0  0.33096  0.74169  0.59246  1.0000
  C   C109      1.0  0.40940  0.67168  0.60702  1.0000
  C   C110      1.0  0.32650  0.71944  0.57209  1.0000
  C   C111      1.0  0.39182  0.67620  0.58312  1.0000
  C   C112      1.0  0.65791  0.28811  0.51261  1.0000
  C   C113      1.0  0.63842  0.27015  0.58268  1.0000
  C   C114      1.0  0.63352  0.24784  0.55957  1.0000
  C   C115      1.0  0.33613  0.68577  0.97021  1.0000
  C   C116      1.0  0.31000  0.64474  0.97404  1.0000
  C   C117      1.0  0.35120  0.65992  0.97321  1.0000
  C   C118      1.0  0.66193  0.31152  0.52301  1.0000
  C   C119      1.0  0.68798  0.35258  0.52128  1.0000
  C   C120      1.0  0.64674  0.33730  0.52438  1.0000
  C   C121      1.0  0.31399  0.66698  0.97058  1.0000
  C   C122      1.0  0.32878  0.64152  0.97477  1.0000
  C   C123      1.0  0.35450  0.68186  0.96970  1.0000
  C   C124      1.0  0.68403  0.33035  0.52174  1.0000
  C   C125      1.0  0.66914  0.35573  0.52389  1.0000
  C   C126      1.0  0.64347  0.31533  0.52523  1.0000
  C   C127      1.0  0.35741  0.78377  0.56547  1.0000
  C   C128      1.0  0.21916  0.57610  0.55290  1.0000
  C   C129      1.0  0.42547  0.64560  0.57150  1.0000
  C   C130      1.0  0.64408  0.21854  0.94105  1.0000
  C   C131      1.0  0.78216  0.42376  0.93370  1.0000
  C   C132      1.0  0.57424  0.35537  0.93234  1.0000
  C   C133      1.0  0.37798  0.79890  0.64849  1.0000
  C   C134      1.0  0.20355  0.58229  0.61487  1.0000
  C   C135      1.0  0.41887  0.62420  0.63285  1.0000
  C   C136      1.0  0.62334  0.20263  0.86361  1.0000
  C   C137      1.0  0.79694  0.41647  0.87245  1.0000
  C   C138      1.0  0.58058  0.37657  0.86834  1.0000
  C   C139      1.0  0.38489  0.82173  0.67242  1.0000
  C   C140      1.0  0.18135  0.56596  0.65163  1.0000
  C   C141      1.0  0.43480  0.61765  0.66125  1.0000
  C   C142      1.0  0.61781  0.18025  0.83437  1.0000
  C   C143      1.0  0.81950  0.43193  0.83723  1.0000
  C   C144      1.0  0.56443  0.38275  0.83762  1.0000
  C   C145      1.0  0.37132  0.82986  0.61082  1.0000
  C   C146      1.0  0.17415  0.54297  0.62387  1.0000
  C   C147      1.0  0.45769  0.63232  0.62471  1.0000
  C   C148      1.0  0.63285  0.17330  0.88554  1.0000
  C   C149      1.0  0.82784  0.45514  0.86522  1.0000
  C   C150      1.0  0.54159  0.36792  0.87483  1.0000
  C   C151      1.0  0.35038  0.81517  0.53295  1.0000
  C   C152      1.0  0.18922  0.53617  0.56425  1.0000
  C   C153      1.0  0.46496  0.65389  0.56674  1.0000
  C   C154      1.0  0.65377  0.18874  0.96032  1.0000
  C   C155      1.0  0.81353  0.46304  0.92256  1.0000
  C   C156      1.0  0.53459  0.34653  0.93549  1.0000
  C   C157      1.0  0.34369  0.79221  0.51137  1.0000
  C   C158      1.0  0.21158  0.55288  0.52952  1.0000
  C   C159      1.0  0.44868  0.66028  0.54136  1.0000
  C   C160      1.0  0.65912  0.21126  0.98708  1.0000
  C   C161      1.0  0.79082  0.44719  0.95634  1.0000
  C   C162      1.0  0.55109  0.34050  0.96294  1.0000
  C   C163      1.0  0.50800  0.37127  0.93760  1.0000
  C   C164      1.0  0.63084  0.13767  0.95158  1.0000
  C   C165      1.0  0.86519  0.48839  0.92636  1.0000
  C   C166      1.0  0.49080  0.62836  0.55921  1.0000
  C   C167      1.0  0.37570  0.86624  0.53493  1.0000
  C   C168      1.0  0.13752  0.50842  0.56735  1.0000
  C   C169      1.0  0.11419  0.50463  0.54856  1.0000
  C   C170      1.0  0.50510  0.39132  0.96233  1.0000
  C   C171      1.0  0.10864  0.52096  0.60439  1.0000
  C   C172      1.0  0.52234  0.41318  0.92217  1.0000
  C   C173      1.0  0.08753  0.51819  0.56524  1.0000
  C   C174      1.0  0.52035  0.43195  0.96712  1.0000
  C   C175      1.0  0.42933  0.92808  0.96386  1.0000
  C   C176      1.0  0.06908  0.50302  0.96170  1.0000
  C   C177      1.0  0.56620  0.07119  0.55577  1.0000
  C   C178      1.0  0.92917  0.50135  0.52147  1.0000
  C   C179      1.0  0.40712  0.92099  0.90651  1.0000
  C   C180      1.0  0.07359  0.48545  0.92007  1.0000
  C   C181      1.0  0.58878  0.07627  0.58152  1.0000
  C   C182      1.0  0.92370  0.51775  0.57939  1.0000
  C   C183      1.0  0.38898  0.89955  0.93922  1.0000
  C   C184      1.0  0.09435  0.48744  0.96129  1.0000
  C   C185      1.0  0.60721  0.09699  0.53813  1.0000
  C   C186      1.0  0.90243  0.51510  0.54642  1.0000
  C   C187      1.0  0.50222  0.55032  0.92139  1.0000
  C   C188      1.0  0.44916  0.94992  0.91715  1.0000
  C   C189      1.0  0.04815  0.50232  0.90454  1.0000
  C   C190      1.0  0.49946  0.44920  0.60232  1.0000
  C   C191      1.0  0.54641  0.04994  0.61180  1.0000
  C   C192      1.0  0.95065  0.50257  0.56995  1.0000
  C   C193      1.0  0.48200  0.53145  0.85856  1.0000
  C   C194      1.0  0.46915  0.95018  0.86659  1.0000
  C   C195      1.0  0.05027  0.52171  0.83225  1.0000
  C   C196      1.0  0.51869  0.46674  0.68691  1.0000
  C   C197      1.0  0.52887  0.05119  0.69754  1.0000
  C   C198      1.0  0.94948  0.48269  0.62413  1.0000
  C   C199      1.0  0.48120  0.51175  0.79756  1.0000
  C   C200      1.0  0.48807  0.96959  0.81075  1.0000
  C   C201      1.0  0.03174  0.52202  0.76426  1.0000
  C   C202      1.0  0.51930  0.48624  0.74983  1.0000
  C   C203      1.0  0.51013  0.03220  0.76021  1.0000
  C   C204      1.0  0.96836  0.48259  0.68647  1.0000
  C   C205      1.0  0.50097  0.51006  0.79453  1.0000
  C   C206      1.0  0.48789  0.98998  0.80034  1.0000
  C   C207      1.0  0.00975  0.50289  0.77023  1.0000
  C   C208      1.0  0.50080  0.48961  0.72500  1.0000
  C   C209      1.0  0.50758  0.01055  0.73490  1.0000
  C   C210      1.0  0.98976  0.50259  0.69660  1.0000
  C   C211      1.0  0.52085  0.52861  0.86404  1.0000
  C   C212      1.0  0.46827  0.98989  0.85847  1.0000
  C   C213      1.0  0.00757  0.48411  0.85237  1.0000
  C   C214      1.0  0.48219  0.47261  0.63169  1.0000
  C   C215      1.0  0.52464  0.00928  0.64268  1.0000
  C   C216      1.0  0.99110  0.52204  0.63217  1.0000
  C   C217      1.0  0.52195  0.54843  0.92946  1.0000
  C   C218      1.0  0.44918  0.97066  0.91836  1.0000
  C   C219      1.0  0.02608  0.48322  0.91767  1.0000
  C   C220      1.0  0.48089  0.45244  0.57225  1.0000
  C   C221      1.0  0.54397  0.02826  0.58250  1.0000
  C   C222      1.0  0.97224  0.52256  0.56968  1.0000
  C   C223      1.0  0.54302  0.56720  0.52601  1.0000
  C   C224      1.0  0.43679  0.97894  0.48329  1.0000
  C   C225      1.0  0.02386  0.45722  0.51620  1.0000
  C   C226      1.0  0.46055  0.43625  0.97968  1.0000
  C   C227      1.0  0.56685  0.02465  0.96800  1.0000
  C   C228      1.0  0.97798  0.53914  0.00962  1.0000
  O   O1        1.0  0.52560  0.37569  0.33555  1.0000
  O   O2        1.0  0.61695  0.14893  0.35080  1.0000
  O   O3        1.0  0.84908  0.47309  0.34207  1.0000
  O   O4        1.0  0.47343  0.62294  0.15386  1.0000
  O   O5        1.0  0.38006  0.84827  0.13217  1.0000
  O   O6        1.0  0.14777  0.52918  0.16694  1.0000
  O   O7        1.0  0.50421  0.64651  0.99340  1.0000
  O   O8        1.0  0.35424  0.85357  0.98437  1.0000
  O   O9        1.0  0.13977  0.49641  0.01660  1.0000
  O   O10       1.0  0.49313  0.35111  0.47664  1.0000
  O   O11       1.0  0.64303  0.14252  0.48325  1.0000
  O   O12       1.0  0.85601  0.50384  0.51548  1.0000
  O   O13       1.0  0.52771  0.37718  0.84895  1.0000
  O   O14       1.0  0.62422  0.15005  0.85847  1.0000
  O   O15       1.0  0.85117  0.46855  0.83396  1.0000
  O   O16       1.0  0.47137  0.62281  0.65017  1.0000
  O   O17       1.0  0.38134  0.85344  0.63163  1.0000
  O   O18       1.0  0.15109  0.52860  0.65789  1.0000
  O   O19       1.0  0.50254  0.64636  0.49288  1.0000
  O   O20       1.0  0.35731  0.85927  0.46619  1.0000
  O   O21       1.0  0.14410  0.49609  0.50766  1.0000
  O   O22       1.0  0.49540  0.35259  0.99171  1.0000
  O   O23       1.0  0.64984  0.14495  0.01042  1.0000
  O   O24       1.0  0.85913  0.50092  0.99073  1.0000
  C  Sn1       1.0  0.67569  0.26651  0.95796  1.0000
  C   C229      1.0  0.65506  0.24117  0.00932  1.0000
  C  Sn2       1.0  0.63507  0.24112  0.05195  1.0000
  C  Sn3       1.0  0.63416  0.26133  0.04298  1.0000
  C   C230      1.0  0.65479  0.28665  0.99162  1.0000
  C  Sn4       1.0  0.67479  0.28672  0.94899  1.0000
  O  Te1       1.0  0.69550  0.26617  0.91592  1.0000
  O  Te2       1.0  0.61618  0.22107  0.10299  1.0000
  O  Te3       1.0  0.61434  0.26165  0.08508  1.0000
  O  Te4       1.0  0.69367  0.30675  0.89795  1.0000
  Mg  Mg1       1.0  0.59309  0.23008  0.14728  1.0000
  Mg  Mg2       1.0  0.71677  0.29777  0.85355  1.0000
  C  Sn5       1.0  0.42148  0.90200  0.61898  1.0000
  C   C231      1.0  0.39871  0.89324  0.57278  1.0000
  C  Sn6       1.0  0.39290  0.90356  0.45075  1.0000
  C  Sn7       1.0  0.41021  0.92303  0.37320  1.0000
  C   C232      1.0  0.43297  0.93178  0.41938  1.0000
  C  Sn8       1.0  0.43880  0.92147  0.54142  1.0000
  O  Te5       1.0  0.42690  0.89141  0.74126  1.0000
  O  Te6       1.0  0.37002  0.89449  0.40669  1.0000
  O  Te7       1.0  0.40478  0.93362  0.25084  1.0000
  O  Te8       1.0  0.46167  0.93052  0.58547  1.0000
  Mg  Mg3       1.0  0.37119  0.91493  0.23339  1.0000
  Mg  Mg4       1.0  0.46051  0.91009  0.75867  1.0000
  C  Sn9       1.0  0.39859  0.67608  0.02393  1.0000
  C   C233      1.0  0.37842  0.66675  0.95714  1.0000
  C  Sn10      1.0  0.37073  0.64361  0.93518  1.0000
  C  Sn11      1.0  0.38501  0.63510  0.98104  1.0000
  C   C234      1.0  0.40516  0.64444  0.04781  1.0000
  C  Sn12      1.0  0.41287  0.66758  0.06978  1.0000
  O  Te9       1.0  0.40593  0.69916  0.04479  1.0000
  O  Te10      1.0  0.34898  0.62912  0.86812  1.0000
  O  Te11      1.0  0.37765  0.61201  0.96012  1.0000
  O  Te12      1.0  0.43460  0.68207  0.13683  1.0000
  Mg  Mg5       1.0  0.34665  0.59904  0.86383  1.0000
  Mg  Mg6       1.0  0.43694  0.71214  0.14125  1.0000
  C  Sn13      1.0  0.57757  0.38171  0.39579  1.0000
  C   C235      1.0  0.57453  0.36182  0.46298  1.0000
  C  Sn14      1.0  0.55285  0.34260  0.46851  1.0000
  C  Sn15      1.0  0.53379  0.34326  0.40546  1.0000
  C   C236      1.0  0.53683  0.36313  0.33830  1.0000
  C  Sn16      1.0  0.55851  0.38237  0.33275  1.0000
  O  Te13      1.0  0.59940  0.40072  0.39154  1.0000
  O  Te14      1.0  0.55024  0.32291  0.53632  1.0000
  O  Te15      1.0  0.51195  0.32422  0.40978  1.0000
  O  Te16      1.0  0.56113  0.40204  0.26496  1.0000
  Mg  Mg7       1.0  0.51708  0.30139  0.51425  1.0000
  Mg  Mg8       1.0  0.59427  0.42356  0.28689  1.0000
  C  Sn17      1.0  0.19871  0.57889  0.18350  1.0000
  C   C237      1.0  0.21543  0.57416  0.12659  1.0000
  C  Sn18      1.0  0.20934  0.55263  0.05958  1.0000
  C  Sn19      1.0  0.18605  0.53546  0.04913  1.0000
  C   C238      1.0  0.16935  0.54019  0.10600  1.0000
  C  Sn20      1.0  0.17542  0.56172  0.17306  1.0000
  O  Te17      1.0  0.20519  0.60053  0.25003  1.0000
  O  Te18      1.0  0.22636  0.54831  0.00354  1.0000
  O  Te19      1.0  0.18110  0.51929  0.98254  1.0000
  O  Te20      1.0  0.15842  0.56604  0.22905  1.0000
  Mg  Mg9       1.0  0.21052  0.52167  0.92276  1.0000
  Mg  Mg10      1.0  0.17575  0.59817  0.30976  1.0000
  C  Sn21      1.0  0.89494  0.47076  0.93596  1.0000
  C   C239      1.0  0.88711  0.48581  0.97203  1.0000
  C  Sn22      1.0  0.90076  0.50269  0.02591  1.0000
  C  Sn23      1.0  0.92426  0.51017  0.04401  1.0000
  C   C240      1.0  0.93208  0.49512  0.00791  1.0000
  C  Sn24      1.0  0.91844  0.47824  0.95406  1.0000
  O  Te21      1.0  0.87946  0.44848  0.88227  1.0000
  O  Te22      1.0  0.89253  0.51742  0.06127  1.0000
  O  Te23      1.0  0.93974  0.53247  0.09774  1.0000
  O  Te24      1.0  0.92666  0.46351  0.91867  1.0000
  Mg  Mg11      1.0  0.92029  0.54615  0.13046  1.0000
  Mg  Mg12      1.0  0.89892  0.43478  0.84940  1.0000
  C  Sn25      1.0  0.60644  0.32807  0.86337  1.0000
  C   C241      1.0  0.62694  0.34120  0.95157  1.0000
  C  Sn26      1.0  0.62795  0.35273  0.06710  1.0000
  C  Sn27      1.0  0.60961  0.35670  0.09515  1.0000
  C   C242      1.0  0.58914  0.34357  0.00701  1.0000
  C  Sn28      1.0  0.58811  0.33204  0.89142  1.0000
  O  Te25      1.0  0.60429  0.31114  0.74848  1.0000
  O  Te26      1.0  0.64860  0.36565  0.15373  1.0000
  O  Te27      1.0  0.61178  0.37365  0.21016  1.0000
  O  Te28      1.0  0.56747  0.31913  0.80485  1.0000
  Mg  Mg13      1.0  0.64325  0.38674  0.29745  1.0000
  Mg  Mg14      1.0  0.57280  0.29803  0.66117  1.0000
  C  Sn29      1.0  0.80287  0.42131  0.40381  1.0000
  C   C243      1.0  0.78542  0.42464  0.46528  1.0000
  C  Sn30      1.0  0.78770  0.44612  0.46622  1.0000
  C  Sn31      1.0  0.80784  0.46468  0.40433  1.0000
  C   C244      1.0  0.82527  0.46135  0.34288  1.0000
  C  Sn32      1.0  0.82300  0.43986  0.34192  1.0000
  O  Te29      1.0  0.80022  0.39968  0.40406  1.0000
  O  Te30      1.0  0.77003  0.44903  0.52836  1.0000
  O  Te31      1.0  0.81048  0.48632  0.40413  1.0000
  O  Te32      1.0  0.84066  0.43695  0.27980  1.0000
  Mg  Mg15      1.0  0.78165  0.48173  0.50161  1.0000
  Mg  Mg16      1.0  0.82905  0.40426  0.30641  1.0000
  C  Sn33      1.0  0.25012  0.61020  0.88962  1.0000
  C   C245      1.0  0.24237  0.59101  0.98483  1.0000
  C  Sn34      1.0  0.25545  0.58401  0.09834  1.0000
  C  Sn35      1.0  0.27827  0.60206  0.11715  1.0000
  C   C246      1.0  0.28601  0.62124  0.02200  1.0000
  C  Sn36      1.0  0.27294  0.62826  0.90844  1.0000
  O  Te33      1.0  0.23523  0.61135  0.77691  1.0000
  O  Te34      1.0  0.24731  0.56464  0.19210  1.0000
  O  Te35      1.0  0.29316  0.60090  0.22997  1.0000
  O  Te36      1.0  0.28107  0.64761  0.81474  1.0000
  Mg  Mg17      1.0  0.27411  0.57103  0.32937  1.0000
  Mg  Mg18      1.0  0.25428  0.64124  0.67750  1.0000
  C  Sn37      1.0  0.72206  0.39321  0.88324  1.0000
  C   C247      1.0  0.71422  0.37274  0.96231  1.0000
  C  Sn38      1.0  0.72717  0.36425  0.06735  1.0000
  C  Sn39      1.0  0.74994  0.38209  0.09399  1.0000
  C   C248      1.0  0.75777  0.40254  0.01497  1.0000
  C  Sn40      1.0  0.74484  0.41104  0.90989  1.0000
  O  Te37      1.0  0.70730  0.39583  0.77877  1.0000
  O  Te38      1.0  0.71894  0.34363  0.14498  1.0000
  O  Te39      1.0  0.76470  0.37945  0.19857  1.0000
  O  Te40      1.0  0.75305  0.43165  0.83231  1.0000
  Mg  Mg19      1.0  0.74557  0.34823  0.27616  1.0000
  Mg  Mg20      1.0  0.72644  0.42707  0.70118  1.0000
  C  Sn41      1.0  0.52199  0.59886  0.95784  1.0000
  C   C249      1.0  0.50644  0.57101  0.00478  1.0000
  C  Sn42      1.0  0.48461  0.56392  0.06522  1.0000
  C  Sn43      1.0  0.47663  0.57948  0.07894  1.0000
  C   C250      1.0  0.49066  0.60181  0.03200  1.0000
  C  Sn44      1.0  0.51402  0.61442  0.97156  1.0000
  O  Te41      1.0  0.54376  0.60558  0.89773  1.0000
  O  Te42      1.0  0.47089  0.54149  0.11142  1.0000
  O  Te43      1.0  0.45484  0.57273  0.13911  1.0000
  O  Te44      1.0  0.52773  0.63683  0.92535  1.0000
  Mg  Mg21      1.0  0.44253  0.54041  0.18609  1.0000
  Mg  Mg22      1.0  0.55608  0.63793  0.85058  1.0000
  C  Sn45      1.0  0.48114  0.58370  0.64567  1.0000
  C   C251      1.0  0.49509  0.60600  0.59741  1.0000
  C  Sn46      1.0  0.51149  0.61099  0.47421  1.0000
  C  Sn47      1.0  0.51400  0.59332  0.39755  1.0000
  C   C252      1.0  0.50006  0.57103  0.44579  1.0000
  C  Sn48      1.0  0.48366  0.56602  0.56901  1.0000
  O  Te45      1.0  0.46486  0.57910  0.76909  1.0000
  O  Te46      1.0  0.52524  0.63342  0.42810  1.0000
  O  Te47      1.0  0.53031  0.59793  0.27404  1.0000
  O  Te48      1.0  0.46991  0.54361  0.61510  1.0000
  Mg  Mg23      1.0  0.54497  0.63115  0.25387  1.0000
  Mg  Mg24      1.0  0.45017  0.54585  0.78925  1.0000
  C  Sn49      1.0  0.61882  0.36934  0.51632  1.0000
  C   C253      1.0  0.59778  0.35543  0.43688  1.0000
  C  Sn50      1.0  0.58980  0.33234  0.40659  1.0000
  C  Sn51      1.0  0.60313  0.32296  0.45685  1.0000
  C   C254      1.0  0.62415  0.33686  0.53627  1.0000
  C  Sn52      1.0  0.63214  0.35995  0.56658  1.0000
  O  Te49      1.0  0.62646  0.39237  0.54533  1.0000
  O  Te50      1.0  0.56871  0.31878  0.32692  1.0000
  O  Te51      1.0  0.59547  0.29990  0.42776  1.0000
  O  Te52      1.0  0.65321  0.37351  0.64622  1.0000
  Mg  Mg25      1.0  0.56564  0.28837  0.31517  1.0000
  Mg  Mg26      1.0  0.65630  0.40391  0.65812  1.0000
  C  Sn53      1.0  0.26391  0.63136  0.46073  1.0000
  C   C255      1.0  0.28426  0.63251  0.50633  1.0000
  C  Sn54      1.0  0.28438  0.61295  0.54861  1.0000
  C  Sn55      1.0  0.26374  0.59179  0.54515  1.0000
  C   C256      1.0  0.24342  0.59064  0.49954  1.0000
  C  Sn56      1.0  0.24328  0.61019  0.45727  1.0000
  O  Te53      1.0  0.26419  0.65113  0.41893  1.0000
  O  Te54      1.0  0.30493  0.61453  0.59384  1.0000
  O  Te55      1.0  0.26348  0.57201  0.58700  1.0000
  O  Te56      1.0  0.22274  0.60862  0.41203  1.0000
  Mg  Mg27      1.0  0.29581  0.58284  0.64020  1.0000
  Mg  Mg28      1.0  0.23184  0.64030  0.36556  1.0000
  C  Sn57      1.0  0.36609  0.73304  0.96206  1.0000
  C   C257      1.0  0.34501  0.70774  0.00854  1.0000
  C  Sn58      1.0  0.32539  0.70823  0.05454  1.0000
  C  Sn59      1.0  0.32533  0.72894  0.05399  1.0000
  C   C258      1.0  0.34489  0.74873  0.00750  1.0000
  C  Sn60      1.0  0.36603  0.75374  0.96150  1.0000
  O  Te57      1.0  0.38551  0.73215  0.91652  1.0000
  O  Te58      1.0  0.30604  0.68822  0.10059  1.0000
  O  Te59      1.0  0.30589  0.72981  0.09958  1.0000
  O  Te60      1.0  0.38537  0.77374  0.91545  1.0000
  Mg  Mg29      1.0  0.28375  0.69807  0.15248  1.0000
  Mg  Mg30      1.0  0.40767  0.76391  0.86346  1.0000
  C  Sn61      1.0  0.73517  0.37701  0.61760  1.0000
  C   C259      1.0  0.71494  0.37526  0.56155  1.0000
  C  Sn62      1.0  0.71534  0.38934  0.43806  1.0000
  C  Sn63      1.0  0.73641  0.40549  0.36907  1.0000
  C   C260      1.0  0.75662  0.40723  0.42509  1.0000
  C  Sn64      1.0  0.75624  0.39316  0.54861  1.0000
  O  Te61      1.0  0.73437  0.36277  0.74116  1.0000
  O  Te62      1.0  0.69489  0.38728  0.38407  1.0000
  O  Te63      1.0  0.73720  0.41974  0.24541  1.0000
  O  Te64      1.0  0.77667  0.39522  0.60257  1.0000
  Mg  Mg31      1.0  0.70480  0.41049  0.21296  1.0000
  Mg  Mg32      1.0  0.76678  0.37201  0.77360  1.0000
  C  Sn65      1.0  0.48453  0.40231  0.62418  1.0000
  C   C261      1.0  0.49970  0.42499  0.59054  1.0000
  C  Sn66      1.0  0.51680  0.43058  0.47218  1.0000
  C  Sn67      1.0  0.51877  0.41315  0.38556  1.0000
  C   C262      1.0  0.50361  0.39049  0.41918  1.0000
  C  Sn68      1.0  0.48651  0.38488  0.53755  1.0000
  O  Te65      1.0  0.46757  0.39711  0.74300  1.0000
  O  Te66      1.0  0.53177  0.45338  0.44073  1.0000
  O  Te67      1.0  0.53576  0.41837  0.26667  1.0000
  O  Te68      1.0  0.47154  0.36210  0.56899  1.0000
  Mg  Mg33      1.0  0.55205  0.45190  0.26753  1.0000
  Mg  Mg34      1.0  0.45125  0.36355  0.74209  1.0000
  C  Sn69      1.0  0.61216  0.09103  0.01790  1.0000
  C   C263      1.0  0.61354  0.11468  0.94488  1.0000
  C  Sn70      1.0  0.59332  0.11514  0.93241  1.0000
  C  Sn71      1.0  0.57280  0.09708  0.99430  1.0000
  C   C264      1.0  0.57143  0.07345  0.06730  1.0000
  C  Sn72      1.0  0.59164  0.07297  0.07980  1.0000
  O  Te69      1.0  0.63257  0.09092  0.02907  1.0000
  O  Te70      1.0  0.59361  0.13348  0.85885  1.0000
  O  Te71      1.0  0.55238  0.09721  0.98308  1.0000
  O  Te72      1.0  0.59136  0.05465  0.15333  1.0000
  Mg  Mg35      1.0  0.56146  0.12591  0.87251  1.0000
  Mg  Mg36      1.0  0.62350  0.06221  0.13981  1.0000
