data_image0
_chemical_formula_structural       H12C36O24C2Sn2C2HTe2HMgC2Sn2C2HTe2HMgC2Sn2C2HTe2HMgC2Sn2C2HTe2HMgC2Sn2C2HTe2HMgC2Sn2C2HTe2HMgC2Sn2C2HTe2HMgC2Sn2C2HTe2HMgC2Sn2C2HTe2HMgC2Sn2C2HTe2HMgC2Sn2C2HTe2HMgC2Sn2C2HTe2HMgC2Sn2C2HTe2HMgC2Sn2C2HTe2HMgC2Sn2C2HTe2HMgC2Sn2C2HTe2HMgC2Sn2C2HTe2HMgC2Sn2C2HTe2HMgC2Sn2C2HTe2HMgC2Sn2C2HTe2HMgC2Sn2C2HTe2HMgC2Sn2C2HTe2HMgC2Sn2C2HTe2HMgC2Sn2C2HTe2HMg
_chemical_formula_sum              "H60 C132 O24 Sn48 Te48 Mg24"
_cell_length_a       41.2066
_cell_length_b       41.6606
_cell_length_c       8.09123
_cell_angle_alpha    90.5662
_cell_angle_beta     89.7815
_cell_angle_gamma    120.184

_symmetry_space_group_name_H-M    'P1'
_space_group_IT_number       1

loop_
  _space_group_symop_operation_xyz
  'x, y, z'

loop_
  _atom_site_type_symbol
  _atom_site_label
  _atom_site_symmetry_multiplicity
  _atom_site_fract_x
  _atom_site_fract_y
  _atom_site_fract_z
  _atom_site_occupancy
  H   H1        1.0  0.70607  0.30322  0.25252  1.0000
  H   H2        1.0  0.70036  0.40336  0.24527  1.0000
  H   H3        1.0  0.59897  0.29727  0.24560  1.0000
  H   H4        1.0  0.29772  0.69953  0.25693  1.0000
  H   H5        1.0  0.30618  0.60094  0.25921  1.0000
  H   H6        1.0  0.40606  0.70844  0.27447  1.0000
  H   H7        1.0  0.70234  0.30111  0.75227  1.0000
  H   H8        1.0  0.69465  0.40010  0.74132  1.0000
  H   H9        1.0  0.59436  0.29295  0.73080  1.0000
  H   H10       1.0  0.29384  0.69615  0.75625  1.0000
  H   H11       1.0  0.30087  0.59669  0.75616  1.0000
  H   H12       1.0  0.40155  0.70337  0.75724  1.0000
  C   C1        1.0  0.65028  0.29549  0.25296  1.0000
  C   C2        1.0  0.70813  0.35594  0.25293  1.0000
  C   C3        1.0  0.64706  0.35253  0.24892  1.0000
  C   C4        1.0  0.35400  0.70868  0.26164  1.0000
  C   C5        1.0  0.29714  0.64753  0.25336  1.0000
  C   C6        1.0  0.35890  0.65248  0.26356  1.0000
  C   C7        1.0  0.68958  0.31699  0.25566  1.0000
  C   C8        1.0  0.68643  0.37326  0.25195  1.0000
  C   C9        1.0  0.62943  0.31369  0.25201  1.0000
  C   C10       1.0  0.31482  0.68641  0.25446  1.0000
  C   C11       1.0  0.31958  0.63104  0.25596  1.0000
  C   C12       1.0  0.37570  0.69132  0.26448  1.0000
  C   C13       1.0  0.58553  0.46196  0.03493  1.0000
  C   C14       1.0  0.53582  0.12227  0.06275  1.0000
  C   C15       1.0  0.88221  0.41780  0.05716  1.0000
  C   C16       1.0  0.42134  0.54215  0.45510  1.0000
  C   C17       1.0  0.46138  0.88133  0.46161  1.0000
  C   C18       1.0  0.12155  0.58336  0.42846  1.0000
  C   C19       1.0  0.64620  0.29232  0.74637  1.0000
  C   C20       1.0  0.70342  0.35334  0.75142  1.0000
  C   C21       1.0  0.64183  0.34877  0.73881  1.0000
  C   C22       1.0  0.34995  0.70464  0.75423  1.0000
  C   C23       1.0  0.29242  0.64377  0.75239  1.0000
  C   C24       1.0  0.35383  0.64791  0.75226  1.0000
  C   C25       1.0  0.68542  0.31442  0.75333  1.0000
  C   C26       1.0  0.68116  0.37001  0.74681  1.0000
  C   C27       1.0  0.62474  0.30991  0.74104  1.0000
  C   C28       1.0  0.31065  0.68274  0.75175  1.0000
  C   C29       1.0  0.31445  0.62680  0.75097  1.0000
  C   C30       1.0  0.37109  0.68673  0.75192  1.0000
  C   C31       1.0  0.57964  0.45890  0.53275  1.0000
  C   C32       1.0  0.53735  0.11912  0.54607  1.0000
  C   C33       1.0  0.87851  0.41632  0.56778  1.0000
  C   C34       1.0  0.41505  0.53806  0.95164  1.0000
  C   C35       1.0  0.46195  0.87686  0.95544  1.0000
  C   C36       1.0  0.11805  0.58124  0.94122  1.0000
  O   O1        1.0  0.61945  0.48250  0.04393  1.0000
  O   O2        1.0  0.51389  0.13315  0.09185  1.0000
  O   O3        1.0  0.86994  0.38459  0.07328  1.0000
  O   O4        1.0  0.38782  0.52090  0.43437  1.0000
  O   O5        1.0  0.48250  0.86882  0.45270  1.0000
  O   O6        1.0  0.13293  0.61634  0.40886  1.0000
  O   O7        1.0  0.56658  0.42578  0.09130  1.0000
  O   O8        1.0  0.57338  0.14117  0.10732  1.0000
  O   O9        1.0  0.86445  0.43635  0.11601  1.0000
  O   O10       1.0  0.44000  0.57898  0.40834  1.0000
  O   O11       1.0  0.42510  0.86335  0.40060  1.0000
  O   O12       1.0  0.14036  0.56539  0.37528  1.0000
  O   O13       1.0  0.61325  0.48035  0.55019  1.0000
  O   O14       1.0  0.51516  0.13006  0.56674  1.0000
  O   O15       1.0  0.86718  0.38345  0.59088  1.0000
  O   O16       1.0  0.38128  0.51758  0.93428  1.0000
  O   O17       1.0  0.48241  0.86357  0.94960  1.0000
  O   O18       1.0  0.13035  0.61446  0.92533  1.0000
  O   O19       1.0  0.56127  0.42218  0.58168  1.0000
  O   O20       1.0  0.57434  0.13801  0.59918  1.0000
  O   O21       1.0  0.85965  0.43445  0.61722  1.0000
  O   O22       1.0  0.43461  0.57454  0.89936  1.0000
  O   O23       1.0  0.42585  0.85963  0.89204  1.0000
  O   O24       1.0  0.13595  0.56270  0.88429  1.0000
  C   C37       1.0  0.63579  0.20986  0.08929  1.0000
  C   C38       1.0  0.60137  0.18227  0.15156  1.0000
  C  Sn1       1.0  0.58026  0.19173  0.25550  1.0000
  C  Sn2       1.0  0.59392  0.22953  0.29762  1.0000
  C   C39       1.0  0.62836  0.25693  0.23459  1.0000
  C   C40       1.0  0.64927  0.24716  0.13073  1.0000
  H   H13       1.0  0.65195  0.20231  0.00886  1.0000
  O  Te1       1.0  0.54594  0.16381  0.31667  1.0000
  O  Te2       1.0  0.57338  0.23976  0.40120  1.0000
  H   H14       1.0  0.67590  0.26853  0.08245  1.0000
  Mg  Mg1       1.0  0.52821  0.19164  0.45344  1.0000
  C   C41       1.0  0.77417  0.41906  0.12292  1.0000
  C   C42       1.0  0.75255  0.38539  0.20440  1.0000
  C  Sn3       1.0  0.76974  0.36755  0.27812  1.0000
  C  Sn4       1.0  0.80933  0.38378  0.26996  1.0000
  C   C43       1.0  0.83071  0.41749  0.18826  1.0000
  C   C44       1.0  0.81322  0.43510  0.11487  1.0000
  H   H15       1.0  0.76064  0.43270  0.06621  1.0000
  O  Te3       1.0  0.74771  0.33392  0.35898  1.0000
  O  Te4       1.0  0.82724  0.36655  0.34263  1.0000
  H   H16       1.0  0.82997  0.46118  0.05189  1.0000
  Mg  Mg2       1.0  0.78512  0.32107  0.43881  1.0000
  C   C45       1.0  0.58362  0.35353  0.10924  1.0000
  C   C46       1.0  0.61735  0.36647  0.19518  1.0000
  C  Sn5       1.0  0.63518  0.40186  0.26733  1.0000
  C  Sn6       1.0  0.61886  0.42467  0.25300  1.0000
  C   C47       1.0  0.58509  0.41146  0.16686  1.0000
  C   C48       1.0  0.56750  0.37600  0.09510  1.0000
  H   H17       1.0  0.56999  0.32609  0.05378  1.0000
  O  Te5       1.0  0.66888  0.41436  0.35271  1.0000
  O  Te6       1.0  0.63608  0.46015  0.32397  1.0000
  H   H18       1.0  0.54137  0.36598  0.02865  1.0000
  Mg  Mg3       1.0  0.68168  0.46477  0.42796  1.0000
  C   C49       1.0  0.35454  0.77254  0.40173  1.0000
  C   C50       1.0  0.36571  0.75282  0.29819  1.0000
  C  Sn7       1.0  0.40081  0.77095  0.22144  1.0000
  C  Sn8       1.0  0.42512  0.80954  0.24913  1.0000
  C   C51       1.0  0.41368  0.82901  0.35303  1.0000
  C   C52       1.0  0.37850  0.81060  0.42916  1.0000
  H   H19       1.0  0.32732  0.75829  0.46071  1.0000
  O  Te7       1.0  0.41153  0.75083  0.11832  1.0000
  O  Te8       1.0  0.46036  0.82835  0.17404  1.0000
  H   H20       1.0  0.36986  0.82587  0.50941  1.0000
  Mg  Mg4       1.0  0.46230  0.78884  0.04395  1.0000
  C   C53       1.0  0.22262  0.63545  0.19200  1.0000
  C   C54       1.0  0.25059  0.62931  0.25458  1.0000
  C  Sn9       1.0  0.24108  0.59877  0.35517  1.0000
  C  Sn10      1.0  0.20283  0.57395  0.39358  1.0000
  C   C55       1.0  0.17506  0.58032  0.33027  1.0000
  C   C56       1.0  0.18489  0.61098  0.22977  1.0000
  H   H21       1.0  0.23022  0.65916  0.11417  1.0000
  O  Te9       1.0  0.26937  0.59306  0.41670  1.0000
  O  Te10      1.0  0.19254  0.54319  0.49377  1.0000
  H   H22       1.0  0.16323  0.61571  0.18126  1.0000
  Mg  Mg5       1.0  0.24128  0.54722  0.54800  1.0000
  C   C57       1.0  0.37916  0.57860  0.24016  1.0000
  C   C58       1.0  0.41258  0.59078  0.32767  1.0000
  C  Sn11      1.0  0.43064  0.62591  0.40241  1.0000
  C  Sn12      1.0  0.41487  0.64921  0.38912  1.0000
  C   C59       1.0  0.38141  0.63676  0.30140  1.0000
  C   C60       1.0  0.36359  0.60157  0.22704  1.0000
  H   H23       1.0  0.36536  0.55137  0.18270  1.0000
  O  Te11      1.0  0.46401  0.63764  0.48933  1.0000
  O  Te12      1.0  0.43232  0.68444  0.46267  1.0000
  H   H24       1.0  0.33770  0.59214  0.15938  1.0000
  Mg  Mg6       1.0  0.47732  0.68798  0.56798  1.0000
  C   C61       1.0  0.50714  0.44031  0.39003  1.0000
  C   C62       1.0  0.54471  0.46118  0.43881  1.0000
  C  Sn13      1.0  0.56470  0.49959  0.41629  1.0000
  C  Sn14      1.0  0.54666  0.51737  0.34359  1.0000
  C   C63       1.0  0.50905  0.49626  0.29532  1.0000
  C   C64       1.0  0.48932  0.45783  0.31838  1.0000
  H   H25       1.0  0.49187  0.41059  0.40795  1.0000
  O  Te13      1.0  0.60222  0.52002  0.46567  1.0000
  O  Te14      1.0  0.56597  0.55573  0.31970  1.0000
  H   H26       1.0  0.46022  0.44169  0.28070  1.0000
  Mg  Mg7       1.0  0.61669  0.57158  0.40726  1.0000
  C   C65       1.0  0.47724  0.03370  0.34980  1.0000
  C   C66       1.0  0.49962  0.02023  0.28485  1.0000
  C  Sn15      1.0  0.53833  0.03946  0.31294  1.0000
  C  Sn16      1.0  0.55486  0.07278  0.40790  1.0000
  C   C67       1.0  0.53222  0.08601  0.47243  1.0000
  C   C68       1.0  0.49351  0.06656  0.44352  1.0000
  H   H27       1.0  0.44729  0.01864  0.32752  1.0000
  O  Te15      1.0  0.56029  0.02562  0.24709  1.0000
  O  Te16      1.0  0.59347  0.09254  0.43791  1.0000
  H   H28       1.0  0.47619  0.07698  0.49391  1.0000
  Mg  Mg8       1.0  0.61161  0.06248  0.32192  1.0000
  C   C69       1.0  0.95001  0.50043  0.38532  1.0000
  C   C70       1.0  0.97647  0.49175  0.32418  1.0000
  C  Sn17      1.0  0.97004  0.45557  0.33526  1.0000
  C  Sn18      1.0  0.93646  0.42760  0.40894  1.0000
  C   C71       1.0  0.91016  0.43656  0.46963  1.0000
  C   C72       1.0  0.91688  0.47286  0.45795  1.0000
  H   H29       1.0  0.95519  0.52851  0.37621  1.0000
  O  Te17      1.0  0.99677  0.44738  0.27360  1.0000
  O  Te18      1.0  0.92932  0.39121  0.42155  1.0000
  H   H30       1.0  0.89638  0.47957  0.50521  1.0000
  Mg  Mg9       1.0  0.97429  0.39373  0.31950  1.0000
  C   C73       1.0  0.43601  0.48047  0.18942  1.0000
  C   C74       1.0  0.47509  0.49716  0.19533  1.0000
  C  Sn19      1.0  0.49774  0.53151  0.12082  1.0000
  C  Sn20      1.0  0.48087  0.54942  0.03900  1.0000
  C   C75       1.0  0.44175  0.53251  0.03387  1.0000
  C   C76       1.0  0.41935  0.49813  0.10880  1.0000
  H   H31       1.0  0.41868  0.45388  0.24746  1.0000
  O  Te19      1.0  0.53674  0.54778  0.12783  1.0000
  O  Te20      1.0  0.50315  0.58584  0.96355  1.0000
  H   H32       1.0  0.38910  0.48523  0.10429  1.0000
  Mg  Mg10      1.0  0.55475  0.59480  0.00641  1.0000
  C   C77       1.0  0.51855  0.95658  0.19672  1.0000
  C   C78       1.0  0.50201  0.97876  0.19351  1.0000
  C  Sn21      1.0  0.46805  0.96654  0.11053  1.0000
  C  Sn22      1.0  0.45038  0.93144  0.02942  1.0000
  C   C79       1.0  0.46714  0.90945  0.03345  1.0000
  C   C80       1.0  0.50113  0.92195  0.11681  1.0000
  H   H33       1.0  0.54483  0.96625  0.26129  1.0000
  O  Te21      1.0  0.45192  0.98906  0.10849  1.0000
  O  Te22      1.0  0.41673  0.92061  0.94562  1.0000
  H   H34       1.0  0.51392  0.90476  0.11936  1.0000
  Mg  Mg11      1.0  0.40576  0.96139  0.97779  1.0000
  C   C81       1.0  0.05151  0.56895  0.10299  1.0000
  C   C82       1.0  0.07876  0.56071  0.04870  1.0000
  C  Sn23      1.0  0.07326  0.52502  0.06773  1.0000
  C  Sn24      1.0  0.03982  0.49710  0.14249  1.0000
  C   C83       1.0  0.01272  0.50562  0.19628  1.0000
  C   C84       1.0  0.01851  0.54143  0.17668  1.0000
  H   H35       1.0  0.05598  0.59665  0.08775  1.0000
  O  Te23      1.0  0.10079  0.51726  0.01286  1.0000
  O  Te24      1.0  0.03360  0.46119  0.16298  1.0000
  H   H36       1.0  0.99739  0.54780  0.21862  1.0000
  Mg  Mg12      1.0  0.07941  0.46419  0.06824  1.0000
  C   C85       1.0  0.63543  0.20783  0.58565  1.0000
  C   C86       1.0  0.60126  0.17940  0.64602  1.0000
  C  Sn25      1.0  0.57904  0.18776  0.74821  1.0000
  C  Sn26      1.0  0.59132  0.22529  0.79050  1.0000
  C   C87       1.0  0.62554  0.25353  0.72937  1.0000
  C   C88       1.0  0.64756  0.24486  0.62724  1.0000
  H   H37       1.0  0.65246  0.20113  0.50656  1.0000
  O  Te25      1.0  0.54499  0.15902  0.80750  1.0000
  O  Te26      1.0  0.56966  0.23442  0.89236  1.0000
  H   H38       1.0  0.67400  0.26688  0.58043  1.0000
  Mg  Mg13      1.0  0.52538  0.18547  0.94237  1.0000
  C   C89       1.0  0.78987  0.42615  0.59819  1.0000
  C   C90       1.0  0.81801  0.42035  0.66131  1.0000
  C  Sn27      1.0  0.80874  0.39002  0.76302  1.0000
  C  Sn28      1.0  0.77056  0.36509  0.80200  1.0000
  C   C91       1.0  0.74261  0.37112  0.73815  1.0000
  C   C92       1.0  0.75220  0.40157  0.63653  1.0000
  H   H39       1.0  0.79729  0.44969  0.51950  1.0000
  O  Te27      1.0  0.83720  0.38464  0.82508  1.0000
  O  Te28      1.0  0.76050  0.33455  0.90331  1.0000
  H   H40       1.0  0.73041  0.40604  0.58760  1.0000
  Mg  Mg14      1.0  0.80941  0.33900  0.95791  1.0000
  C   C93       1.0  0.62050  0.42205  0.75943  1.0000
  C   C94       1.0  0.59094  0.41192  0.64843  1.0000
  C  Sn29      1.0  0.57369  0.37698  0.57190  1.0000
  C  Sn30      1.0  0.58633  0.35178  0.60744  1.0000
  C   C95       1.0  0.61591  0.36217  0.71877  1.0000
  C   C96       1.0  0.63298  0.39720  0.79461  1.0000
  H   H41       1.0  0.63370  0.44914  0.81819  1.0000
  O  Te29      1.0  0.54419  0.36731  0.46127  1.0000
  O  Te30      1.0  0.56958  0.31669  0.53275  1.0000
  H   H42       1.0  0.65585  0.40503  0.88062  1.0000
  Mg  Mg15      1.0  0.53038  0.31633  0.39071  1.0000
  C   C97       1.0  0.36263  0.79083  0.90536  1.0000
  C   C98       1.0  0.39947  0.81752  0.86517  1.0000
  C  Sn31      1.0  0.42131  0.80794  0.76687  1.0000
  C  Sn32      1.0  0.40590  0.77091  0.70784  1.0000
  C   C99       1.0  0.36901  0.74442  0.74863  1.0000
  C   C100      1.0  0.34740  0.75431  0.84713  1.0000
  H   H43       1.0  0.34590  0.79848  0.98149  1.0000
  O  Te31      1.0  0.45807  0.83495  0.72794  1.0000
  O  Te32      1.0  0.42710  0.76058  0.60932  1.0000
  H   H44       1.0  0.31887  0.73364  0.87813  1.0000
  Mg  Mg16      1.0  0.47583  0.80733  0.58985  1.0000
  C   C101      1.0  0.19714  0.62285  0.72032  1.0000
  C   C102      1.0  0.17571  0.58978  0.80630  1.0000
  C  Sn33      1.0  0.19307  0.57241  0.88294  1.0000
  C  Sn34      1.0  0.23262  0.58853  0.87314  1.0000
  C   C103      1.0  0.25381  0.62164  0.78692  1.0000
  C   C104      1.0  0.23616  0.63877  0.71064  1.0000
  H   H45       1.0  0.18348  0.63612  0.66137  1.0000
  O  Te33      1.0  0.17124  0.53938  0.96830  1.0000
  O  Te34      1.0  0.25069  0.57177  0.94865  1.0000
  H   H46       1.0  0.25276  0.66439  0.64417  1.0000
  Mg  Mg17      1.0  0.20851  0.52494  0.05068  1.0000
  C   C105      1.0  0.41644  0.64597  0.89449  1.0000
  C   C106      1.0  0.38625  0.63574  0.78702  1.0000
  C  Sn35      1.0  0.36913  0.60108  0.70811  1.0000
  C  Sn36      1.0  0.38254  0.57624  0.73762  1.0000
  C   C107      1.0  0.41274  0.58672  0.84545  1.0000
  C   C108      1.0  0.42967  0.62149  0.92372  1.0000
  H   H47       1.0  0.42953  0.67286  0.95513  1.0000
  O  Te35      1.0  0.33901  0.59131  0.60107  1.0000
  O  Te36      1.0  0.36594  0.54142  0.66043  1.0000
  H   H48       1.0  0.45272  0.62732  0.00700  1.0000
  Mg  Mg18      1.0  0.32569  0.54079  0.52507  1.0000
  C   C109      1.0  0.57417  0.51711  0.88914  1.0000
  C   C110      1.0  0.56409  0.48217  0.95184  1.0000
  C  Sn37      1.0  0.52787  0.45218  0.92688  1.0000
  C  Sn38      1.0  0.50131  0.45734  0.83741  1.0000
  C   C111      1.0  0.51168  0.49239  0.77509  1.0000
  C   C112      1.0  0.54800  0.52222  0.80082  1.0000
  H   H49       1.0  0.60228  0.54018  0.90897  1.0000
  O  Te37      1.0  0.51825  0.41747  0.99042  1.0000
  O  Te38      1.0  0.46492  0.42784  0.81062  1.0000
  H   H50       1.0  0.55581  0.54926  0.75217  1.0000
  Mg  Mg19      1.0  0.46520  0.38583  0.92162  1.0000
  C   C113      1.0  0.54963  0.05403  0.85313  1.0000
  C   C114      1.0  0.51359  0.02589  0.80898  1.0000
  C  Sn39      1.0  0.48247  0.02976  0.84342  1.0000
  C  Sn40      1.0  0.48763  0.06245  0.92351  1.0000
  C   C115      1.0  0.52380  0.09046  0.96707  1.0000
  C   C116      1.0  0.55474  0.08630  0.93208  1.0000
  H   H51       1.0  0.57357  0.05082  0.82598  1.0000
  O  Te39      1.0  0.95497  0.00136  0.79851  1.0000
  O  Te40      1.0  0.45702  0.06705  0.95934  1.0000
  H   H52       1.0  0.58264  0.10811  0.96618  1.0000
  Mg  Mg20      1.0  0.41375  0.02055  0.87376  1.0000
  C   C117      1.0  0.96508  0.44145  0.83645  1.0000
  C   C118      1.0  0.98068  0.47841  0.78801  1.0000
  C  Sn41      1.0  0.96464  0.49940  0.84029  1.0000
  C  Sn42      1.0  0.93239  0.48300  0.94301  1.0000
  C   C119      1.0  0.91702  0.44601  0.99088  1.0000
  C   C120      1.0  0.93328  0.42526  0.93781  1.0000
  H   H53       1.0  0.97768  0.42540  0.79547  1.0000
  O  Te41      1.0  0.98058  0.53629  0.79070  1.0000
  O  Te42      1.0  0.91580  0.50335  0.99710  1.0000
  H   H54       1.0  0.92122  0.39665  0.97542  1.0000
  Mg  Mg21      1.0  0.94781  0.55264  0.89645  1.0000
  C   C121      1.0  0.49534  0.55744  0.56413  1.0000
  C   C122      1.0  0.45672  0.53820  0.53349  1.0000
  C  Sn43      1.0  0.43408  0.50251  0.59588  1.0000
  C  Sn44      1.0  0.45049  0.48586  0.69071  1.0000
  C   C123      1.0  0.48915  0.50535  0.72076  1.0000
  C   C124      1.0  0.51154  0.54104  0.65769  1.0000
  H   H55       1.0  0.51267  0.58506  0.51541  1.0000
  O  Te43      1.0  0.39555  0.48367  0.56406  1.0000
  O  Te44      1.0  0.42851  0.45023  0.75460  1.0000
  H   H56       1.0  0.54144  0.55594  0.68152  1.0000
  Mg  Mg22      1.0  0.37733  0.43571  0.67769  1.0000
  C   C125      1.0  0.44545  0.94008  0.54919  1.0000
  C   C126      1.0  0.46489  0.92073  0.53421  1.0000
  C  Sn45      1.0  0.49914  0.93355  0.61553  1.0000
  C  Sn46      1.0  0.51413  0.96636  0.71361  1.0000
  C   C127      1.0  0.49445  0.98551  0.72789  1.0000
  C   C128      1.0  0.46021  0.97244  0.64595  1.0000
  H   H57       1.0  0.41895  0.92996  0.48587  1.0000
  O  Te45      1.0  0.51820  0.91389  0.59919  1.0000
  O  Te46      1.0  0.54830  0.97979  0.79626  1.0000
  H   H58       1.0  0.44516  0.98742  0.65766  1.0000
  Mg  Mg23      1.0  0.56377  0.94327  0.73572  1.0000
  C   C129      1.0  0.03764  0.55865  0.64129  1.0000
  C   C130      1.0  0.02064  0.52091  0.67845  1.0000
  C  Sn47      1.0  0.03855  0.50093  0.63858  1.0000
  C  Sn48      1.0  0.07414  0.51914  0.56009  1.0000
  C   C131      1.0  0.09092  0.55691  0.52353  1.0000
  C   C132      1.0  0.07275  0.57664  0.56393  1.0000
  H   H59       1.0  0.02359  0.57392  0.67263  1.0000
  O  Te47      1.0  0.02116  0.46324  0.67653  1.0000
  O  Te48      1.0  0.09266  0.49984  0.51892  1.0000
  H   H60       1.0  0.08593  0.60586  0.53524  1.0000
  Mg  Mg24      1.0  0.05756  0.44886  0.59584  1.0000
