data_image0
_chemical_formula_structural       C36O48C2Sn2C2HTe2HMgC2Sn2C2HTe2HMgC2Sn2C2HTe2HMgC2Sn2C2HTe2HMgC2Sn2C2HTe2HMgC2Sn2C2HTe2HMgC2Sn2C2HTe2HMgC2Sn2C2HTe2HMgC2Sn2C2HTe2HMgC2Sn2C2HTe2HMgC2Sn2C2HTe2HMgC2Sn2C2HTe2HMgC2Sn2C2HTe2HMgC2Sn2C2HTe2HMgC2Sn2C2HTe2HMgC2Sn2C2HTe2HMgC2Sn2C2HTe2HMgC2Sn2C2HTe2HMgC2Sn2C2HTe2HMgC2Sn2C2HTe2HMgC2Sn2C2HTe2HMgC2Sn2C2HTe2HMgC2Sn2C2HTe2HMgC2Sn2C2HTe2HMgC2Sn2C2HTe2HMgC2Sn2C2HTe2HMgC2Sn2C2HTe2HMgC2Sn2C2HTe2HMgC2Sn2C2HTe2HMgC2Sn2C2HTe2HMgC2Sn2C2HTe2HMgC2Sn2C2HTe2HMgC2Sn2C2HTe2HMgC2Sn2C2HTe2HMgC2Sn2C2HTe2HMgC2Sn2C2HTe2HMg
_chemical_formula_sum              "C180 O48 Sn72 H72 Te72 Mg36"
_cell_length_a       37.069
_cell_length_b       37.2001
_cell_length_c       9.95669
_cell_angle_alpha    89.8779
_cell_angle_beta     89.4711
_cell_angle_gamma    119.927

_symmetry_space_group_name_H-M    'P1'
_space_group_IT_number       1

loop_
  _space_group_symop_operation_xyz
  'x, y, z'

loop_
  _atom_site_type_symbol
  _atom_site_label
  _atom_site_symmetry_multiplicity
  _atom_site_fract_x
  _atom_site_fract_y
  _atom_site_fract_z
  _atom_site_occupancy
  C   C1        1.0  0.50845  0.67667  0.45095  1.0000
  C   C2        1.0  0.32349  0.83222  0.44558  1.0000
  C   C3        1.0  0.17026  0.49706  0.44538  1.0000
  C   C4        1.0  0.49054  0.32462  0.05834  1.0000
  C   C5        1.0  0.67636  0.16946  0.04061  1.0000
  C   C6        1.0  0.82990  0.50572  0.06190  1.0000
  C   C7        1.0  0.54035  0.84476  0.46972  1.0000
  C   C8        1.0  0.15597  0.69389  0.47258  1.0000
  C   C9        1.0  0.30528  0.46354  0.49902  1.0000
  C   C10       1.0  0.46189  0.15786  0.04119  1.0000
  C   C11       1.0  0.84495  0.30556  0.01252  1.0000
  C   C12       1.0  0.69356  0.53708  0.00772  1.0000
  C   C13       1.0  0.51885  0.51751  0.24644  1.0000
  C   C14       1.0  0.48349  0.00328  0.24891  1.0000
  C   C15       1.0  0.99711  0.47971  0.24652  1.0000
  C   C16       1.0  0.47979  0.48324  0.25941  1.0000
  C   C17       1.0  0.51820  0.99894  0.25544  1.0000
  C   C18       1.0  0.00161  0.51867  0.25590  1.0000
  C   C19       1.0  0.50903  0.67647  0.94274  1.0000
  C   C20       1.0  0.32357  0.83116  0.94992  1.0000
  C   C21       1.0  0.16892  0.49153  0.95586  1.0000
  C   C22       1.0  0.48861  0.32176  0.54211  1.0000
  C   C23       1.0  0.67584  0.17320  0.55037  1.0000
  C   C24       1.0  0.82932  0.50591  0.54553  1.0000
  C   C25       1.0  0.53946  0.84448  0.97506  1.0000
  C   C26       1.0  0.15566  0.69321  0.97446  1.0000
  C   C27       1.0  0.30458  0.45791  0.98894  1.0000
  C   C28       1.0  0.45898  0.15416  0.52275  1.0000
  C   C29       1.0  0.84490  0.30794  0.51970  1.0000
  C   C30       1.0  0.69092  0.53452  0.49269  1.0000
  C   C31       1.0  0.51993  0.51623  0.75264  1.0000
  C   C32       1.0  0.48343  0.00326  0.75268  1.0000
  C   C33       1.0  0.99801  0.48197  0.75091  1.0000
  C   C34       1.0  0.48086  0.48187  0.75884  1.0000
  C   C35       1.0  0.51834  0.99931  0.75346  1.0000
  C   C36       1.0  0.00107  0.52032  0.75414  1.0000
  O   O1        1.0  0.54305  0.67501  0.40652  1.0000
  O   O2        1.0  0.32445  0.86725  0.39440  1.0000
  O   O3        1.0  0.13311  0.46125  0.42005  1.0000
  O   O4        1.0  0.45587  0.32544  0.10621  1.0000
  O   O5        1.0  0.67531  0.13388  0.08684  1.0000
  O   O6        1.0  0.86551  0.54028  0.10603  1.0000
  O   O7        1.0  0.47480  0.64598  0.47431  1.0000
  O   O8        1.0  0.35457  0.83061  0.47387  1.0000
  O   O9        1.0  0.17430  0.53165  0.44716  1.0000
  O   O10       1.0  0.52371  0.35566  0.03273  1.0000
  O   O11       1.0  0.64539  0.17211  0.02002  1.0000
  O   O12       1.0  0.82706  0.47194  0.04572  1.0000
  O   O13       1.0  0.50571  0.84724  0.43372  1.0000
  O   O14       1.0  0.15386  0.65785  0.42678  1.0000
  O   O15       1.0  0.34285  0.49728  0.45981  1.0000
  O   O16       1.0  0.49620  0.15618  0.08597  1.0000
  O   O17       1.0  0.84737  0.34214  0.05330  1.0000
  O   O18       1.0  0.65744  0.50404  0.05940  1.0000
  O   O19       1.0  0.57426  0.87468  0.49307  1.0000
  O   O20       1.0  0.12567  0.69646  0.50664  1.0000
  O   O21       1.0  0.30095  0.42987  0.52964  1.0000
  O   O22       1.0  0.42895  0.12738  0.01261  1.0000
  O   O23       1.0  0.87513  0.30188  0.98652  1.0000
  O   O24       1.0  0.69631  0.56930  0.96725  1.0000
  O   O25       1.0  0.54456  0.67448  0.91297  1.0000
  O   O26       1.0  0.32496  0.86710  0.90577  1.0000
  O   O27       1.0  0.13472  0.45991  0.89329  1.0000
  O   O28       1.0  0.45479  0.32358  0.59360  1.0000
  O   O29       1.0  0.67461  0.13718  0.59308  1.0000
  O   O30       1.0  0.86433  0.54041  0.59336  1.0000
  O   O31       1.0  0.47447  0.64603  0.95386  1.0000
  O   O32       1.0  0.35451  0.82876  0.97365  1.0000
  O   O33       1.0  0.17082  0.52364  0.99295  1.0000
  O   O34       1.0  0.52188  0.35236  0.51377  1.0000
  O   O35       1.0  0.64502  0.17629  0.53271  1.0000
  O   O36       1.0  0.82721  0.47254  0.52673  1.0000
  O   O37       1.0  0.50558  0.84750  0.93333  1.0000
  O   O38       1.0  0.15351  0.65665  0.93440  1.0000
  O   O39       1.0  0.34277  0.49320  0.96658  1.0000
  O   O40       1.0  0.49455  0.15274  0.55361  1.0000
  O   O41       1.0  0.84744  0.34360  0.57082  1.0000
  O   O42       1.0  0.65468  0.50046  0.53934  1.0000
  O   O43       1.0  0.57258  0.87427  0.00677  1.0000
  O   O44       1.0  0.12529  0.69653  0.00042  1.0000
  O   O45       1.0  0.29990  0.42326  0.00085  1.0000
  O   O46       1.0  0.42510  0.12344  0.50628  1.0000
  O   O47       1.0  0.87500  0.30497  0.48634  1.0000
  O   O48       1.0  0.69346  0.56733  0.46055  1.0000
  C   C37       1.0  0.56952  0.78744  0.45428  1.0000
  C   C38       1.0  0.54021  0.80047  0.46621  1.0000
  C  Sn1       1.0  0.49799  0.77138  0.48272  1.0000
  C  Sn2       1.0  0.48496  0.72848  0.48737  1.0000
  C   C39       1.0  0.51453  0.71576  0.47543  1.0000
  C   C40       1.0  0.55670  0.74513  0.45891  1.0000
  H   H1        1.0  0.60215  0.81016  0.44157  1.0000
  O  Te1       1.0  0.46912  0.78494  0.49443  1.0000
  O  Te2       1.0  0.44297  0.69875  0.50383  1.0000
  H   H2        1.0  0.57939  0.73503  0.44976  1.0000
  Mg  Mg1       1.0  0.41540  0.73257  0.51524  1.0000
  C   C41       1.0  0.26732  0.74526  0.46279  1.0000
  C   C42       1.0  0.27973  0.78740  0.45640  1.0000
  C  Sn3       1.0  0.25011  0.80013  0.46309  1.0000
  C  Sn4       1.0  0.20729  0.77004  0.47645  1.0000
  C   C43       1.0  0.19518  0.72795  0.48285  1.0000
  C   C44       1.0  0.22509  0.71555  0.47602  1.0000
  H   H3        1.0  0.29045  0.73566  0.45758  1.0000
  O  Te3       1.0  0.26305  0.84236  0.45651  1.0000
  O  Te4       1.0  0.17703  0.78190  0.48342  1.0000
  H   H4        1.0  0.21546  0.68292  0.48106  1.0000
  Mg  Mg2       1.0  0.21011  0.84315  0.47015  1.0000
  C   C45       1.0  0.25694  0.52562  0.46271  1.0000
  C   C46       1.0  0.21435  0.49681  0.46246  1.0000
  C  Sn5       1.0  0.20029  0.45477  0.48522  1.0000
  C  Sn6       1.0  0.22948  0.44141  0.50868  1.0000
  C   C47       1.0  0.27202  0.47048  0.50882  1.0000
  C   C48       1.0  0.28576  0.51247  0.48589  1.0000
  H   H5        1.0  0.26757  0.55811  0.44504  1.0000
  O  Te5       1.0  0.15763  0.42640  0.48458  1.0000
  O  Te6       1.0  0.21628  0.39958  0.53176  1.0000
  H   H6        1.0  0.31873  0.53477  0.48617  1.0000
  Mg  Mg3       1.0  0.15492  0.37274  0.52101  1.0000
  C   C49       1.0  0.51793  0.24690  0.02281  1.0000
  C   C50       1.0  0.48131  0.20907  0.04335  1.0000
  C  Sn7       1.0  0.44320  0.20786  0.05813  1.0000
  C  Sn8       1.0  0.44183  0.24527  0.05215  1.0000
  C   C51       1.0  0.47864  0.28296  0.03146  1.0000
  C   C52       1.0  0.51661  0.28382  0.01685  1.0000
  H   H7        1.0  0.54731  0.24757  0.01142  1.0000
  O  Te7       1.0  0.40690  0.16980  0.07863  1.0000
  O  Te8       1.0  0.40416  0.24496  0.06655  1.0000
  H   H8        1.0  0.54496  0.31311  0.00086  1.0000
  Mg  Mg4       1.0  0.36312  0.18537  0.09265  1.0000
  C   C53       1.0  0.75560  0.27430  0.01057  1.0000
  C   C54       1.0  0.79333  0.27452  0.01798  1.0000
  C  Sn9       1.0  0.79381  0.23720  0.02019  1.0000
  C  Sn10      1.0  0.75576  0.19901  0.01484  1.0000
  C   C55       1.0  0.71817  0.19913  0.00735  1.0000
  C   C56       1.0  0.71805  0.23664  0.00524  1.0000
  H   H9        1.0  0.75550  0.30332  0.00887  1.0000
  O  Te9       1.0  0.83179  0.23798  0.02766  1.0000
  O  Te10      1.0  0.75534  0.16127  0.01684  1.0000
  H   H10       1.0  0.68515  0.23406  0.99942  1.0000
  Mg  Mg5       1.0  0.81511  0.17843  0.02772  1.0000
  C   C57       1.0  0.79899  0.56305  0.02044  1.0000
  C   C58       1.0  0.79882  0.52600  0.04582  1.0000
  C  Sn11      1.0  0.76142  0.48825  0.04623  1.0000
  C  Sn12      1.0  0.72354  0.48766  0.02069  1.0000
  C   C59       1.0  0.72036  0.52249  0.99531  1.0000
  C   C60       1.0  0.75796  0.56010  0.99519  1.0000
  H   H11       1.0  0.82809  0.59215  0.02027  1.0000
  O  Te11      1.0  0.76180  0.45152  0.07183  1.0000
  O  Te12      1.0  0.68571  0.45036  0.02044  1.0000
  H   H12       1.0  0.75809  0.58878  0.97544  1.0000
  Mg  Mg6       1.0  0.70228  0.40849  0.06070  1.0000
  C   C61       1.0  0.39139  0.45483  0.27126  1.0000
  C   C62       1.0  0.43346  0.47817  0.30417  1.0000
  C  Sn13      1.0  0.44623  0.50750  0.40653  1.0000
  C  Sn14      1.0  0.41624  0.51351  0.47711  1.0000
  C   C63       1.0  0.37422  0.48998  0.44349  1.0000
  C   C64       1.0  0.36180  0.46072  0.34086  1.0000
  H   H13       1.0  0.38177  0.43217  0.19190  1.0000
  O  Te13      1.0  0.48839  0.53057  0.43809  1.0000
  O  Te14      1.0  0.42814  0.54261  0.57989  1.0000
  H   H14       1.0  0.32922  0.44264  0.31546  1.0000
  Mg  Mg7       1.0  0.48926  0.56651  0.58600  1.0000
  C   C65       1.0  0.48501  0.90892  0.46608  1.0000
  C   C66       1.0  0.50370  0.88745  0.41211  1.0000
  C  Sn15      1.0  0.53245  0.90470  0.30629  1.0000
  C  Sn16      1.0  0.54264  0.94419  0.25377  1.0000
  C   C67       1.0  0.52379  0.96543  0.30852  1.0000
  C   C68       1.0  0.49505  0.94787  0.41437  1.0000
  H   H15       1.0  0.46279  0.89535  0.54803  1.0000
  O  Te15      1.0  0.55082  0.88283  0.25352  1.0000
  O  Te16      1.0  0.57128  0.96216  0.14806  1.0000
  H   H16       1.0  0.48061  0.96451  0.45619  1.0000
  Mg  Mg8       1.0  0.58800  0.92025  0.10990  1.0000
  C   C69       1.0  0.08120  0.62554  0.27454  1.0000
  C   C70       1.0  0.10816  0.62843  0.37649  1.0000
  C  Sn17      1.0  0.10097  0.59301  0.44766  1.0000
  C  Sn18      1.0  0.06612  0.55401  0.41593  1.0000
  C   C71       1.0  0.03934  0.55144  0.31371  1.0000
  C   C72       1.0  0.04682  0.58709  0.24315  1.0000
  H   H17       1.0  0.08700  0.65312  0.21989  1.0000
  O  Te17      1.0  0.12821  0.59645  0.54925  1.0000
  O  Te18      1.0  0.05820  0.51810  0.48545  1.0000
  H   H18       1.0  0.02596  0.58483  0.16416  1.0000
  Mg  Mg9       1.0  0.10428  0.53866  0.61548  1.0000
  C   C73       1.0  0.57385  0.48041  0.04173  1.0000
  C   C74       1.0  0.61595  0.50502  0.07266  1.0000
  C  Sn19      1.0  0.62851  0.53641  0.16799  1.0000
  C  Sn20      1.0  0.59830  0.54322  0.23343  1.0000
  C   C75       1.0  0.55626  0.51842  0.20184  1.0000
  C   C76       1.0  0.54402  0.48709  0.10626  1.0000
  H   H19       1.0  0.56070  0.45376  0.96783  1.0000
  O  Te19      1.0  0.67071  0.56072  0.19766  1.0000
  O  Te20      1.0  0.61000  0.57437  0.32914  1.0000
  H   H20       1.0  0.51142  0.46803  0.08239  1.0000
  Mg  Mg10      1.0  0.67125  0.59936  0.33528  1.0000
  C   C77       1.0  0.52011  0.09695  0.05468  1.0000
  C   C78       1.0  0.49558  0.11405  0.09352  1.0000
  C  Sn21      1.0  0.46429  0.09427  0.19094  1.0000
  C  Sn22      1.0  0.45752  0.05667  0.25043  1.0000
  C   C79       1.0  0.48225  0.03983  0.21095  1.0000
  C   C80       1.0  0.51346  0.05988  0.11334  1.0000
  H   H21       1.0  0.54059  0.11007  0.97921  1.0000
  O  Te21      1.0  0.44006  0.11177  0.22854  1.0000
  O  Te22      1.0  0.42648  0.03626  0.34807  1.0000
  H   H22       1.0  0.53247  0.04665  0.08335  1.0000
  Mg  Mg11      1.0  0.40156  0.07234  0.36583  1.0000
  C   C81       1.0  0.91738  0.37297  0.21889  1.0000
  C   C82       1.0  0.88962  0.37186  0.12275  1.0000
  C  Sn23      1.0  0.89859  0.40765  0.05039  1.0000
  C  Sn24      1.0  0.93608  0.44521  0.07493  1.0000
  C   C83       1.0  0.96366  0.44599  0.17126  1.0000
  C   C84       1.0  0.95437  0.41000  0.24313  1.0000
  H   H23       1.0  0.91020  0.34512  0.27445  1.0000
  O  Te23      1.0  0.86682  0.40360  0.95473  1.0000
  O  Te24      1.0  0.94583  0.48143  0.00401  1.0000
  H   H24       1.0  0.97588  0.41086  0.31750  1.0000
  Mg  Mg12      1.0  0.89397  0.46114  0.88388  1.0000
  C   C85       1.0  0.50851  0.60770  0.23115  1.0000
  C   C86       1.0  0.52782  0.63107  0.34507  1.0000
  C  Sn25      1.0  0.54882  0.61859  0.43254  1.0000
  C  Sn26      1.0  0.55049  0.58202  0.40517  1.0000
  C   C87       1.0  0.53109  0.55887  0.29088  1.0000
  C   C88       1.0  0.51015  0.57164  0.20405  1.0000
  H   H25       1.0  0.49233  0.61759  0.16392  1.0000
  O  Te25      1.0  0.56793  0.64229  0.54593  1.0000
  O  Te26      1.0  0.57128  0.56884  0.49089  1.0000
  H   H26       1.0  0.49523  0.55356  0.11581  1.0000
  Mg  Mg13      1.0  0.59248  0.61159  0.63260  1.0000
  C   C89       1.0  0.39408  0.90286  0.22464  1.0000
  C   C90       1.0  0.36934  0.89702  0.33844  1.0000
  C  Sn27      1.0  0.38072  0.92909  0.43057  1.0000
  C  Sn28      1.0  0.41756  0.96768  0.40806  1.0000
  C   C91       1.0  0.44208  0.97322  0.29385  1.0000
  C   C92       1.0  0.43041  0.94092  0.20233  1.0000
  H   H27       1.0  0.38504  0.87788  0.15379  1.0000
  O  Te27      1.0  0.35565  0.92272  0.54377  1.0000
  O  Te28      1.0  0.92899  0.00026  0.49848  1.0000
  H   H28       1.0  0.44955  0.94546  0.11419  1.0000
  Mg  Mg14      1.0  0.38522  0.97652  0.63790  1.0000
  C   C93       1.0  0.05158  0.44368  0.45508  1.0000
  C   C94       1.0  0.08993  0.45705  0.39089  1.0000
  C  Sn29      1.0  0.10009  0.48081  0.27318  1.0000
  C  Sn30      1.0  0.07127  0.49134  0.21899  1.0000
  C   C95       1.0  0.03300  0.47784  0.28403  1.0000
  C   C96       1.0  0.02315  0.45406  0.40174  1.0000
  H   H29       1.0  0.04396  0.42530  0.54620  1.0000
  O  Te29      1.0  0.13853  0.49390  0.21029  1.0000
  O  Te30      1.0  0.08064  0.51507  0.10151  1.0000
  H   H30       1.0  0.99346  0.44374  0.45147  1.0000
  Mg  Mg15      1.0  0.13700  0.52559  0.05245  1.0000
  C   C97       1.0  0.49208  0.39442  0.27363  1.0000
  C   C98       1.0  0.46736  0.36752  0.17290  1.0000
  C  Sn31      1.0  0.44537  0.37911  0.08654  1.0000
  C  Sn32      1.0  0.44823  0.41837  0.10152  1.0000
  C   C99       1.0  0.47307  0.44507  0.20255  1.0000
  C   C100      1.0  0.49494  0.43316  0.28845  1.0000
  H   H31       1.0  0.50902  0.38522  0.34005  1.0000
  O  Te31      1.0  0.41712  0.34945  0.98647  1.0000
  O  Te32      1.0  0.42659  0.43074  0.01655  1.0000
  H   H32       1.0  0.51409  0.45400  0.36637  1.0000
  Mg  Mg16      1.0  0.39351  0.38035  0.89543  1.0000
  C   C101      1.0  0.61074  0.05311  0.04970  1.0000
  C   C102      1.0  0.63299  0.09283  0.10415  1.0000
  C  Sn33      1.0  0.61864  0.10268  0.22084  1.0000
  C  Sn34      1.0  0.58132  0.07213  0.28399  1.0000
  C   C103      1.0  0.55930  0.03248  0.22878  1.0000
  C   C104      1.0  0.57393  0.02296  0.11195  1.0000
  H   H33       1.0  0.61839  0.04334  0.95935  1.0000
  O  Te33      1.0  0.64125  0.14252  0.27388  1.0000
  O  Te34      1.0  0.56628  0.08114  0.40074  1.0000
  H   H34       1.0  0.05736  0.99220  0.06986  1.0000
  Mg  Mg17      1.0  0.60810  0.13984  0.43465  1.0000
  C   C105      1.0  0.89913  0.50402  0.27300  1.0000
  C   C106      1.0  0.89640  0.52882  0.17256  1.0000
  C  Sn35      1.0  0.92998  0.55162  0.08500  1.0000
  C  Sn36      1.0  0.96693  0.54946  0.09847  1.0000
  C   C107      1.0  0.96934  0.52453  0.19922  1.0000
  C   C108      1.0  0.93556  0.50186  0.28632  1.0000
  H   H35       1.0  0.87299  0.48646  0.34036  1.0000
  O  Te35      1.0  0.92305  0.57385  0.98524  1.0000
  O  Te36      1.0  0.00095  0.57191  0.01228  1.0000
  H   H36       1.0  0.93767  0.48264  0.36402  1.0000
  Mg  Mg18      1.0  0.97781  0.59869  0.89216  1.0000
  C   C109      1.0  0.47994  0.73410  0.93562  1.0000
  C   C110      1.0  0.50911  0.72095  0.94787  1.0000
  C  Sn37      1.0  0.55034  0.74932  0.97984  1.0000
  C  Sn38      1.0  0.56251  0.79161  0.99990  1.0000
  C   C111      1.0  0.53308  0.80444  0.98751  1.0000
  C   C112      1.0  0.49191  0.77580  0.95544  1.0000
  H   H37       1.0  0.44808  0.71194  0.91089  1.0000
  O  Te37      1.0  0.57909  0.73566  0.99164  1.0000
  O  Te38      1.0  0.60719  0.82301  0.03199  1.0000
  H   H38       1.0  0.46933  0.78599  0.94605  1.0000
  Mg  Mg19      1.0  0.63498  0.78934  0.03695  1.0000
  C   C113      1.0  0.21233  0.77986  0.97262  1.0000
  C   C114      1.0  0.19987  0.73768  0.97363  1.0000
  C  Sn39      1.0  0.22958  0.72502  0.97491  1.0000
  C  Sn40      1.0  0.27254  0.75524  0.97523  1.0000
  C   C115      1.0  0.28468  0.79737  0.97431  1.0000
  C   C116      1.0  0.25469  0.80969  0.97298  1.0000
  H   H39       1.0  0.18913  0.78940  0.97167  1.0000
  O  Te39      1.0  0.21660  0.68275  0.97586  1.0000
  O  Te40      1.0  0.30288  0.74346  0.97655  1.0000
  H   H40       1.0  0.26434  0.84235  0.97229  1.0000
  Mg  Mg20      1.0  0.26970  0.68210  0.97748  1.0000
  C   C117      1.0  0.20103  0.43444  0.94290  1.0000
  C   C118      1.0  0.19967  0.47068  0.96821  1.0000
  C  Sn41      1.0  0.23955  0.50956  0.00248  1.0000
  C  Sn42      1.0  0.27778  0.50966  0.01147  1.0000
  C   C119      1.0  0.27514  0.47085  0.98587  1.0000
  C   C120      1.0  0.23873  0.43452  0.95170  1.0000
  H   H41       1.0  0.17287  0.40633  0.91639  1.0000
  O  Te41      1.0  0.23763  0.54549  0.02749  1.0000
  O  Te42      1.0  0.31443  0.54569  0.04548  1.0000
  H   H42       1.0  0.23980  0.40647  0.93202  1.0000
  Mg  Mg21      1.0  0.29595  0.58685  0.07036  1.0000
  C   C121      1.0  0.51789  0.26512  0.50097  1.0000
  C   C122      1.0  0.48800  0.27747  0.50955  1.0000
  C  Sn43      1.0  0.44601  0.24797  0.52857  1.0000
  C  Sn44      1.0  0.43382  0.20535  0.53919  1.0000
  C   C123      1.0  0.46397  0.19332  0.53057  1.0000
  C   C124      1.0  0.50590  0.22309  0.51149  1.0000
  H   H43       1.0  0.55034  0.28815  0.48629  1.0000
  O  Te43      1.0  0.41654  0.26085  0.53687  1.0000
  O  Te44      1.0  0.39207  0.17522  0.55827  1.0000
  H   H44       1.0  0.52904  0.21352  0.50494  1.0000
  Mg  Mg22      1.0  0.36347  0.20814  0.56323  1.0000
  C   C125      1.0  0.76429  0.20345  0.51731  1.0000
  C   C126      1.0  0.72724  0.20402  0.53812  1.0000
  C  Sn45      1.0  0.72741  0.24165  0.53992  1.0000
  C  Sn46      1.0  0.76543  0.27938  0.52046  1.0000
  C   C127      1.0  0.80232  0.27848  0.49963  1.0000
  C   C128      1.0  0.80179  0.24064  0.49806  1.0000
  H   H45       1.0  0.76388  0.17418  0.51602  1.0000
  O  Te45      1.0  0.69012  0.24166  0.56089  1.0000
  O  Te46      1.0  0.76648  0.31743  0.52174  1.0000
  H   H46       1.0  0.83048  0.24021  0.48185  1.0000
  Mg  Mg23      1.0  0.70753  0.30137  0.55411  1.0000
  C   C129      1.0  0.72429  0.47843  0.50156  1.0000
  C   C130      1.0  0.72310  0.51539  0.50397  1.0000
  C  Sn47      1.0  0.76004  0.55353  0.50761  1.0000
  C  Sn48      1.0  0.79883  0.55460  0.50881  1.0000
  C   C131      1.0  0.79969  0.51746  0.50628  1.0000
  C   C132      1.0  0.76254  0.47946  0.50268  1.0000
  H   H47       1.0  0.69555  0.44903  0.49870  1.0000
  O  Te47      1.0  0.75829  0.59016  0.51004  1.0000
  O  Te48      1.0  0.83622  0.59230  0.51238  1.0000
  H   H48       1.0  0.76347  0.45085  0.50072  1.0000
  Mg  Mg24      1.0  0.81769  0.63385  0.51469  1.0000
  C   C133      1.0  0.44362  0.51131  0.95596  1.0000
  C   C134      1.0  0.44501  0.48686  0.85190  1.0000
  C  Sn49      1.0  0.40972  0.46288  0.77488  1.0000
  C  Sn50      1.0  0.37241  0.46345  0.80277  1.0000
  C   C135      1.0  0.37135  0.48804  0.90703  1.0000
  C   C136      1.0  0.40684  0.51191  0.98350  1.0000
  H   H49       1.0  0.47476  0.53220  0.01509  1.0000
  O  Te49      1.0  0.41164  0.43861  0.67132  1.0000
  O  Te50      1.0  0.33669  0.43979  0.72733  1.0000
  H   H50       1.0  0.40945  0.53326  0.06401  1.0000
  Mg  Mg25      1.0  0.35478  0.41171  0.59671  1.0000
  C   C137      1.0  0.48975  0.93156  0.94521  1.0000
  C   C138      1.0  0.51439  0.95820  0.84174  1.0000
  C  Sn51      1.0  0.53792  0.94727  0.75866  1.0000
  C  Sn52      1.0  0.53669  0.90894  0.77979  1.0000
  C   C139      1.0  0.51191  0.88249  0.88352  1.0000
  C   C140      1.0  0.48850  0.89374  0.96608  1.0000
  H   H51       1.0  0.47530  0.94264  0.00906  1.0000
  O  Te51      1.0  0.56239  0.97426  0.65579  1.0000
  O  Te52      1.0  0.55988  0.89724  0.69821  1.0000
  H   H52       1.0  0.47309  0.87549  0.04613  1.0000
  Mg  Mg26      1.0  0.58847  0.94452  0.57125  1.0000
  C   C141      1.0  0.08573  0.57697  0.97916  1.0000
  C   C142      1.0  0.11191  0.61515  0.91694  1.0000
  C  Sn53      1.0  0.09997  0.62597  0.79771  1.0000
  C  Sn54      1.0  0.06108  0.59797  0.73997  1.0000
  C   C143      1.0  0.03510  0.55986  0.80305  1.0000
  C   C144      1.0  0.04736  0.54935  0.92230  1.0000
  H   H53       1.0  0.09888  0.57124  0.07147  1.0000
  O  Te53      1.0  0.12651  0.66423  0.73684  1.0000
  O  Te54      1.0  0.04837  0.60800  0.62090  1.0000
  H   H54       1.0  0.02707  0.51979  0.97050  1.0000
  Mg  Mg27      1.0  0.09537  0.66381  0.57567  1.0000
  C   C145      1.0  0.60621  0.53563  0.75772  1.0000
  C   C146      1.0  0.56685  0.52261  0.70464  1.0000
  C  Sn55      1.0  0.55472  0.49972  0.58612  1.0000
  C  Sn56      1.0  0.58258  0.48972  0.51974  1.0000
  C   C147      1.0  0.62188  0.50287  0.57371  1.0000
  C   C148      1.0  0.63370  0.52577  0.69235  1.0000
  H   H55       1.0  0.61535  0.55333  0.84955  1.0000
  O  Te55      1.0  0.51529  0.48697  0.53444  1.0000
  O  Te56      1.0  0.57125  0.46687  0.40116  1.0000
  H   H56       1.0  0.66417  0.53583  0.73347  1.0000
  Mg  Mg28      1.0  0.51417  0.45651  0.37014  1.0000
  C   C149      1.0  0.50723  0.06663  0.54725  1.0000
  C   C150      1.0  0.49057  0.04591  0.66903  1.0000
  C  Sn57      1.0  0.47048  0.05967  0.75689  1.0000
  C  Sn58      1.0  0.46704  0.09482  0.72189  1.0000
  C   C151      1.0  0.48378  0.11532  0.59977  1.0000
  C   C152      1.0  0.50384  0.10130  0.51262  1.0000
  H   H57       1.0  0.52273  0.05577  0.47978  1.0000
  O  Te57      1.0  0.45403  0.03862  0.87818  1.0000
  O  Te58      1.0  0.44710  0.10922  0.80781  1.0000
  H   H58       1.0  0.51671  0.11733  0.41830  1.0000
  Mg  Mg29      1.0  0.42971  0.07011  0.96183  1.0000
  C   C153      1.0  0.91047  0.42539  0.53722  1.0000
  C   C154      1.0  0.89075  0.38408  0.58058  1.0000
  C  Sn59      1.0  0.90638  0.37250  0.68931  1.0000
  C  Sn60      1.0  0.94242  0.40291  0.75568  1.0000
  C   C155      1.0  0.96191  0.44416  0.71160  1.0000
  C   C156      1.0  0.94602  0.45541  0.60267  1.0000
  H   H59       1.0  0.89816  0.43411  0.45299  1.0000
  O  Te59      1.0  0.88629  0.33109  0.73130  1.0000
  O  Te60      1.0  0.95869  0.39219  0.86465  1.0000
  H   H60       1.0  0.96128  0.48741  0.56917  1.0000
  Mg  Mg30      1.0  0.92032  0.33174  0.88451  1.0000
  C   C157      1.0  0.50442  0.58424  0.72506  1.0000
  C   C158      1.0  0.52409  0.56316  0.77325  1.0000
  C  Sn61      1.0  0.55120  0.57885  0.88161  1.0000
  C  Sn62      1.0  0.55868  0.61635  0.94268  1.0000
  C   C159      1.0  0.53882  0.63719  0.89379  1.0000
  C   C160      1.0  0.51176  0.62122  0.78527  1.0000
  H   H61       1.0  0.48346  0.57187  0.64115  1.0000
  O  Te61      1.0  0.57061  0.55741  0.92846  1.0000
  O  Te62      1.0  0.58929  0.63512  0.05116  1.0000
  H   H62       1.0  0.49651  0.63753  0.74805  1.0000
  Mg  Mg31      1.0  0.60838  0.59456  0.07885  1.0000
  C   C161      1.0  0.41701  0.91935  0.72121  1.0000
  C   C162      1.0  0.43696  0.95968  0.77160  1.0000
  C  Sn63      1.0  0.41988  0.96974  0.88099  1.0000
  C  Sn64      1.0  0.38214  0.93877  0.94085  1.0000
  C   C163      1.0  0.36245  0.89850  0.88976  1.0000
  C   C164      1.0  0.37980  0.88878  0.78023  1.0000
  H   H63       1.0  0.43045  0.91181  0.63652  1.0000
  O  Te63      1.0  0.93955  0.01019  0.93003  1.0000
  O  Te64      1.0  0.36809  0.95037  0.05031  1.0000
  H   H64       1.0  0.36436  0.85754  0.74130  1.0000
  Mg  Mg32      1.0  0.90680  0.00996  0.08104  1.0000
  C   C165      1.0  0.08304  0.50122  0.71877  1.0000
  C   C166      1.0  0.04248  0.48075  0.77108  1.0000
  C  Sn65      1.0  0.03219  0.45339  0.87972  1.0000
  C  Sn66      1.0  0.06314  0.44646  0.93687  1.0000
  C   C167      1.0  0.10363  0.46711  0.88387  1.0000
  C   C168      1.0  0.11359  0.49442  0.77511  1.0000
  H   H65       1.0  0.09075  0.52236  0.63466  1.0000
  O  Te65      1.0  0.99151  0.43318  0.93072  1.0000
  O  Te66      1.0  0.05739  0.42169  0.04554  1.0000
  H   H66       1.0  0.14500  0.51028  0.73469  1.0000
  Mg  Mg33      1.0  0.99756  0.40146  0.07966  1.0000
  C   C169      1.0  0.44388  0.41066  0.57848  1.0000
  C   C170      1.0  0.46553  0.43501  0.68820  1.0000
  C  Sn67      1.0  0.48706  0.42249  0.77321  1.0000
  C  Sn68      1.0  0.48686  0.38489  0.74762  1.0000
  C   C171      1.0  0.46514  0.36076  0.63754  1.0000
  C   C172      1.0  0.44368  0.37358  0.55314  1.0000
  H   H67       1.0  0.42730  0.42058  0.51314  1.0000
  O  Te67      1.0  0.50852  0.44718  0.88241  1.0000
  O  Te68      1.0  0.50814  0.37165  0.83094  1.0000
  H   H68       1.0  0.42695  0.35473  0.46815  1.0000
  Mg  Mg34      1.0  0.53282  0.41597  0.96709  1.0000
  C   C173      1.0  0.58425  0.08343  0.78441  1.0000
  C   C174      1.0  0.56206  0.04474  0.72305  1.0000
  C  Sn69      1.0  0.57907  0.03511  0.61250  1.0000
  C  Sn70      1.0  0.61905  0.06481  0.56271  1.0000
  C   C175      1.0  0.64101  0.10342  0.62486  1.0000
  C   C176      1.0  0.62369  0.11274  0.73539  1.0000
  H   H69       1.0  0.57087  0.09064  0.86997  1.0000
  O  Te69      1.0  0.05713  0.99631  0.55237  1.0000
  O  Te70      1.0  0.63679  0.05598  0.45240  1.0000
  H   H70       1.0  0.64089  0.14269  0.78293  1.0000
  Mg  Mg35      1.0  0.09450  0.99885  0.40462  1.0000
  C   C177      1.0  0.89780  0.50476  0.76490  1.0000
  C   C178      1.0  0.89537  0.52947  0.66348  1.0000
  C  Sn71      1.0  0.92932  0.55244  0.57743  1.0000
  C  Sn72      1.0  0.96635  0.55057  0.59345  1.0000
  C   C179      1.0  0.96845  0.52574  0.69516  1.0000
  C   C180      1.0  0.93430  0.50289  0.78073  1.0000
  H   H71       1.0  0.87137  0.48707  0.83106  1.0000
  O  Te71      1.0  0.92637  0.57698  0.47666  1.0000
  O  Te72      1.0  0.00074  0.57320  0.50882  1.0000
  H   H72       1.0  0.93618  0.48374  0.85919  1.0000
  Mg  Mg36      1.0  0.98159  0.60215  0.38645  1.0000
