data_image0
_chemical_formula_structural       H48C90O24C2Sn2C2HTe2HMgC2Sn2C2HTe2HMgC2Sn2C2HTe2HMgC2Sn2C2HTe2HMgC2Sn2C2HTe2HMgC2Sn2C2HTe2HMgC2Sn2C2HTe2HMgC2Sn2C2HTe2HMgC2Sn2C2HTe2HMg
_chemical_formula_sum              "H66 C126 O24 Sn18 Te18 Mg9"
_cell_length_a       34.8962
_cell_length_b       34.9673
_cell_length_c       8.04276
_cell_angle_alpha    90.7378
_cell_angle_beta     90.0005
_cell_angle_gamma    120.324

_symmetry_space_group_name_H-M    'P1'
_space_group_IT_number       1

loop_
  _space_group_symop_operation_xyz
  'x, y, z'

loop_
  _atom_site_type_symbol
  _atom_site_label
  _atom_site_symmetry_multiplicity
  _atom_site_fract_x
  _atom_site_fract_y
  _atom_site_fract_z
  _atom_site_occupancy
  H   H1        1.0  0.24269  0.68021  0.46513  1.0000
  H   H2        1.0  0.32255  0.56483  0.46183  1.0000
  H   H3        1.0  0.56424  0.24604  0.04401  1.0000
  H   H4        1.0  0.75906  0.32258  0.03070  1.0000
  H   H5        1.0  0.68182  0.44047  0.03484  1.0000
  H   H6        1.0  0.16186  0.64148  0.40542  1.0000
  H   H7        1.0  0.36102  0.52306  0.39793  1.0000
  H   H8        1.0  0.52119  0.16637  0.11386  1.0000
  H   H9        1.0  0.83975  0.36032  0.09227  1.0000
  H   H10       1.0  0.64395  0.48258  0.10263  1.0000
  H   H11       1.0  0.46829  0.60833  0.16926  1.0000
  H   H12       1.0  0.85775  0.47026  0.30864  1.0000
  H   H13       1.0  0.52905  0.38584  0.31093  1.0000
  H   H14       1.0  0.43114  0.65000  0.24724  1.0000
  H   H15       1.0  0.77775  0.43088  0.24037  1.0000
  H   H16       1.0  0.56730  0.34470  0.23682  1.0000
  H   H17       1.0  0.30006  0.71352  0.12534  1.0000
  H   H18       1.0  0.28469  0.58374  0.12114  1.0000
  H   H19       1.0  0.41515  0.69895  0.11810  1.0000
  H   H20       1.0  0.70083  0.28481  0.37124  1.0000
  H   H21       1.0  0.71321  0.41336  0.36453  1.0000
  H   H22       1.0  0.58409  0.29653  0.37239  1.0000
  H   H23       1.0  0.31824  0.56187  0.94386  1.0000
  H   H24       1.0  0.75793  0.32063  0.53542  1.0000
  H   H25       1.0  0.67863  0.43367  0.54482  1.0000
  H   H26       1.0  0.35485  0.51877  0.87157  1.0000
  H   H27       1.0  0.83865  0.35953  0.59809  1.0000
  H   H28       1.0  0.64065  0.47566  0.61549  1.0000
  H   H29       1.0  0.14347  0.52936  0.68358  1.0000
  H   H30       1.0  0.47476  0.61831  0.68058  1.0000
  H   H31       1.0  0.61176  0.14277  0.82884  1.0000
  H   H32       1.0  0.85999  0.47325  0.81448  1.0000
  H   H33       1.0  0.52864  0.38698  0.82763  1.0000
  H   H34       1.0  0.22356  0.56830  0.74873  1.0000
  H   H35       1.0  0.43616  0.65923  0.74876  1.0000
  H   H36       1.0  0.65350  0.22150  0.75399  1.0000
  H   H37       1.0  0.78003  0.43502  0.74641  1.0000
  H   H38       1.0  0.56694  0.34635  0.75270  1.0000
  H   H39       1.0  0.47066  0.04390  0.63428  1.0000
  H   H40       1.0  0.53191  0.95452  0.86755  1.0000
  H   H41       1.0  0.42121  0.97373  0.78585  1.0000
  H   H42       1.0  0.58145  0.02493  0.71761  1.0000
  H   H43       1.0  0.29983  0.71535  0.62611  1.0000
  H   H44       1.0  0.28852  0.58722  0.62807  1.0000
  H   H45       1.0  0.41719  0.70482  0.62253  1.0000
  H   H46       1.0  0.70195  0.28817  0.86968  1.0000
  H   H47       1.0  0.71513  0.41707  0.87039  1.0000
  H   H48       1.0  0.58563  0.30049  0.87551  1.0000
  C   C1        1.0  0.35051  0.57149  0.99761  1.0000
  C   C2        1.0  0.77970  0.35272  0.48079  1.0000
  C   C3        1.0  0.64650  0.42382  0.48918  1.0000
  C   C4        1.0  0.17588  0.62624  0.48262  1.0000
  C   C5        1.0  0.37669  0.55259  0.47695  1.0000
  C   C6        1.0  0.54987  0.17885  0.03299  1.0000
  C   C7        1.0  0.82623  0.37590  0.01426  1.0000
  C   C8        1.0  0.62765  0.45283  0.02504  1.0000
  C   C9        1.0  0.41370  0.56134  0.01377  1.0000
  C   C10       1.0  0.85256  0.41710  0.45886  1.0000
  C   C11       1.0  0.58262  0.43263  0.46993  1.0000
  C   C12       1.0  0.43551  0.59807  0.12022  1.0000
  C   C13       1.0  0.83594  0.43763  0.35815  1.0000
  C   C14       1.0  0.56160  0.39608  0.36240  1.0000
  C   C15       1.0  0.41447  0.62185  0.16176  1.0000
  C   C16       1.0  0.79054  0.41525  0.32183  1.0000
  C   C17       1.0  0.58332  0.37289  0.32233  1.0000
  C   C18       1.0  0.37231  0.60992  0.09802  1.0000
  C   C19       1.0  0.76143  0.37303  0.38509  1.0000
  C   C20       1.0  0.62545  0.38553  0.38798  1.0000
  C   C21       1.0  0.36100  0.71209  0.12468  1.0000
  C   C22       1.0  0.28666  0.64630  0.12852  1.0000
  C   C23       1.0  0.35229  0.63807  0.12418  1.0000
  C   C24       1.0  0.63914  0.28482  0.36793  1.0000
  C   C25       1.0  0.71278  0.35154  0.36333  1.0000
  C   C26       1.0  0.64624  0.35807  0.36405  1.0000
  C   C27       1.0  0.31462  0.69243  0.12950  1.0000
  C   C28       1.0  0.30606  0.61956  0.12766  1.0000
  C   C29       1.0  0.37934  0.68443  0.12540  1.0000
  C   C30       1.0  0.68561  0.30529  0.36462  1.0000
  C   C31       1.0  0.69252  0.37745  0.36062  1.0000
  C   C32       1.0  0.61996  0.31169  0.36505  1.0000
  C   C33       1.0  0.48223  0.56326  0.42831  1.0000
  C   C34       1.0  0.43811  0.92056  0.41440  1.0000
  C   C35       1.0  0.08060  0.52068  0.43245  1.0000
  C   C36       1.0  0.52171  0.44260  0.07501  1.0000
  C   C37       1.0  0.55774  0.08184  0.07573  1.0000
  C   C38       1.0  0.92135  0.48079  0.07253  1.0000
  C   C39       1.0  0.22115  0.64777  0.51773  1.0000
  C   C40       1.0  0.35532  0.57612  0.51433  1.0000
  C   C41       1.0  0.57409  0.22345  0.99219  1.0000
  C   C42       1.0  0.78103  0.35490  0.97803  1.0000
  C   C43       1.0  0.64872  0.42912  0.98547  1.0000
  C   C44       1.0  0.37085  0.54722  0.95563  1.0000
  C   C45       1.0  0.82489  0.37438  0.51754  1.0000
  C   C46       1.0  0.62539  0.44737  0.53036  1.0000
  C   C47       1.0  0.14834  0.58323  0.53871  1.0000
  C   C48       1.0  0.42006  0.56857  0.53320  1.0000
  C   C49       1.0  0.56427  0.15018  0.97805  1.0000
  C   C50       1.0  0.85420  0.41893  0.95908  1.0000
  C   C51       1.0  0.58396  0.43683  0.97222  1.0000
  C   C52       1.0  0.16518  0.56222  0.63570  1.0000
  C   C53       1.0  0.44165  0.60680  0.63230  1.0000
  C   C54       1.0  0.60135  0.16525  0.87605  1.0000
  C   C55       1.0  0.83793  0.44035  0.86145  1.0000
  C   C56       1.0  0.56196  0.39856  0.87348  1.0000
  C   C57       1.0  0.21067  0.58445  0.67043  1.0000
  C   C58       1.0  0.41960  0.62988  0.66898  1.0000
  C   C59       1.0  0.62509  0.21009  0.83590  1.0000
  C   C60       1.0  0.79251  0.41858  0.82523  1.0000
  C   C61       1.0  0.58381  0.37546  0.83369  1.0000
  C   C62       1.0  0.23967  0.62701  0.60948  1.0000
  C   C63       1.0  0.37669  0.61579  0.60800  1.0000
  C   C64       1.0  0.61275  0.24026  0.89588  1.0000
  C   C65       1.0  0.76303  0.37611  0.88588  1.0000
  C   C66       1.0  0.62690  0.38936  0.89245  1.0000
  C   C67       1.0  0.36174  0.71585  0.62744  1.0000
  C   C68       1.0  0.28838  0.64872  0.63097  1.0000
  C   C69       1.0  0.35537  0.64287  0.63016  1.0000
  C   C70       1.0  0.64046  0.28854  0.86965  1.0000
  C   C71       1.0  0.71431  0.35508  0.86533  1.0000
  C   C72       1.0  0.64788  0.36202  0.86839  1.0000
  C   C73       1.0  0.31524  0.69503  0.63123  1.0000
  C   C74       1.0  0.30902  0.62315  0.63271  1.0000
  C   C75       1.0  0.38128  0.68930  0.62961  1.0000
  C   C76       1.0  0.68690  0.30881  0.86501  1.0000
  C   C77       1.0  0.69421  0.38119  0.86503  1.0000
  C   C78       1.0  0.62150  0.31562  0.86825  1.0000
  C   C79       1.0  0.47577  0.55572  0.91138  1.0000
  C   C80       1.0  0.44179  0.91856  0.92060  1.0000
  C   C81       1.0  0.07905  0.52147  0.92810  1.0000
  C   C82       1.0  0.51975  0.43636  0.57554  1.0000
  C   C83       1.0  0.56041  0.07960  0.57875  1.0000
  C   C84       1.0  0.92012  0.48026  0.56345  1.0000
  C   C85       1.0  0.47350  0.96004  0.83505  1.0000
  C   C86       1.0  0.52904  0.03835  0.66645  1.0000
  C   C87       1.0  0.51870  0.97408  0.81580  1.0000
  C   C88       1.0  0.48385  0.02430  0.68578  1.0000
  C   C89       1.0  0.54625  0.01307  0.73249  1.0000
  C   C90       1.0  0.45633  0.98539  0.76960  1.0000
  O   O1        1.0  0.43181  0.53550  0.95858  1.0000
  O   O2        1.0  0.46145  0.89404  0.95932  1.0000
  O   O3        1.0  0.10252  0.56509  0.98270  1.0000
  O   O4        1.0  0.56345  0.45750  0.52450  1.0000
  O   O5        1.0  0.53987  0.10289  0.53316  1.0000
  O   O6        1.0  0.89716  0.43659  0.50910  1.0000
  O   O7        1.0  0.50909  0.60260  0.44610  1.0000
  O   O8        1.0  0.39872  0.90743  0.43320  1.0000
  O   O9        1.0  0.09289  0.49398  0.45015  1.0000
  O   O10       1.0  0.49415  0.40368  0.05086  1.0000
  O   O11       1.0  0.59638  0.09283  0.05031  1.0000
  O   O12       1.0  0.90889  0.50748  0.05843  1.0000
  O   O13       1.0  0.43886  0.54298  0.48300  1.0000
  O   O14       1.0  0.45921  0.89825  0.46629  1.0000
  O   O15       1.0  0.10363  0.56406  0.49025  1.0000
  O   O16       1.0  0.56545  0.46244  0.02530  1.0000
  O   O17       1.0  0.53842  0.10644  0.03294  1.0000
  O   O18       1.0  0.89876  0.43789  0.00981  1.0000
  O   O19       1.0  0.50265  0.59493  0.93296  1.0000
  O   O20       1.0  0.40325  0.90737  0.94926  1.0000
  O   O21       1.0  0.09081  0.49445  0.94923  1.0000
  O   O22       1.0  0.49359  0.39686  0.55771  1.0000
  O   O23       1.0  0.59926  0.09157  0.55303  1.0000
  O   O24       1.0  0.90768  0.50678  0.54263  1.0000
  C   C91       1.0  0.37669  0.80469  0.66920  1.0000
  C   C92       1.0  0.38378  0.77067  0.61456  1.0000
  C  Sn1       1.0  0.41955  0.78000  0.51119  1.0000
  C  Sn2       1.0  0.44873  0.82425  0.46183  1.0000
  C   C93       1.0  0.44137  0.85805  0.51726  1.0000
  C   C94       1.0  0.40546  0.84834  0.62063  1.0000
  H   H49       1.0  0.34892  0.79718  0.74925  1.0000
  O  Te1       1.0  0.42614  0.74561  0.45769  1.0000
  O  Te2       1.0  0.48475  0.83451  0.35864  1.0000
  H   H50       1.0  0.40000  0.87469  0.66300  1.0000
  Mg  Mg1       1.0  0.47987  0.77622  0.31827  1.0000
  C   C95       1.0  0.54468  0.52398  0.70523  1.0000
  C   C96       1.0  0.51893  0.47848  0.67252  1.0000
  C  Sn3       1.0  0.47394  0.45543  0.71338  1.0000
  C  Sn4       1.0  0.45445  0.47844  0.78834  1.0000
  C   C97       1.0  0.48049  0.52396  0.82045  1.0000
  C   C98       1.0  0.52549  0.54670  0.77910  1.0000
  H   H51       1.0  0.57949  0.54158  0.67316  1.0000
  O  Te3       1.0  0.44869  0.40998  0.67990  1.0000
  O  Te4       1.0  0.40955  0.45622  0.83040  1.0000
  H   H52       1.0  0.54541  0.58193  0.80435  1.0000
  Mg  Mg2       1.0  0.38891  0.39430  0.76011  1.0000
  C   C99       1.0  0.00192  0.46048  0.74655  1.0000
  C   C100      1.0  0.03358  0.50165  0.81294  1.0000
  C  Sn5       1.0  0.02695  0.53779  0.80472  1.0000
  C  Sn6       1.0  0.98785  0.53249  0.72857  1.0000
  C   C101      1.0  0.95635  0.49116  0.66262  1.0000
  C   C102      1.0  0.96333  0.45522  0.67148  1.0000
  H   H53       1.0  0.00730  0.43267  0.75347  1.0000
  O  Te5       1.0  0.05893  0.57870  0.87162  1.0000
  O  Te6       1.0  0.98037  0.56805  0.71871  1.0000
  H   H54       1.0  0.93880  0.42334  0.62015  1.0000
  Mg  Mg3       1.0  0.03370  0.61722  0.82783  1.0000
  C   C103      1.0  0.52598  0.98353  0.29231  1.0000
  C   C104      1.0  0.48138  0.96574  0.33453  1.0000
  C  Sn7       1.0  0.45773  0.98573  0.27999  1.0000
  C  Sn8       1.0  0.97332  0.02424  0.18133  1.0000
  C   C105      1.0  0.01795  0.04177  0.13967  1.0000
  C   C106      1.0  0.04129  0.02151  0.19495  1.0000
  H   H55       1.0  0.54404  0.96784  0.33500  1.0000
  O  Te7       1.0  0.41319  0.96753  0.32336  1.0000
  O  Te8       1.0  0.95047  0.04488  0.12511  1.0000
  H   H56       1.0  0.07582  0.03527  0.16215  1.0000
  Mg  Mg4       1.0  0.89023  0.00761  0.21690  1.0000
  C   C107      1.0  0.37777  0.80161  0.16494  1.0000
  C   C108      1.0  0.38408  0.76705  0.11096  1.0000
  C  Sn9       1.0  0.41977  0.77567  0.00819  1.0000
  C  Sn10      1.0  0.45165  0.82373  0.95880  1.0000
  C   C109      1.0  0.44304  0.85410  0.01357  1.0000
  C   C110      1.0  0.40722  0.84509  0.11634  1.0000
  H   H57       1.0  0.35006  0.79465  0.24453  1.0000
  O  Te9       1.0  0.42760  0.74473  0.95534  1.0000
  O  Te10      1.0  0.48760  0.83328  0.85620  1.0000
  H   H58       1.0  0.40235  0.87186  0.15821  1.0000
  Mg  Mg5       1.0  0.48154  0.77446  0.81660  1.0000
  C   C111      1.0  0.55153  0.18606  0.53921  1.0000
  C   C112      1.0  0.55736  0.15149  0.48133  1.0000
  C  Sn11      1.0  0.59303  0.16029  0.37817  1.0000
  C  Sn12      1.0  0.62338  0.20457  0.33236  1.0000
  C   C113      1.0  0.61728  0.23892  0.39102  1.0000
  C   C114      1.0  0.58146  0.22973  0.49414  1.0000
  H   H59       1.0  0.52384  0.17895  0.61907  1.0000
  O  Te11      1.0  0.59835  0.12536  0.32140  1.0000
  O  Te12      1.0  0.65933  0.21431  0.22946  1.0000
  H   H60       1.0  0.57698  0.25651  0.53902  1.0000
  Mg  Mg6       1.0  0.65250  0.15539  0.18384  1.0000
  C   C115      1.0  0.21327  0.65129  0.99083  1.0000
  C   C116      1.0  0.23413  0.63357  0.09394  1.0000
  C  Sn13      1.0  0.21172  0.59209  0.16851  1.0000
  C  Sn14      1.0  0.16555  0.56392  0.13904  1.0000
  C   C117      1.0  0.14298  0.57796  0.03560  1.0000
  C   C118      1.0  0.16775  0.62351  0.96165  1.0000
  H   H61       1.0  0.23088  0.68345  0.93354  1.0000
  O  Te13      1.0  0.23507  0.57889  0.27122  1.0000
  O  Te14      1.0  0.14234  0.52229  0.21194  1.0000
  H   H62       1.0  0.15004  0.63413  0.88174  1.0000
  Mg  Mg7       1.0  0.18878  0.51915  0.34231  1.0000
  C   C119      1.0  0.45450  0.47613  0.28479  1.0000
  C   C120      1.0  0.48268  0.51938  0.34296  1.0000
  C  Sn15      1.0  0.52778  0.54146  0.30370  1.0000
  C  Sn16      1.0  0.54489  0.51976  0.20430  1.0000
  C   C121      1.0  0.51642  0.47650  0.14662  1.0000
  C   C122      1.0  0.47135  0.45471  0.18669  1.0000
  H   H63       1.0  0.41962  0.45927  0.31571  1.0000
  O  Te15      1.0  0.55547  0.58465  0.36289  1.0000
  O  Te16      1.0  0.58983  0.54106  0.16315  1.0000
  H   H64       1.0  0.44953  0.42123  0.14155  1.0000
  Mg  Mg8       1.0  0.61430  0.59984  0.27339  1.0000
  C   C123      1.0  0.98192  0.45402  0.20385  1.0000
  C   C124      1.0  0.96272  0.48007  0.17545  1.0000
  C  Sn17      1.0  0.98450  0.52445  0.22729  1.0000
  C  Sn18      1.0  0.02629  0.54300  0.30902  1.0000
  C   C125      1.0  0.04524  0.51667  0.33675  1.0000
  C   C126      1.0  0.02315  0.47230  0.28440  1.0000
  H   H65       1.0  0.96484  0.41969  0.16327  1.0000
  O  Te17      1.0  0.96483  0.55000  0.19798  1.0000
  O  Te18      1.0  0.04879  0.58727  0.36208  1.0000
  H   H66       1.0  0.03804  0.45215  0.30631  1.0000
  Mg  Mg9       1.0  0.00843  0.60867  0.29369  1.0000
