data_image0
_chemical_formula_structural       C36O48SnCSn2CSnTe4Mg2SnCSn2CSnTe4Mg2SnCSn2CSnTe4Mg2SnCSn2CSnTe4Mg2SnCSn2CSnTe4Mg2SnCSn2CSnTe4Mg2SnCSn2CSnTe4Mg2SnCSn2CSnTe4Mg2SnCSn2CSnTe4Mg2SnCSn2CSnTe4Mg2SnCSn2CSnTe4Mg2SnCSn2CSnTe4Mg2SnCSn2CSnTe4Mg2SnCSn2CSnTe4Mg2SnCSn2CSnTe4Mg2SnCSn2CSnTe4Mg2SnCSn2CSnTe4Mg2SnCSn2CSnTe4Mg2SnCSn2CSnTe4Mg2SnCSn2CSnTe4Mg2SnCSn2CSnTe4Mg2SnCSn2CSnTe4Mg2SnCSn2CSnTe4Mg2SnCSn2CSnTe4Mg2SnCSn2CSnTe4Mg2SnCSn2CSnTe4Mg2SnCSn2CSnTe4Mg2SnCSn2CSnTe4Mg2SnCSn2CSnTe4Mg2SnCSn2CSnTe4Mg2SnCSn2CSnTe4Mg2SnCSn2CSnTe4Mg2SnCSn2CSnTe4Mg2SnCSn2CSnTe4Mg2SnCSn2CSnTe4Mg2SnCSn2CSnTe4Mg2
_chemical_formula_sum              "C108 O48 Sn144 Te144 Mg72"
_cell_length_a       37.069
_cell_length_b       37.2001
_cell_length_c       9.95669
_cell_angle_alpha    89.8779
_cell_angle_beta     89.4711
_cell_angle_gamma    119.927

_symmetry_space_group_name_H-M    'P1'
_space_group_IT_number       1

loop_
  _space_group_symop_operation_xyz
  'x, y, z'

loop_
  _atom_site_type_symbol
  _atom_site_label
  _atom_site_symmetry_multiplicity
  _atom_site_fract_x
  _atom_site_fract_y
  _atom_site_fract_z
  _atom_site_occupancy
  C   C1        1.0  0.50845  0.67667  0.45095  1.0000
  C   C2        1.0  0.32349  0.83222  0.44558  1.0000
  C   C3        1.0  0.17026  0.49706  0.44538  1.0000
  C   C4        1.0  0.49054  0.32462  0.05834  1.0000
  C   C5        1.0  0.67636  0.16946  0.04061  1.0000
  C   C6        1.0  0.82990  0.50572  0.06190  1.0000
  C   C7        1.0  0.54035  0.84476  0.46972  1.0000
  C   C8        1.0  0.15597  0.69389  0.47258  1.0000
  C   C9        1.0  0.30528  0.46354  0.49902  1.0000
  C   C10       1.0  0.46189  0.15786  0.04119  1.0000
  C   C11       1.0  0.84495  0.30556  0.01252  1.0000
  C   C12       1.0  0.69356  0.53708  0.00772  1.0000
  C   C13       1.0  0.51885  0.51751  0.24644  1.0000
  C   C14       1.0  0.48349  0.00328  0.24891  1.0000
  C   C15       1.0  0.99711  0.47971  0.24652  1.0000
  C   C16       1.0  0.47979  0.48324  0.25941  1.0000
  C   C17       1.0  0.51820  0.99894  0.25544  1.0000
  C   C18       1.0  0.00161  0.51867  0.25590  1.0000
  C   C19       1.0  0.50903  0.67647  0.94274  1.0000
  C   C20       1.0  0.32357  0.83116  0.94992  1.0000
  C   C21       1.0  0.16892  0.49153  0.95586  1.0000
  C   C22       1.0  0.48861  0.32176  0.54211  1.0000
  C   C23       1.0  0.67584  0.17320  0.55037  1.0000
  C   C24       1.0  0.82932  0.50591  0.54553  1.0000
  C   C25       1.0  0.53946  0.84448  0.97506  1.0000
  C   C26       1.0  0.15566  0.69321  0.97446  1.0000
  C   C27       1.0  0.30458  0.45791  0.98894  1.0000
  C   C28       1.0  0.45898  0.15416  0.52275  1.0000
  C   C29       1.0  0.84490  0.30794  0.51970  1.0000
  C   C30       1.0  0.69092  0.53452  0.49269  1.0000
  C   C31       1.0  0.51993  0.51623  0.75264  1.0000
  C   C32       1.0  0.48343  0.00326  0.75268  1.0000
  C   C33       1.0  0.99801  0.48197  0.75091  1.0000
  C   C34       1.0  0.48086  0.48187  0.75884  1.0000
  C   C35       1.0  0.51834  0.99931  0.75346  1.0000
  C   C36       1.0  0.00107  0.52032  0.75414  1.0000
  O   O1        1.0  0.54305  0.67501  0.40652  1.0000
  O   O2        1.0  0.32445  0.86725  0.39440  1.0000
  O   O3        1.0  0.13311  0.46125  0.42005  1.0000
  O   O4        1.0  0.45587  0.32544  0.10621  1.0000
  O   O5        1.0  0.67531  0.13388  0.08684  1.0000
  O   O6        1.0  0.86551  0.54028  0.10603  1.0000
  O   O7        1.0  0.47480  0.64598  0.47431  1.0000
  O   O8        1.0  0.35457  0.83061  0.47387  1.0000
  O   O9        1.0  0.17430  0.53165  0.44716  1.0000
  O   O10       1.0  0.52371  0.35566  0.03273  1.0000
  O   O11       1.0  0.64539  0.17211  0.02002  1.0000
  O   O12       1.0  0.82706  0.47194  0.04572  1.0000
  O   O13       1.0  0.50571  0.84724  0.43372  1.0000
  O   O14       1.0  0.15386  0.65785  0.42678  1.0000
  O   O15       1.0  0.34285  0.49728  0.45981  1.0000
  O   O16       1.0  0.49620  0.15618  0.08597  1.0000
  O   O17       1.0  0.84737  0.34214  0.05330  1.0000
  O   O18       1.0  0.65744  0.50404  0.05940  1.0000
  O   O19       1.0  0.57426  0.87468  0.49307  1.0000
  O   O20       1.0  0.12567  0.69646  0.50664  1.0000
  O   O21       1.0  0.30095  0.42987  0.52964  1.0000
  O   O22       1.0  0.42895  0.12738  0.01261  1.0000
  O   O23       1.0  0.87513  0.30188  0.98652  1.0000
  O   O24       1.0  0.69631  0.56930  0.96725  1.0000
  O   O25       1.0  0.54456  0.67448  0.91297  1.0000
  O   O26       1.0  0.32496  0.86710  0.90577  1.0000
  O   O27       1.0  0.13472  0.45991  0.89329  1.0000
  O   O28       1.0  0.45479  0.32358  0.59360  1.0000
  O   O29       1.0  0.67461  0.13718  0.59308  1.0000
  O   O30       1.0  0.86433  0.54041  0.59336  1.0000
  O   O31       1.0  0.47447  0.64603  0.95386  1.0000
  O   O32       1.0  0.35451  0.82876  0.97365  1.0000
  O   O33       1.0  0.17082  0.52364  0.99295  1.0000
  O   O34       1.0  0.52188  0.35236  0.51377  1.0000
  O   O35       1.0  0.64502  0.17629  0.53271  1.0000
  O   O36       1.0  0.82721  0.47254  0.52673  1.0000
  O   O37       1.0  0.50558  0.84750  0.93333  1.0000
  O   O38       1.0  0.15351  0.65665  0.93440  1.0000
  O   O39       1.0  0.34277  0.49320  0.96658  1.0000
  O   O40       1.0  0.49455  0.15274  0.55361  1.0000
  O   O41       1.0  0.84744  0.34360  0.57082  1.0000
  O   O42       1.0  0.65468  0.50046  0.53934  1.0000
  O   O43       1.0  0.57258  0.87427  0.00677  1.0000
  O   O44       1.0  0.12529  0.69653  0.00042  1.0000
  O   O45       1.0  0.29990  0.42326  0.00085  1.0000
  O   O46       1.0  0.42510  0.12344  0.50628  1.0000
  O   O47       1.0  0.87500  0.30497  0.48634  1.0000
  O   O48       1.0  0.69346  0.56733  0.46055  1.0000
  C  Sn1       1.0  0.56400  0.76360  0.48918  1.0000
  C   C37       1.0  0.52609  0.72636  0.49491  1.0000
  C  Sn2       1.0  0.48863  0.72625  0.47927  1.0000
  C  Sn3       1.0  0.48906  0.76416  0.45735  1.0000
  C   C38       1.0  0.52696  0.80136  0.45160  1.0000
  C  Sn4       1.0  0.56444  0.80150  0.46726  1.0000
  O  Te1       1.0  0.60108  0.76297  0.50508  1.0000
  O  Te2       1.0  0.45111  0.68864  0.48544  1.0000
  O  Te3       1.0  0.45194  0.76476  0.44145  1.0000
  O  Te4       1.0  0.60193  0.83909  0.46107  1.0000
  Mg  Mg1       1.0  0.40880  0.70552  0.45781  1.0000
  Mg  Mg2       1.0  0.64426  0.82225  0.48862  1.0000
  C  Sn5       1.0  0.24381  0.72796  0.50323  1.0000
  C   C39       1.0  0.20609  0.72794  0.50371  1.0000
  C  Sn6       1.0  0.20507  0.76390  0.47029  1.0000
  C  Sn7       1.0  0.24253  0.80066  0.43558  1.0000
  C   C40       1.0  0.28021  0.80067  0.43508  1.0000
  C  Sn8       1.0  0.28126  0.76472  0.46851  1.0000
  O  Te5       1.0  0.24409  0.69165  0.53697  1.0000
  O  Te6       1.0  0.16699  0.76312  0.47153  1.0000
  O  Te7       1.0  0.24221  0.83699  0.40182  1.0000
  O  Te8       1.0  0.31931  0.76549  0.46726  1.0000
  Mg  Mg3       1.0  0.18264  0.82042  0.41798  1.0000
  Mg  Mg4       1.0  0.30370  0.70820  0.52072  1.0000
  C  Sn9       1.0  0.27382  0.52022  0.50782  1.0000
  C   C41       1.0  0.27247  0.48229  0.52564  1.0000
  C  Sn10      1.0  0.23562  0.44503  0.50405  1.0000
  C  Sn11      1.0  0.19935  0.44569  0.46372  1.0000
  C   C42       1.0  0.20071  0.48360  0.44590  1.0000
  C  Sn12      1.0  0.23756  0.52088  0.46749  1.0000
  O  Te9       1.0  0.31101  0.55709  0.52996  1.0000
  O  Te10      1.0  0.23503  0.40750  0.52255  1.0000
  O  Te11      1.0  0.16215  0.40878  0.44158  1.0000
  O  Te12      1.0  0.23816  0.55839  0.44898  1.0000
  Mg  Mg5       1.0  0.17694  0.36552  0.47991  1.0000
  Mg  Mg6       1.0  0.29623  0.60039  0.49153  1.0000
  C  Sn13      1.0  0.51383  0.26562  0.98827  1.0000
  C   C43       1.0  0.48712  0.27961  0.00072  1.0000
  C  Sn14      1.0  0.44691  0.25091  0.04475  1.0000
  C  Sn15      1.0  0.43689  0.20977  0.07710  1.0000
  C   C44       1.0  0.46727  0.19821  0.06466  1.0000
  C  Sn16      1.0  0.50749  0.22689  0.02061  1.0000
  O  Te13      1.0  0.55382  0.29483  0.94407  1.0000
  O  Te14      1.0  0.41705  0.26322  0.05636  1.0000
  O  Te15      1.0  0.39686  0.18057  0.12132  1.0000
  O  Te16      1.0  0.53734  0.21460  0.00902  1.0000
  Mg  Mg7       1.0  0.36694  0.21220  0.12088  1.0000
  Mg  Mg8       1.0  0.58378  0.26319  0.94458  1.0000
  C  Sn17      1.0  0.78238  0.21860  0.96825  1.0000
  C   C45       1.0  0.79472  0.26076  0.96592  1.0000
  C  Sn18      1.0  0.77063  0.27638  0.00503  1.0000
  C  Sn19      1.0  0.72968  0.24685  0.04744  1.0000
  C   C46       1.0  0.71736  0.20472  0.04978  1.0000
  C  Sn20      1.0  0.74511  0.19147  0.01066  1.0000
  O  Te17      1.0  0.81066  0.20609  0.92872  1.0000
  O  Te18      1.0  0.78368  0.31869  0.00181  1.0000
  O  Te19      1.0  0.70140  0.25940  0.08698  1.0000
  O  Te20      1.0  0.73208  0.14919  0.01389  1.0000
  Mg  Mg9       1.0  0.73381  0.32044  0.06526  1.0000
  Mg  Mg10      1.0  0.77825  0.14501  0.95053  1.0000
  C  Sn21      1.0  0.72594  0.48333  0.06409  1.0000
  C   C47       1.0  0.72659  0.52110  0.05291  1.0000
  C  Sn22      1.0  0.76354  0.55740  0.01991  1.0000
  C  Sn23      1.0  0.79693  0.55350  0.99754  1.0000
  C   C48       1.0  0.79995  0.51814  0.00870  1.0000
  C  Sn24      1.0  0.76301  0.48183  0.04172  1.0000
  O  Te21      1.0  0.68865  0.44744  0.09718  1.0000
  O  Te22      1.0  0.76342  0.59480  0.00935  1.0000
  O  Te23      1.0  0.83424  0.58944  0.96444  1.0000
  O  Te24      1.0  0.76312  0.44445  0.05226  1.0000
  Mg  Mg11      1.0  0.81829  0.63290  0.96183  1.0000
  Mg  Mg12      1.0  0.70458  0.40393  0.09971  1.0000
  C  Sn25      1.0  0.43974  0.50439  0.47154  1.0000
  C   C49       1.0  0.44057  0.47981  0.36695  1.0000
  C  Sn26      1.0  0.40776  0.46169  0.27642  1.0000
  C  Sn27      1.0  0.37340  0.46830  0.29065  1.0000
  C   C50       1.0  0.37258  0.49287  0.39517  1.0000
  C  Sn28      1.0  0.40538  0.51100  0.48577  1.0000
  O  Te25      1.0  0.47288  0.52220  0.56087  1.0000
  O  Te26      1.0  0.40929  0.43723  0.17269  1.0000
  O  Te27      1.0  0.34024  0.45046  0.20120  1.0000
  O  Te28      1.0  0.40386  0.53545  0.58943  1.0000
  Mg  Mg13      1.0  0.35665  0.41965  0.07632  1.0000
  Mg  Mg14      1.0  0.45649  0.55306  0.68581  1.0000
  C  Sn29      1.0  0.55153  0.92379  0.30547  1.0000
  C   C51       1.0  0.52537  0.89620  0.40462  1.0000
  C  Sn30      1.0  0.49154  0.89907  0.45428  1.0000
  C  Sn31      1.0  0.48367  0.93015  0.40374  1.0000
  C   C52       1.0  0.50982  0.95771  0.30464  1.0000
  C  Sn32      1.0  0.54367  0.95486  0.25493  1.0000
  O  Te29      1.0  0.58517  0.92034  0.25728  1.0000
  O  Te30      1.0  0.46584  0.87115  0.55344  1.0000
  O  Te31      1.0  0.45000  0.93358  0.45203  1.0000
  O  Te32      1.0  0.56936  0.98276  0.15582  1.0000
  Mg  Mg15      1.0  0.42391  0.88835  0.58708  1.0000
  Mg  Mg16      1.0  0.61128  0.96558  0.12206  1.0000
  C  Sn33      1.0  0.06657  0.60226  0.23210  1.0000
  C   C53       1.0  0.04772  0.56142  0.27980  1.0000
  C  Sn34      1.0  0.06075  0.55220  0.39974  1.0000
  C  Sn35      1.0  0.09328  0.58446  0.47360  1.0000
  C   C54       1.0  0.11210  0.62527  0.42592  1.0000
  C  Sn36      1.0  0.09910  0.63452  0.30597  1.0000
  O  Te33      1.0  0.05305  0.61076  0.11196  1.0000
  O  Te34      1.0  0.04144  0.51113  0.44537  1.0000
  O  Te35      1.0  0.10680  0.57592  0.59383  1.0000
  O  Te36      1.0  0.11838  0.67556  0.26035  1.0000
  Mg  Mg17      1.0  0.07080  0.51515  0.61462  1.0000
  Mg  Mg18      1.0  0.08903  0.67159  0.09116  1.0000
  C  Sn37      1.0  0.62268  0.53529  0.23300  1.0000
  C   C55       1.0  0.62386  0.50908  0.13488  1.0000
  C  Sn38      1.0  0.59077  0.48847  0.04651  1.0000
  C  Sn39      1.0  0.55577  0.49419  0.05636  1.0000
  C   C56       1.0  0.55460  0.52039  0.15442  1.0000
  C  Sn40      1.0  0.58768  0.54101  0.24285  1.0000
  O  Te37      1.0  0.65611  0.55559  0.32028  1.0000
  O  Te38      1.0  0.58898  0.46001  0.94927  1.0000
  O  Te39      1.0  0.51864  0.47147  0.96898  1.0000
  O  Te40      1.0  0.58580  0.56706  0.34003  1.0000
  Mg  Mg19      1.0  0.53573  0.43920  0.85339  1.0000
  Mg  Mg20      1.0  0.63904  0.58790  0.43591  1.0000
  C  Sn41      1.0  0.44718  0.05580  0.21916  1.0000
  C   C57       1.0  0.47077  0.03833  0.17367  1.0000
  C  Sn42      1.0  0.50814  0.06252  0.10361  1.0000
  C  Sn43      1.0  0.52224  0.10508  0.07856  1.0000
  C   C58       1.0  0.49867  0.12253  0.12406  1.0000
  C  Sn44      1.0  0.46128  0.09835  0.19411  1.0000
  O  Te41      1.0  0.40991  0.03102  0.28900  1.0000
  O  Te42      1.0  0.53117  0.04436  0.05909  1.0000
  O  Te43      1.0  0.55954  0.12985  0.00866  1.0000
  O  Te44      1.0  0.43826  0.11649  0.23864  1.0000
  Mg  Mg21      1.0  0.57623  0.08851  0.96840  1.0000
  Mg  Mg22      1.0  0.38952  0.06998  0.32939  1.0000
  C  Sn45      1.0  0.90919  0.37699  0.24043  1.0000
  C   C59       1.0  0.88418  0.37582  0.13443  1.0000
  C  Sn46      1.0  0.89909  0.40832  0.04105  1.0000
  C  Sn47      1.0  0.93986  0.44271  0.05381  1.0000
  C   C60       1.0  0.96485  0.44387  0.15974  1.0000
  C  Sn48      1.0  0.94996  0.41137  0.25320  1.0000
  O  Te45      1.0  0.89364  0.34414  0.33262  1.0000
  O  Te46      1.0  0.86983  0.40406  0.93595  1.0000
  O  Te47      1.0  0.95172  0.47317  0.96151  1.0000
  O  Te48      1.0  0.97552  0.41322  0.35822  1.0000
  Mg  Mg23      1.0  0.90504  0.45637  0.83568  1.0000
  Mg  Mg24      1.0  0.94035  0.36093  0.45850  1.0000
  C  Sn49      1.0  0.49908  0.60190  0.26499  1.0000
  C   C61       1.0  0.52221  0.62681  0.37178  1.0000
  C  Sn50      1.0  0.55168  0.61985  0.43496  1.0000
  C  Sn51      1.0  0.55820  0.58731  0.39042  1.0000
  C   C62       1.0  0.53508  0.56242  0.28368  1.0000
  C  Sn52      1.0  0.50559  0.56936  0.22045  1.0000
  O  Te49      1.0  0.46978  0.60942  0.20330  1.0000
  O  Te50      1.0  0.57442  0.64516  0.54155  1.0000
  O  Te51      1.0  0.58753  0.57980  0.45221  1.0000
  O  Te52      1.0  0.48287  0.54408  0.11391  1.0000
  Mg  Mg25      1.0  0.61080  0.62267  0.59323  1.0000
  Mg  Mg26      1.0  0.44650  0.56655  0.06212  1.0000
  C  Sn53      1.0  0.41011  0.92754  0.19212  1.0000
  C   C63       1.0  0.43241  0.96543  0.25815  1.0000
  C  Sn54      1.0  0.42179  0.96985  0.38961  1.0000
  C  Sn55      1.0  0.38820  0.93568  0.45653  1.0000
  C   C64       1.0  0.36593  0.89782  0.39052  1.0000
  C  Sn56      1.0  0.37652  0.89338  0.25904  1.0000
  O  Te53      1.0  0.42127  0.92383  0.06070  1.0000
  O  Te54      1.0  0.94387  0.00803  0.45353  1.0000
  O  Te55      1.0  0.37705  0.93942  0.58805  1.0000
  O  Te56      1.0  0.35381  0.85522  0.19514  1.0000
  Mg  Mg27      1.0  0.41742  0.99771  0.63273  1.0000
  Mg  Mg28      1.0  0.38090  0.86550  0.01597  1.0000
  C  Sn57      1.0  0.07452  0.48228  0.19677  1.0000
  C   C65       1.0  0.03509  0.46554  0.25661  1.0000
  C  Sn58      1.0  0.02849  0.45094  0.38902  1.0000
  C  Sn59      1.0  0.06201  0.45315  0.46321  1.0000
  C   C66       1.0  0.10141  0.46989  0.40338  1.0000
  C  Sn60      1.0  0.10804  0.48449  0.27096  1.0000
  O  Te57      1.0  0.08040  0.49670  0.06428  1.0000
  O  Te58      1.0  0.98880  0.43431  0.44666  1.0000
  O  Te59      1.0  0.05610  0.43871  0.59580  1.0000
  O  Te60      1.0  0.14771  0.50112  0.21333  1.0000
  Mg  Mg29      1.0  0.99636  0.41875  0.63020  1.0000
  Mg  Mg30      1.0  0.14019  0.51670  0.02983  1.0000
  C  Sn61      1.0  0.45156  0.39502  0.04606  1.0000
  C   C67       1.0  0.46654  0.37172  0.11029  1.0000
  C  Sn62      1.0  0.48222  0.38165  0.24028  1.0000
  C  Sn63      1.0  0.48293  0.41557  0.30751  1.0000
  C   C68       1.0  0.46796  0.43885  0.24330  1.0000
  C  Sn64      1.0  0.45227  0.42894  0.11329  1.0000
  O  Te61      1.0  0.43234  0.38213  0.91609  1.0000
  O  Te62      1.0  0.49704  0.35791  0.30241  1.0000
  O  Te63      1.0  0.49849  0.42605  0.43758  1.0000
  O  Te64      1.0  0.43746  0.45266  0.05118  1.0000
  Mg  Mg31      1.0  0.51514  0.38439  0.48009  1.0000
  Mg  Mg32      1.0  0.41565  0.42380  0.87354  1.0000
  C  Sn65      1.0  0.59476  0.03175  0.10284  1.0000
  C   C69       1.0  0.56941  0.02958  0.21093  1.0000
  C  Sn66      1.0  0.57643  0.06566  0.27632  1.0000
  C  Sn67      1.0  0.60947  0.10472  0.23273  1.0000
  C   C70       1.0  0.63479  0.10688  0.12470  1.0000
  C  Sn68      1.0  0.62779  0.07081  0.05925  1.0000
  O  Te65      1.0  0.08783  0.99528  0.03895  1.0000
  O  Te66      1.0  0.55068  0.06271  0.38416  1.0000
  O  Te67      1.0  0.61704  0.14121  0.29673  1.0000
  O  Te68      1.0  0.64983  0.07135  0.95146  1.0000
  Mg  Mg33      1.0  0.57346  0.12117  0.43877  1.0000
  Mg  Mg34      1.0  0.62707  0.01291  0.89673  1.0000
  C  Sn69      1.0  0.94009  0.54579  0.04396  1.0000
  C   C71       1.0  0.90158  0.52989  0.10956  1.0000
  C  Sn70      1.0  0.89598  0.51371  0.23969  1.0000
  C  Sn71      1.0  0.92959  0.51343  0.30567  1.0000
  C   C72       1.0  0.96808  0.52933  0.24009  1.0000
  C  Sn72      1.0  0.97370  0.54552  0.10994  1.0000
  O  Te69      1.0  0.94129  0.55942  0.91388  1.0000
  O  Te70      1.0  0.85719  0.49798  0.30320  1.0000
  O  Te71      1.0  0.92468  0.49739  0.43585  1.0000
  O  Te72      1.0  0.01246  0.56125  0.04644  1.0000
  Mg  Mg35      1.0  0.86593  0.47950  0.48047  1.0000
  Mg  Mg36      1.0  0.00008  0.57735  0.86921  1.0000
  C  Sn73      1.0  0.56793  0.78782  0.95921  1.0000
  C   C73       1.0  0.53822  0.80020  0.94539  1.0000
  C  Sn74      1.0  0.49580  0.77084  0.94852  1.0000
  C  Sn75      1.0  0.48281  0.72821  0.96592  1.0000
  C   C74       1.0  0.51252  0.71585  0.97975  1.0000
  C  Sn76      1.0  0.55494  0.74519  0.97661  1.0000
  O  Te73      1.0  0.61016  0.81770  0.95579  1.0000
  O  Te74      1.0  0.46668  0.78396  0.93444  1.0000
  O  Te75      1.0  0.44054  0.69832  0.96933  1.0000
  O  Te76      1.0  0.58406  0.73209  0.99070  1.0000
  Mg  Mg37      1.0  0.41273  0.73153  0.94585  1.0000
  Mg  Mg38      1.0  0.63801  0.78449  0.97938  1.0000
  C  Sn77      1.0  0.24716  0.73011  0.01808  1.0000
  C   C75       1.0  0.20941  0.72991  0.01168  1.0000
  C  Sn78      1.0  0.20482  0.76287  0.96939  1.0000
  C  Sn79      1.0  0.24242  0.79919  0.93263  1.0000
  C   C76       1.0  0.28013  0.79938  0.93901  1.0000
  C  Sn80      1.0  0.28107  0.76403  0.98132  1.0000
  O  Te77      1.0  0.24733  0.69440  0.06065  1.0000
  O  Te78      1.0  0.16670  0.76192  0.96387  1.0000
  O  Te79      1.0  0.24222  0.83491  0.89004  1.0000
  O  Te80      1.0  0.31916  0.76497  0.98683  1.0000
  Mg  Mg39      1.0  0.18254  0.81834  0.89933  1.0000
  Mg  Mg40      1.0  0.30704  0.71096  0.05127  1.0000
  C  Sn81      1.0  0.22435  0.43612  0.91563  1.0000
  C   C77       1.0  0.26501  0.46425  0.95419  1.0000
  C  Sn82      1.0  0.27787  0.50411  0.01437  1.0000
  C  Sn83      1.0  0.24574  0.51366  0.03655  1.0000
  C   C78       1.0  0.20142  0.48314  0.99802  1.0000
  C  Sn84      1.0  0.19221  0.44567  0.93781  1.0000
  O  Te81      1.0  0.21588  0.39885  0.85564  1.0000
  O  Te82      1.0  0.31877  0.53174  0.05202  1.0000
  O  Te83      1.0  0.25424  0.55097  0.09659  1.0000
  O  Te84      1.0  0.15135  0.41804  0.90019  1.0000
  Mg  Mg41      1.0  0.31476  0.57853  0.13030  1.0000
  Mg  Mg42      1.0  0.15531  0.37124  0.82197  1.0000
  C  Sn85      1.0  0.51355  0.24209  0.53669  1.0000
  C   C79       1.0  0.47630  0.20453  0.55220  1.0000
  C  Sn86      1.0  0.43809  0.20320  0.54179  1.0000
  C  Sn87      1.0  0.43711  0.24017  0.51523  1.0000
  C   C80       1.0  0.47435  0.27770  0.49972  1.0000
  C  Sn88      1.0  0.51257  0.27906  0.51013  1.0000
  O  Te85      1.0  0.55139  0.24269  0.54750  1.0000
  O  Te86      1.0  0.40126  0.16529  0.55772  1.0000
  O  Te87      1.0  0.39923  0.23954  0.50444  1.0000
  O  Te88      1.0  0.54939  0.31694  0.49419  1.0000
  Mg  Mg43      1.0  0.35747  0.18036  0.53395  1.0000
  Mg  Mg44      1.0  0.59319  0.30190  0.51788  1.0000
  C  Sn89      1.0  0.76357  0.20529  0.56194  1.0000
  C   C81       1.0  0.72655  0.20656  0.56875  1.0000
  C  Sn90      1.0  0.72615  0.24277  0.53421  1.0000
  C  Sn91      1.0  0.76354  0.27846  0.49189  1.0000
  C   C82       1.0  0.80053  0.27718  0.48508  1.0000
  C  Sn92      1.0  0.80095  0.24097  0.51963  1.0000
  O  Te89      1.0  0.76323  0.16875  0.59695  1.0000
  O  Te90      1.0  0.68876  0.24330  0.54185  1.0000
  O  Te91      1.0  0.76385  0.31502  0.45688  1.0000
  O  Te92      1.0  0.83831  0.24044  0.51197  1.0000
  Mg  Mg45      1.0  0.70509  0.30040  0.48363  1.0000
  Mg  Mg46      1.0  0.82202  0.18335  0.57011  1.0000
  C  Sn93      1.0  0.72471  0.48173  0.54543  1.0000
  C   C83       1.0  0.72464  0.51915  0.53405  1.0000
  C  Sn94      1.0  0.76128  0.55580  0.50139  1.0000
  C  Sn95      1.0  0.79875  0.55504  0.47958  1.0000
  C   C84       1.0  0.79880  0.51764  0.49095  1.0000
  C  Sn96      1.0  0.76218  0.48097  0.52362  1.0000
  O  Te93      1.0  0.68772  0.44546  0.57817  1.0000
  O  Te94      1.0  0.76044  0.59284  0.49062  1.0000
  O  Te95      1.0  0.83575  0.59135  0.44683  1.0000
  O  Te96      1.0  0.76300  0.44395  0.53437  1.0000
  Mg  Mg47      1.0  0.81882  0.63408  0.44374  1.0000
  Mg  Mg48      1.0  0.70464  0.40269  0.58118  1.0000
  C  Sn97      1.0  0.37275  0.45058  0.81578  1.0000
  C   C85       1.0  0.37170  0.47384  0.92423  1.0000
  C  Sn98      1.0  0.40865  0.50533  0.97807  1.0000
  C  Sn99      1.0  0.44747  0.51376  0.92231  1.0000
  C   C86       1.0  0.44852  0.49052  0.81392  1.0000
  C  Sn100     1.0  0.41158  0.45902  0.76002  1.0000
  O  Te97      1.0  0.33542  0.41925  0.76356  1.0000
  O  Te98      1.0  0.41049  0.53055  0.08653  1.0000
  O  Te99      1.0  0.48482  0.54513  0.97465  1.0000
  O  Te100     1.0  0.41341  0.43621  0.65162  1.0000
  Mg  Mg49      1.0  0.46983  0.57008  0.12258  1.0000
  Mg  Mg50      1.0  0.35408  0.39669  0.61545  1.0000
  C  Sn101     1.0  0.50259  0.93930  0.96263  1.0000
  C   C87       1.0  0.52410  0.96325  0.85021  1.0000
  C  Sn102     1.0  0.53780  0.94672  0.74927  1.0000
  C  Sn103     1.0  0.52983  0.90537  0.76088  1.0000
  C   C88       1.0  0.50833  0.88144  0.87324  1.0000
  C  Sn104     1.0  0.49462  0.89795  0.97425  1.0000
  O  Te101     1.0  0.49286  0.95886  0.06232  1.0000
  O  Te102     1.0  0.55925  0.97128  0.63784  1.0000
  O  Te103     1.0  0.54326  0.88823  0.66107  1.0000
  O  Te104     1.0  0.47686  0.87581  0.08561  1.0000
  Mg  Mg51      1.0  0.57121  0.93397  0.52849  1.0000
  Mg  Mg52      1.0  0.46487  0.91308  0.19498  1.0000
  C  Sn105     1.0  0.05906  0.56417  0.96554  1.0000
  C   C89       1.0  0.03689  0.56214  0.85030  1.0000
  C  Sn106     1.0  0.05586  0.59143  0.74730  1.0000
  C  Sn107     1.0  0.09787  0.62342  0.75968  1.0000
  C   C90       1.0  0.12002  0.62544  0.87485  1.0000
  C  Sn108     1.0  0.10107  0.59616  0.97792  1.0000
  O  Te105     1.0  0.04315  0.53695  0.06725  1.0000
  O  Te106     1.0  0.03306  0.58877  0.63307  1.0000
  O  Te107     1.0  0.11746  0.65305  0.65784  1.0000
  O  Te108     1.0  0.12753  0.60121  0.09208  1.0000
  Mg  Mg53      1.0  0.07344  0.63635  0.52173  1.0000
  Mg  Mg54      1.0  0.08719  0.55363  0.20345  1.0000
  C  Sn109     1.0  0.55354  0.48053  0.57502  1.0000
  C   C91       1.0  0.55334  0.50231  0.68894  1.0000
  C  Sn110     1.0  0.59072  0.53121  0.74784  1.0000
  C  Sn111     1.0  0.62912  0.53850  0.69165  1.0000
  C   C92       1.0  0.62931  0.51674  0.57778  1.0000
  C  Sn112     1.0  0.59194  0.48783  0.51883  1.0000
  O  Te109     1.0  0.51579  0.45179  0.51780  1.0000
  O  Te110     1.0  0.58973  0.55259  0.86172  1.0000
  O  Te111     1.0  0.66689  0.56727  0.74898  1.0000
  O  Te112     1.0  0.59292  0.46646  0.40501  1.0000
  Mg  Mg55      1.0  0.64938  0.58866  0.90331  1.0000
  Mg  Mg56      1.0  0.53329  0.43040  0.36330  1.0000
  C  Sn113     1.0  0.49742  0.08095  0.50850  1.0000
  C   C93       1.0  0.48264  0.10523  0.56764  1.0000
  C  Sn114     1.0  0.47074  0.09975  0.70302  1.0000
  C  Sn115     1.0  0.47371  0.06939  0.78096  1.0000
  C   C94       1.0  0.48849  0.04514  0.72183  1.0000
  C  Sn116     1.0  0.50039  0.05059  0.58643  1.0000
  O  Te113     1.0  0.50914  0.08696  0.37298  1.0000
  O  Te114     1.0  0.45604  0.12438  0.75991  1.0000
  O  Te115     1.0  0.46197  0.06339  0.91657  1.0000
  O  Te116     1.0  0.51509  0.02598  0.52956  1.0000
  Mg  Mg57      1.0  0.44388  0.10455  0.94850  1.0000
  Mg  Mg58      1.0  0.52727  0.04580  0.34100  1.0000
  C  Sn117     1.0  0.94419  0.39310  0.72759  1.0000
  C   C95       1.0  0.96414  0.43390  0.67922  1.0000
  C  Sn118     1.0  0.94319  0.44741  0.59542  1.0000
  C  Sn119     1.0  0.90142  0.41956  0.55927  1.0000
  C   C96       1.0  0.88149  0.37879  0.60765  1.0000
  C  Sn120     1.0  0.90242  0.36525  0.69144  1.0000
  O  Te117     1.0  0.96573  0.38026  0.81125  1.0000
  O  Te118     1.0  0.96379  0.48834  0.54828  1.0000
  O  Te119     1.0  0.87988  0.43242  0.47554  1.0000
  O  Te120     1.0  0.88184  0.32434  0.73858  1.0000
  Mg  Mg59      1.0  0.92127  0.49118  0.43702  1.0000
  Mg  Mg60      1.0  0.92431  0.32148  0.84990  1.0000
  C  Sn121     1.0  0.51693  0.59004  0.70380  1.0000
  C   C97       1.0  0.53366  0.56754  0.76271  1.0000
  C  Sn122     1.0  0.55108  0.57779  0.89045  1.0000
  C  Sn123     1.0  0.55175  0.61123  0.96082  1.0000
  C   C98       1.0  0.53501  0.63371  0.90192  1.0000
  C  Sn124     1.0  0.51760  0.62348  0.77417  1.0000
  O  Te121     1.0  0.49967  0.57924  0.57600  1.0000
  O  Te122     1.0  0.56763  0.55485  0.94726  1.0000
  O  Te123     1.0  0.57270  0.62442  0.08871  1.0000
  O  Te124     1.0  0.50104  0.64640  0.71737  1.0000
  Mg  Mg61      1.0  0.59136  0.58388  0.12379  1.0000
  Mg  Mg62      1.0  0.48097  0.61978  0.54089  1.0000
  C  Sn125     1.0  0.40065  0.89813  0.77100  1.0000
  C   C99       1.0  0.37353  0.89548  0.87396  1.0000
  C  Sn126     1.0  0.37843  0.93139  0.93510  1.0000
  C  Sn127     1.0  0.41111  0.97078  0.89240  1.0000
  C   C100      1.0  0.43820  0.97341  0.78948  1.0000
  C  Sn128     1.0  0.43333  0.93752  0.72830  1.0000
  O  Te125     1.0  0.39517  0.86183  0.71130  1.0000
  O  Te126     1.0  0.35462  0.93036  0.03786  1.0000
  O  Te127     1.0  0.91592  0.00709  0.95220  1.0000
  O  Te128     1.0  0.46080  0.94094  0.62558  1.0000
  Mg  Mg63      1.0  0.37483  0.98877  0.08805  1.0000
  Mg  Mg64      1.0  0.44060  0.88255  0.57528  1.0000
  C  Sn129     1.0  0.10432  0.50601  0.76736  1.0000
  C   C101      1.0  0.10670  0.48133  0.86899  1.0000
  C  Sn130     1.0  0.07051  0.45032  0.93118  1.0000
  C  Sn131     1.0  0.03111  0.44382  0.89090  1.0000
  C   C102      1.0  0.02873  0.46848  0.78931  1.0000
  C  Sn132     1.0  0.06491  0.49950  0.72708  1.0000
  O  Te129     1.0  0.14090  0.53682  0.70657  1.0000
  O  Te130     1.0  0.07737  0.42846  0.03258  1.0000
  O  Te131     1.0  0.99451  0.41298  0.95179  1.0000
  O  Te132     1.0  0.06175  0.52375  0.62572  1.0000
  Mg  Mg65      1.0  0.01863  0.39035  0.08504  1.0000
  Mg  Mg66      1.0  0.12047  0.56186  0.57315  1.0000
  C  Sn133     1.0  0.43496  0.40550  0.61389  1.0000
  C   C103      1.0  0.46030  0.43119  0.71587  1.0000
  C  Sn134     1.0  0.48995  0.42369  0.77515  1.0000
  C  Sn135     1.0  0.49438  0.38981  0.73154  1.0000
  C   C104      1.0  0.46906  0.36414  0.62960  1.0000
  C  Sn136     1.0  0.43940  0.37162  0.57027  1.0000
  O  Te133     1.0  0.40553  0.41358  0.55605  1.0000
  O  Te134     1.0  0.51491  0.44980  0.87697  1.0000
  O  Te135     1.0  0.52384  0.38175  0.78948  1.0000
  O  Te136     1.0  0.41445  0.34553  0.46850  1.0000
  Mg  Mg67      1.0  0.55055  0.42610  0.92463  1.0000
  Mg  Mg68      1.0  0.37882  0.36922  0.42072  1.0000
  C  Sn137     1.0  0.59680  0.03406  0.61089  1.0000
  C   C105      1.0  0.56905  0.03152  0.71143  1.0000
  C  Sn138     1.0  0.57338  0.06752  0.77014  1.0000
  C  Sn139     1.0  0.60610  0.10687  0.72741  1.0000
  C   C106      1.0  0.63383  0.10939  0.62691  1.0000
  C  Sn140     1.0  0.62953  0.07341  0.56816  1.0000
  O  Te137     1.0  0.09255  0.99767  0.55360  1.0000
  O  Te138     1.0  0.54526  0.06420  0.87051  1.0000
  O  Te139     1.0  0.61100  0.14328  0.78480  1.0000
  O  Te140     1.0  0.65762  0.07671  0.46784  1.0000
  Mg  Mg69      1.0  0.56484  0.12270  0.91791  1.0000
  Mg  Mg70      1.0  0.63806  0.01824  0.42032  1.0000
  C  Sn141     1.0  0.90316  0.51760  0.78251  1.0000
  C   C107      1.0  0.90017  0.53915  0.67199  1.0000
  C  Sn142     1.0  0.92968  0.55231  0.56797  1.0000
  C  Sn143     1.0  0.96285  0.54372  0.57452  1.0000
  C   C108      1.0  0.96582  0.52217  0.68498  1.0000
  C  Sn144     1.0  0.93633  0.50901  0.78906  1.0000
  O  Te141     1.0  0.87330  0.50474  0.88534  1.0000
  O  Te142     1.0  0.92605  0.57381  0.45853  1.0000
  O  Te143     1.0  0.99271  0.55660  0.47157  1.0000
  O  Te144     1.0  0.93994  0.48751  0.89844  1.0000
  Mg  Mg71      1.0  0.97441  0.58487  0.34342  1.0000
  Mg  Mg72      1.0  0.89528  0.47882  0.01356  1.0000
