data_image0
_chemical_formula_structural       H84C120O24C2Sn2C2HTe2HMgC2Sn2C2HTe2HMgC2Sn2C2HTe2HMgC2Sn2C2HTe2HMgC2Sn2C2HTe2HMgC2Sn2C2HTe2HMgC2Sn2C2HTe2HMgC2Sn2C2HTe2HMgC2Sn2C2HTe2HMgC2Sn2C2HTe2HMgC2Sn2C2HTe2HMgC2Sn2C2HTe2HMgC2Sn2C2HTe2HMgC2Sn2C2HTe2HMgC2Sn2C2HTe2HMgC2Sn2C2HTe2HMgC2Sn2C2HTe2HMgC2Sn2C2HTe2HMgC2Sn2C2HTe2HMgC2Sn2C2HTe2HMgC2Sn2C2HTe2HMgC2Sn2C2HTe2HMgC2Sn2C2HTe2HMgC2Sn2C2HTe2HMgC2Sn2C2HTe2HMgC2Sn2C2HTe2HMgC2Sn2C2HTe2HMgC2Sn2C2HTe2HMgC2Sn2C2HTe2HMgC2Sn2C2HTe2HMgC2Sn2C2HTe2HMgC2Sn2C2HTe2HMgC2Sn2C2HTe2HMgC2Sn2C2HTe2HMgC2Sn2C2HTe2HMgC2Sn2C2HTe2HMg
_chemical_formula_sum              "H156 C264 O24 Sn72 Te72 Mg36"
_cell_length_a       68.0387
_cell_length_b       68.372
_cell_length_c       7.99524
_cell_angle_alpha    92.3175
_cell_angle_beta     89.3811
_cell_angle_gamma    120.331

_symmetry_space_group_name_H-M    'P1'
_space_group_IT_number       1

loop_
  _space_group_symop_operation_xyz
  'x, y, z'

loop_
  _atom_site_type_symbol
  _atom_site_label
  _atom_site_symmetry_multiplicity
  _atom_site_fract_x
  _atom_site_fract_y
  _atom_site_fract_z
  _atom_site_occupancy
  H   H1        1.0  0.30122  0.67484  0.47451  1.0000
  H   H2        1.0  0.32783  0.62966  0.47019  1.0000
  H   H3        1.0  0.37351  0.70160  0.48112  1.0000
  H   H4        1.0  0.69921  0.32700  0.02278  1.0000
  H   H5        1.0  0.67297  0.37242  0.01852  1.0000
  H   H6        1.0  0.62703  0.30049  0.01049  1.0000
  H   H7        1.0  0.46584  0.49860  0.24403  1.0000
  H   H8        1.0  0.50597  0.96925  0.24188  1.0000
  H   H9        1.0  0.03497  0.53281  0.23814  1.0000
  H   H10       1.0  0.53493  0.49968  0.32510  1.0000
  H   H11       1.0  0.50427  0.03671  0.30594  1.0000
  H   H12       1.0  0.96656  0.46241  0.27015  1.0000
  H   H13       1.0  0.53633  0.52851  0.38784  1.0000
  H   H14       1.0  0.47465  0.00953  0.34192  1.0000
  H   H15       1.0  0.99227  0.46437  0.39312  1.0000
  H   H16       1.0  0.46883  0.47605  0.10447  1.0000
  H   H17       1.0  0.52708  0.99326  0.08580  1.0000
  H   H18       1.0  0.00869  0.53251  0.15108  1.0000
  H   H19       1.0  0.46625  0.53258  0.35602  1.0000
  H   H20       1.0  0.47203  0.93630  0.34785  1.0000
  H   H21       1.0  0.06804  0.53236  0.34834  1.0000
  H   H22       1.0  0.53395  0.46555  0.20983  1.0000
  H   H23       1.0  0.53808  0.06947  0.19654  1.0000
  H   H24       1.0  0.93383  0.46254  0.14885  1.0000
  H   H25       1.0  0.55502  0.57889  0.43494  1.0000
  H   H26       1.0  0.42457  0.97783  0.38896  1.0000
  H   H27       1.0  0.02263  0.44447  0.42180  1.0000
  H   H28       1.0  0.44759  0.42416  0.06402  1.0000
  H   H29       1.0  0.57908  0.02415  0.05411  1.0000
  H   H30       1.0  0.98042  0.55215  0.10596  1.0000
  H   H31       1.0  0.55833  0.56522  0.96901  1.0000
  H   H32       1.0  0.43565  0.99102  0.02013  1.0000
  H   H33       1.0  0.00513  0.45478  0.06824  1.0000
  H   H34       1.0  0.45290  0.44372  0.40451  1.0000
  H   H35       1.0  0.57431  0.02545  0.56573  1.0000
  H   H36       1.0  0.99151  0.55223  0.42574  1.0000
  H   H37       1.0  0.54212  0.56199  0.15191  1.0000
  H   H38       1.0  0.42378  0.96379  0.10630  1.0000
  H   H39       1.0  0.03474  0.46592  0.09830  1.0000
  H   H40       1.0  0.46395  0.42510  0.38555  1.0000
  H   H41       1.0  0.55242  0.00785  0.41984  1.0000
  H   H42       1.0  0.96169  0.54166  0.42142  1.0000
  H   H43       1.0  0.29954  0.66966  0.97297  1.0000
  H   H44       1.0  0.32587  0.62440  0.98027  1.0000
  H   H45       1.0  0.37174  0.69629  0.97118  1.0000
  H   H46       1.0  0.69846  0.32764  0.51689  1.0000
  H   H47       1.0  0.67197  0.37284  0.52156  1.0000
  H   H48       1.0  0.62624  0.30085  0.52355  1.0000
  H   H49       1.0  0.46510  0.49771  0.75061  1.0000
  H   H50       1.0  0.50312  0.96884  0.77471  1.0000
  H   H51       1.0  0.03459  0.53713  0.70328  1.0000
  H   H52       1.0  0.53408  0.49862  0.82257  1.0000
  H   H53       1.0  0.49772  0.03434  0.83310  1.0000
  H   H54       1.0  0.96632  0.46681  0.72924  1.0000
  H   H55       1.0  0.53639  0.52781  0.86924  1.0000
  H   H56       1.0  0.46765  0.00546  0.85742  1.0000
  H   H57       1.0  0.99072  0.46953  0.87023  1.0000
  H   H58       1.0  0.46812  0.47512  0.60058  1.0000
  H   H59       1.0  0.52265  0.99274  0.61171  1.0000
  H   H60       1.0  0.00748  0.53768  0.63002  1.0000
  H   H61       1.0  0.46666  0.53265  0.85567  1.0000
  H   H62       1.0  0.46954  0.93448  0.86941  1.0000
  H   H63       1.0  0.06712  0.53664  0.82503  1.0000
  H   H64       1.0  0.53314  0.46446  0.70819  1.0000
  H   H65       1.0  0.53046  0.06773  0.71947  1.0000
  H   H66       1.0  0.93305  0.46710  0.62093  1.0000
  H   H67       1.0  0.54689  0.58324  0.01134  1.0000
  H   H68       1.0  0.41514  0.96655  0.90522  1.0000
  H   H69       1.0  0.02086  0.44915  0.91498  1.0000
  H   H70       1.0  0.44663  0.42339  0.55805  1.0000
  H   H71       1.0  0.56936  0.03738  0.38906  1.0000
  H   H72       1.0  0.97806  0.55679  0.60175  1.0000
  H   H73       1.0  0.55162  0.55967  0.59039  1.0000
  H   H74       1.0  0.44456  0.99594  0.54403  1.0000
  H   H75       1.0  0.00784  0.44956  0.58565  1.0000
  H   H76       1.0  0.45298  0.44474  0.91473  1.0000
  H   H77       1.0  0.55821  0.00835  0.89716  1.0000
  H   H78       1.0  0.99352  0.54610  0.93456  1.0000
  H   H79       1.0  0.53958  0.57732  0.61872  1.0000
  H   H80       1.0  0.42711  0.96653  0.57787  1.0000
  H   H81       1.0  0.03768  0.46066  0.60330  1.0000
  H   H82       1.0  0.46429  0.42645  0.88614  1.0000
  H   H83       1.0  0.57666  0.03801  0.87982  1.0000
  H   H84       1.0  0.96397  0.53634  0.92708  1.0000
  C   C1        1.0  0.33778  0.69098  0.47568  1.0000
  C   C2        1.0  0.31166  0.64984  0.46933  1.0000
  C   C3        1.0  0.35292  0.66519  0.47382  1.0000
  C   C4        1.0  0.66268  0.31098  0.01900  1.0000
  C   C5        1.0  0.68893  0.35207  0.02269  1.0000
  C   C6        1.0  0.64773  0.33688  0.01683  1.0000
  C   C7        1.0  0.31564  0.67211  0.47164  1.0000
  C   C8        1.0  0.33053  0.64674  0.46920  1.0000
  C   C9        1.0  0.35624  0.68718  0.47565  1.0000
  C   C10       1.0  0.68483  0.32978  0.02302  1.0000
  C   C11       1.0  0.67015  0.35530  0.02096  1.0000
  C   C12       1.0  0.64431  0.31487  0.01636  1.0000
  C   C13       1.0  0.50606  0.36994  0.42636  1.0000
  C   C14       1.0  0.62365  0.13596  0.43569  1.0000
  C   C15       1.0  0.86260  0.49228  0.44212  1.0000
  C   C16       1.0  0.49262  0.62849  0.06009  1.0000
  C   C17       1.0  0.37315  0.86091  0.04496  1.0000
  C   C18       1.0  0.13386  0.50939  0.07373  1.0000
  C   C19       1.0  0.50152  0.55048  0.43118  1.0000
  C   C20       1.0  0.45366  0.95368  0.40511  1.0000
  C   C21       1.0  0.04968  0.49782  0.42271  1.0000
  C   C22       1.0  0.50028  0.45025  0.10404  1.0000
  C   C23       1.0  0.55307  0.05066  0.09269  1.0000
  C   C24       1.0  0.95195  0.49764  0.08677  1.0000
  C   C25       1.0  0.48174  0.53168  0.36217  1.0000
  C   C26       1.0  0.47266  0.95250  0.34683  1.0000
  C   C27       1.0  0.05130  0.51730  0.35613  1.0000
  C   C28       1.0  0.51947  0.46781  0.18898  1.0000
  C   C29       1.0  0.53570  0.05263  0.17421  1.0000
  C   C30       1.0  0.95037  0.47801  0.15053  1.0000
  C   C31       1.0  0.48157  0.51245  0.29775  1.0000
  C   C32       1.0  0.49178  0.97112  0.28465  1.0000
  C   C33       1.0  0.03246  0.51753  0.29438  1.0000
  C   C34       1.0  0.52008  0.48730  0.25284  1.0000
  C   C35       1.0  0.51640  0.03402  0.23407  1.0000
  C   C36       1.0  0.96896  0.47799  0.21998  1.0000
  C   C37       1.0  0.50140  0.51089  0.30007  1.0000
  C   C38       1.0  0.49285  0.99214  0.27605  1.0000
  C   C39       1.0  0.01061  0.49819  0.30019  1.0000
  C   C40       1.0  0.50153  0.49063  0.22884  1.0000
  C   C41       1.0  0.51297  0.01205  0.20802  1.0000
  C   C42       1.0  0.99055  0.49781  0.22689  1.0000
  C   C43       1.0  0.52080  0.52924  0.37720  1.0000
  C   C44       1.0  0.47426  0.99345  0.34130  1.0000
  C   C45       1.0  0.00894  0.47929  0.37717  1.0000
  C   C46       1.0  0.48296  0.47361  0.13519  1.0000
  C   C47       1.0  0.52971  0.01005  0.11692  1.0000
  C   C48       1.0  0.99221  0.51704  0.15577  1.0000
  C   C49       1.0  0.52136  0.54884  0.44269  1.0000
  C   C50       1.0  0.45494  0.97500  0.40668  1.0000
  C   C51       1.0  0.02780  0.47852  0.43668  1.0000
  C   C52       1.0  0.48166  0.45347  0.07499  1.0000
  C   C53       1.0  0.54976  0.02872  0.06110  1.0000
  C   C54       1.0  0.97365  0.51753  0.08672  1.0000
  C   C55       1.0  0.54355  0.56588  0.01839  1.0000
  C   C56       1.0  0.42989  0.97310  0.99050  1.0000
  C   C57       1.0  0.02156  0.46217  0.00433  1.0000
  C   C58       1.0  0.46000  0.43521  0.47480  1.0000
  C   C59       1.0  0.56098  0.02463  0.48398  1.0000
  C   C60       1.0  0.97597  0.54441  0.50089  1.0000
  C   C61       1.0  0.33613  0.68577  0.97021  1.0000
  C   C62       1.0  0.31000  0.64474  0.97404  1.0000
  C   C63       1.0  0.35120  0.65992  0.97321  1.0000
  C   C64       1.0  0.66193  0.31152  0.52301  1.0000
  C   C65       1.0  0.68798  0.35258  0.52128  1.0000
  C   C66       1.0  0.64674  0.33730  0.52438  1.0000
  C   C67       1.0  0.31399  0.66698  0.97058  1.0000
  C   C68       1.0  0.32878  0.64152  0.97477  1.0000
  C   C69       1.0  0.35450  0.68186  0.96970  1.0000
  C   C70       1.0  0.68403  0.33035  0.52174  1.0000
  C   C71       1.0  0.66914  0.35573  0.52389  1.0000
  C   C72       1.0  0.64347  0.31533  0.52523  1.0000
  C   C73       1.0  0.50800  0.37127  0.93760  1.0000
  C   C74       1.0  0.63084  0.13767  0.95158  1.0000
  C   C75       1.0  0.86519  0.48839  0.92636  1.0000
  C   C76       1.0  0.49080  0.62836  0.55921  1.0000
  C   C77       1.0  0.37570  0.86624  0.53493  1.0000
  C   C78       1.0  0.13752  0.50842  0.56735  1.0000
  C   C79       1.0  0.50222  0.55032  0.92139  1.0000
  C   C80       1.0  0.44916  0.94992  0.91715  1.0000
  C   C81       1.0  0.04815  0.50232  0.90454  1.0000
  C   C82       1.0  0.49946  0.44920  0.60232  1.0000
  C   C83       1.0  0.54641  0.04994  0.61180  1.0000
  C   C84       1.0  0.95065  0.50257  0.56995  1.0000
  C   C85       1.0  0.48200  0.53145  0.85856  1.0000
  C   C86       1.0  0.46915  0.95018  0.86659  1.0000
  C   C87       1.0  0.05027  0.52171  0.83225  1.0000
  C   C88       1.0  0.51869  0.46674  0.68691  1.0000
  C   C89       1.0  0.52887  0.05119  0.69754  1.0000
  C   C90       1.0  0.94948  0.48269  0.62413  1.0000
  C   C91       1.0  0.48120  0.51175  0.79756  1.0000
  C   C92       1.0  0.48807  0.96959  0.81075  1.0000
  C   C93       1.0  0.03174  0.52202  0.76426  1.0000
  C   C94       1.0  0.51930  0.48624  0.74983  1.0000
  C   C95       1.0  0.51013  0.03220  0.76021  1.0000
  C   C96       1.0  0.96836  0.48259  0.68647  1.0000
  C   C97       1.0  0.50097  0.51006  0.79453  1.0000
  C   C98       1.0  0.48789  0.98998  0.80034  1.0000
  C   C99       1.0  0.00975  0.50289  0.77023  1.0000
  C   C100      1.0  0.50080  0.48961  0.72500  1.0000
  C   C101      1.0  0.50758  0.01055  0.73490  1.0000
  C   C102      1.0  0.98976  0.50259  0.69660  1.0000
  C   C103      1.0  0.52085  0.52861  0.86404  1.0000
  C   C104      1.0  0.46827  0.98989  0.85847  1.0000
  C   C105      1.0  0.00757  0.48411  0.85237  1.0000
  C   C106      1.0  0.48219  0.47261  0.63169  1.0000
  C   C107      1.0  0.52464  0.00928  0.64268  1.0000
  C   C108      1.0  0.99110  0.52204  0.63217  1.0000
  C   C109      1.0  0.52195  0.54843  0.92946  1.0000
  C   C110      1.0  0.44918  0.97066  0.91836  1.0000
  C   C111      1.0  0.02608  0.48322  0.91767  1.0000
  C   C112      1.0  0.48089  0.45244  0.57225  1.0000
  C   C113      1.0  0.54397  0.02826  0.58250  1.0000
  C   C114      1.0  0.97224  0.52256  0.56968  1.0000
  C   C115      1.0  0.54302  0.56720  0.52601  1.0000
  C   C116      1.0  0.43679  0.97894  0.48329  1.0000
  C   C117      1.0  0.02386  0.45722  0.51620  1.0000
  C   C118      1.0  0.46055  0.43625  0.97968  1.0000
  C   C119      1.0  0.56685  0.02465  0.96800  1.0000
  C   C120      1.0  0.97798  0.53914  0.00962  1.0000
  O   O1        1.0  0.52560  0.37569  0.33555  1.0000
  O   O2        1.0  0.61695  0.14893  0.35080  1.0000
  O   O3        1.0  0.84908  0.47309  0.34207  1.0000
  O   O4        1.0  0.47343  0.62294  0.15386  1.0000
  O   O5        1.0  0.38006  0.84827  0.13217  1.0000
  O   O6        1.0  0.14777  0.52918  0.16694  1.0000
  O   O7        1.0  0.50421  0.64651  0.99340  1.0000
  O   O8        1.0  0.35424  0.85357  0.98437  1.0000
  O   O9        1.0  0.13977  0.49641  0.01660  1.0000
  O   O10       1.0  0.49313  0.35111  0.47664  1.0000
  O   O11       1.0  0.64303  0.14252  0.48325  1.0000
  O   O12       1.0  0.85601  0.50384  0.51548  1.0000
  O   O13       1.0  0.52771  0.37718  0.84895  1.0000
  O   O14       1.0  0.62422  0.15005  0.85847  1.0000
  O   O15       1.0  0.85117  0.46855  0.83396  1.0000
  O   O16       1.0  0.47137  0.62281  0.65017  1.0000
  O   O17       1.0  0.38134  0.85344  0.63163  1.0000
  O   O18       1.0  0.15109  0.52860  0.65789  1.0000
  O   O19       1.0  0.50254  0.64636  0.49288  1.0000
  O   O20       1.0  0.35731  0.85927  0.46619  1.0000
  O   O21       1.0  0.14410  0.49609  0.50766  1.0000
  O   O22       1.0  0.49540  0.35259  0.99171  1.0000
  O   O23       1.0  0.64984  0.14495  0.01042  1.0000
  O   O24       1.0  0.85913  0.50092  0.99073  1.0000
  C   C121      1.0  0.36740  0.74559  0.92859  1.0000
  C   C122      1.0  0.35409  0.75395  0.99944  1.0000
  C  Sn1       1.0  0.33160  0.73371  0.07057  1.0000
  C  Sn2       1.0  0.32386  0.71016  0.07063  1.0000
  C   C123      1.0  0.33882  0.70746  0.99954  1.0000
  C   C124      1.0  0.35978  0.72237  0.92865  1.0000
  H   H85       1.0  0.38362  0.75712  0.87382  1.0000
  O  Te1       1.0  0.31852  0.74235  0.14077  1.0000
  O  Te2       1.0  0.30297  0.69504  0.14093  1.0000
  H   H86       1.0  0.37008  0.71589  0.87390  1.0000
  Mg  Mg1       1.0  0.29126  0.71498  0.22137  1.0000
  C   C125      1.0  0.26548  0.59088  0.10234  1.0000
  C   C126      1.0  0.24512  0.58943  0.05312  1.0000
  C  Sn3       1.0  0.24702  0.61175  0.95728  1.0000
  C  Sn4       1.0  0.26820  0.63035  0.91000  1.0000
  C   C127      1.0  0.28847  0.63164  0.95977  1.0000
  C   C128      1.0  0.28638  0.60922  0.05570  1.0000
  H   H87       1.0  0.26504  0.57778  0.17648  1.0000
  O  Te3       1.0  0.22652  0.61003  0.90923  1.0000
  O  Te4       1.0  0.26907  0.64740  0.81420  1.0000
  H   H88       1.0  0.30214  0.61035  0.09370  1.0000
  Mg  Mg2       1.0  0.23654  0.63751  0.77926  1.0000
  C   C129      1.0  0.38076  0.62929  0.94246  1.0000
  C   C130      1.0  0.40105  0.63828  0.00871  1.0000
  C  Sn5       1.0  0.40701  0.65994  0.07232  1.0000
  C  Sn6       1.0  0.39081  0.66717  0.06942  1.0000
  C   C131      1.0  0.36903  0.65255  0.00298  1.0000
  C   C132      1.0  0.36477  0.63641  0.93961  1.0000
  H   H89       1.0  0.37628  0.61255  0.89351  1.0000
  O  Te5       1.0  0.42887  0.67420  0.13801  1.0000
  O  Te6       1.0  0.39631  0.68872  0.13223  1.0000
  H   H90       1.0  0.34788  0.62519  0.88842  1.0000
  Mg  Mg3       1.0  0.42829  0.70200  0.20876  1.0000
  C   C133      1.0  0.67169  0.26658  0.39348  1.0000
  C   C134      1.0  0.65451  0.24702  0.46521  1.0000
  C  Sn7       1.0  0.63774  0.24793  0.56191  1.0000
  C  Sn8       1.0  0.63823  0.26883  0.58700  1.0000
  C   C135      1.0  0.65549  0.28830  0.51460  1.0000
  C   C136      1.0  0.67218  0.28720  0.41811  1.0000
  H   H91       1.0  0.68461  0.26572  0.31874  1.0000
  O  Te7       1.0  0.62070  0.22823  0.63272  1.0000
  O  Te8       1.0  0.62168  0.27022  0.68304  1.0000
  H   H92       1.0  0.68548  0.30234  0.36250  1.0000
  Mg  Mg4       1.0  0.60192  0.23873  0.75358  1.0000
  C   C137      1.0  0.73207  0.40674  0.39601  1.0000
  C   C138      1.0  0.75235  0.40975  0.46303  1.0000
  C  Sn9       1.0  0.75225  0.39267  0.55387  1.0000
  C  Sn10      1.0  0.73145  0.37221  0.57780  1.0000
  C   C139      1.0  0.71125  0.36936  0.51015  1.0000
  C   C140      1.0  0.71154  0.38656  0.41950  1.0000
  H   H93       1.0  0.73230  0.42005  0.32579  1.0000
  O  Te9       1.0  0.77266  0.39596  0.62002  1.0000
  O  Te10      1.0  0.73086  0.35486  0.66802  1.0000
  H   H94       1.0  0.69585  0.38422  0.36753  1.0000
  Mg  Mg5       1.0  0.76313  0.36735  0.73373  1.0000
  C   C141      1.0  0.61685  0.36760  0.57022  1.0000
  C   C142      1.0  0.59674  0.35504  0.47663  1.0000
  C  Sn11      1.0  0.59104  0.33383  0.40475  1.0000
  C  Sn12      1.0  0.60577  0.32508  0.42724  1.0000
  C   C143      1.0  0.62584  0.33777  0.52119  1.0000
  C   C144      1.0  0.63139  0.35898  0.59252  1.0000
  H   H95       1.0  0.62114  0.38400  0.62550  1.0000
  O  Te11      1.0  0.57089  0.32151  0.31157  1.0000
  O  Te12      1.0  0.60048  0.30393  0.35683  1.0000
  H   H96       1.0  0.64695  0.36869  0.66507  1.0000
  Mg  Mg6       1.0  0.57109  0.29353  0.24035  1.0000
  C   C145      1.0  0.32493  0.72350  0.59206  1.0000
  C   C146      1.0  0.33714  0.71514  0.50345  1.0000
  C  Sn13      1.0  0.35779  0.73005  0.42894  1.0000
  C  Sn14      1.0  0.36633  0.75375  0.44367  1.0000
  C   C147      1.0  0.35399  0.76195  0.53268  1.0000
  C   C148      1.0  0.33335  0.74688  0.60670  1.0000
  H   H97       1.0  0.30896  0.71185  0.64941  1.0000
  O  Te13      1.0  0.36976  0.72141  0.34081  1.0000
  O  Te14      1.0  0.38692  0.76903  0.37048  1.0000
  H   H98       1.0  0.32390  0.75336  0.67539  1.0000
  Mg  Mg7       1.0  0.39702  0.74902  0.26311  1.0000
  C   C149      1.0  0.26322  0.62875  0.40696  1.0000
  C   C150      1.0  0.28367  0.63132  0.46642  1.0000
  C  Sn15      1.0  0.28372  0.61387  0.55123  1.0000
  C  Sn16      1.0  0.26290  0.59350  0.57676  1.0000
  C   C151      1.0  0.24253  0.59109  0.51669  1.0000
  C   C152      1.0  0.24267  0.60866  0.43203  1.0000
  H   H99       1.0  0.26333  0.64233  0.34138  1.0000
  O  Te15      1.0  0.30430  0.61672  0.60986  1.0000
  O  Te16      1.0  0.26246  0.57579  0.66106  1.0000
  H   H100      1.0  0.22684  0.60666  0.38592  1.0000
  Mg  Mg8       1.0  0.29493  0.58774  0.71746  1.0000
  C   C153      1.0  0.39721  0.67765  0.60576  1.0000
  C   C154      1.0  0.37772  0.66597  0.50451  1.0000
  C  Sn17      1.0  0.37284  0.64578  0.41886  1.0000
  C  Sn18      1.0  0.38778  0.63715  0.43515  1.0000
  C   C155      1.0  0.40723  0.64895  0.53685  1.0000
  C   C156      1.0  0.41195  0.66915  0.62196  1.0000
  H   H101      1.0  0.40086  0.69328  0.67169  1.0000
  O  Te17      1.0  0.35330  0.63433  0.31817  1.0000
  O  Te18      1.0  0.38331  0.61699  0.35100  1.0000
  H   H102      1.0  0.42703  0.67818  0.70043  1.0000
  Mg  Mg9       1.0  0.35454  0.60754  0.22856  1.0000
  C   C157      1.0  0.63423  0.26317  0.07155  1.0000
  C   C158      1.0  0.65409  0.28337  0.03589  1.0000
  C  Sn19      1.0  0.67363  0.28835  0.95468  1.0000
  C  Sn20      1.0  0.67169  0.26718  0.90842  1.0000
  C   C159      1.0  0.65176  0.24707  0.94455  1.0000
  C   C160      1.0  0.63231  0.24229  0.02591  1.0000
  H   H103      1.0  0.62035  0.26372  0.13441  1.0000
  O  Te19      1.0  0.69335  0.30869  0.92006  1.0000
  O  Te20      1.0  0.68945  0.26617  0.82708  1.0000
  H   H104      1.0  0.61693  0.22664  0.05340  1.0000
  Mg  Mg10      1.0  0.71288  0.29852  0.80711  1.0000
  C   C161      1.0  0.73720  0.37162  0.07619  1.0000
  C   C162      1.0  0.71693  0.37126  0.04117  1.0000
  C  Sn21      1.0  0.71891  0.39458  0.95836  1.0000
  C  Sn22      1.0  0.74008  0.41309  0.90984  1.0000
  C   C163      1.0  0.76025  0.41329  0.94535  1.0000
  C   C164      1.0  0.75808  0.38987  0.02832  1.0000
  H   H105      1.0  0.73669  0.35774  0.14031  1.0000
  O  Te21      1.0  0.69851  0.39395  0.92440  1.0000
  O  Te22      1.0  0.74103  0.43113  0.82687  1.0000
  H   H106      1.0  0.77377  0.39015  0.05532  1.0000
  Mg  Mg11      1.0  0.70862  0.42253  0.80862  1.0000
  C   C165      1.0  0.62742  0.36459  0.08058  1.0000
  C   C166      1.0  0.62830  0.34513  0.03412  1.0000
  C  Sn23      1.0  0.61215  0.33303  0.93935  1.0000
  C  Sn24      1.0  0.59327  0.33501  0.89034  1.0000
  C   C167      1.0  0.59255  0.35456  0.93735  1.0000
  C   C168      1.0  0.60881  0.36657  0.03223  1.0000
  H   H107      1.0  0.64118  0.37814  0.15391  1.0000
  O  Te23      1.0  0.61330  0.31370  0.89406  1.0000
  O  Te24      1.0  0.57537  0.31768  0.79555  1.0000
  H   H108      1.0  0.60812  0.38164  0.06809  1.0000
  Mg  Mg12      1.0  0.58473  0.29467  0.76451  1.0000
  C   C169      1.0  0.38307  0.80030  0.13192  1.0000
  C   C170      1.0  0.36184  0.78219  0.08072  1.0000
  C  Sn25      1.0  0.34436  0.78607  0.03568  1.0000
  C  Sn26      1.0  0.34825  0.80853  0.04211  1.0000
  C   C171      1.0  0.36956  0.82654  0.09339  1.0000
  C   C172      1.0  0.38693  0.82245  0.13823  1.0000
  H   H109      1.0  0.39652  0.79714  0.16653  1.0000
  O  Te25      1.0  0.32476  0.77328  0.98488  1.0000
  O  Te26      1.0  0.33260  0.81839  0.99773  1.0000
  H   H110      1.0  0.40338  0.83648  0.17776  1.0000
  Mg  Mg13      1.0  0.30672  0.78785  0.93676  1.0000
  C   C173      1.0  0.19107  0.53521  0.07221  1.0000
  C   C174      1.0  0.17437  0.53946  0.13692  1.0000
  C  Sn27      1.0  0.17908  0.56173  0.16464  1.0000
  C  Sn28      1.0  0.20095  0.58006  0.12670  1.0000
  C   C175      1.0  0.21754  0.57563  0.06189  1.0000
  C   C176      1.0  0.21264  0.55327  0.03470  1.0000
  H   H111      1.0  0.18728  0.51791  0.05107  1.0000
  O  Te27      1.0  0.16220  0.56567  0.22942  1.0000
  O  Te28      1.0  0.20611  0.60248  0.15312  1.0000
  H   H112      1.0  0.22709  0.55548  0.98449  1.0000
  Mg  Mg14      1.0  0.17744  0.59920  0.24361  1.0000
  C   C177      1.0  0.43056  0.61553  0.17588  1.0000
  C   C178      1.0  0.45356  0.62710  0.13312  1.0000
  C  Sn29      1.0  0.46306  0.64808  0.05881  1.0000
  C  Sn30      1.0  0.44923  0.65761  0.02693  1.0000
  C   C179      1.0  0.42624  0.64591  0.07029  1.0000
  C   C180      1.0  0.41690  0.62493  0.14454  1.0000
  H   H113      1.0  0.42333  0.59930  0.23341  1.0000
  O  Te29      1.0  0.48608  0.65941  0.01682  1.0000
  O  Te30      1.0  0.45981  0.68404  0.95286  1.0000
  H   H114      1.0  0.39909  0.61598  0.17774  1.0000
  Mg  Mg15      1.0  0.49210  0.69297  0.91824  1.0000
  C   C181      1.0  0.65726  0.20537  0.47042  1.0000
  C   C182      1.0  0.64612  0.21712  0.43230  1.0000
  C  Sn31      1.0  0.62399  0.20546  0.36619  1.0000
  C  Sn32      1.0  0.61286  0.18159  0.33790  1.0000
  C   C183      1.0  0.62414  0.16999  0.37656  1.0000
  C   C184      1.0  0.64628  0.18183  0.44261  1.0000
  H   H115      1.0  0.67438  0.21452  0.52161  1.0000
  O  Te31      1.0  0.61311  0.21746  0.32875  1.0000
  O  Te32      1.0  0.59074  0.16952  0.27200  1.0000
  H   H116      1.0  0.65490  0.17272  0.47222  1.0000
  Mg  Mg16      1.0  0.58301  0.19345  0.24108  1.0000
  C   C185      1.0  0.80154  0.42095  0.34814  1.0000
  C   C186      1.0  0.78448  0.42363  0.42535  1.0000
  C  Sn33      1.0  0.78839  0.44529  0.46992  1.0000
  C  Sn34      1.0  0.80979  0.46459  0.43638  1.0000
  C   C187      1.0  0.82674  0.46172  0.35898  1.0000
  C   C188      1.0  0.82265  0.43997  0.31495  1.0000
  H   H117      1.0  0.79837  0.40412  0.31399  1.0000
  O  Te33      1.0  0.77116  0.44767  0.54703  1.0000
  O  Te34      1.0  0.81415  0.48643  0.47956  1.0000
  H   H118      1.0  0.83586  0.43790  0.25507  1.0000
  Mg  Mg17      1.0  0.78528  0.48094  0.58230  1.0000
  C   C189      1.0  0.53451  0.34152  0.44706  1.0000
  C   C190      1.0  0.53728  0.36179  0.38967  1.0000
  C  Sn35      1.0  0.55880  0.37913  0.34404  1.0000
  C  Sn36      1.0  0.57785  0.37606  0.35618  1.0000
  C   C191      1.0  0.57489  0.35571  0.41363  1.0000
  C   C192      1.0  0.55329  0.33847  0.45901  1.0000
  H   H119      1.0  0.51779  0.32817  0.48209  1.0000
  O  Te35      1.0  0.56127  0.39928  0.28701  1.0000
  O  Te36      1.0  0.59954  0.39311  0.31134  1.0000
  H   H120      1.0  0.55114  0.32277  0.50334  1.0000
  Mg  Mg18      1.0  0.59427  0.41753  0.24080  1.0000
  C   C193      1.0  0.51837  0.60891  0.93231  1.0000
  C   C194      1.0  0.49926  0.60442  0.01669  1.0000
  C  Sn37      1.0  0.48189  0.58516  0.09020  1.0000
  C  Sn38      1.0  0.48218  0.56454  0.07884  1.0000
  C   C195      1.0  0.50138  0.56922  0.99425  1.0000
  C   C196      1.0  0.51867  0.58859  0.92111  1.0000
  H   H121      1.0  0.53175  0.62390  0.87579  1.0000
  O  Te37      1.0  0.46444  0.58645  0.17398  1.0000
  O  Te38      1.0  0.46504  0.54504  0.15122  1.0000
  H   H122      1.0  0.53229  0.58782  0.85588  1.0000
  Mg  Mg19      1.0  0.44490  0.55530  0.25210  1.0000
  C   C197      1.0  0.42073  0.89545  0.09169  1.0000
  C   C198      1.0  0.39761  0.88590  0.05301  1.0000
  C  Sn39      1.0  0.39166  0.90320  0.95867  1.0000
  C  Sn40      1.0  0.40767  0.92497  0.90213  1.0000
  C   C199      1.0  0.43076  0.93438  0.94139  1.0000
  C   C200      1.0  0.43653  0.91692  0.03592  1.0000
  H   H123      1.0  0.42637  0.88619  0.16475  1.0000
  O  Te39      1.0  0.36849  0.89341  0.92120  1.0000
  O  Te40      1.0  0.40066  0.93715  0.80758  1.0000
  H   H124      1.0  0.45443  0.92431  0.06576  1.0000
  Mg  Mg20      1.0  0.36728  0.91665  0.78872  1.0000
  C   C201      1.0  0.10310  0.52705  0.09163  1.0000
  C   C202      1.0  0.11000  0.51101  0.07197  1.0000
  C  Sn41      1.0  0.09762  0.49583  0.98570  1.0000
  C  Sn42      1.0  0.07644  0.49120  0.91794  1.0000
  C   C203      1.0  0.06969  0.50736  0.93819  1.0000
  C   C204      1.0  0.08221  0.52249  0.02479  1.0000
  H   H125      1.0  0.11396  0.54301  0.15856  1.0000
  O  Te41      1.0  0.10478  0.47999  0.96725  1.0000
  O  Te42      1.0  0.06222  0.47068  0.83110  1.0000
  H   H126      1.0  0.07687  0.53491  0.03990  1.0000
  Mg  Mg21      1.0  0.07944  0.45449  0.83884  1.0000
  C   C205      1.0  0.47969  0.40029  0.58011  1.0000
  C   C206      1.0  0.49560  0.42326  0.56334  1.0000
  C  Sn43      1.0  0.51618  0.42979  0.48222  1.0000
  C  Sn44      1.0  0.52085  0.41298  0.41677  1.0000
  C   C207      1.0  0.50481  0.39005  0.43409  1.0000
  C   C208      1.0  0.48428  0.38370  0.51553  1.0000
  H   H127      1.0  0.46380  0.39538  0.64304  1.0000
  O  Te43      1.0  0.53189  0.45281  0.46661  1.0000
  O  Te44      1.0  0.54128  0.41904  0.33507  1.0000
  H   H128      1.0  0.47196  0.36592  0.52840  1.0000
  Mg  Mg22      1.0  0.55731  0.45260  0.34508  1.0000
  C   C209      1.0  0.59508  0.07986  0.57586  1.0000
  C   C210      1.0  0.57181  0.07238  0.56881  1.0000
  C  Sn45      1.0  0.56417  0.08574  0.49796  1.0000
  C  Sn46      1.0  0.58016  0.10696  0.43302  1.0000
  C   C211      1.0  0.60340  0.11428  0.44057  1.0000
  C   C212      1.0  0.61086  0.10079  0.51178  1.0000
  H   H129      1.0  0.60085  0.06942  0.63087  1.0000
  O  Te45      1.0  0.54086  0.07801  0.49198  1.0000
  O  Te46      1.0  0.57299  0.12064  0.36148  1.0000
  H   H130      1.0  0.62888  0.10658  0.51712  1.0000
  Mg  Mg23      1.0  0.53945  0.10274  0.38231  1.0000
  C   C213      1.0  0.90679  0.47881  0.40895  1.0000
  C   C214      1.0  0.92565  0.49702  0.48973  1.0000
  C  Sn47      1.0  0.92403  0.51510  0.56194  1.0000
  C  Sn48      1.0  0.90312  0.51490  0.55295  1.0000
  C   C215      1.0  0.88434  0.49660  0.47196  1.0000
  C   C216      1.0  0.88615  0.47860  0.40008  1.0000
  H   H131      1.0  0.90818  0.46488  0.35342  1.0000
  O  Te47      1.0  0.94305  0.53315  0.64212  1.0000
  O  Te48      1.0  0.90102  0.53274  0.62410  1.0000
  H   H132      1.0  0.87154  0.46450  0.33764  1.0000
  Mg  Mg24      1.0  0.93174  0.55354  0.71985  1.0000
  C   C217      1.0  0.47815  0.57112  0.59267  1.0000
  C   C218      1.0  0.49480  0.56975  0.49759  1.0000
  C  Sn49      1.0  0.51276  0.58922  0.43081  1.0000
  C  Sn50      1.0  0.51405  0.61045  0.46001  1.0000
  C   C219      1.0  0.49732  0.61165  0.55539  1.0000
  C   C220      1.0  0.47941  0.59205  0.62158  1.0000
  H   H133      1.0  0.46430  0.55596  0.64396  1.0000
  O  Te49      1.0  0.52925  0.58754  0.33605  1.0000
  O  Te50      1.0  0.53182  0.63018  0.39480  1.0000
  H   H134      1.0  0.46653  0.59312  0.69528  1.0000
  Mg  Mg25      1.0  0.55018  0.61922  0.27366  1.0000
  C   C221      1.0  0.39475  0.91146  0.42461  1.0000
  C   C222      1.0  0.39432  0.89290  0.49551  1.0000
  C  Sn51      1.0  0.41433  0.89480  0.55805  1.0000
  C  Sn52      1.0  0.43514  0.91570  0.54932  1.0000
  C   C223      1.0  0.43539  0.93417  0.47827  1.0000
  C   C224      1.0  0.41526  0.93208  0.41602  1.0000
  H   H135      1.0  0.37917  0.90984  0.37653  1.0000
  O  Te51      1.0  0.41360  0.87609  0.62842  1.0000
  O  Te52      1.0  0.45539  0.91807  0.61094  1.0000
  H   H136      1.0  0.41559  0.94646  0.36123  1.0000
  Mg  Mg26      1.0  0.44569  0.88771  0.69532  1.0000
  C   C225      1.0  0.09197  0.48140  0.44127  1.0000
  C   C226      1.0  0.11078  0.49998  0.51937  1.0000
  C  Sn53      1.0  0.10910  0.51834  0.58469  1.0000
  C  Sn54      1.0  0.08817  0.51804  0.57144  1.0000
  C   C227      1.0  0.06944  0.49937  0.49319  1.0000
  C   C228      1.0  0.07132  0.48109  0.42821  1.0000
  H   H137      1.0  0.09341  0.46725  0.39107  1.0000
  O  Te53      1.0  0.12807  0.53677  0.66227  1.0000
  O  Te54      1.0  0.08602  0.53616  0.63570  1.0000
  H   H138      1.0  0.05674  0.46670  0.36785  1.0000
  Mg  Mg27      1.0  0.11669  0.55742  0.73028  1.0000
  C   C229      1.0  0.48069  0.40130  0.08033  1.0000
  C   C230      1.0  0.49644  0.42429  0.06253  1.0000
  C  Sn55      1.0  0.51864  0.43643  0.98282  1.0000
  C  Sn56      1.0  0.52361  0.41972  0.91984  1.0000
  C   C231      1.0  0.50774  0.39676  0.93816  1.0000
  C   C232      1.0  0.48557  0.38480  0.01819  1.0000
  H   H139      1.0  0.46471  0.39629  0.14216  1.0000
  O  Te55      1.0  0.53419  0.45948  0.96615  1.0000
  O  Te56      1.0  0.54416  0.42590  0.83958  1.0000
  H   H140      1.0  0.47338  0.36700  0.03185  1.0000
  Mg  Mg28      1.0  0.55987  0.45945  0.84733  1.0000
  C   C233      1.0  0.57274  0.09418  0.95178  1.0000
  C   C234      1.0  0.57093  0.07009  0.02066  1.0000
  C  Sn57      1.0  0.59120  0.07167  0.07371  1.0000
  C  Sn58      1.0  0.61212  0.09228  0.05738  1.0000
  C   C235      1.0  0.61374  0.11628  0.98843  1.0000
  C   C236      1.0  0.59335  0.11452  0.93570  1.0000
  H   H141      1.0  0.55697  0.09282  0.91107  1.0000
  O  Te57      1.0  0.59061  0.05291  0.14218  1.0000
  O  Te58      1.0  0.63262  0.09432  0.10945  1.0000
  H   H142      1.0  0.59358  0.12893  0.88248  1.0000
  Mg  Mg29      1.0  0.62304  0.06404  0.19490  1.0000
  C   C237      1.0  0.92190  0.51595  0.07343  1.0000
  C   C238      1.0  0.92969  0.50071  0.04569  1.0000
  C  Sn59      1.0  0.91797  0.48591  0.95312  1.0000
  C  Sn60      1.0  0.89655  0.48085  0.88722  1.0000
  C   C239      1.0  0.88892  0.49621  0.91557  1.0000
  C   C240      1.0  0.90078  0.51097  0.00842  1.0000
  H   H143      1.0  0.93225  0.53162  0.14520  1.0000
  O  Te59      1.0  0.92601  0.47087  0.92663  1.0000
  O  Te60      1.0  0.88299  0.46070  0.79420  1.0000
  H   H144      1.0  0.89475  0.52277  0.02979  1.0000
  Mg  Mg30      1.0  0.90132  0.44561  0.79192  1.0000
  C   C241      1.0  0.34220  0.79677  0.50905  1.0000
  C   C242      1.0  0.35399  0.78562  0.54629  1.0000
  C  Sn61      1.0  0.37505  0.79734  0.62903  1.0000
  C  Sn62      1.0  0.38445  0.82065  0.67523  1.0000
  C   C243      1.0  0.37252  0.83164  0.63751  1.0000
  C   C244      1.0  0.35145  0.81976  0.55463  1.0000
  H   H145      1.0  0.32590  0.78757  0.44500  1.0000
  O  Te61      1.0  0.38661  0.78595  0.66522  1.0000
  O  Te62      1.0  0.40547  0.83277  0.75808  1.0000
  H   H146      1.0  0.34233  0.82839  0.52591  1.0000
  Mg  Mg31      1.0  0.41472  0.80978  0.77988  1.0000
  C   C245      1.0  0.19766  0.58096  0.62621  1.0000
  C   C246      1.0  0.21579  0.57809  0.57552  1.0000
  C  Sn63      1.0  0.21233  0.55635  0.54175  1.0000
  C  Sn64      1.0  0.19028  0.53717  0.55911  1.0000
  C   C247      1.0  0.17224  0.54023  0.60978  1.0000
  C   C248      1.0  0.17590  0.56205  0.64330  1.0000
  H   H147      1.0  0.20049  0.59785  0.65206  1.0000
  O  Te63      1.0  0.23064  0.55378  0.49129  1.0000
  O  Te64      1.0  0.18633  0.51526  0.52610  1.0000
  H   H148      1.0  0.16186  0.56427  0.68244  1.0000
  Mg  Mg32      1.0  0.21672  0.52048  0.46088  1.0000
  C   C249      1.0  0.42001  0.61956  0.64289  1.0000
  C   C250      1.0  0.42350  0.64047  0.59411  1.0000
  C  Sn65      1.0  0.44530  0.65772  0.55324  1.0000
  C  Sn66      1.0  0.46392  0.65392  0.56143  1.0000
  C   C251      1.0  0.46025  0.63293  0.61026  1.0000
  C   C252      1.0  0.43836  0.61579  0.65094  1.0000
  H   H149      1.0  0.40307  0.60629  0.67428  1.0000
  O  Te65      1.0  0.44848  0.67851  0.50481  1.0000
  O  Te66      1.0  0.48588  0.67086  0.52120  1.0000
  H   H150      1.0  0.43567  0.59959  0.68859  1.0000
  Mg  Mg33      1.0  0.48161  0.69633  0.46221  1.0000
  C   C253      1.0  0.66048  0.20671  0.99494  1.0000
  C   C254      1.0  0.64879  0.21743  0.94436  1.0000
  C  Sn67      1.0  0.62759  0.20489  0.86429  1.0000
  C  Sn68      1.0  0.61796  0.18118  0.83451  1.0000
  C   C255      1.0  0.62977  0.17061  0.88571  1.0000
  C   C256      1.0  0.65098  0.18332  0.96568  1.0000
  H   H151      1.0  0.67537  0.21105  0.05690  1.0000
  O  Te67      1.0  0.61615  0.21588  0.81452  1.0000
  O  Te68      1.0  0.59679  0.16825  0.75479  1.0000
  H   H152      1.0  0.65850  0.16952  0.00493  1.0000
  Mg  Mg34      1.0  0.58778  0.19094  0.71036  1.0000
  C   C257      1.0  0.81500  0.42586  0.84222  1.0000
  C   C258      1.0  0.82610  0.44954  0.84716  1.0000
  C  Sn69      1.0  0.81476  0.46072  0.90481  1.0000
  C  Sn70      1.0  0.79189  0.44792  0.95849  1.0000
  C   C259      1.0  0.78093  0.42424  0.95317  1.0000
  C   C260      1.0  0.79244  0.41322  0.89520  1.0000
  H   H153      1.0  0.82390  0.41734  0.79746  1.0000
  O  Te69      1.0  0.82611  0.48439  0.90886  1.0000
  O  Te70      1.0  0.77864  0.45317  0.01674  1.0000
  H   H154      1.0  0.78384  0.39489  0.89150  1.0000
  Mg  Mg35      1.0  0.80291  0.49126  0.99848  1.0000
  C   C261      1.0  0.57060  0.38452  0.84073  1.0000
  C   C262      1.0  0.54692  0.37155  0.85328  1.0000
  C  Sn71      1.0  0.53667  0.34978  0.91523  1.0000
  C  Sn72      1.0  0.55042  0.34086  0.96550  1.0000
  C   C263      1.0  0.57410  0.35397  0.95256  1.0000
  C   C264      1.0  0.58418  0.37574  0.89034  1.0000
  H   H155      1.0  0.57840  0.40136  0.79268  1.0000
  O  Te71      1.0  0.51298  0.33705  0.92688  1.0000
  O  Te72      1.0  0.53911  0.31366  0.02792  1.0000
  H   H156      1.0  0.60252  0.38578  0.88074  1.0000
  Mg  Mg36      1.0  0.50609  0.30286  0.01983  1.0000
