data_image0
_chemical_formula_structural       H60C108O24SnCSn2CSnTe4Mg2SnCSn2CSnTe4Mg2SnCSn2CSnTe4Mg2SnCSn2CSnTe4Mg2SnCSn2CSnTe4Mg2SnCSn2CSnTe4Mg2SnCSn2CSnTe4Mg2SnCSn2CSnTe4Mg2SnCSn2CSnTe4Mg2SnCSn2CSnTe4Mg2SnCSn2CSnTe4Mg2SnCSn2CSnTe4Mg2
_chemical_formula_sum              "H60 C132 O24 Sn48 Te48 Mg24"
_cell_length_a       41.2066
_cell_length_b       41.6606
_cell_length_c       8.09123
_cell_angle_alpha    90.5662
_cell_angle_beta     89.7815
_cell_angle_gamma    120.184

_symmetry_space_group_name_H-M    'P1'
_space_group_IT_number       1

loop_
  _space_group_symop_operation_xyz
  'x, y, z'

loop_
  _atom_site_type_symbol
  _atom_site_label
  _atom_site_symmetry_multiplicity
  _atom_site_fract_x
  _atom_site_fract_y
  _atom_site_fract_z
  _atom_site_occupancy
  H   H1        1.0  0.76151  0.34145  0.37541  1.0000
  H   H2        1.0  0.66141  0.42050  0.36618  1.0000
  H   H3        1.0  0.24387  0.66111  0.12288  1.0000
  H   H4        1.0  0.34464  0.58511  0.14181  1.0000
  H   H5        1.0  0.82913  0.37409  0.31099  1.0000
  H   H6        1.0  0.62843  0.45414  0.29220  1.0000
  H   H7        1.0  0.17586  0.62753  0.17938  1.0000
  H   H8        1.0  0.37722  0.55106  0.20916  1.0000
  H   H9        1.0  0.81655  0.45390  0.02724  1.0000
  H   H10       1.0  0.54867  0.35978  0.00673  1.0000
  H   H11       1.0  0.18837  0.54839  0.46891  1.0000
  H   H12       1.0  0.45815  0.64458  0.49604  1.0000
  H   H13       1.0  0.74818  0.42016  0.08523  1.0000
  H   H14       1.0  0.58246  0.32640  0.07561  1.0000
  H   H15       1.0  0.25690  0.58261  0.41577  1.0000
  H   H16       1.0  0.42429  0.67831  0.43473  1.0000
  H   H17       1.0  0.70607  0.30322  0.25252  1.0000
  H   H18       1.0  0.70036  0.40336  0.24527  1.0000
  H   H19       1.0  0.59897  0.29727  0.24560  1.0000
  H   H20       1.0  0.29772  0.69953  0.25693  1.0000
  H   H21       1.0  0.30618  0.60094  0.25921  1.0000
  H   H22       1.0  0.40606  0.70844  0.27447  1.0000
  H   H23       1.0  0.44404  0.97615  0.09349  1.0000
  H   H24       1.0  0.03041  0.46790  0.17326  1.0000
  H   H25       1.0  0.42359  0.91554  0.95821  1.0000
  H   H26       1.0  0.08818  0.50680  0.01736  1.0000
  H   H27       1.0  0.52280  0.91759  0.13339  1.0000
  H   H28       1.0  0.06976  0.59908  0.06062  1.0000
  H   H29       1.0  0.54253  0.97737  0.27758  1.0000
  H   H30       1.0  0.01116  0.56025  0.21428  1.0000
  H   H31       1.0  0.57853  0.23816  0.86861  1.0000
  H   H32       1.0  0.75698  0.33970  0.87894  1.0000
  H   H33       1.0  0.54524  0.17124  0.79986  1.0000
  H   H34       1.0  0.82477  0.37285  0.81752  1.0000
  H   H35       1.0  0.64031  0.18674  0.51462  1.0000
  H   H36       1.0  0.81172  0.45184  0.52888  1.0000
  H   H37       1.0  0.67316  0.25431  0.57850  1.0000
  H   H38       1.0  0.74333  0.41778  0.58639  1.0000
  H   H39       1.0  0.70234  0.30111  0.75227  1.0000
  H   H40       1.0  0.69465  0.40010  0.74132  1.0000
  H   H41       1.0  0.59436  0.29295  0.73080  1.0000
  H   H42       1.0  0.29384  0.69615  0.75625  1.0000
  H   H43       1.0  0.30087  0.59669  0.75616  1.0000
  H   H44       1.0  0.40155  0.70337  0.75724  1.0000
  H   H45       1.0  0.47155  0.43779  0.80459  1.0000
  H   H46       1.0  0.56308  0.03844  0.79758  1.0000
  H   H47       1.0  0.97211  0.53233  0.84388  1.0000
  H   H48       1.0  0.03591  0.47044  0.67004  1.0000
  H   H49       1.0  0.51018  0.41795  0.95412  1.0000
  H   H50       1.0  0.58211  0.09610  0.95575  1.0000
  H   H51       1.0  0.91380  0.49288  0.99436  1.0000
  H   H52       1.0  0.09334  0.50962  0.51249  1.0000
  H   H53       1.0  0.60400  0.52903  0.94057  1.0000
  H   H54       1.0  0.46804  0.07220  0.96261  1.0000
  H   H55       1.0  0.92840  0.39889  0.92015  1.0000
  H   H56       1.0  0.07174  0.60005  0.54013  1.0000
  H   H57       1.0  0.56495  0.55013  0.79989  1.0000
  H   H58       1.0  0.44806  0.01315  0.80992  1.0000
  H   H59       1.0  0.98640  0.43768  0.76311  1.0000
  H   H60       1.0  0.01329  0.56082  0.69367  1.0000
  C   C1        1.0  0.77308  0.36565  0.29598  1.0000
  C   C2        1.0  0.63719  0.40722  0.28431  1.0000
  C   C3        1.0  0.23211  0.63677  0.20137  1.0000
  C   C4        1.0  0.36899  0.59816  0.22300  1.0000
  C   C5        1.0  0.81152  0.38423  0.26206  1.0000
  C   C6        1.0  0.61858  0.42635  0.24437  1.0000
  C   C7        1.0  0.19351  0.61777  0.23145  1.0000
  C   C8        1.0  0.38758  0.57880  0.25863  1.0000
  C   C9        1.0  0.82659  0.41587  0.16406  1.0000
  C   C10       1.0  0.58697  0.40891  0.14281  1.0000
  C   C11       1.0  0.17835  0.58616  0.32980  1.0000
  C   C12       1.0  0.41946  0.59585  0.35890  1.0000
  C   C13       1.0  0.80412  0.42959  0.10577  1.0000
  C   C14       1.0  0.57311  0.37251  0.08720  1.0000
  C   C15       1.0  0.20087  0.57270  0.39043  1.0000
  C   C16       1.0  0.43348  0.63214  0.41690  1.0000
  C   C17       1.0  0.76583  0.41055  0.13965  1.0000
  C   C18       1.0  0.59215  0.35393  0.12749  1.0000
  C   C19       1.0  0.23928  0.59201  0.35921  1.0000
  C   C20       1.0  0.41438  0.65090  0.38104  1.0000
  C   C21       1.0  0.74937  0.37777  0.23271  1.0000
  C   C22       1.0  0.62505  0.37121  0.22349  1.0000
  C   C23       1.0  0.25583  0.62497  0.26759  1.0000
  C   C24       1.0  0.38122  0.63399  0.28659  1.0000
  C   C25       1.0  0.65028  0.29549  0.25296  1.0000
  C   C26       1.0  0.70813  0.35594  0.25293  1.0000
  C   C27       1.0  0.64706  0.35253  0.24892  1.0000
  C   C28       1.0  0.35400  0.70868  0.26164  1.0000
  C   C29       1.0  0.29714  0.64753  0.25336  1.0000
  C   C30       1.0  0.35890  0.65248  0.26356  1.0000
  C   C31       1.0  0.68958  0.31699  0.25566  1.0000
  C   C32       1.0  0.68643  0.37326  0.25195  1.0000
  C   C33       1.0  0.62943  0.31369  0.25201  1.0000
  C   C34       1.0  0.31482  0.68641  0.25446  1.0000
  C   C35       1.0  0.31958  0.63104  0.25596  1.0000
  C   C36       1.0  0.37570  0.69132  0.26448  1.0000
  C   C37       1.0  0.58553  0.46196  0.03493  1.0000
  C   C38       1.0  0.53582  0.12227  0.06275  1.0000
  C   C39       1.0  0.88221  0.41780  0.05716  1.0000
  C   C40       1.0  0.42134  0.54215  0.45510  1.0000
  C   C41       1.0  0.46138  0.88133  0.46161  1.0000
  C   C42       1.0  0.12155  0.58336  0.42846  1.0000
  C   C43       1.0  0.49507  0.98179  0.19521  1.0000
  C   C44       1.0  0.01550  0.51051  0.20641  1.0000
  C   C45       1.0  0.46121  0.96327  0.10543  1.0000
  C   C46       1.0  0.03826  0.49645  0.14805  1.0000
  C   C47       1.0  0.44971  0.92930  0.02755  1.0000
  C   C48       1.0  0.07114  0.51836  0.06049  1.0000
  C   C49       1.0  0.47218  0.91285  0.03540  1.0000
  C   C50       1.0  0.08269  0.55562  0.02784  1.0000
  C   C51       1.0  0.50599  0.93093  0.12453  1.0000
  C   C52       1.0  0.06043  0.57011  0.08514  1.0000
  C   C53       1.0  0.51704  0.96464  0.20361  1.0000
  C   C54       1.0  0.02753  0.54796  0.17155  1.0000
  C   C55       1.0  0.59201  0.22729  0.78801  1.0000
  C   C56       1.0  0.76854  0.36386  0.79938  1.0000
  C   C57       1.0  0.57315  0.18930  0.75140  1.0000
  C   C58       1.0  0.80702  0.38259  0.76636  1.0000
  C   C59       1.0  0.59083  0.17528  0.65087  1.0000
  C   C60       1.0  0.82196  0.41400  0.66670  1.0000
  C   C61       1.0  0.62736  0.19832  0.59418  1.0000
  C   C62       1.0  0.79939  0.42755  0.60761  1.0000
  C   C63       1.0  0.64563  0.23612  0.63132  1.0000
  C   C64       1.0  0.76112  0.40844  0.64162  1.0000
  C   C65       1.0  0.62797  0.25155  0.72524  1.0000
  C   C66       1.0  0.74472  0.37568  0.73464  1.0000
  C   C67       1.0  0.64620  0.29232  0.74637  1.0000
  C   C68       1.0  0.70342  0.35334  0.75142  1.0000
  C   C69       1.0  0.64183  0.34877  0.73881  1.0000
  C   C70       1.0  0.34995  0.70464  0.75423  1.0000
  C   C71       1.0  0.29242  0.64377  0.75239  1.0000
  C   C72       1.0  0.35383  0.64791  0.75226  1.0000
  C   C73       1.0  0.68542  0.31442  0.75333  1.0000
  C   C74       1.0  0.68116  0.37001  0.74681  1.0000
  C   C75       1.0  0.62474  0.30991  0.74104  1.0000
  C   C76       1.0  0.31065  0.68274  0.75175  1.0000
  C   C77       1.0  0.31445  0.62680  0.75097  1.0000
  C   C78       1.0  0.37109  0.68673  0.75192  1.0000
  C   C79       1.0  0.57964  0.45890  0.53275  1.0000
  C   C80       1.0  0.53735  0.11912  0.54607  1.0000
  C   C81       1.0  0.87851  0.41632  0.56778  1.0000
  C   C82       1.0  0.41505  0.53806  0.95164  1.0000
  C   C83       1.0  0.46195  0.87686  0.95544  1.0000
  C   C84       1.0  0.11805  0.58124  0.94122  1.0000
  C   C85       1.0  0.51492  0.49569  0.78946  1.0000
  C   C86       1.0  0.50398  0.02078  0.79361  1.0000
  C   C87       1.0  0.98467  0.48861  0.79062  1.0000
  C   C88       1.0  0.01950  0.51215  0.69589  1.0000
  C   C89       1.0  0.50029  0.45839  0.83617  1.0000
  C   C90       1.0  0.54181  0.04501  0.83680  1.0000
  C   C91       1.0  0.96312  0.50315  0.85874  1.0000
  C   C92       1.0  0.04302  0.49865  0.64126  1.0000
  C   C93       1.0  0.52205  0.44684  0.91934  1.0000
  C   C94       1.0  0.55278  0.07774  0.92441  1.0000
  C   C95       1.0  0.93009  0.48105  0.94512  1.0000
  C   C96       1.0  0.07573  0.52073  0.55280  1.0000
  C   C97       1.0  0.55970  0.47231  0.95684  1.0000
  C   C98       1.0  0.52609  0.08755  0.97167  1.0000
  C   C99       1.0  0.91745  0.44326  0.96931  1.0000
  C   C100      1.0  0.08642  0.55759  0.51583  1.0000
  C   C101      1.0  0.57474  0.50956  0.91133  1.0000
  C   C102      1.0  0.48838  0.06406  0.92685  1.0000
  C   C103      1.0  0.93859  0.42831  0.90318  1.0000
  C   C104      1.0  0.06334  0.57148  0.56911  1.0000
  C   C105      1.0  0.55266  0.52099  0.83095  1.0000
  C   C106      1.0  0.47755  0.03123  0.84030  1.0000
  C   C107      1.0  0.97137  0.45052  0.81585  1.0000
  C   C108      1.0  0.03058  0.54916  0.65605  1.0000
  O   O1        1.0  0.61945  0.48250  0.04393  1.0000
  O   O2        1.0  0.51389  0.13315  0.09185  1.0000
  O   O3        1.0  0.86994  0.38459  0.07328  1.0000
  O   O4        1.0  0.38782  0.52090  0.43437  1.0000
  O   O5        1.0  0.48250  0.86882  0.45270  1.0000
  O   O6        1.0  0.13293  0.61634  0.40886  1.0000
  O   O7        1.0  0.56658  0.42578  0.09130  1.0000
  O   O8        1.0  0.57338  0.14117  0.10732  1.0000
  O   O9        1.0  0.86445  0.43635  0.11601  1.0000
  O   O10       1.0  0.44000  0.57898  0.40834  1.0000
  O   O11       1.0  0.42510  0.86335  0.40060  1.0000
  O   O12       1.0  0.14036  0.56539  0.37528  1.0000
  O   O13       1.0  0.61325  0.48035  0.55019  1.0000
  O   O14       1.0  0.51516  0.13006  0.56674  1.0000
  O   O15       1.0  0.86718  0.38345  0.59088  1.0000
  O   O16       1.0  0.38128  0.51758  0.93428  1.0000
  O   O17       1.0  0.48241  0.86357  0.94960  1.0000
  O   O18       1.0  0.13035  0.61446  0.92533  1.0000
  O   O19       1.0  0.56127  0.42218  0.58168  1.0000
  O   O20       1.0  0.57434  0.13801  0.59918  1.0000
  O   O21       1.0  0.85965  0.43445  0.61722  1.0000
  O   O22       1.0  0.43461  0.57454  0.89936  1.0000
  O   O23       1.0  0.42585  0.85963  0.89204  1.0000
  O   O24       1.0  0.13595  0.56270  0.88429  1.0000
  C  Sn1       1.0  0.20642  0.57829  0.93825  1.0000
  C   C109      1.0  0.17902  0.58558  0.87839  1.0000
  C  Sn2       1.0  0.18690  0.60960  0.74570  1.0000
  C  Sn3       1.0  0.22291  0.62668  0.67120  1.0000
  C   C110      1.0  0.25029  0.61939  0.73103  1.0000
  C  Sn4       1.0  0.24243  0.59538  0.86375  1.0000
  O  Te1       1.0  0.19762  0.55212  0.07103  1.0000
  O  Te2       1.0  0.15906  0.61646  0.68806  1.0000
  O  Te3       1.0  0.23139  0.65080  0.53832  1.0000
  O  Te4       1.0  0.27025  0.58851  0.92136  1.0000
  Mg  Mg1       1.0  0.18415  0.65136  0.50403  1.0000
  Mg  Mg2       1.0  0.24489  0.55153  0.10532  1.0000
  C  Sn5       1.0  0.44883  0.95400  0.63608  1.0000
  C   C111      1.0  0.48172  0.97646  0.72535  1.0000
  C  Sn6       1.0  0.51224  0.97069  0.71343  1.0000
  C  Sn7       1.0  0.50985  0.94188  0.61004  1.0000
  C   C112      1.0  0.47698  0.91945  0.52083  1.0000
  C  Sn8       1.0  0.44644  0.92519  0.53270  1.0000
  O  Te5       1.0  0.41867  0.96027  0.64987  1.0000
  O  Te6       1.0  0.54482  0.99350  0.80392  1.0000
  O  Te7       1.0  0.54005  0.93563  0.59632  1.0000
  O  Te8       1.0  0.41388  0.90241  0.44226  1.0000
  Mg  Mg3       1.0  0.57838  0.97404  0.74396  1.0000
  Mg  Mg4       1.0  0.38031  0.92186  0.50206  1.0000
  C  Sn9       1.0  0.48653  0.54454  0.00780  1.0000
  C   C113      1.0  0.44739  0.52708  0.00233  1.0000
  C  Sn10      1.0  0.42548  0.49832  0.11101  1.0000
  C  Sn11      1.0  0.44306  0.48677  0.22766  1.0000
  C   C114      1.0  0.48218  0.50423  0.23311  1.0000
  C  Sn12      1.0  0.50412  0.53300  0.12445  1.0000
  O  Te9       1.0  0.50818  0.57531  0.89797  1.0000
  O  Te10      1.0  0.38639  0.48128  0.10317  1.0000
  O  Te11      1.0  0.42168  0.45805  0.33753  1.0000
  O  Te12      1.0  0.54318  0.55004  0.13227  1.0000
  Mg  Mg5       1.0  0.36942  0.44347  0.27885  1.0000
  Mg  Mg6       1.0  0.56048  0.58993  0.95671  1.0000
  C  Sn13      1.0  0.95735  0.50153  0.42889  1.0000
  C   C115      1.0  0.98141  0.49121  0.35394  1.0000
  C  Sn14      1.0  0.96970  0.45377  0.32701  1.0000
  C  Sn15      1.0  0.93319  0.42605  0.37591  1.0000
  C   C116      1.0  0.90915  0.43636  0.45078  1.0000
  C  Sn16      1.0  0.92084  0.47380  0.47779  1.0000
  O  Te13      1.0  0.96964  0.53913  0.45459  1.0000
  O  Te14      1.0  0.99425  0.44414  0.25190  1.0000
  O  Te15      1.0  0.92091  0.38842  0.35014  1.0000
  O  Te16      1.0  0.89630  0.48343  0.55281  1.0000
  Mg  Mg7       1.0  0.96459  0.38922  0.24323  1.0000
  Mg  Mg8       1.0  0.92593  0.53835  0.56147  1.0000
  C  Sn17      1.0  0.64056  0.23244  0.08065  1.0000
  C   C117      1.0  0.62950  0.25270  0.18131  1.0000
  C  Sn18      1.0  0.59947  0.23446  0.29067  1.0000
  C  Sn19      1.0  0.58009  0.19515  0.29969  1.0000
  C   C118      1.0  0.59115  0.17492  0.19910  1.0000
  C  Sn20      1.0  0.62118  0.19314  0.08967  1.0000
  O  Te17      1.0  0.67096  0.25333  0.97223  1.0000
  O  Te18      1.0  0.58893  0.25531  0.39002  1.0000
  O  Te19      1.0  0.54997  0.17635  0.40823  1.0000
  O  Te20      1.0  0.63203  0.17438  0.99038  1.0000
  Mg  Mg9       1.0  0.54617  0.21698  0.51820  1.0000
  Mg  Mg10      1.0  0.67479  0.21268  0.86223  1.0000
  C  Sn21      1.0  0.34994  0.77151  0.84087  1.0000
  C   C119      1.0  0.36230  0.75090  0.75079  1.0000
  C  Sn22      1.0  0.40037  0.76598  0.71440  1.0000
  C  Sn23      1.0  0.42664  0.80242  0.76927  1.0000
  C   C120      1.0  0.41428  0.82301  0.85932  1.0000
  C  Sn24      1.0  0.37621  0.80795  0.89575  1.0000
  O  Te21      1.0  0.31175  0.75587  0.87585  1.0000
  O  Te22      1.0  0.41206  0.74484  0.62411  1.0000
  O  Te23      1.0  0.46486  0.81805  0.73422  1.0000
  O  Te24      1.0  0.36452  0.82907  0.98601  1.0000
  Mg  Mg11      1.0  0.46704  0.77830  0.60749  1.0000
  Mg  Mg12      1.0  0.30925  0.79356  0.00277  1.0000
  C  Sn25      1.0  0.49335  0.45080  0.38513  1.0000
  C   C121      1.0  0.50336  0.48654  0.33379  1.0000
  C  Sn26      1.0  0.54104  0.51454  0.33021  1.0000
  C  Sn27      1.0  0.56931  0.50665  0.37886  1.0000
  C   C122      1.0  0.55930  0.47093  0.43013  1.0000
  C  Sn28      1.0  0.52163  0.44291  0.43378  1.0000
  O  Te25      1.0  0.45551  0.42324  0.38772  1.0000
  O  Te26      1.0  0.55035  0.55006  0.27847  1.0000
  O  Te27      1.0  0.60718  0.53425  0.37623  1.0000
  O  Te28      1.0  0.51231  0.40741  0.48545  1.0000
  Mg  Mg13      1.0  0.60579  0.57828  0.29617  1.0000
  Mg  Mg14      1.0  0.45689  0.37916  0.46772  1.0000
  C  Sn29      1.0  0.56373  0.35857  0.61489  1.0000
  C   C123      1.0  0.57251  0.39436  0.66300  1.0000
  C  Sn30      1.0  0.60784  0.41920  0.72847  1.0000
  C  Sn31      1.0  0.63498  0.40805  0.74612  1.0000
  C   C124      1.0  0.62620  0.37228  0.69799  1.0000
  C  Sn32      1.0  0.59087  0.34742  0.63254  1.0000
  O  Te29      1.0  0.52824  0.33419  0.54974  1.0000
  O  Te30      1.0  0.61596  0.45484  0.77575  1.0000
  O  Te31      1.0  0.67050  0.43247  0.81133  1.0000
  O  Te32      1.0  0.58275  0.31181  0.58525  1.0000
  Mg  Mg15      1.0  0.66823  0.47803  0.85789  1.0000
  Mg  Mg16      1.0  0.53050  0.28860  0.50302  1.0000
  C  Sn33      1.0  0.48422  0.04768  0.43809  1.0000
  C   C125      1.0  0.52034  0.07517  0.48501  1.0000
  C  Sn34      1.0  0.55181  0.07582  0.41620  1.0000
  C  Sn35      1.0  0.54707  0.04843  0.29794  1.0000
  C   C126      1.0  0.51096  0.02096  0.25106  1.0000
  C  Sn36      1.0  0.47948  0.02029  0.31983  1.0000
  O  Te33      1.0  0.45317  0.04757  0.50848  1.0000
  O  Te34      1.0  0.58764  0.10357  0.46509  1.0000
  O  Te35      1.0  0.57816  0.04855  0.22757  1.0000
  O  Te36      1.0  0.95198  0.99256  0.27098  1.0000
  Mg  Mg17      1.0  0.62121  0.09202  0.33392  1.0000
  Mg  Mg18      1.0  0.41008  0.00409  0.40200  1.0000
  C  Sn37      1.0  0.35135  0.77394  0.34997  1.0000
  C   C127      1.0  0.36480  0.75428  0.25968  1.0000
  C  Sn38      1.0  0.40297  0.77068  0.22242  1.0000
  C  Sn39      1.0  0.42823  0.80748  0.27664  1.0000
  C   C128      1.0  0.41477  0.82711  0.36690  1.0000
  C  Sn40      1.0  0.37661  0.81074  0.40418  1.0000
  O  Te37      1.0  0.31308  0.75700  0.38581  1.0000
  O  Te38      1.0  0.41575  0.75048  0.13194  1.0000
  O  Te39      1.0  0.46652  0.82441  0.24072  1.0000
  O  Te40      1.0  0.36382  0.83091  0.49464  1.0000
  Mg  Mg19      1.0  0.47040  0.78558  0.11404  1.0000
  Mg  Mg20      1.0  0.30919  0.79583  0.51267  1.0000
  C  Sn41      1.0  0.49368  0.55038  0.51861  1.0000
  C   C129      1.0  0.45460  0.53206  0.50440  1.0000
  C  Sn42      1.0  0.43207  0.50154  0.60370  1.0000
  C  Sn43      1.0  0.44896  0.48909  0.71972  1.0000
  C   C130      1.0  0.48802  0.50742  0.73391  1.0000
  C  Sn44      1.0  0.51057  0.53794  0.63462  1.0000
  O  Te41      1.0  0.51565  0.58083  0.41808  1.0000
  O  Te42      1.0  0.39306  0.48366  0.58721  1.0000
  O  Te43      1.0  0.42695  0.45862  0.82028  1.0000
  O  Te44      1.0  0.54955  0.55582  0.65109  1.0000
  Mg  Mg21      1.0  0.37508  0.44346  0.75198  1.0000
  Mg  Mg22      1.0  0.56756  0.59603  0.48646  1.0000
  C  Sn45      1.0  0.36002  0.58345  0.74841  1.0000
  C   C131      1.0  0.36909  0.61931  0.79679  1.0000
  C  Sn46      1.0  0.40447  0.64391  0.86256  1.0000
  C  Sn47      1.0  0.43135  0.63243  0.88026  1.0000
  C   C132      1.0  0.42228  0.59659  0.83187  1.0000
  C  Sn48      1.0  0.38691  0.57197  0.76611  1.0000
  O  Te45      1.0  0.32449  0.55933  0.68296  1.0000
  O  Te46      1.0  0.41288  0.67961  0.91010  1.0000
  O  Te47      1.0  0.46691  0.65659  0.94578  1.0000
  O  Te48      1.0  0.37849  0.53629  0.71855  1.0000
  Mg  Mg23      1.0  0.46509  0.70237  0.99261  1.0000
  Mg  Mg24      1.0  0.32631  0.51351  0.63596  1.0000
