data_image0
_chemical_formula_structural       H12C36O24SnCSn2CSnTe4Mg2SnCSn2CSnTe4Mg2SnCSn2CSnTe4Mg2SnCSn2CSnTe4Mg2SnCSn2CSnTe4Mg2SnCSn2CSnTe4Mg2SnCSn2CSnTe4Mg2SnCSn2CSnTe4Mg2SnCSn2CSnTe4Mg2SnCSn2CSnTe4Mg2SnCSn2CSnTe4Mg2SnCSn2CSnTe4Mg2SnCSn2CSnTe4Mg2SnCSn2CSnTe4Mg2SnCSn2CSnTe4Mg2SnCSn2CSnTe4Mg2SnCSn2CSnTe4Mg2SnCSn2CSnTe4Mg2
_chemical_formula_sum              "H12 C72 O24 Sn72 Te72 Mg36"
_cell_length_a       34.8962
_cell_length_b       34.9673
_cell_length_c       8.04276
_cell_angle_alpha    90.7378
_cell_angle_beta     90.0005
_cell_angle_gamma    120.324

_symmetry_space_group_name_H-M    'P1'
_space_group_IT_number       1

loop_
  _space_group_symop_operation_xyz
  'x, y, z'

loop_
  _atom_site_type_symbol
  _atom_site_label
  _atom_site_symmetry_multiplicity
  _atom_site_fract_x
  _atom_site_fract_y
  _atom_site_fract_z
  _atom_site_occupancy
  H   H1        1.0  0.30006  0.71352  0.12534  1.0000
  H   H2        1.0  0.28469  0.58374  0.12114  1.0000
  H   H3        1.0  0.41515  0.69895  0.11810  1.0000
  H   H4        1.0  0.70083  0.28481  0.37124  1.0000
  H   H5        1.0  0.71321  0.41336  0.36453  1.0000
  H   H6        1.0  0.58409  0.29653  0.37239  1.0000
  H   H7        1.0  0.29983  0.71535  0.62611  1.0000
  H   H8        1.0  0.28852  0.58722  0.62807  1.0000
  H   H9        1.0  0.41719  0.70482  0.62253  1.0000
  H   H10       1.0  0.70195  0.28817  0.86968  1.0000
  H   H11       1.0  0.71513  0.41707  0.87039  1.0000
  H   H12       1.0  0.58563  0.30049  0.87551  1.0000
  C   C1        1.0  0.36100  0.71209  0.12468  1.0000
  C   C2        1.0  0.28666  0.64630  0.12852  1.0000
  C   C3        1.0  0.35229  0.63807  0.12418  1.0000
  C   C4        1.0  0.63914  0.28482  0.36793  1.0000
  C   C5        1.0  0.71278  0.35154  0.36333  1.0000
  C   C6        1.0  0.64624  0.35807  0.36405  1.0000
  C   C7        1.0  0.31462  0.69243  0.12950  1.0000
  C   C8        1.0  0.30606  0.61956  0.12766  1.0000
  C   C9        1.0  0.37934  0.68443  0.12540  1.0000
  C   C10       1.0  0.68561  0.30529  0.36462  1.0000
  C   C11       1.0  0.69252  0.37745  0.36062  1.0000
  C   C12       1.0  0.61996  0.31169  0.36505  1.0000
  C   C13       1.0  0.48223  0.56326  0.42831  1.0000
  C   C14       1.0  0.43811  0.92056  0.41440  1.0000
  C   C15       1.0  0.08060  0.52068  0.43245  1.0000
  C   C16       1.0  0.52171  0.44260  0.07501  1.0000
  C   C17       1.0  0.55774  0.08184  0.07573  1.0000
  C   C18       1.0  0.92135  0.48079  0.07253  1.0000
  C   C19       1.0  0.36174  0.71585  0.62744  1.0000
  C   C20       1.0  0.28838  0.64872  0.63097  1.0000
  C   C21       1.0  0.35537  0.64287  0.63016  1.0000
  C   C22       1.0  0.64046  0.28854  0.86965  1.0000
  C   C23       1.0  0.71431  0.35508  0.86533  1.0000
  C   C24       1.0  0.64788  0.36202  0.86839  1.0000
  C   C25       1.0  0.31524  0.69503  0.63123  1.0000
  C   C26       1.0  0.30902  0.62315  0.63271  1.0000
  C   C27       1.0  0.38128  0.68930  0.62961  1.0000
  C   C28       1.0  0.68690  0.30881  0.86501  1.0000
  C   C29       1.0  0.69421  0.38119  0.86503  1.0000
  C   C30       1.0  0.62150  0.31562  0.86825  1.0000
  C   C31       1.0  0.47577  0.55572  0.91138  1.0000
  C   C32       1.0  0.44179  0.91856  0.92060  1.0000
  C   C33       1.0  0.07905  0.52147  0.92810  1.0000
  C   C34       1.0  0.51975  0.43636  0.57554  1.0000
  C   C35       1.0  0.56041  0.07960  0.57875  1.0000
  C   C36       1.0  0.92012  0.48026  0.56345  1.0000
  O   O1        1.0  0.43181  0.53550  0.95858  1.0000
  O   O2        1.0  0.46145  0.89404  0.95932  1.0000
  O   O3        1.0  0.10252  0.56509  0.98270  1.0000
  O   O4        1.0  0.56345  0.45750  0.52450  1.0000
  O   O5        1.0  0.53987  0.10289  0.53316  1.0000
  O   O6        1.0  0.89716  0.43659  0.50910  1.0000
  O   O7        1.0  0.50909  0.60260  0.44610  1.0000
  O   O8        1.0  0.39872  0.90743  0.43320  1.0000
  O   O9        1.0  0.09289  0.49398  0.45015  1.0000
  O   O10       1.0  0.49415  0.40368  0.05086  1.0000
  O   O11       1.0  0.59638  0.09283  0.05031  1.0000
  O   O12       1.0  0.90889  0.50748  0.05843  1.0000
  O   O13       1.0  0.43886  0.54298  0.48300  1.0000
  O   O14       1.0  0.45921  0.89825  0.46629  1.0000
  O   O15       1.0  0.10363  0.56406  0.49025  1.0000
  O   O16       1.0  0.56545  0.46244  0.02530  1.0000
  O   O17       1.0  0.53842  0.10644  0.03294  1.0000
  O   O18       1.0  0.89876  0.43789  0.00981  1.0000
  O   O19       1.0  0.50265  0.59493  0.93296  1.0000
  O   O20       1.0  0.40325  0.90737  0.94926  1.0000
  O   O21       1.0  0.09081  0.49445  0.94923  1.0000
  O   O22       1.0  0.49359  0.39686  0.55771  1.0000
  O   O23       1.0  0.59926  0.09157  0.55303  1.0000
  O   O24       1.0  0.90768  0.50678  0.54263  1.0000
  C  Sn1       1.0  0.44224  0.78905  0.02872  1.0000
  C   C37       1.0  0.40351  0.76676  0.12238  1.0000
  C  Sn2       1.0  0.37806  0.78645  0.15658  1.0000
  C  Sn3       1.0  0.39158  0.82930  0.09582  1.0000
  C   C38       1.0  0.43028  0.85156  0.00219  1.0000
  C  Sn4       1.0  0.45777  0.83587  0.96795  1.0000
  O  Te1       1.0  0.46919  0.77270  0.99603  1.0000
  O  Te2       1.0  0.33947  0.76352  0.25054  1.0000
  O  Te3       1.0  0.36661  0.84961  0.12860  1.0000
  O  Te4       1.0  0.49633  0.85877  0.87404  1.0000
  Mg  Mg1       1.0  0.31665  0.80508  0.26203  1.0000
  Mg  Mg2       1.0  0.51917  0.81724  0.86239  1.0000
  C  Sn5       1.0  0.16989  0.56987  0.18920  1.0000
  C   C39       1.0  0.14763  0.58483  0.08860  1.0000
  C  Sn6       1.0  0.17335  0.62429  0.98191  1.0000
  C  Sn7       1.0  0.22029  0.64525  0.97555  1.0000
  C   C40       1.0  0.24051  0.62630  0.07608  1.0000
  C  Sn8       1.0  0.21683  0.59082  0.18283  1.0000
  O  Te5       1.0  0.14551  0.53434  0.29492  1.0000
  O  Te6       1.0  0.15037  0.63867  0.88257  1.0000
  O  Te7       1.0  0.24466  0.68080  0.86971  1.0000
  O  Te8       1.0  0.23979  0.57644  0.28211  1.0000
  Mg  Mg3       1.0  0.19833  0.68833  0.75861  1.0000
  Mg  Mg4       1.0  0.19186  0.52678  0.40604  1.0000
  C  Sn9       1.0  0.42688  0.62675  0.11921  1.0000
  C   C41       1.0  0.38444  0.61785  0.07424  1.0000
  C  Sn10      1.0  0.35354  0.57663  0.00604  1.0000
  C  Sn11      1.0  0.36732  0.54757  0.98237  1.0000
  C   C42       1.0  0.40773  0.55250  0.02735  1.0000
  C  Sn12      1.0  0.43864  0.59372  0.09554  1.0000
  O  Te9       1.0  0.45723  0.66819  0.18719  1.0000
  O  Te10      1.0  0.31333  0.57248  0.96199  1.0000
  O  Te11      1.0  0.33693  0.50611  0.91432  1.0000
  O  Te12      1.0  0.48084  0.60184  0.13960  1.0000
  Mg  Mg5       1.0  0.28355  0.51089  0.87404  1.0000
  Mg  Mg6       1.0  0.51064  0.66341  0.22763  1.0000
  C  Sn13      1.0  0.57372  0.21281  0.54649  1.0000
  C   C43       1.0  0.61118  0.23483  0.44611  1.0000
  C  Sn14      1.0  0.62355  0.21089  0.34083  1.0000
  C  Sn15      1.0  0.59793  0.16395  0.33568  1.0000
  C   C44       1.0  0.56049  0.14195  0.43598  1.0000
  C  Sn16      1.0  0.54810  0.16587  0.54133  1.0000
  O  Te13      1.0  0.56196  0.23742  0.65079  1.0000
  O  Te14      1.0  0.66114  0.23365  0.24169  1.0000
  O  Te15      1.0  0.60972  0.13934  0.23126  1.0000
  O  Te16      1.0  0.51053  0.14314  0.64041  1.0000
  Mg  Mg7       1.0  0.66368  0.18542  0.11987  1.0000
  Mg  Mg8       1.0  0.50795  0.19133  0.76220  1.0000
  C  Sn17      1.0  0.81681  0.36158  0.47590  1.0000
  C   C45       1.0  0.84973  0.40367  0.42621  1.0000
  C  Sn18      1.0  0.83821  0.43351  0.36244  1.0000
  C  Sn19      1.0  0.79284  0.42105  0.34813  1.0000
  C   C46       1.0  0.75996  0.37899  0.39783  1.0000
  C  Sn20      1.0  0.77145  0.34912  0.46159  1.0000
  O  Te17      1.0  0.82909  0.33228  0.53931  1.0000
  O  Te18      1.0  0.87171  0.47540  0.31352  1.0000
  O  Te19      1.0  0.78058  0.45039  0.28465  1.0000
  O  Te20      1.0  0.73798  0.30726  0.51051  1.0000
  Mg  Mg9       1.0  0.83829  0.50368  0.23481  1.0000
  Mg  Mg10      1.0  0.77136  0.27897  0.58932  1.0000
  C  Sn21      1.0  0.55798  0.38114  0.38597  1.0000
  C   C47       1.0  0.57357  0.41898  0.48709  1.0000
  C  Sn22      1.0  0.61856  0.44411  0.52927  1.0000
  C  Sn23      1.0  0.64861  0.43118  0.46903  1.0000
  C   C48       1.0  0.63302  0.39338  0.36795  1.0000
  C  Sn24      1.0  0.58803  0.36821  0.32573  1.0000
  O  Te21      1.0  0.51287  0.35652  0.34538  1.0000
  O  Te22      1.0  0.63335  0.48179  0.63059  1.0000
  O  Te23      1.0  0.69375  0.45585  0.50971  1.0000
  O  Te24      1.0  0.57323  0.33056  0.22446  1.0000
  Mg  Mg11      1.0  0.69788  0.50452  0.65136  1.0000
  Mg  Mg12      1.0  0.50872  0.30782  0.20353  1.0000
  C  Sn25      1.0  0.43958  0.81413  0.42552  1.0000
  C   C49       1.0  0.43125  0.84739  0.47937  1.0000
  C  Sn26      1.0  0.40327  0.84031  0.61408  1.0000
  C  Sn27      1.0  0.38321  0.79915  0.69677  1.0000
  C   C50       1.0  0.39155  0.76592  0.64293  1.0000
  C  Sn28      1.0  0.41952  0.77296  0.50821  1.0000
  O  Te25      1.0  0.46766  0.82193  0.29059  1.0000
  O  Te26      1.0  0.39543  0.87406  0.66561  1.0000
  O  Te27      1.0  0.35511  0.79137  0.83179  1.0000
  O  Te28      1.0  0.42737  0.73925  0.45670  1.0000
  Mg  Mg13      1.0  0.35470  0.84757  0.85559  1.0000
  Mg  Mg14      1.0  0.46811  0.76571  0.26680  1.0000
  C  Sn29      1.0  0.17220  0.56975  0.69122  1.0000
  C   C51       1.0  0.14909  0.58410  0.59235  1.0000
  C  Sn30      1.0  0.17198  0.61981  0.48586  1.0000
  C  Sn31      1.0  0.21896  0.64163  0.47795  1.0000
  C   C52       1.0  0.24204  0.62728  0.57676  1.0000
  C  Sn32      1.0  0.21917  0.59157  0.68331  1.0000
  O  Te29      1.0  0.14863  0.53398  0.79677  1.0000
  O  Te30      1.0  0.14815  0.63356  0.38826  1.0000
  O  Te31      1.0  0.24252  0.67743  0.37229  1.0000
  O  Te32      1.0  0.24298  0.57782  0.78085  1.0000
  Mg  Mg15      1.0  0.19520  0.68385  0.26384  1.0000
  Mg  Mg16      1.0  0.19596  0.52751  0.90525  1.0000
  C  Sn33      1.0  0.35212  0.56173  0.54178  1.0000
  C   C53       1.0  0.36834  0.60130  0.63272  1.0000
  C  Sn34      1.0  0.41369  0.62750  0.66760  1.0000
  C  Sn35      1.0  0.44345  0.61388  0.61030  1.0000
  C   C54       1.0  0.42723  0.57434  0.51940  1.0000
  C  Sn36      1.0  0.38189  0.54811  0.48449  1.0000
  O  Te33      1.0  0.30666  0.53606  0.50836  1.0000
  O  Te34      1.0  0.42911  0.66692  0.75879  1.0000
  O  Te35      1.0  0.48894  0.63959  0.64381  1.0000
  O  Te36      1.0  0.36646  0.50872  0.39333  1.0000
  Mg  Mg17      1.0  0.49392  0.69054  0.77260  1.0000
  Mg  Mg18      1.0  0.30167  0.48508  0.37937  1.0000
  C  Sn37      1.0  0.61429  0.19742  0.79771  1.0000
  C   C55       1.0  0.60662  0.23140  0.84755  1.0000
  C  Sn38      1.0  0.57866  0.22547  0.98117  1.0000
  C  Sn39      1.0  0.55594  0.18076  0.06683  1.0000
  C   C56       1.0  0.56361  0.14681  0.01700  1.0000
  C  Sn40      1.0  0.59357  0.15668  0.88337  1.0000
  O  Te37      1.0  0.64236  0.20407  0.66380  1.0000
  O  Te38      1.0  0.56948  0.25595  0.02867  1.0000
  O  Te39      1.0  0.52784  0.17413  0.20082  1.0000
  O  Te40      1.0  0.60075  0.12226  0.83589  1.0000
  Mg  Mg19      1.0  0.52848  0.23096  0.21874  1.0000
  Mg  Mg20      1.0  0.64176  0.14723  0.64589  1.0000
  C  Sn41      1.0  0.82665  0.44370  0.88814  1.0000
  C   C57       1.0  0.84959  0.42799  0.98085  1.0000
  C  Sn42      1.0  0.82790  0.37896  0.01561  1.0000
  C  Sn43      1.0  0.78640  0.35293  0.95639  1.0000
  C   C58       1.0  0.76348  0.36864  0.86372  1.0000
  C  Sn44      1.0  0.78314  0.41370  0.82892  1.0000
  O  Te41      1.0  0.84698  0.48888  0.85487  1.0000
  O  Te42      1.0  0.85148  0.36404  0.10859  1.0000
  O  Te43      1.0  0.76608  0.30772  0.98975  1.0000
  O  Te44      1.0  0.75958  0.42862  0.73598  1.0000
  Mg  Mg21      1.0  0.80964  0.29945  0.12141  1.0000
  Mg  Mg22      1.0  0.80140  0.49319  0.72302  1.0000
  C  Sn45      1.0  0.55900  0.38405  0.89916  1.0000
  C   C59       1.0  0.57523  0.42303  0.99387  1.0000
  C  Sn46      1.0  0.61865  0.44539  0.02689  1.0000
  C  Sn47      1.0  0.65049  0.43648  0.96386  1.0000
  C   C60       1.0  0.63426  0.39752  0.86920  1.0000
  C  Sn48      1.0  0.58883  0.37116  0.83613  1.0000
  O  Te45      1.0  0.51345  0.35823  0.86768  1.0000
  O  Te46      1.0  0.63409  0.48422  0.12192  1.0000
  O  Te47      1.0  0.69607  0.46234  0.99542  1.0000
  O  Te48      1.0  0.57339  0.33236  0.74114  1.0000
  Mg  Mg23      1.0  0.69902  0.50833  0.13106  1.0000
  Mg  Mg24      1.0  0.50847  0.30824  0.73185  1.0000
  C  Sn49      1.0  0.53776  0.54686  0.22509  1.0000
  C   C61       1.0  0.49658  0.53665  0.29018  1.0000
  C  Sn50      1.0  0.46295  0.49255  0.30681  1.0000
  C  Sn51      1.0  0.47063  0.45792  0.25744  1.0000
  C   C62       1.0  0.51179  0.46813  0.19243  1.0000
  C  Sn52      1.0  0.54544  0.51222  0.17572  1.0000
  O  Te49      1.0  0.57090  0.59118  0.20959  1.0000
  O  Te50      1.0  0.42205  0.48317  0.37217  1.0000
  O  Te51      1.0  0.43744  0.41357  0.27299  1.0000
  O  Te52      1.0  0.58632  0.52161  0.11044  1.0000
  Mg  Mg25      1.0  0.38734  0.41760  0.36895  1.0000
  Mg  Mg26      1.0  0.62106  0.58717  0.11368  1.0000
  C  Sn53      1.0  0.52598  0.99094  0.33883  1.0000
  C   C63       1.0  0.48031  0.97137  0.36464  1.0000
  C  Sn54      1.0  0.45523  0.98471  0.27274  1.0000
  C  Sn55      1.0  0.97030  0.01829  0.15245  1.0000
  C   C64       1.0  0.01593  0.03782  0.12667  1.0000
  C  Sn56      1.0  0.04104  0.02451  0.21854  1.0000
  O  Te53      1.0  0.55040  0.97708  0.43211  1.0000
  O  Te54      1.0  0.40963  0.96468  0.30080  1.0000
  O  Te55      1.0  0.94583  0.03213  0.05916  1.0000
  O  Te56      1.0  0.08661  0.04452  0.19051  1.0000
  Mg  Mg27      1.0  0.39057  0.99486  0.14252  1.0000
  Mg  Mg28      1.0  0.10569  0.01435  0.34865  1.0000
  C  Sn57      1.0  0.00517  0.54178  0.20424  1.0000
  C   C65       1.0  0.97380  0.50052  0.13751  1.0000
  C  Sn58      1.0  0.97330  0.46211  0.18677  1.0000
  C  Sn59      1.0  0.00479  0.46499  0.30527  1.0000
  C   C66       1.0  0.03612  0.50622  0.37194  1.0000
  C  Sn60      1.0  0.03666  0.54466  0.32274  1.0000
  O  Te57      1.0  0.00506  0.57974  0.15320  1.0000
  O  Te58      1.0  0.94163  0.42123  0.11827  1.0000
  O  Te59      1.0  0.00488  0.42697  0.35627  1.0000
  O  Te60      1.0  0.06830  0.58551  0.39118  1.0000
  Mg  Mg29      1.0  0.95518  0.37894  0.22737  1.0000
  Mg  Mg30      1.0  0.05477  0.62782  0.28225  1.0000
  C  Sn61      1.0  0.53242  0.54015  0.71251  1.0000
  C   C67       1.0  0.49090  0.52917  0.77633  1.0000
  C  Sn62      1.0  0.45810  0.48484  0.79543  1.0000
  C  Sn63      1.0  0.46698  0.45077  0.74990  1.0000
  C   C68       1.0  0.50848  0.46175  0.68615  1.0000
  C  Sn64      1.0  0.54130  0.50608  0.66698  1.0000
  O  Te61      1.0  0.56471  0.58469  0.69449  1.0000
  O  Te62      1.0  0.41685  0.47468  0.85945  1.0000
  O  Te63      1.0  0.43464  0.40620  0.76797  1.0000
  O  Te64      1.0  0.58254  0.51624  0.60303  1.0000
  Mg  Mg31      1.0  0.38362  0.40910  0.86076  1.0000
  Mg  Mg32      1.0  0.61579  0.58181  0.60175  1.0000
  C  Sn65      1.0  0.47828  0.02346  0.74507  1.0000
  C   C69       1.0  0.52341  0.04190  0.71039  1.0000
  C  Sn66      1.0  0.54393  0.01664  0.72629  1.0000
  C  Sn67      1.0  0.02474  0.97200  0.77784  1.0000
  C   C70       1.0  0.97963  0.95358  0.81246  1.0000
  C  Sn68      1.0  0.95908  0.97882  0.79662  1.0000
  O  Te65      1.0  0.45845  0.04933  0.72833  1.0000
  O  Te66      1.0  0.58910  0.03581  0.69096  1.0000
  O  Te67      1.0  0.04461  0.94613  0.79457  1.0000
  O  Te68      1.0  0.91395  0.95967  0.83188  1.0000
  Mg  Mg33      1.0  0.10703  0.98711  0.73207  1.0000
  Mg  Mg34      1.0  0.39598  0.00833  0.79074  1.0000
  C  Sn69      1.0  0.01068  0.54053  0.83862  1.0000
  C   C71       1.0  0.02925  0.51399  0.86900  1.0000
  C  Sn70      1.0  0.01541  0.47498  0.77694  1.0000
  C  Sn71      1.0  0.98235  0.46223  0.65183  1.0000
  C   C72       1.0  0.96381  0.48876  0.62148  1.0000
  C  Sn72      1.0  0.97762  0.52778  0.71351  1.0000
  O  Te69      1.0  0.02502  0.57939  0.93216  1.0000
  O  Te70      1.0  0.03445  0.44899  0.80961  1.0000
  O  Te71      1.0  0.96802  0.42333  0.55828  1.0000
  O  Te72      1.0  0.95861  0.55376  0.68087  1.0000
  Mg  Mg35      1.0  0.00393  0.39901  0.64899  1.0000
  Mg  Mg36      1.0  0.98912  0.60376  0.84135  1.0000
