data_image0
_chemical_formula_structural       H48C90O24SnCSn2CSnTe4Mg2SnCSn2CSnTe4Mg2SnCSn2CSnTe4Mg2SnCSn2CSnTe4Mg2SnCSn2CSnTe4Mg2SnCSn2CSnTe4Mg2SnCSn2CSnTe4Mg2SnCSn2CSnTe4Mg2SnCSn2CSnTe4Mg2
_chemical_formula_sum              "H48 C108 O24 Sn36 Te36 Mg18"
_cell_length_a       34.8962
_cell_length_b       34.9673
_cell_length_c       8.04276
_cell_angle_alpha    90.7378
_cell_angle_beta     90.0005
_cell_angle_gamma    120.324

_symmetry_space_group_name_H-M    'P1'
_space_group_IT_number       1

loop_
  _space_group_symop_operation_xyz
  'x, y, z'

loop_
  _atom_site_type_symbol
  _atom_site_label
  _atom_site_symmetry_multiplicity
  _atom_site_fract_x
  _atom_site_fract_y
  _atom_site_fract_z
  _atom_site_occupancy
  H   H1        1.0  0.24269  0.68021  0.46513  1.0000
  H   H2        1.0  0.56424  0.24604  0.04401  1.0000
  H   H3        1.0  0.75906  0.32258  0.03070  1.0000
  H   H4        1.0  0.16186  0.64148  0.40542  1.0000
  H   H5        1.0  0.52119  0.16637  0.11386  1.0000
  H   H6        1.0  0.83975  0.36032  0.09227  1.0000
  H   H7        1.0  0.14065  0.52960  0.18109  1.0000
  H   H8        1.0  0.61297  0.14015  0.32873  1.0000
  H   H9        1.0  0.22054  0.56719  0.24871  1.0000
  H   H10       1.0  0.65334  0.21890  0.25266  1.0000
  H   H11       1.0  0.57962  0.53041  0.15990  1.0000
  H   H12       1.0  0.46742  0.04630  0.12734  1.0000
  H   H13       1.0  0.42482  0.47513  0.34857  1.0000
  H   H14       1.0  0.52786  0.95657  0.36401  1.0000
  H   H15       1.0  0.56012  0.58079  0.31558  1.0000
  H   H16       1.0  0.41741  0.97574  0.27599  1.0000
  H   H17       1.0  0.44409  0.42485  0.19124  1.0000
  H   H18       1.0  0.57775  0.02665  0.21305  1.0000
  H   H19       1.0  0.30006  0.71352  0.12534  1.0000
  H   H20       1.0  0.28469  0.58374  0.12114  1.0000
  H   H21       1.0  0.41515  0.69895  0.11810  1.0000
  H   H22       1.0  0.70083  0.28481  0.37124  1.0000
  H   H23       1.0  0.71321  0.41336  0.36453  1.0000
  H   H24       1.0  0.58409  0.29653  0.37239  1.0000
  H   H25       1.0  0.24273  0.67960  0.96197  1.0000
  H   H26       1.0  0.56267  0.24143  0.54194  1.0000
  H   H27       1.0  0.16210  0.64254  0.90018  1.0000
  H   H28       1.0  0.52077  0.16161  0.61187  1.0000
  H   H29       1.0  0.14347  0.52936  0.68358  1.0000
  H   H30       1.0  0.61176  0.14277  0.82884  1.0000
  H   H31       1.0  0.85999  0.47325  0.81448  1.0000
  H   H32       1.0  0.22356  0.56830  0.74873  1.0000
  H   H33       1.0  0.65350  0.22150  0.75399  1.0000
  H   H34       1.0  0.78003  0.43502  0.74641  1.0000
  H   H35       1.0  0.47066  0.04390  0.63428  1.0000
  H   H36       1.0  0.95391  0.42541  0.62330  1.0000
  H   H37       1.0  0.53191  0.95452  0.86755  1.0000
  H   H38       1.0  0.04562  0.57690  0.86679  1.0000
  H   H39       1.0  0.42121  0.97373  0.78585  1.0000
  H   H40       1.0  0.02316  0.44552  0.78506  1.0000
  H   H41       1.0  0.58145  0.02493  0.71761  1.0000
  H   H42       1.0  0.97634  0.55679  0.70531  1.0000
  H   H43       1.0  0.29983  0.71535  0.62611  1.0000
  H   H44       1.0  0.28852  0.58722  0.62807  1.0000
  H   H45       1.0  0.41719  0.70482  0.62253  1.0000
  H   H46       1.0  0.70195  0.28817  0.86968  1.0000
  H   H47       1.0  0.71513  0.41707  0.87039  1.0000
  H   H48       1.0  0.58563  0.30049  0.87551  1.0000
  C   C1        1.0  0.22046  0.64742  0.01517  1.0000
  C   C2        1.0  0.57312  0.21925  0.49059  1.0000
  C   C3        1.0  0.17588  0.62624  0.48262  1.0000
  C   C4        1.0  0.54987  0.17885  0.03299  1.0000
  C   C5        1.0  0.82623  0.37590  0.01426  1.0000
  C   C6        1.0  0.14695  0.58384  0.03464  1.0000
  C   C7        1.0  0.56483  0.14660  0.47728  1.0000
  C   C8        1.0  0.16290  0.56236  0.13361  1.0000
  C   C9        1.0  0.60198  0.16219  0.37552  1.0000
  C   C10       1.0  0.20827  0.58377  0.16973  1.0000
  C   C11       1.0  0.62490  0.20697  0.33467  1.0000
  C   C12       1.0  0.23806  0.62600  0.10820  1.0000
  C   C13       1.0  0.61184  0.23657  0.39451  1.0000
  C   C14       1.0  0.36100  0.71209  0.12468  1.0000
  C   C15       1.0  0.28666  0.64630  0.12852  1.0000
  C   C16       1.0  0.35229  0.63807  0.12418  1.0000
  C   C17       1.0  0.63914  0.28482  0.36793  1.0000
  C   C18       1.0  0.71278  0.35154  0.36333  1.0000
  C   C19       1.0  0.64624  0.35807  0.36405  1.0000
  C   C20       1.0  0.31462  0.69243  0.12950  1.0000
  C   C21       1.0  0.30606  0.61956  0.12766  1.0000
  C   C22       1.0  0.37934  0.68443  0.12540  1.0000
  C   C23       1.0  0.68561  0.30529  0.36462  1.0000
  C   C24       1.0  0.69252  0.37745  0.36062  1.0000
  C   C25       1.0  0.61996  0.31169  0.36505  1.0000
  C   C26       1.0  0.48223  0.56326  0.42831  1.0000
  C   C27       1.0  0.43811  0.92056  0.41440  1.0000
  C   C28       1.0  0.08060  0.52068  0.43245  1.0000
  C   C29       1.0  0.52171  0.44260  0.07501  1.0000
  C   C30       1.0  0.55774  0.08184  0.07573  1.0000
  C   C31       1.0  0.92135  0.48079  0.07253  1.0000
  C   C32       1.0  0.49151  0.53102  0.34140  1.0000
  C   C33       1.0  0.46964  0.96218  0.32906  1.0000
  C   C34       1.0  0.51277  0.47462  0.16538  1.0000
  C   C35       1.0  0.52567  0.04054  0.16148  1.0000
  C   C36       1.0  0.45853  0.48698  0.30704  1.0000
  C   C37       1.0  0.51486  0.97619  0.31126  1.0000
  C   C38       1.0  0.54587  0.51857  0.20118  1.0000
  C   C39       1.0  0.48045  0.02662  0.17957  1.0000
  C   C40       1.0  0.46916  0.45901  0.21987  1.0000
  C   C41       1.0  0.54262  0.01510  0.22795  1.0000
  C   C42       1.0  0.53517  0.54656  0.28765  1.0000
  C   C43       1.0  0.45263  0.98754  0.26208  1.0000
  C   C44       1.0  0.22115  0.64777  0.51773  1.0000
  C   C45       1.0  0.57409  0.22345  0.99219  1.0000
  C   C46       1.0  0.78103  0.35490  0.97803  1.0000
  C   C47       1.0  0.17528  0.62674  0.97873  1.0000
  C   C48       1.0  0.54958  0.17462  0.53153  1.0000
  C   C49       1.0  0.14834  0.58323  0.53871  1.0000
  C   C50       1.0  0.56427  0.15018  0.97805  1.0000
  C   C51       1.0  0.85420  0.41893  0.95908  1.0000
  C   C52       1.0  0.16518  0.56222  0.63570  1.0000
  C   C53       1.0  0.60135  0.16525  0.87605  1.0000
  C   C54       1.0  0.83793  0.44035  0.86145  1.0000
  C   C55       1.0  0.21067  0.58445  0.67043  1.0000
  C   C56       1.0  0.62509  0.21009  0.83590  1.0000
  C   C57       1.0  0.79251  0.41858  0.82523  1.0000
  C   C58       1.0  0.23967  0.62701  0.60948  1.0000
  C   C59       1.0  0.61275  0.24026  0.89588  1.0000
  C   C60       1.0  0.76303  0.37611  0.88588  1.0000
  C   C61       1.0  0.36174  0.71585  0.62744  1.0000
  C   C62       1.0  0.28838  0.64872  0.63097  1.0000
  C   C63       1.0  0.35537  0.64287  0.63016  1.0000
  C   C64       1.0  0.64046  0.28854  0.86965  1.0000
  C   C65       1.0  0.71431  0.35508  0.86533  1.0000
  C   C66       1.0  0.64788  0.36202  0.86839  1.0000
  C   C67       1.0  0.31524  0.69503  0.63123  1.0000
  C   C68       1.0  0.30902  0.62315  0.63271  1.0000
  C   C69       1.0  0.38128  0.68930  0.62961  1.0000
  C   C70       1.0  0.68690  0.30881  0.86501  1.0000
  C   C71       1.0  0.69421  0.38119  0.86503  1.0000
  C   C72       1.0  0.62150  0.31562  0.86825  1.0000
  C   C73       1.0  0.47577  0.55572  0.91138  1.0000
  C   C74       1.0  0.44179  0.91856  0.92060  1.0000
  C   C75       1.0  0.07905  0.52147  0.92810  1.0000
  C   C76       1.0  0.51975  0.43636  0.57554  1.0000
  C   C77       1.0  0.56041  0.07960  0.57875  1.0000
  C   C78       1.0  0.92012  0.48026  0.56345  1.0000
  C   C79       1.0  0.47350  0.96004  0.83505  1.0000
  C   C80       1.0  0.03817  0.51206  0.83635  1.0000
  C   C81       1.0  0.52904  0.03835  0.66645  1.0000
  C   C82       1.0  0.96118  0.49013  0.65470  1.0000
  C   C83       1.0  0.51870  0.97408  0.81580  1.0000
  C   C84       1.0  0.02546  0.54389  0.81329  1.0000
  C   C85       1.0  0.48385  0.02430  0.68578  1.0000
  C   C86       1.0  0.97399  0.45837  0.67724  1.0000
  C   C87       1.0  0.54625  0.01307  0.73249  1.0000
  C   C88       1.0  0.98710  0.53287  0.72362  1.0000
  C   C89       1.0  0.45633  0.98539  0.76960  1.0000
  C   C90       1.0  0.01231  0.46938  0.76699  1.0000
  O   O1        1.0  0.43181  0.53550  0.95858  1.0000
  O   O2        1.0  0.46145  0.89404  0.95932  1.0000
  O   O3        1.0  0.10252  0.56509  0.98270  1.0000
  O   O4        1.0  0.56345  0.45750  0.52450  1.0000
  O   O5        1.0  0.53987  0.10289  0.53316  1.0000
  O   O6        1.0  0.89716  0.43659  0.50910  1.0000
  O   O7        1.0  0.50909  0.60260  0.44610  1.0000
  O   O8        1.0  0.39872  0.90743  0.43320  1.0000
  O   O9        1.0  0.09289  0.49398  0.45015  1.0000
  O   O10       1.0  0.49415  0.40368  0.05086  1.0000
  O   O11       1.0  0.59638  0.09283  0.05031  1.0000
  O   O12       1.0  0.90889  0.50748  0.05843  1.0000
  O   O13       1.0  0.43886  0.54298  0.48300  1.0000
  O   O14       1.0  0.45921  0.89825  0.46629  1.0000
  O   O15       1.0  0.10363  0.56406  0.49025  1.0000
  O   O16       1.0  0.56545  0.46244  0.02530  1.0000
  O   O17       1.0  0.53842  0.10644  0.03294  1.0000
  O   O18       1.0  0.89876  0.43789  0.00981  1.0000
  O   O19       1.0  0.50265  0.59493  0.93296  1.0000
  O   O20       1.0  0.40325  0.90737  0.94926  1.0000
  O   O21       1.0  0.09081  0.49445  0.94923  1.0000
  O   O22       1.0  0.49359  0.39686  0.55771  1.0000
  O   O23       1.0  0.59926  0.09157  0.55303  1.0000
  O   O24       1.0  0.90768  0.50678  0.54263  1.0000
  C  Sn1       1.0  0.45598  0.46760  0.82196  1.0000
  C   C91       1.0  0.48294  0.51267  0.86003  1.0000
  C  Sn2       1.0  0.52402  0.53761  0.78298  1.0000
  C  Sn3       1.0  0.53845  0.51708  0.66535  1.0000
  C   C92       1.0  0.51150  0.47204  0.62732  1.0000
  C  Sn4       1.0  0.47042  0.44707  0.70433  1.0000
  O  Te1       1.0  0.41504  0.44330  0.90049  1.0000
  O  Te2       1.0  0.55039  0.58262  0.82310  1.0000
  O  Te3       1.0  0.57944  0.54142  0.58681  1.0000
  O  Te4       1.0  0.44405  0.40209  0.66424  1.0000
  Mg  Mg1       1.0  0.60347  0.60171  0.68286  1.0000
  Mg  Mg2       1.0  0.39095  0.38297  0.80434  1.0000
  C  Sn5       1.0  0.55900  0.38405  0.89916  1.0000
  C   C93       1.0  0.57523  0.42303  0.99387  1.0000
  C  Sn6       1.0  0.61865  0.44539  0.02689  1.0000
  C  Sn7       1.0  0.65049  0.43648  0.96386  1.0000
  C   C94       1.0  0.63426  0.39752  0.86920  1.0000
  C  Sn8       1.0  0.58883  0.37116  0.83613  1.0000
  O  Te5       1.0  0.51345  0.35823  0.86768  1.0000
  O  Te6       1.0  0.63409  0.48422  0.12192  1.0000
  O  Te7       1.0  0.69607  0.46234  0.99542  1.0000
  O  Te8       1.0  0.57339  0.33236  0.74114  1.0000
  Mg  Mg3       1.0  0.69902  0.50833  0.13106  1.0000
  Mg  Mg4       1.0  0.50847  0.30824  0.73185  1.0000
  C  Sn9       1.0  0.82455  0.44098  0.38384  1.0000
  C   C95       1.0  0.84779  0.42616  0.47956  1.0000
  C  Sn10      1.0  0.82850  0.38135  0.51808  1.0000
  C  Sn11      1.0  0.78509  0.35071  0.45964  1.0000
  C   C96       1.0  0.76188  0.36553  0.36396  1.0000
  C  Sn12      1.0  0.78115  0.41034  0.32539  1.0000
  O  Te9       1.0  0.84449  0.48592  0.34682  1.0000
  O  Te10      1.0  0.85237  0.36733  0.61402  1.0000
  O  Te11      1.0  0.76516  0.30574  0.49674  1.0000
  O  Te12      1.0  0.75730  0.42437  0.22949  1.0000
  Mg  Mg5       1.0  0.81102  0.30274  0.63146  1.0000
  Mg  Mg6       1.0  0.79863  0.48894  0.21191  1.0000
  C  Sn13      1.0  0.43184  0.63450  0.62587  1.0000
  C   C97       1.0  0.38883  0.62388  0.58131  1.0000
  C  Sn14      1.0  0.35842  0.58154  0.52058  1.0000
  C  Sn15      1.0  0.37126  0.54913  0.50415  1.0000
  C   C98       1.0  0.41424  0.55975  0.54872  1.0000
  C  Sn16      1.0  0.44468  0.60208  0.60943  1.0000
  O  Te13      1.0  0.46169  0.67703  0.68630  1.0000
  O  Te14      1.0  0.31561  0.57171  0.47679  1.0000
  O  Te15      1.0  0.34136  0.50657  0.44365  1.0000
  O  Te16      1.0  0.48746  0.61192  0.65324  1.0000
  Mg  Mg7       1.0  0.28686  0.50913  0.40057  1.0000
  Mg  Mg8       1.0  0.51623  0.67448  0.72954  1.0000
  C  Sn17      1.0  0.36972  0.55821  0.91770  1.0000
  C   C99       1.0  0.41066  0.56500  0.97339  1.0000
  C  Sn18      1.0  0.42981  0.58853  0.11103  1.0000
  C  Sn19      1.0  0.40961  0.60969  0.19483  1.0000
  C   C100      1.0  0.36869  0.60289  0.13916  1.0000
  C  Sn20      1.0  0.34751  0.57539  0.00150  1.0000
  O  Te17      1.0  0.34917  0.53057  0.77985  1.0000
  O  Te18      1.0  0.47073  0.59482  0.16435  1.0000
  O  Te19      1.0  0.43021  0.63735  0.33277  1.0000
  O  Te20      1.0  0.30863  0.57307  0.94820  1.0000
  Mg  Mg9       1.0  0.48567  0.63551  0.35815  1.0000
  Mg  Mg10      1.0  0.29365  0.53237  0.75447  1.0000
  C  Sn21      1.0  0.36984  0.80024  0.61910  1.0000
  C   C101      1.0  0.38036  0.76776  0.57654  1.0000
  C  Sn22      1.0  0.42212  0.77974  0.51277  1.0000
  C  Sn23      1.0  0.45404  0.82512  0.49116  1.0000
  C   C102      1.0  0.44351  0.85757  0.53373  1.0000
  C  Sn24      1.0  0.40176  0.84563  0.59749  1.0000
  O  Te21      1.0  0.32789  0.78751  0.68265  1.0000
  O  Te22      1.0  0.43187  0.74667  0.47107  1.0000
  O  Te23      1.0  0.49601  0.83783  0.42754  1.0000
  O  Te24      1.0  0.39201  0.87867  0.63920  1.0000
  Mg  Mg11      1.0  0.49357  0.78062  0.38907  1.0000
  Mg  Mg12      1.0  0.33033  0.84476  0.72129  1.0000
  C  Sn25      1.0  0.01345  0.54113  0.34097  1.0000
  C   C103      1.0  0.03084  0.51376  0.37510  1.0000
  C  Sn26      1.0  0.01536  0.47367  0.28858  1.0000
  C  Sn27      1.0  0.98181  0.46068  0.16527  1.0000
  C   C104      1.0  0.96444  0.48805  0.13117  1.0000
  C  Sn28      1.0  0.97990  0.52814  0.21767  1.0000
  O  Te25      1.0  0.02942  0.58107  0.42900  1.0000
  O  Te26      1.0  0.03324  0.44686  0.32493  1.0000
  O  Te27      1.0  0.96584  0.42071  0.07724  1.0000
  O  Te28      1.0  0.96204  0.55495  0.18135  1.0000
  Mg  Mg13      1.0  0.00064  0.39555  0.17139  1.0000
  Mg  Mg14      1.0  0.99463  0.60627  0.33474  1.0000
  C  Sn29      1.0  0.63814  0.45230  0.48933  1.0000
  C   C105      1.0  0.59609  0.44346  0.43879  1.0000
  C  Sn30      1.0  0.56573  0.40230  0.36866  1.0000
  C  Sn31      1.0  0.57764  0.36928  0.34872  1.0000
  C   C106      1.0  0.61967  0.37812  0.39927  1.0000
  C  Sn32      1.0  0.65005  0.41928  0.46939  1.0000
  O  Te29      1.0  0.66796  0.49368  0.55915  1.0000
  O  Te30      1.0  0.52389  0.39423  0.31903  1.0000
  O  Te31      1.0  0.54778  0.32787  0.27884  1.0000
  O  Te32      1.0  0.69187  0.42735  0.51904  1.0000
  Mg  Mg15      1.0  0.49478  0.33271  0.23057  1.0000
  Mg  Mg16      1.0  0.72099  0.48884  0.60759  1.0000
  C  Sn33      1.0  0.44034  0.80958  0.92241  1.0000
  C   C107      1.0  0.43266  0.84337  0.97498  1.0000
  C  Sn34      1.0  0.40268  0.83294  0.10912  1.0000
  C  Sn35      1.0  0.38197  0.79186  0.19253  1.0000
  C   C108      1.0  0.38966  0.75811  0.13998  1.0000
  C  Sn36      1.0  0.41762  0.76454  0.00582  1.0000
  O  Te33      1.0  0.46843  0.81677  0.78803  1.0000
  O  Te34      1.0  0.39549  0.86720  0.15937  1.0000
  O  Te35      1.0  0.35386  0.78470  0.32701  1.0000
  O  Te36      1.0  0.42683  0.73428  0.95559  1.0000
  Mg  Mg17      1.0  0.35448  0.84145  0.34903  1.0000
  Mg  Mg18      1.0  0.46785  0.76000  0.76601  1.0000
