data_image0
_chemical_formula_structural       H72C144O48C2Sn2C2HTe2HMgC2Sn2C2HTe2HMgC2Sn2C2HTe2HMgC2Sn2C2HTe2HMgC2Sn2C2HTe2HMgC2Sn2C2HTe2HMgC2Sn2C2HTe2HMgC2Sn2C2HTe2HMgC2Sn2C2HTe2HMgC2Sn2C2HTe2HMgC2Sn2C2HTe2HMgC2Sn2C2HTe2HMgC2Sn2C2HTe2HMgC2Sn2C2HTe2HMgC2Sn2C2HTe2HMgC2Sn2C2HTe2HMgC2Sn2C2HTe2HMgC2Sn2C2HTe2HMg
_chemical_formula_sum              "H108 C216 O48 Sn36 Te36 Mg18"
_cell_length_a       37.069
_cell_length_b       37.2001
_cell_length_c       9.95669
_cell_angle_alpha    89.8779
_cell_angle_beta     89.4711
_cell_angle_gamma    119.927

_symmetry_space_group_name_H-M    'P1'
_space_group_IT_number       1

loop_
  _space_group_symop_operation_xyz
  'x, y, z'

loop_
  _atom_site_type_symbol
  _atom_site_label
  _atom_site_symmetry_multiplicity
  _atom_site_fract_x
  _atom_site_fract_y
  _atom_site_fract_z
  _atom_site_occupancy
  H   H1        1.0  0.45312  0.70011  0.49829  1.0000
  H   H2        1.0  0.30128  0.75291  0.45515  1.0000
  H   H3        1.0  0.25035  0.55207  0.44144  1.0000
  H   H4        1.0  0.54736  0.30265  0.02239  1.0000
  H   H5        1.0  0.75091  0.44997  0.03873  1.0000
  H   H6        1.0  0.58417  0.74885  0.43064  1.0000
  H   H7        1.0  0.25062  0.83462  0.46443  1.0000
  H   H8        1.0  0.16505  0.42183  0.49907  1.0000
  H   H9        1.0  0.41524  0.25194  0.06577  1.0000
  H   H10       1.0  0.83423  0.58180  0.03370  1.0000
  H   H11       1.0  0.59591  0.82117  0.44526  1.0000
  H   H12       1.0  0.17853  0.77312  0.48284  1.0000
  H   H13       1.0  0.22530  0.40960  0.52695  1.0000
  H   H14       1.0  0.40476  0.18003  0.05215  1.0000
  H   H15       1.0  0.77357  0.59318  0.00298  1.0000
  H   H16       1.0  0.46446  0.77256  0.50102  1.0000
  H   H17       1.0  0.22899  0.69132  0.46018  1.0000
  H   H18       1.0  0.31058  0.53944  0.46073  1.0000
  H   H19       1.0  0.53717  0.23062  0.02035  1.0000
  H   H20       1.0  0.68985  0.46146  0.02031  1.0000
  H   H21       1.0  0.41710  0.52704  0.07331  1.0000
  H   H22       1.0  0.10891  0.58468  0.06436  1.0000
  H   H23       1.0  0.52311  0.10900  0.43110  1.0000
  H   H24       1.0  0.88667  0.41683  0.45315  1.0000
  H   H25       1.0  0.43990  0.10139  0.25978  1.0000
  H   H26       1.0  0.89641  0.33869  0.24351  1.0000
  H   H27       1.0  0.10018  0.66029  0.25367  1.0000
  H   H28       1.0  0.43398  0.03537  0.32511  1.0000
  H   H29       1.0  0.96033  0.39774  0.32550  1.0000
  H   H30       1.0  0.03498  0.60071  0.18328  1.0000
  H   H31       1.0  0.00013  0.43513  0.46584  1.0000
  H   H32       1.0  0.56600  0.00342  0.03289  1.0000
  H   H33       1.0  0.53201  0.05668  0.04521  1.0000
  H   H34       1.0  0.94942  0.47707  0.03284  1.0000
  H   H35       1.0  0.05379  0.52246  0.45910  1.0000
  H   H36       1.0  0.07260  0.50957  0.12800  1.0000
  H   H37       1.0  0.56358  0.07349  0.37332  1.0000
  H   H38       1.0  0.13282  0.50446  0.20464  1.0000
  H   H39       1.0  0.63050  0.13318  0.29906  1.0000
  H   H40       1.0  0.30123  0.75216  0.97447  1.0000
  H   H41       1.0  0.24607  0.54445  0.02493  1.0000
  H   H42       1.0  0.70009  0.25292  0.53031  1.0000
  H   H43       1.0  0.75047  0.44913  0.52083  1.0000
  H   H44       1.0  0.25029  0.83355  0.95457  1.0000
  H   H45       1.0  0.16635  0.41670  0.91992  1.0000
  H   H46       1.0  0.74710  0.16812  0.52706  1.0000
  H   H47       1.0  0.83213  0.58126  0.51633  1.0000
  H   H48       1.0  0.17825  0.77207  0.97267  1.0000
  H   H49       1.0  0.22636  0.40399  0.94382  1.0000
  H   H50       1.0  0.82002  0.22808  0.50758  1.0000
  H   H51       1.0  0.77071  0.59139  0.48495  1.0000
  H   H52       1.0  0.22901  0.69049  0.98130  1.0000
  H   H53       1.0  0.30691  0.53253  0.03731  1.0000
  H   H54       1.0  0.77324  0.31303  0.52220  1.0000
  H   H55       1.0  0.68876  0.45934  0.50147  1.0000
  H   H56       1.0  0.12000  0.58292  0.52962  1.0000
  H   H57       1.0  0.53795  0.12343  0.97906  1.0000
  H   H58       1.0  0.88432  0.41716  0.95085  1.0000
  H   H59       1.0  0.45282  0.11134  0.77399  1.0000
  H   H60       1.0  0.89626  0.34099  0.76152  1.0000
  H   H61       1.0  0.34061  0.44614  0.75977  1.0000
  H   H62       1.0  0.11054  0.65790  0.72677  1.0000
  H   H63       1.0  0.44920  0.04842  0.86228  1.0000
  H   H64       1.0  0.96063  0.40034  0.83996  1.0000
  H   H65       1.0  0.39941  0.44122  0.67226  1.0000
  H   H66       1.0  0.04537  0.59993  0.64626  1.0000
  H   H67       1.0  0.05998  0.42797  0.53808  1.0000
  H   H68       1.0  0.63433  0.06248  0.96313  1.0000
  H   H69       1.0  0.51801  0.04391  0.51830  1.0000
  H   H70       1.0  0.95273  0.47702  0.53108  1.0000
  H   H71       1.0  0.47724  0.52216  0.98305  1.0000
  H   H72       1.0  0.04196  0.52603  0.98498  1.0000
  C   C1        1.0  0.48409  0.72695  0.48578  1.0000
  C   C2        1.0  0.27409  0.75678  0.45962  1.0000
  C   C3        1.0  0.24542  0.52110  0.45978  1.0000
  C   C4        1.0  0.51645  0.27547  0.02983  1.0000
  C   C5        1.0  0.75521  0.48106  0.03223  1.0000
  C   C6        1.0  0.55825  0.75417  0.44844  1.0000
  C   C7        1.0  0.24570  0.80328  0.46566  1.0000
  C   C8        1.0  0.19688  0.44744  0.49281  1.0000
  C   C9        1.0  0.44164  0.24707  0.05348  1.0000
  C   C10       1.0  0.80272  0.55563  0.02866  1.0000
  C   C11       1.0  0.50845  0.67667  0.45095  1.0000
  C   C12       1.0  0.32349  0.83222  0.44558  1.0000
  C   C13       1.0  0.17026  0.49706  0.44538  1.0000
  C   C14       1.0  0.49054  0.32462  0.05834  1.0000
  C   C15       1.0  0.67636  0.16946  0.04061  1.0000
  C   C16       1.0  0.82990  0.50572  0.06190  1.0000
  C   C17       1.0  0.51773  0.72024  0.46325  1.0000
  C   C18       1.0  0.28010  0.79716  0.45810  1.0000
  C   C19       1.0  0.20438  0.48778  0.46781  1.0000
  C   C20       1.0  0.48210  0.28138  0.04564  1.0000
  C   C21       1.0  0.79581  0.51501  0.03956  1.0000
  C   C22       1.0  0.56487  0.79435  0.45569  1.0000
  C   C23       1.0  0.20566  0.76922  0.47521  1.0000
  C   C24       1.0  0.23022  0.44055  0.50812  1.0000
  C   C25       1.0  0.43575  0.20715  0.04657  1.0000
  C   C26       1.0  0.76910  0.56207  0.01215  1.0000
  C   C27       1.0  0.49051  0.76715  0.48794  1.0000
  C   C28       1.0  0.23398  0.72268  0.46334  1.0000
  C   C29       1.0  0.27875  0.51403  0.47118  1.0000
  C   C30       1.0  0.51068  0.23553  0.02810  1.0000
  C   C31       1.0  0.72148  0.48752  0.02122  1.0000
  C   C32       1.0  0.54035  0.84476  0.46972  1.0000
  C   C33       1.0  0.15597  0.69389  0.47258  1.0000
  C   C34       1.0  0.30528  0.46354  0.49902  1.0000
  C   C35       1.0  0.46189  0.15786  0.04119  1.0000
  C   C36       1.0  0.84495  0.30556  0.01252  1.0000
  C   C37       1.0  0.69356  0.53708  0.00772  1.0000
  C   C38       1.0  0.53102  0.80100  0.47258  1.0000
  C   C39       1.0  0.19959  0.72883  0.47157  1.0000
  C   C40       1.0  0.27124  0.47361  0.49483  1.0000
  C   C41       1.0  0.47024  0.20124  0.03707  1.0000
  C   C42       1.0  0.72836  0.52814  0.01202  1.0000
  C   C43       1.0  0.10124  0.58619  0.45253  1.0000
  C   C44       1.0  0.51571  0.10408  0.05621  1.0000
  C   C45       1.0  0.90107  0.41356  0.03403  1.0000
  C   C46       1.0  0.51885  0.51751  0.24644  1.0000
  C   C47       1.0  0.48349  0.00328  0.24891  1.0000
  C   C48       1.0  0.99711  0.47971  0.24652  1.0000
  C   C49       1.0  0.47979  0.48324  0.25941  1.0000
  C   C50       1.0  0.51820  0.99894  0.25544  1.0000
  C   C51       1.0  0.00161  0.51867  0.25590  1.0000
  C   C52       1.0  0.46014  0.09158  0.21283  1.0000
  C   C53       1.0  0.90794  0.36904  0.19737  1.0000
  C   C54       1.0  0.09004  0.63005  0.29870  1.0000
  C   C55       1.0  0.45718  0.05409  0.24988  1.0000
  C   C56       1.0  0.94433  0.40301  0.24382  1.0000
  C   C57       1.0  0.05291  0.59573  0.25880  1.0000
  C   C58       1.0  0.03954  0.55552  0.30960  1.0000
  C   C59       1.0  0.48430  0.04128  0.19660  1.0000
  C   C60       1.0  0.95947  0.44322  0.19035  1.0000
  C   C61       1.0  0.02831  0.44880  0.40418  1.0000
  C   C62       1.0  0.58070  0.03083  0.09580  1.0000
  C   C63       1.0  0.06215  0.44519  0.44721  1.0000
  C   C64       1.0  0.61888  0.06425  0.05411  1.0000
  C   C65       1.0  0.56007  0.03343  0.21142  1.0000
  C   C66       1.0  0.03147  0.47228  0.28927  1.0000
  C   C67       1.0  0.63618  0.10077  0.12742  1.0000
  C   C68       1.0  0.09958  0.46577  0.37592  1.0000
  C   C69       1.0  0.51232  0.06651  0.09479  1.0000
  C   C70       1.0  0.93754  0.44713  0.08148  1.0000
  C   C71       1.0  0.06400  0.55224  0.41149  1.0000
  C   C72       1.0  0.49001  0.11662  0.11774  1.0000
  C   C73       1.0  0.88626  0.37478  0.09381  1.0000
  C   C74       1.0  0.11435  0.62478  0.39373  1.0000
  C   C75       1.0  0.06938  0.49147  0.21763  1.0000
  C   C76       1.0  0.57891  0.07062  0.28389  1.0000
  C   C77       1.0  0.10356  0.48870  0.26032  1.0000
  C   C78       1.0  0.61665  0.10443  0.24258  1.0000
  C   C79       1.0  0.27399  0.75596  0.97325  1.0000
  C   C80       1.0  0.24237  0.51400  0.00625  1.0000
  C   C81       1.0  0.72670  0.24807  0.52656  1.0000
  C   C82       1.0  0.75434  0.48005  0.51414  1.0000
  C   C83       1.0  0.24555  0.80235  0.96271  1.0000
  C   C84       1.0  0.19691  0.44172  0.94765  1.0000
  C   C85       1.0  0.75302  0.19981  0.52400  1.0000
  C   C86       1.0  0.80083  0.55476  0.51095  1.0000
  C   C87       1.0  0.50903  0.67647  0.94274  1.0000
  C   C88       1.0  0.32357  0.83116  0.94992  1.0000
  C   C89       1.0  0.16892  0.49153  0.95586  1.0000
  C   C90       1.0  0.48861  0.32176  0.54211  1.0000
  C   C91       1.0  0.67584  0.17320  0.55037  1.0000
  C   C92       1.0  0.82932  0.50591  0.54553  1.0000
  C   C93       1.0  0.28004  0.79629  0.96281  1.0000
  C   C94       1.0  0.20287  0.48156  0.97043  1.0000
  C   C95       1.0  0.71948  0.20727  0.53196  1.0000
  C   C96       1.0  0.79471  0.51444  0.52231  1.0000
  C   C97       1.0  0.20552  0.76831  0.97225  1.0000
  C   C98       1.0  0.23021  0.43460  0.96012  1.0000
  C   C99       1.0  0.79351  0.23302  0.51354  1.0000
  C   C100      1.0  0.76675  0.56047  0.49394  1.0000
  C   C101      1.0  0.23389  0.72182  0.97777  1.0000
  C   C102      1.0  0.27604  0.50724  0.01371  1.0000
  C   C103      1.0  0.76727  0.28132  0.52122  1.0000
  C   C104      1.0  0.72017  0.48580  0.50247  1.0000
  C   C105      1.0  0.53946  0.84448  0.97506  1.0000
  C   C106      1.0  0.15566  0.69321  0.97446  1.0000
  C   C107      1.0  0.30458  0.45791  0.98894  1.0000
  C   C108      1.0  0.45898  0.15416  0.52275  1.0000
  C   C109      1.0  0.84490  0.30794  0.51970  1.0000
  C   C110      1.0  0.69092  0.53452  0.49269  1.0000
  C   C111      1.0  0.19943  0.72793  0.97675  1.0000
  C   C112      1.0  0.27007  0.46743  0.99014  1.0000
  C   C113      1.0  0.80087  0.27386  0.51610  1.0000
  C   C114      1.0  0.72622  0.52614  0.49350  1.0000
  C   C115      1.0  0.41394  0.50892  0.98417  1.0000
  C   C116      1.0  0.09498  0.58742  0.97205  1.0000
  C   C117      1.0  0.50729  0.09550  0.52584  1.0000
  C   C118      1.0  0.90298  0.41397  0.53903  1.0000
  C   C119      1.0  0.51993  0.51623  0.75264  1.0000
  C   C120      1.0  0.48343  0.00326  0.75268  1.0000
  C   C121      1.0  0.99801  0.48197  0.75091  1.0000
  C   C122      1.0  0.48086  0.48187  0.75884  1.0000
  C   C123      1.0  0.51834  0.99931  0.75346  1.0000
  C   C124      1.0  0.00107  0.52032  0.75414  1.0000
  C   C125      1.0  0.46737  0.09677  0.71798  1.0000
  C   C126      1.0  0.90842  0.37091  0.71155  1.0000
  C   C127      1.0  0.37050  0.46293  0.80922  1.0000
  C   C128      1.0  0.09560  0.62877  0.78249  1.0000
  C   C129      1.0  0.46510  0.06054  0.76694  1.0000
  C   C130      1.0  0.94511  0.40499  0.75565  1.0000
  C   C131      1.0  0.40439  0.46039  0.75961  1.0000
  C   C132      1.0  0.05829  0.59563  0.73814  1.0000
  C   C133      1.0  0.44411  0.48285  0.81704  1.0000
  C   C134      1.0  0.03902  0.55730  0.80675  1.0000
  C   C135      1.0  0.48424  0.04123  0.69872  1.0000
  C   C136      1.0  0.96083  0.44457  0.69697  1.0000
  C   C137      1.0  0.50435  0.05903  0.57563  1.0000
  C   C138      1.0  0.93983  0.44760  0.58402  1.0000
  C   C139      1.0  0.44758  0.50618  0.93247  1.0000
  C   C140      1.0  0.05749  0.55460  0.92663  1.0000
  C   C141      1.0  0.48891  0.11421  0.59826  1.0000
  C   C142      1.0  0.88709  0.37609  0.60585  1.0000
  C   C143      1.0  0.37563  0.48750  0.92083  1.0000
  C   C144      1.0  0.11398  0.62413  0.89751  1.0000
  O   O1        1.0  0.54305  0.67501  0.40652  1.0000
  O   O2        1.0  0.32445  0.86725  0.39440  1.0000
  O   O3        1.0  0.13311  0.46125  0.42005  1.0000
  O   O4        1.0  0.45587  0.32544  0.10621  1.0000
  O   O5        1.0  0.67531  0.13388  0.08684  1.0000
  O   O6        1.0  0.86551  0.54028  0.10603  1.0000
  O   O7        1.0  0.47480  0.64598  0.47431  1.0000
  O   O8        1.0  0.35457  0.83061  0.47387  1.0000
  O   O9        1.0  0.17430  0.53165  0.44716  1.0000
  O   O10       1.0  0.52371  0.35566  0.03273  1.0000
  O   O11       1.0  0.64539  0.17211  0.02002  1.0000
  O   O12       1.0  0.82706  0.47194  0.04572  1.0000
  O   O13       1.0  0.50571  0.84724  0.43372  1.0000
  O   O14       1.0  0.15386  0.65785  0.42678  1.0000
  O   O15       1.0  0.34285  0.49728  0.45981  1.0000
  O   O16       1.0  0.49620  0.15618  0.08597  1.0000
  O   O17       1.0  0.84737  0.34214  0.05330  1.0000
  O   O18       1.0  0.65744  0.50404  0.05940  1.0000
  O   O19       1.0  0.57426  0.87468  0.49307  1.0000
  O   O20       1.0  0.12567  0.69646  0.50664  1.0000
  O   O21       1.0  0.30095  0.42987  0.52964  1.0000
  O   O22       1.0  0.42895  0.12738  0.01261  1.0000
  O   O23       1.0  0.87513  0.30188  0.98652  1.0000
  O   O24       1.0  0.69631  0.56930  0.96725  1.0000
  O   O25       1.0  0.54456  0.67448  0.91297  1.0000
  O   O26       1.0  0.32496  0.86710  0.90577  1.0000
  O   O27       1.0  0.13472  0.45991  0.89329  1.0000
  O   O28       1.0  0.45479  0.32358  0.59360  1.0000
  O   O29       1.0  0.67461  0.13718  0.59308  1.0000
  O   O30       1.0  0.86433  0.54041  0.59336  1.0000
  O   O31       1.0  0.47447  0.64603  0.95386  1.0000
  O   O32       1.0  0.35451  0.82876  0.97365  1.0000
  O   O33       1.0  0.17082  0.52364  0.99295  1.0000
  O   O34       1.0  0.52188  0.35236  0.51377  1.0000
  O   O35       1.0  0.64502  0.17629  0.53271  1.0000
  O   O36       1.0  0.82721  0.47254  0.52673  1.0000
  O   O37       1.0  0.50558  0.84750  0.93333  1.0000
  O   O38       1.0  0.15351  0.65665  0.93440  1.0000
  O   O39       1.0  0.34277  0.49320  0.96658  1.0000
  O   O40       1.0  0.49455  0.15274  0.55361  1.0000
  O   O41       1.0  0.84744  0.34360  0.57082  1.0000
  O   O42       1.0  0.65468  0.50046  0.53934  1.0000
  O   O43       1.0  0.57258  0.87427  0.00677  1.0000
  O   O44       1.0  0.12529  0.69653  0.00042  1.0000
  O   O45       1.0  0.29990  0.42326  0.00085  1.0000
  O   O46       1.0  0.42510  0.12344  0.50628  1.0000
  O   O47       1.0  0.87500  0.30497  0.48634  1.0000
  O   O48       1.0  0.69346  0.56733  0.46055  1.0000
  C   C145      1.0  0.48975  0.93156  0.94521  1.0000
  C   C146      1.0  0.51439  0.95820  0.84174  1.0000
  C  Sn1       1.0  0.53792  0.94727  0.75866  1.0000
  C  Sn2       1.0  0.53669  0.90894  0.77979  1.0000
  C   C147      1.0  0.51191  0.88249  0.88352  1.0000
  C   C148      1.0  0.48850  0.89374  0.96608  1.0000
  H   H73       1.0  0.47530  0.94264  0.00906  1.0000
  O  Te1       1.0  0.56239  0.97426  0.65579  1.0000
  O  Te2       1.0  0.55988  0.89724  0.69821  1.0000
  H   H74       1.0  0.47309  0.87549  0.04613  1.0000
  Mg  Mg1       1.0  0.58847  0.94452  0.57125  1.0000
  C   C149      1.0  0.50879  0.60600  0.74054  1.0000
  C   C150      1.0  0.52986  0.63059  0.85051  1.0000
  C  Sn3       1.0  0.55241  0.61917  0.93494  1.0000
  C  Sn4       1.0  0.55386  0.58244  0.90850  1.0000
  C   C151      1.0  0.53270  0.55807  0.79816  1.0000
  C   C152      1.0  0.51021  0.56977  0.71435  1.0000
  H   H75       1.0  0.49141  0.61506  0.67564  1.0000
  O  Te3       1.0  0.57695  0.64649  0.04441  1.0000
  O  Te4       1.0  0.57618  0.57032  0.99123  1.0000
  H   H76       1.0  0.49393  0.55074  0.62916  1.0000
  Mg  Mg2       1.0  0.60316  0.61693  0.12804  1.0000
  C   C153      1.0  0.44388  0.41066  0.57848  1.0000
  C   C154      1.0  0.46553  0.43501  0.68820  1.0000
  C  Sn5       1.0  0.48706  0.42249  0.77321  1.0000
  C  Sn6       1.0  0.48686  0.38489  0.74762  1.0000
  C   C155      1.0  0.46514  0.36076  0.63754  1.0000
  C   C156      1.0  0.44368  0.37358  0.55314  1.0000
  H   H77       1.0  0.42730  0.42058  0.51314  1.0000
  O  Te5       1.0  0.50852  0.44718  0.88241  1.0000
  O  Te6       1.0  0.50814  0.37165  0.83094  1.0000
  H   H78       1.0  0.42695  0.35473  0.46815  1.0000
  Mg  Mg3       1.0  0.53282  0.41597  0.96709  1.0000
  C   C157      1.0  0.56484  0.76463  0.99216  1.0000
  C   C158      1.0  0.52808  0.72732  0.96963  1.0000
  C  Sn7       1.0  0.49111  0.72731  0.94344  1.0000
  C  Sn8       1.0  0.49104  0.76540  0.93975  1.0000
  C   C159      1.0  0.52798  0.80256  0.96232  1.0000
  C   C160      1.0  0.56479  0.80221  0.98849  1.0000
  H   H79       1.0  0.59701  0.76676  0.01233  1.0000
  O  Te7       1.0  0.45466  0.68975  0.92121  1.0000
  O  Te8       1.0  0.45453  0.76629  0.91375  1.0000
  H   H80       1.0  0.59693  0.83351  0.00583  1.0000
  Mg  Mg4       1.0  0.41276  0.70699  0.88985  1.0000
  C   C161      1.0  0.62482  0.53548  0.72565  1.0000
  C   C162      1.0  0.62534  0.51262  0.61520  1.0000
  C  Sn9       1.0  0.59021  0.49185  0.53477  1.0000
  C  Sn10      1.0  0.55394  0.49408  0.56572  1.0000
  C   C163      1.0  0.55374  0.51705  0.67638  1.0000
  C   C164      1.0  0.58906  0.53771  0.75622  1.0000
  H   H81       1.0  0.65215  0.55149  0.78738  1.0000
  O  Te9       1.0  0.59125  0.46914  0.42483  1.0000
  O  Te10      1.0  0.51840  0.47363  0.48699  1.0000
  H   H82       1.0  0.58866  0.55543  0.84167  1.0000
  Mg  Mg5       1.0  0.53504  0.44662  0.34774  1.0000
  C   C165      1.0  0.60724  0.54661  0.23730  1.0000
  C   C166      1.0  0.56621  0.52603  0.19229  1.0000
  C  Sn11      1.0  0.55376  0.49509  0.09538  1.0000
  C  Sn12      1.0  0.58300  0.48461  0.04277  1.0000
  C   C167      1.0  0.62397  0.50537  0.08853  1.0000
  C   C168      1.0  0.63610  0.53629  0.18550  1.0000
  H   H83       1.0  0.61662  0.57052  0.31238  1.0000
  O  Te11      1.0  0.51264  0.47484  0.05148  1.0000
  O  Te12      1.0  0.56771  0.45140  0.94588  1.0000
  H   H84       1.0  0.66787  0.55220  0.22040  1.0000
  Mg  Mg6       1.0  0.50810  0.43265  0.91792  1.0000
  C   C169      1.0  0.39408  0.90286  0.22464  1.0000
  C   C170      1.0  0.36934  0.89702  0.33844  1.0000
  C  Sn13      1.0  0.38072  0.92909  0.43057  1.0000
  C  Sn14      1.0  0.41756  0.96768  0.40806  1.0000
  C   C171      1.0  0.44208  0.97322  0.29385  1.0000
  C   C172      1.0  0.43041  0.94092  0.20233  1.0000
  H   H85       1.0  0.38504  0.87788  0.15379  1.0000
  O  Te13      1.0  0.35565  0.92272  0.54377  1.0000
  O  Te14      1.0  0.92899  0.00026  0.49848  1.0000
  H   H86       1.0  0.44955  0.94546  0.11419  1.0000
  Mg  Mg7       1.0  0.38522  0.97652  0.63790  1.0000
  C   C173      1.0  0.60358  0.10289  0.75968  1.0000
  C   C174      1.0  0.63212  0.10606  0.66109  1.0000
  C  Sn15      1.0  0.62284  0.07253  0.57725  1.0000
  C  Sn16      1.0  0.58423  0.03518  0.59262  1.0000
  C   C175      1.0  0.55587  0.03233  0.69149  1.0000
  C   C176      1.0  0.56548  0.06606  0.77487  1.0000
  H   H87       1.0  0.61101  0.12899  0.82414  1.0000
  O  Te15      1.0  0.65172  0.07622  0.47930  1.0000
  O  Te16      1.0  0.57414  0.00120  0.51016  1.0000
  H   H88       1.0  0.54336  0.06361  0.85114  1.0000
  Mg  Mg8       1.0  0.62371  0.02134  0.39130  1.0000
  C   C177      1.0  0.91704  0.50453  0.78952  1.0000
  C   C178      1.0  0.95592  0.51978  0.72698  1.0000
  C  Sn17      1.0  0.96630  0.54541  0.61363  1.0000
  C  Sn18      1.0  0.93715  0.55591  0.56218  1.0000
  C   C179      1.0  0.89834  0.54052  0.62553  1.0000
  C   C180      1.0  0.88828  0.51489  0.73887  1.0000
  H   H89       1.0  0.90925  0.48472  0.87726  1.0000
  O  Te17      1.0  0.00527  0.56036  0.55234  1.0000
  O  Te18      1.0  0.94672  0.58148  0.44906  1.0000
  H   H90       1.0  0.85818  0.50310  0.78732  1.0000
  Mg  Mg9       1.0  0.00383  0.59415  0.40067  1.0000
  C   C181      1.0  0.39522  0.90154  0.73601  1.0000
  C   C182      1.0  0.36962  0.89670  0.84652  1.0000
  C  Sn19      1.0  0.37980  0.92987  0.93301  1.0000
  C  Sn20      1.0  0.41631  0.96856  0.90814  1.0000
  C   C183      1.0  0.44170  0.97309  0.79727  1.0000
  C   C184      1.0  0.43122  0.93970  0.71138  1.0000
  H   H91       1.0  0.38710  0.87571  0.66951  1.0000
  O  Te19      1.0  0.35757  0.92689  0.04298  1.0000
  O  Te20      1.0  0.92656  0.00222  0.99295  1.0000
  H   H92       1.0  0.45104  0.94346  0.62578  1.0000
  Mg  Mg10      1.0  0.38564  0.98198  0.12967  1.0000
  C   C185      1.0  0.54374  0.91798  0.26864  1.0000
  C   C186      1.0  0.52109  0.89210  0.37627  1.0000
  C  Sn21      1.0  0.49449  0.90057  0.45293  1.0000
  C  Sn22      1.0  0.49054  0.93563  0.42098  1.0000
  C   C187      1.0  0.51331  0.96133  0.31305  1.0000
  C   C188      1.0  0.53985  0.95256  0.23703  1.0000
  H   H93       1.0  0.56426  0.91120  0.20977  1.0000
  O  Te21      1.0  0.47210  0.87440  0.56015  1.0000
  O  Te22      1.0  0.46417  0.94482  0.49591  1.0000
  H   H94       1.0  0.55737  0.97260  0.15365  1.0000
  Mg  Mg11      1.0  0.44018  0.89987  0.63250  1.0000
  C   C189      1.0  0.42519  0.51661  0.48129  1.0000
  C   C190      1.0  0.38445  0.49804  0.43407  1.0000
  C  Sn23      1.0  0.37184  0.46926  0.33002  1.0000
  C  Sn24      1.0  0.40062  0.45895  0.27240  1.0000
  C   C191      1.0  0.44131  0.47768  0.32042  1.0000
  C   C192      1.0  0.45360  0.50645  0.42456  1.0000
  H   H95       1.0  0.43470  0.53885  0.56191  1.0000
  O  Te23      1.0  0.33102  0.45101  0.28402  1.0000
  O  Te24      1.0  0.38884  0.43028  0.16833  1.0000
  H   H96       1.0  0.48514  0.52080  0.46115  1.0000
  Mg  Mg12      1.0  0.32977  0.41374  0.14009  1.0000
  C   C193      1.0  0.75560  0.27430  0.01057  1.0000
  C   C194      1.0  0.79333  0.27452  0.01798  1.0000
  C  Sn25      1.0  0.79381  0.23720  0.02019  1.0000
  C  Sn26      1.0  0.75576  0.19901  0.01484  1.0000
  C   C195      1.0  0.71817  0.19913  0.00735  1.0000
  C   C196      1.0  0.71805  0.23664  0.00524  1.0000
  H   H97       1.0  0.75550  0.30332  0.00887  1.0000
  O  Te25      1.0  0.83179  0.23798  0.02766  1.0000
  O  Te26      1.0  0.75534  0.16127  0.01684  1.0000
  H   H98       1.0  0.68515  0.23406  0.99942  1.0000
  Mg  Mg13      1.0  0.81511  0.17843  0.02772  1.0000
  C   C197      1.0  0.10093  0.49727  0.73219  1.0000
  C   C198      1.0  0.10551  0.47628  0.84139  1.0000
  C  Sn27      1.0  0.07206  0.45322  0.92912  1.0000
  C  Sn28      1.0  0.03333  0.45119  0.90684  1.0000
  C   C199      1.0  0.02906  0.47228  0.79725  1.0000
  C   C200      1.0  0.06274  0.49527  0.71011  1.0000
  H   H99       1.0  0.12698  0.51504  0.66472  1.0000
  O  Te27      1.0  0.08085  0.43485  0.03776  1.0000
  O  Te28      1.0  0.99938  0.42836  0.99293  1.0000
  H   H100      1.0  0.05918  0.51150  0.62552  1.0000
  Mg  Mg14      1.0  0.02543  0.40781  0.12702  1.0000
  C   C201      1.0  0.55642  0.58955  0.42202  1.0000
  C   C202      1.0  0.53088  0.56264  0.32267  1.0000
  C  Sn29      1.0  0.50909  0.57468  0.23703  1.0000
  C  Sn30      1.0  0.51301  0.61441  0.25135  1.0000
  C   C203      1.0  0.53867  0.64112  0.35100  1.0000
  C   C204      1.0  0.56033  0.62875  0.43617  1.0000
  H   H101      1.0  0.57319  0.57999  0.48788  1.0000
  O  Te29      1.0  0.48369  0.54740  0.13834  1.0000
  O  Te30      1.0  0.49160  0.62724  0.16708  1.0000
  H   H102      1.0  0.58012  0.64960  0.51303  1.0000
  Mg  Mg15      1.0  0.46079  0.57904  0.04782  1.0000
  C   C205      1.0  0.44316  0.41128  0.08282  1.0000
  C   C206      1.0  0.46401  0.43599  0.19280  1.0000
  C  Sn31      1.0  0.48564  0.42420  0.28004  1.0000
  C  Sn32      1.0  0.48637  0.38697  0.25646  1.0000
  C   C207      1.0  0.46543  0.36247  0.14609  1.0000
  C   C208      1.0  0.44387  0.37455  0.05945  1.0000
  H   H103      1.0  0.42650  0.42063  0.01573  1.0000
  O  Te31      1.0  0.50630  0.44925  0.38948  1.0000
  O  Te32      1.0  0.50776  0.37446  0.34203  1.0000
  H   H104      1.0  0.42407  0.35302  0.97425  1.0000
  Mg  Mg16      1.0  0.53113  0.41904  0.47759  1.0000
  C   C209      1.0  0.51789  0.26512  0.50097  1.0000
  C   C210      1.0  0.48800  0.27747  0.50955  1.0000
  C  Sn33      1.0  0.44601  0.24797  0.52857  1.0000
  C  Sn34      1.0  0.43382  0.20535  0.53919  1.0000
  C   C211      1.0  0.46397  0.19332  0.53057  1.0000
  C   C212      1.0  0.50590  0.22309  0.51149  1.0000
  H   H105      1.0  0.55034  0.28815  0.48629  1.0000
  O  Te33      1.0  0.41654  0.26085  0.53687  1.0000
  O  Te34      1.0  0.39207  0.17522  0.55827  1.0000
  H   H106      1.0  0.52904  0.21352  0.50494  1.0000
  Mg  Mg17      1.0  0.36347  0.20814  0.56323  1.0000
  C   C213      1.0  0.94706  0.55844  0.06315  1.0000
  C   C214      1.0  0.90690  0.53952  0.11851  1.0000
  C  Sn35      1.0  0.89681  0.51350  0.23075  1.0000
  C  Sn36      1.0  0.92756  0.50636  0.28844  1.0000
  C   C215      1.0  0.96765  0.52546  0.23236  1.0000
  C   C216      1.0  0.97741  0.55143  0.12002  1.0000
  H   H107      1.0  0.95094  0.57615  0.97627  1.0000
  O  Te35      1.0  0.85653  0.49483  0.28476  1.0000
  O  Te36      1.0  0.91832  0.48051  0.40066  1.0000
  H   H108      1.0  0.00852  0.56609  0.07723  1.0000
  Mg  Mg18      1.0  0.85903  0.46213  0.43802  1.0000
