data_image0
_chemical_formula_structural       H12C36O24C2Sn2C2HTe2HMgC2Sn2C2HTe2HMgC2Sn2C2HTe2HMgC2Sn2C2HTe2HMgC2Sn2C2HTe2HMgC2Sn2C2HTe2HMgC2Sn2C2HTe2HMgC2Sn2C2HTe2HMgC2Sn2C2HTe2HMgC2Sn2C2HTe2HMgC2Sn2C2HTe2HMgC2Sn2C2HTe2HMgC2Sn2C2HTe2HMgC2Sn2C2HTe2HMgC2Sn2C2HTe2HMgC2Sn2C2HTe2HMgC2Sn2C2HTe2HMgC2Sn2C2HTe2HMg
_chemical_formula_sum              "H48 C108 O24 Sn36 Te36 Mg18"
_cell_length_a       34.8962
_cell_length_b       34.9673
_cell_length_c       8.04276
_cell_angle_alpha    90.7378
_cell_angle_beta     90.0005
_cell_angle_gamma    120.324

_symmetry_space_group_name_H-M    'P1'
_space_group_IT_number       1

loop_
  _space_group_symop_operation_xyz
  'x, y, z'

loop_
  _atom_site_type_symbol
  _atom_site_label
  _atom_site_symmetry_multiplicity
  _atom_site_fract_x
  _atom_site_fract_y
  _atom_site_fract_z
  _atom_site_occupancy
  H   H1        1.0  0.30006  0.71352  0.12534  1.0000
  H   H2        1.0  0.28469  0.58374  0.12114  1.0000
  H   H3        1.0  0.41515  0.69895  0.11810  1.0000
  H   H4        1.0  0.70083  0.28481  0.37124  1.0000
  H   H5        1.0  0.71321  0.41336  0.36453  1.0000
  H   H6        1.0  0.58409  0.29653  0.37239  1.0000
  H   H7        1.0  0.29983  0.71535  0.62611  1.0000
  H   H8        1.0  0.28852  0.58722  0.62807  1.0000
  H   H9        1.0  0.41719  0.70482  0.62253  1.0000
  H   H10       1.0  0.70195  0.28817  0.86968  1.0000
  H   H11       1.0  0.71513  0.41707  0.87039  1.0000
  H   H12       1.0  0.58563  0.30049  0.87551  1.0000
  C   C1        1.0  0.36100  0.71209  0.12468  1.0000
  C   C2        1.0  0.28666  0.64630  0.12852  1.0000
  C   C3        1.0  0.35229  0.63807  0.12418  1.0000
  C   C4        1.0  0.63914  0.28482  0.36793  1.0000
  C   C5        1.0  0.71278  0.35154  0.36333  1.0000
  C   C6        1.0  0.64624  0.35807  0.36405  1.0000
  C   C7        1.0  0.31462  0.69243  0.12950  1.0000
  C   C8        1.0  0.30606  0.61956  0.12766  1.0000
  C   C9        1.0  0.37934  0.68443  0.12540  1.0000
  C   C10       1.0  0.68561  0.30529  0.36462  1.0000
  C   C11       1.0  0.69252  0.37745  0.36062  1.0000
  C   C12       1.0  0.61996  0.31169  0.36505  1.0000
  C   C13       1.0  0.48223  0.56326  0.42831  1.0000
  C   C14       1.0  0.43811  0.92056  0.41440  1.0000
  C   C15       1.0  0.08060  0.52068  0.43245  1.0000
  C   C16       1.0  0.52171  0.44260  0.07501  1.0000
  C   C17       1.0  0.55774  0.08184  0.07573  1.0000
  C   C18       1.0  0.92135  0.48079  0.07253  1.0000
  C   C19       1.0  0.36174  0.71585  0.62744  1.0000
  C   C20       1.0  0.28838  0.64872  0.63097  1.0000
  C   C21       1.0  0.35537  0.64287  0.63016  1.0000
  C   C22       1.0  0.64046  0.28854  0.86965  1.0000
  C   C23       1.0  0.71431  0.35508  0.86533  1.0000
  C   C24       1.0  0.64788  0.36202  0.86839  1.0000
  C   C25       1.0  0.31524  0.69503  0.63123  1.0000
  C   C26       1.0  0.30902  0.62315  0.63271  1.0000
  C   C27       1.0  0.38128  0.68930  0.62961  1.0000
  C   C28       1.0  0.68690  0.30881  0.86501  1.0000
  C   C29       1.0  0.69421  0.38119  0.86503  1.0000
  C   C30       1.0  0.62150  0.31562  0.86825  1.0000
  C   C31       1.0  0.47577  0.55572  0.91138  1.0000
  C   C32       1.0  0.44179  0.91856  0.92060  1.0000
  C   C33       1.0  0.07905  0.52147  0.92810  1.0000
  C   C34       1.0  0.51975  0.43636  0.57554  1.0000
  C   C35       1.0  0.56041  0.07960  0.57875  1.0000
  C   C36       1.0  0.92012  0.48026  0.56345  1.0000
  O   O1        1.0  0.43181  0.53550  0.95858  1.0000
  O   O2        1.0  0.46145  0.89404  0.95932  1.0000
  O   O3        1.0  0.10252  0.56509  0.98270  1.0000
  O   O4        1.0  0.56345  0.45750  0.52450  1.0000
  O   O5        1.0  0.53987  0.10289  0.53316  1.0000
  O   O6        1.0  0.89716  0.43659  0.50910  1.0000
  O   O7        1.0  0.50909  0.60260  0.44610  1.0000
  O   O8        1.0  0.39872  0.90743  0.43320  1.0000
  O   O9        1.0  0.09289  0.49398  0.45015  1.0000
  O   O10       1.0  0.49415  0.40368  0.05086  1.0000
  O   O11       1.0  0.59638  0.09283  0.05031  1.0000
  O   O12       1.0  0.90889  0.50748  0.05843  1.0000
  O   O13       1.0  0.43886  0.54298  0.48300  1.0000
  O   O14       1.0  0.45921  0.89825  0.46629  1.0000
  O   O15       1.0  0.10363  0.56406  0.49025  1.0000
  O   O16       1.0  0.56545  0.46244  0.02530  1.0000
  O   O17       1.0  0.53842  0.10644  0.03294  1.0000
  O   O18       1.0  0.89876  0.43789  0.00981  1.0000
  O   O19       1.0  0.50265  0.59493  0.93296  1.0000
  O   O20       1.0  0.40325  0.90737  0.94926  1.0000
  O   O21       1.0  0.09081  0.49445  0.94923  1.0000
  O   O22       1.0  0.49359  0.39686  0.55771  1.0000
  O   O23       1.0  0.59926  0.09157  0.55303  1.0000
  O   O24       1.0  0.90768  0.50678  0.54263  1.0000
  C   C37       1.0  0.37777  0.80161  0.16494  1.0000
  C   C38       1.0  0.38408  0.76705  0.11096  1.0000
  C  Sn1       1.0  0.41977  0.77567  0.00819  1.0000
  C  Sn2       1.0  0.45165  0.82373  0.95880  1.0000
  C   C39       1.0  0.44304  0.85410  0.01357  1.0000
  C   C40       1.0  0.40722  0.84509  0.11634  1.0000
  H   H13       1.0  0.35006  0.79465  0.24453  1.0000
  O  Te1       1.0  0.42760  0.74473  0.95534  1.0000
  O  Te2       1.0  0.48760  0.83328  0.85620  1.0000
  H   H14       1.0  0.40235  0.87186  0.15821  1.0000
  Mg  Mg1       1.0  0.48154  0.77446  0.81660  1.0000
  C   C41       1.0  0.17239  0.56163  0.15173  1.0000
  C   C42       1.0  0.14871  0.57770  0.06600  1.0000
  C  Sn3       1.0  0.17305  0.62339  0.99322  1.0000
  C  Sn4       1.0  0.21795  0.64545  0.00668  1.0000
  C   C43       1.0  0.24134  0.62907  0.09261  1.0000
  C   C44       1.0  0.21867  0.58729  0.16501  1.0000
  H   H15       1.0  0.15485  0.52930  0.20767  1.0000
  O  Te3       1.0  0.14887  0.63895  0.90808  1.0000
  O  Te4       1.0  0.24312  0.69123  0.93507  1.0000
  H   H16       1.0  0.23702  0.57484  0.23128  1.0000
  Mg  Mg2       1.0  0.19541  0.69798  0.83172  1.0000
  C   C45       1.0  0.43633  0.60815  0.14058  1.0000
  C   C46       1.0  0.41994  0.56904  0.04652  1.0000
  C  Sn5       1.0  0.38017  0.55413  0.97066  1.0000
  C  Sn6       1.0  0.35439  0.57486  0.98949  1.0000
  C   C47       1.0  0.36908  0.61001  0.08374  1.0000
  C   C48       1.0  0.41093  0.62862  0.15916  1.0000
  H   H17       1.0  0.46872  0.62256  0.19887  1.0000
  O  Te5       1.0  0.36429  0.51504  0.87716  1.0000
  O  Te6       1.0  0.31252  0.55670  0.91495  1.0000
  H   H18       1.0  0.42362  0.65892  0.23189  1.0000
  Mg  Mg3       1.0  0.30529  0.50303  0.79975  1.0000
  C   C49       1.0  0.62454  0.19609  0.33530  1.0000
  C   C50       1.0  0.61398  0.22901  0.36843  1.0000
  C  Sn7       1.0  0.57771  0.22000  0.46847  1.0000
  C  Sn8       1.0  0.55160  0.17720  0.53647  1.0000
  C   C51       1.0  0.56246  0.14449  0.50268  1.0000
  C   C52       1.0  0.59882  0.15387  0.40237  1.0000
  H   H19       1.0  0.65268  0.20334  0.25777  1.0000
  O  Te7       1.0  0.56761  0.25327  0.50027  1.0000
  O  Te8       1.0  0.51519  0.16729  0.63691  1.0000
  H   H20       1.0  0.60700  0.12838  0.37683  1.0000
  Mg  Mg4       1.0  0.51472  0.22368  0.64439  1.0000
  C   C53       1.0  0.82672  0.43707  0.33240  1.0000
  C   C54       1.0  0.84988  0.42496  0.44121  1.0000
  C  Sn9       1.0  0.82811  0.38387  0.51880  1.0000
  C  Sn10      1.0  0.78231  0.35441  0.48658  1.0000
  C   C55       1.0  0.75945  0.36682  0.37744  1.0000
  C   C56       1.0  0.78155  0.40803  0.30051  1.0000
  H   H21       1.0  0.84383  0.46893  0.27281  1.0000
  O  Te9       1.0  0.85175  0.37231  0.62720  1.0000
  O  Te10      1.0  0.75975  0.31314  0.56240  1.0000
  H   H22       1.0  0.76362  0.41738  0.21619  1.0000
  Mg  Mg5       1.0  0.80636  0.31242  0.70047  1.0000
  C   C57       1.0  0.56195  0.38746  0.33543  1.0000
  C   C58       1.0  0.57480  0.42245  0.44923  1.0000
  C  Sn11      1.0  0.61600  0.44121  0.52956  1.0000
  C  Sn12      1.0  0.64482  0.42457  0.49503  1.0000
  C   C59       1.0  0.63167  0.38958  0.38089  1.0000
  C   C60       1.0  0.59036  0.37104  0.30125  1.0000
  H   H23       1.0  0.53000  0.37313  0.27373  1.0000
  O  Te11      1.0  0.62831  0.47614  0.64296  1.0000
  O  Te12      1.0  0.68619  0.44272  0.57351  1.0000
  H   H24       1.0  0.58044  0.34397  0.21307  1.0000
  Mg  Mg6       1.0  0.68803  0.48986  0.71829  1.0000
  C   C61       1.0  0.37669  0.80469  0.66920  1.0000
  C   C62       1.0  0.38378  0.77067  0.61456  1.0000
  C  Sn13      1.0  0.41955  0.78000  0.51119  1.0000
  C  Sn14      1.0  0.44873  0.82425  0.46183  1.0000
  C   C63       1.0  0.44137  0.85805  0.51726  1.0000
  C   C64       1.0  0.40546  0.84834  0.62063  1.0000
  H   H25       1.0  0.34892  0.79718  0.74925  1.0000
  O  Te13      1.0  0.42614  0.74561  0.45769  1.0000
  O  Te14      1.0  0.48475  0.83451  0.35864  1.0000
  H   H26       1.0  0.40000  0.87469  0.66300  1.0000
  Mg  Mg7       1.0  0.47987  0.77622  0.31827  1.0000
  C   C65       1.0  0.19932  0.57482  0.67827  1.0000
  C   C66       1.0  0.23321  0.61555  0.62133  1.0000
  C  Sn15      1.0  0.22314  0.64192  0.52250  1.0000
  C  Sn16      1.0  0.17827  0.62716  0.48012  1.0000
  C   C67       1.0  0.14460  0.58637  0.53781  1.0000
  C   C68       1.0  0.15506  0.56024  0.63659  1.0000
  H   H27       1.0  0.20740  0.55460  0.75478  1.0000
  O  Te15      1.0  0.25741  0.68252  0.46661  1.0000
  O  Te16      1.0  0.16727  0.65287  0.38157  1.0000
  H   H28       1.0  0.12881  0.52872  0.68075  1.0000
  Mg  Mg8       1.0  0.22568  0.70571  0.33550  1.0000
  C   C69       1.0  0.44228  0.61701  0.65050  1.0000
  C   C70       1.0  0.42633  0.57676  0.56453  1.0000
  C  Sn17      1.0  0.38407  0.55584  0.49181  1.0000
  C  Sn18      1.0  0.35735  0.57567  0.50560  1.0000
  C   C71       1.0  0.37362  0.61596  0.59177  1.0000
  C   C72       1.0  0.41596  0.63661  0.66410  1.0000
  H   H29       1.0  0.47504  0.63300  0.70639  1.0000
  O  Te17      1.0  0.36864  0.51563  0.40642  1.0000
  O  Te18      1.0  0.31499  0.55548  0.43406  1.0000
  H   H30       1.0  0.42830  0.66778  0.73056  1.0000
  Mg  Mg9       1.0  0.30868  0.50092  0.33029  1.0000
  C   C73       1.0  0.55204  0.19036  0.04069  1.0000
  C   C74       1.0  0.55908  0.15929  0.98269  1.0000
  C  Sn19      1.0  0.59453  0.16744  0.87937  1.0000
  C  Sn20      1.0  0.62547  0.21154  0.83351  1.0000
  C   C75       1.0  0.62017  0.24638  0.89228  1.0000
  C   C76       1.0  0.58457  0.23785  0.99557  1.0000
  H   H31       1.0  0.52451  0.18377  0.12067  1.0000
  O  Te19      1.0  0.59905  0.13204  0.82248  1.0000
  O  Te20      1.0  0.66122  0.22063  0.73045  1.0000
  H   H32       1.0  0.57869  0.26102  0.04054  1.0000
  Mg  Mg10      1.0  0.65321  0.16124  0.68471  1.0000
  C   C77       1.0  0.82876  0.44003  0.83619  1.0000
  C   C78       1.0  0.85166  0.42698  0.94227  1.0000
  C  Sn21      1.0  0.82754  0.38148  0.01662  1.0000
  C  Sn22      1.0  0.78368  0.35653  0.98388  1.0000
  C   C79       1.0  0.76108  0.36988  0.87747  1.0000
  C   C80       1.0  0.78351  0.41151  0.80378  1.0000
  H   H33       1.0  0.84612  0.47223  0.77910  1.0000
  O  Te21      1.0  0.85092  0.36898  0.12234  1.0000
  O  Te22      1.0  0.75878  0.31087  0.05648  1.0000
  H   H34       1.0  0.76578  0.42159  0.72157  1.0000
  Mg  Mg11      1.0  0.80512  0.30885  0.19170  1.0000
  C   C81       1.0  0.63721  0.45103  0.03269  1.0000
  C   C82       1.0  0.59841  0.44833  0.97580  1.0000
  C  Sn23      1.0  0.57103  0.41157  0.87527  1.0000
  C  Sn24      1.0  0.58485  0.38098  0.83110  1.0000
  C   C83       1.0  0.62572  0.38795  0.88875  1.0000
  C   C84       1.0  0.65286  0.42485  0.98924  1.0000
  H   H35       1.0  0.65820  0.47957  0.11052  1.0000
  O  Te23      1.0  0.53037  0.40540  0.81946  1.0000
  O  Te24      1.0  0.55813  0.34395  0.73083  1.0000
  H   H36       1.0  0.68243  0.42603  0.03336  1.0000
  Mg  Mg12      1.0  0.50562  0.34991  0.68561  1.0000
  C   C85       1.0  0.54407  0.54469  0.27040  1.0000
  C   C86       1.0  0.50240  0.53666  0.32158  1.0000
  C  Sn25      1.0  0.46492  0.49469  0.29908  1.0000
  C  Sn26      1.0  0.46934  0.46019  0.22397  1.0000
  C   C87       1.0  0.51118  0.46856  0.17330  1.0000
  C   C88       1.0  0.54846  0.51068  0.19636  1.0000
  H   H37       1.0  0.57292  0.57728  0.28832  1.0000
  O  Te25      1.0  0.42354  0.48723  0.35088  1.0000
  O  Te26      1.0  0.43243  0.41793  0.20005  1.0000
  H   H38       1.0  0.58072  0.51688  0.15682  1.0000
  Mg  Mg13      1.0  0.38309  0.42408  0.29141  1.0000
  C   C89       1.0  0.45413  0.99794  0.24324  1.0000
  C   C90       1.0  0.46380  0.96661  0.30564  1.0000
  C  Sn27      1.0  0.50717  0.97437  0.30109  1.0000
  C  Sn28      1.0  0.03552  0.01426  0.23275  1.0000
  C   C91       1.0  0.02552  0.04540  0.17074  1.0000
  C   C92       1.0  0.98199  0.03730  0.17587  1.0000
  H   H39       1.0  0.42046  0.99169  0.24728  1.0000
  O  Te27      1.0  0.51625  0.94271  0.36392  1.0000
  O  Te28      1.0  0.07917  0.02286  0.22670  1.0000
  H   H40       1.0  0.97452  0.06158  0.12764  1.0000
  Mg  Mg14      1.0  0.58090  0.96956  0.32783  1.0000
  C   C93       1.0  0.98192  0.45402  0.20385  1.0000
  C   C94       1.0  0.96272  0.48007  0.17545  1.0000
  C  Sn29      1.0  0.98450  0.52445  0.22729  1.0000
  C  Sn30      1.0  0.02629  0.54300  0.30902  1.0000
  C   C95       1.0  0.04524  0.51667  0.33675  1.0000
  C   C96       1.0  0.02315  0.47230  0.28440  1.0000
  H   H41       1.0  0.96484  0.41969  0.16327  1.0000
  O  Te29      1.0  0.96483  0.55000  0.19798  1.0000
  O  Te30      1.0  0.04879  0.58727  0.36208  1.0000
  H   H42       1.0  0.03804  0.45215  0.30631  1.0000
  Mg  Mg15      1.0  0.00843  0.60867  0.29369  1.0000
  C   C97       1.0  0.44992  0.46839  0.77336  1.0000
  C   C98       1.0  0.47710  0.51219  0.82787  1.0000
  C  Sn31      1.0  0.52226  0.53505  0.78949  1.0000
  C  Sn32      1.0  0.54045  0.51358  0.69472  1.0000
  C   C99       1.0  0.51296  0.46977  0.64067  1.0000
  C   C100      1.0  0.46782  0.44720  0.67982  1.0000
  H   H43       1.0  0.41499  0.45094  0.80357  1.0000
  O  Te31      1.0  0.54896  0.57878  0.84499  1.0000
  O  Te32      1.0  0.58547  0.53565  0.65454  1.0000
  H   H44       1.0  0.44678  0.41331  0.63751  1.0000
  Mg  Mg16      1.0  0.60833  0.59495  0.75859  1.0000
  C   C101      1.0  0.45774  0.99573  0.75046  1.0000
  C   C102      1.0  0.46771  0.96466  0.81340  1.0000
  C  Sn33      1.0  0.51112  0.97254  0.80755  1.0000
  C  Sn34      1.0  0.03920  0.01229  0.73736  1.0000
  C   C103      1.0  0.02889  0.04317  0.67484  1.0000
  C   C104      1.0  0.98534  0.03495  0.68128  1.0000
  H   H45       1.0  0.42405  0.98938  0.75551  1.0000
  O  Te33      1.0  0.52050  0.94114  0.87093  1.0000
  O  Te34      1.0  0.08287  0.02101  0.73000  1.0000
  H   H46       1.0  0.97763  0.05902  0.63264  1.0000
  Mg  Mg17      1.0  0.58507  0.96807  0.83254  1.0000
  C   C105      1.0  0.99624  0.54107  0.75147  1.0000
  C   C106      1.0  0.96820  0.50192  0.66365  1.0000
  C  Sn35      1.0  0.97525  0.46602  0.66940  1.0000
  C  Sn36      1.0  0.01107  0.46948  0.76499  1.0000
  C   C107      1.0  0.03892  0.50877  0.85250  1.0000
  C   C108      1.0  0.03157  0.54450  0.84583  1.0000
  H   H47       1.0  0.99055  0.56871  0.74639  1.0000
  O  Te35      1.0  0.94692  0.42716  0.58087  1.0000
  O  Te36      1.0  0.01886  0.43410  0.77297  1.0000
  H   H48       1.0  0.05328  0.57480  0.91393  1.0000
  Mg  Mg18      1.0  0.97112  0.38806  0.63069  1.0000
