data_image0
_chemical_formula_structural       H72C144O48SnCSn2CSnTe4Mg2SnCSn2CSnTe4Mg2SnCSn2CSnTe4Mg2SnCSn2CSnTe4Mg2SnCSn2CSnTe4Mg2SnCSn2CSnTe4Mg2SnCSn2CSnTe4Mg2SnCSn2CSnTe4Mg2SnCSn2CSnTe4Mg2SnCSn2CSnTe4Mg2SnCSn2CSnTe4Mg2SnCSn2CSnTe4Mg2SnCSn2CSnTe4Mg2SnCSn2CSnTe4Mg2SnCSn2CSnTe4Mg2SnCSn2CSnTe4Mg2SnCSn2CSnTe4Mg2SnCSn2CSnTe4Mg2
_chemical_formula_sum              "H72 C180 O48 Sn72 Te72 Mg36"
_cell_length_a       37.069
_cell_length_b       37.2001
_cell_length_c       9.95669
_cell_angle_alpha    89.8779
_cell_angle_beta     89.4711
_cell_angle_gamma    119.927

_symmetry_space_group_name_H-M    'P1'
_space_group_IT_number       1

loop_
  _space_group_symop_operation_xyz
  'x, y, z'

loop_
  _atom_site_type_symbol
  _atom_site_label
  _atom_site_symmetry_multiplicity
  _atom_site_fract_x
  _atom_site_fract_y
  _atom_site_fract_z
  _atom_site_occupancy
  H   H1        1.0  0.45312  0.70011  0.49829  1.0000
  H   H2        1.0  0.30128  0.75291  0.45515  1.0000
  H   H3        1.0  0.25035  0.55207  0.44144  1.0000
  H   H4        1.0  0.54736  0.30265  0.02239  1.0000
  H   H5        1.0  0.58417  0.74885  0.43064  1.0000
  H   H6        1.0  0.25062  0.83462  0.46443  1.0000
  H   H7        1.0  0.16505  0.42183  0.49907  1.0000
  H   H8        1.0  0.41524  0.25194  0.06577  1.0000
  H   H9        1.0  0.59591  0.82117  0.44526  1.0000
  H   H10       1.0  0.17853  0.77312  0.48284  1.0000
  H   H11       1.0  0.22530  0.40960  0.52695  1.0000
  H   H12       1.0  0.40476  0.18003  0.05215  1.0000
  H   H13       1.0  0.46446  0.77256  0.50102  1.0000
  H   H14       1.0  0.22899  0.69132  0.46018  1.0000
  H   H15       1.0  0.31058  0.53944  0.46073  1.0000
  H   H16       1.0  0.53717  0.23062  0.02035  1.0000
  H   H17       1.0  0.47354  0.88817  0.05743  1.0000
  H   H18       1.0  0.66096  0.56130  0.22924  1.0000
  H   H19       1.0  0.33842  0.44280  0.27562  1.0000
  H   H20       1.0  0.60136  0.56680  0.30789  1.0000
  H   H21       1.0  0.39747  0.43739  0.19017  1.0000
  H   H22       1.0  0.43339  0.99685  0.46929  1.0000
  H   H23       1.0  0.00013  0.43513  0.46584  1.0000
  H   H24       1.0  0.43374  0.43419  0.04544  1.0000
  H   H25       1.0  0.56600  0.00342  0.03289  1.0000
  H   H26       1.0  0.99736  0.56460  0.04128  1.0000
  H   H27       1.0  0.06261  0.42643  0.02086  1.0000
  H   H28       1.0  0.63823  0.06491  0.47597  1.0000
  H   H29       1.0  0.93751  0.57446  0.47368  1.0000
  H   H30       1.0  0.52142  0.46836  0.04235  1.0000
  H   H31       1.0  0.47778  0.52904  0.47358  1.0000
  H   H32       1.0  0.44043  0.92962  0.12820  1.0000
  H   H33       1.0  0.07260  0.50957  0.12800  1.0000
  H   H34       1.0  0.51031  0.43885  0.37508  1.0000
  H   H35       1.0  0.56358  0.07349  0.37332  1.0000
  H   H36       1.0  0.92612  0.48607  0.37318  1.0000
  H   H37       1.0  0.37226  0.86960  0.19093  1.0000
  H   H38       1.0  0.13282  0.50446  0.20464  1.0000
  H   H39       1.0  0.50218  0.37151  0.30771  1.0000
  H   H40       1.0  0.63050  0.13318  0.29906  1.0000
  H   H41       1.0  0.86590  0.49317  0.30837  1.0000
  H   H42       1.0  0.45433  0.70102  0.91205  1.0000
  H   H43       1.0  0.54370  0.29894  0.48610  1.0000
  H   H44       1.0  0.70009  0.25292  0.53031  1.0000
  H   H45       1.0  0.58307  0.74763  0.00529  1.0000
  H   H46       1.0  0.41307  0.24871  0.56574  1.0000
  H   H47       1.0  0.74710  0.16812  0.52706  1.0000
  H   H48       1.0  0.59339  0.81939  0.02443  1.0000
  H   H49       1.0  0.40224  0.17677  0.55107  1.0000
  H   H50       1.0  0.82002  0.22808  0.50758  1.0000
  H   H51       1.0  0.46539  0.77306  0.92202  1.0000
  H   H52       1.0  0.53351  0.22702  0.48198  1.0000
  H   H53       1.0  0.77324  0.31303  0.52220  1.0000
  H   H54       1.0  0.41793  0.53473  0.55942  1.0000
  H   H55       1.0  0.58169  0.46246  0.96449  1.0000
  H   H56       1.0  0.55358  0.89456  0.73133  1.0000
  H   H57       1.0  0.55894  0.95920  0.65300  1.0000
  H   H58       1.0  0.00314  0.43611  0.96549  1.0000
  H   H59       1.0  0.57017  0.00473  0.53848  1.0000
  H   H60       1.0  0.99695  0.56591  0.53797  1.0000
  H   H61       1.0  0.36403  0.93734  0.52818  1.0000
  H   H62       1.0  0.05998  0.42797  0.53808  1.0000
  H   H63       1.0  0.42346  0.36527  0.98307  1.0000
  H   H64       1.0  0.63433  0.06248  0.96313  1.0000
  H   H65       1.0  0.93774  0.57373  0.98114  1.0000
  H   H66       1.0  0.47943  0.95432  0.97834  1.0000
  H   H67       1.0  0.07469  0.51811  0.64091  1.0000
  H   H68       1.0  0.55813  0.07529  0.86013  1.0000
  H   H69       1.0  0.92442  0.48705  0.86782  1.0000
  H   H70       1.0  0.13492  0.50997  0.70074  1.0000
  H   H71       1.0  0.62511  0.13625  0.79236  1.0000
  H   H72       1.0  0.86434  0.49377  0.79838  1.0000
  C   C1        1.0  0.48409  0.72695  0.48578  1.0000
  C   C2        1.0  0.27409  0.75678  0.45962  1.0000
  C   C3        1.0  0.24542  0.52110  0.45978  1.0000
  C   C4        1.0  0.51645  0.27547  0.02983  1.0000
  C   C5        1.0  0.55825  0.75417  0.44844  1.0000
  C   C6        1.0  0.24570  0.80328  0.46566  1.0000
  C   C7        1.0  0.19688  0.44744  0.49281  1.0000
  C   C8        1.0  0.44164  0.24707  0.05348  1.0000
  C   C9        1.0  0.50845  0.67667  0.45095  1.0000
  C   C10       1.0  0.32349  0.83222  0.44558  1.0000
  C   C11       1.0  0.17026  0.49706  0.44538  1.0000
  C   C12       1.0  0.49054  0.32462  0.05834  1.0000
  C   C13       1.0  0.67636  0.16946  0.04061  1.0000
  C   C14       1.0  0.82990  0.50572  0.06190  1.0000
  C   C15       1.0  0.51773  0.72024  0.46325  1.0000
  C   C16       1.0  0.28010  0.79716  0.45810  1.0000
  C   C17       1.0  0.20438  0.48778  0.46781  1.0000
  C   C18       1.0  0.48210  0.28138  0.04564  1.0000
  C   C19       1.0  0.56487  0.79435  0.45569  1.0000
  C   C20       1.0  0.20566  0.76922  0.47521  1.0000
  C   C21       1.0  0.23022  0.44055  0.50812  1.0000
  C   C22       1.0  0.43575  0.20715  0.04657  1.0000
  C   C23       1.0  0.49051  0.76715  0.48794  1.0000
  C   C24       1.0  0.23398  0.72268  0.46334  1.0000
  C   C25       1.0  0.27875  0.51403  0.47118  1.0000
  C   C26       1.0  0.51068  0.23553  0.02810  1.0000
  C   C27       1.0  0.54035  0.84476  0.46972  1.0000
  C   C28       1.0  0.15597  0.69389  0.47258  1.0000
  C   C29       1.0  0.30528  0.46354  0.49902  1.0000
  C   C30       1.0  0.46189  0.15786  0.04119  1.0000
  C   C31       1.0  0.84495  0.30556  0.01252  1.0000
  C   C32       1.0  0.69356  0.53708  0.00772  1.0000
  C   C33       1.0  0.53102  0.80100  0.47258  1.0000
  C   C34       1.0  0.19959  0.72883  0.47157  1.0000
  C   C35       1.0  0.27124  0.47361  0.49483  1.0000
  C   C36       1.0  0.47024  0.20124  0.03707  1.0000
  C   C37       1.0  0.41412  0.51401  0.47713  1.0000
  C   C38       1.0  0.58540  0.48482  0.04106  1.0000
  C   C39       1.0  0.51885  0.51751  0.24644  1.0000
  C   C40       1.0  0.48349  0.00328  0.24891  1.0000
  C   C41       1.0  0.99711  0.47971  0.24652  1.0000
  C   C42       1.0  0.47979  0.48324  0.25941  1.0000
  C   C43       1.0  0.51820  0.99894  0.25544  1.0000
  C   C44       1.0  0.00161  0.51867  0.25590  1.0000
  C   C45       1.0  0.63034  0.54090  0.18828  1.0000
  C   C46       1.0  0.36903  0.46189  0.31865  1.0000
  C   C47       1.0  0.59606  0.54361  0.23305  1.0000
  C   C48       1.0  0.40292  0.45907  0.27051  1.0000
  C   C49       1.0  0.44346  0.48453  0.31963  1.0000
  C   C50       1.0  0.55543  0.51628  0.18791  1.0000
  C   C51       1.0  0.41958  0.96996  0.40398  1.0000
  C   C52       1.0  0.02831  0.44880  0.40418  1.0000
  C   C53       1.0  0.44717  0.41991  0.10773  1.0000
  C   C54       1.0  0.58070  0.03083  0.09580  1.0000
  C   C55       1.0  0.96953  0.55045  0.10456  1.0000
  C   C56       1.0  0.38076  0.93632  0.43942  1.0000
  C   C57       1.0  0.06215  0.44519  0.44721  1.0000
  C   C58       1.0  0.44182  0.38138  0.07017  1.0000
  C   C59       1.0  0.61888  0.06425  0.05411  1.0000
  C   C60       1.0  0.93582  0.55519  0.06826  1.0000
  C   C61       1.0  0.47187  0.44128  0.21818  1.0000
  C   C62       1.0  0.56007  0.03343  0.21142  1.0000
  C   C63       1.0  0.96678  0.52568  0.21540  1.0000
  C   C64       1.0  0.44164  0.96832  0.29072  1.0000
  C   C65       1.0  0.03147  0.47228  0.28927  1.0000
  C   C66       1.0  0.46194  0.36465  0.14239  1.0000
  C   C67       1.0  0.63618  0.10077  0.12742  1.0000
  C   C68       1.0  0.89888  0.53437  0.14190  1.0000
  C   C69       1.0  0.36430  0.90069  0.36193  1.0000
  C   C70       1.0  0.09958  0.46577  0.37592  1.0000
  C   C71       1.0  0.55154  0.48814  0.08646  1.0000
  C   C72       1.0  0.44764  0.51074  0.42766  1.0000
  C   C73       1.0  0.62448  0.51077  0.09468  1.0000
  C   C74       1.0  0.37516  0.49010  0.41996  1.0000
  C   C75       1.0  0.42385  0.93171  0.21539  1.0000
  C   C76       1.0  0.06938  0.49147  0.21763  1.0000
  C   C77       1.0  0.49110  0.42297  0.28949  1.0000
  C   C78       1.0  0.57891  0.07062  0.28389  1.0000
  C   C79       1.0  0.92904  0.50553  0.28775  1.0000
  C   C80       1.0  0.38548  0.89777  0.25019  1.0000
  C   C81       1.0  0.10356  0.48870  0.26032  1.0000
  C   C82       1.0  0.48666  0.38499  0.25210  1.0000
  C   C83       1.0  0.61665  0.10443  0.24258  1.0000
  C   C84       1.0  0.89495  0.50938  0.25168  1.0000
  C   C85       1.0  0.48467  0.72725  0.93557  1.0000
  C   C86       1.0  0.51304  0.27186  0.50111  1.0000
  C   C87       1.0  0.72670  0.24807  0.52656  1.0000
  C   C88       1.0  0.55737  0.75326  0.98850  1.0000
  C   C89       1.0  0.43916  0.24382  0.54544  1.0000
  C   C90       1.0  0.75302  0.19981  0.52400  1.0000
  C   C91       1.0  0.50903  0.67647  0.94274  1.0000
  C   C92       1.0  0.32357  0.83116  0.94992  1.0000
  C   C93       1.0  0.16892  0.49153  0.95586  1.0000
  C   C94       1.0  0.48861  0.32176  0.54211  1.0000
  C   C95       1.0  0.67584  0.17320  0.55037  1.0000
  C   C96       1.0  0.82932  0.50591  0.54553  1.0000
  C   C97       1.0  0.51796  0.72001  0.95656  1.0000
  C   C98       1.0  0.47934  0.27815  0.52816  1.0000
  C   C99       1.0  0.71948  0.20727  0.53196  1.0000
  C   C100      1.0  0.56324  0.79319  0.99897  1.0000
  C   C101      1.0  0.43307  0.20377  0.53761  1.0000
  C   C102      1.0  0.79351  0.23302  0.51354  1.0000
  C   C103      1.0  0.49086  0.76732  0.94188  1.0000
  C   C104      1.0  0.50722  0.23189  0.49803  1.0000
  C   C105      1.0  0.76727  0.28132  0.52122  1.0000
  C   C106      1.0  0.53946  0.84448  0.97506  1.0000
  C   C107      1.0  0.15566  0.69321  0.97446  1.0000
  C   C108      1.0  0.30458  0.45791  0.98894  1.0000
  C   C109      1.0  0.45898  0.15416  0.52275  1.0000
  C   C110      1.0  0.84490  0.30794  0.51970  1.0000
  C   C111      1.0  0.69092  0.53452  0.49269  1.0000
  C   C112      1.0  0.53032  0.80066  0.97331  1.0000
  C   C113      1.0  0.46716  0.19760  0.51724  1.0000
  C   C114      1.0  0.80087  0.27386  0.51610  1.0000
  C   C115      1.0  0.49170  0.90382  0.96795  1.0000
  C   C116      1.0  0.51993  0.51623  0.75264  1.0000
  C   C117      1.0  0.48343  0.00326  0.75268  1.0000
  C   C118      1.0  0.99801  0.48197  0.75091  1.0000
  C   C119      1.0  0.48086  0.48187  0.75884  1.0000
  C   C120      1.0  0.51834  0.99931  0.75346  1.0000
  C   C121      1.0  0.00107  0.52032  0.75414  1.0000
  C   C122      1.0  0.53721  0.90756  0.78561  1.0000
  C   C123      1.0  0.54003  0.94448  0.74158  1.0000
  C   C124      1.0  0.51791  0.96139  0.80578  1.0000
  C   C125      1.0  0.03095  0.45086  0.90216  1.0000
  C   C126      1.0  0.58265  0.03244  0.59981  1.0000
  C   C127      1.0  0.96895  0.55154  0.60030  1.0000
  C   C128      1.0  0.06467  0.44578  0.93592  1.0000
  C   C129      1.0  0.62080  0.06657  0.56170  1.0000
  C   C130      1.0  0.93522  0.55597  0.56138  1.0000
  C   C131      1.0  0.55953  0.03474  0.70881  1.0000
  C   C132      1.0  0.96594  0.52668  0.71124  1.0000
  C   C133      1.0  0.03363  0.47643  0.79384  1.0000
  C   C134      1.0  0.63552  0.10361  0.63088  1.0000
  C   C135      1.0  0.89781  0.53487  0.63238  1.0000
  C   C136      1.0  0.10165  0.46701  0.86277  1.0000
  C   C137      1.0  0.49499  0.94085  0.92251  1.0000
  C   C138      1.0  0.51241  0.88711  0.89722  1.0000
  C   C139      1.0  0.07170  0.49764  0.72330  1.0000
  C   C140      1.0  0.57570  0.07270  0.77663  1.0000
  C   C141      1.0  0.92775  0.50643  0.78168  1.0000
  C   C142      1.0  0.10577  0.49336  0.75682  1.0000
  C   C143      1.0  0.61328  0.10720  0.73855  1.0000
  C   C144      1.0  0.89367  0.51008  0.74312  1.0000
  O   O1        1.0  0.54305  0.67501  0.40652  1.0000
  O   O2        1.0  0.32445  0.86725  0.39440  1.0000
  O   O3        1.0  0.13311  0.46125  0.42005  1.0000
  O   O4        1.0  0.45587  0.32544  0.10621  1.0000
  O   O5        1.0  0.67531  0.13388  0.08684  1.0000
  O   O6        1.0  0.86551  0.54028  0.10603  1.0000
  O   O7        1.0  0.47480  0.64598  0.47431  1.0000
  O   O8        1.0  0.35457  0.83061  0.47387  1.0000
  O   O9        1.0  0.17430  0.53165  0.44716  1.0000
  O   O10       1.0  0.52371  0.35566  0.03273  1.0000
  O   O11       1.0  0.64539  0.17211  0.02002  1.0000
  O   O12       1.0  0.82706  0.47194  0.04572  1.0000
  O   O13       1.0  0.50571  0.84724  0.43372  1.0000
  O   O14       1.0  0.15386  0.65785  0.42678  1.0000
  O   O15       1.0  0.34285  0.49728  0.45981  1.0000
  O   O16       1.0  0.49620  0.15618  0.08597  1.0000
  O   O17       1.0  0.84737  0.34214  0.05330  1.0000
  O   O18       1.0  0.65744  0.50404  0.05940  1.0000
  O   O19       1.0  0.57426  0.87468  0.49307  1.0000
  O   O20       1.0  0.12567  0.69646  0.50664  1.0000
  O   O21       1.0  0.30095  0.42987  0.52964  1.0000
  O   O22       1.0  0.42895  0.12738  0.01261  1.0000
  O   O23       1.0  0.87513  0.30188  0.98652  1.0000
  O   O24       1.0  0.69631  0.56930  0.96725  1.0000
  O   O25       1.0  0.54456  0.67448  0.91297  1.0000
  O   O26       1.0  0.32496  0.86710  0.90577  1.0000
  O   O27       1.0  0.13472  0.45991  0.89329  1.0000
  O   O28       1.0  0.45479  0.32358  0.59360  1.0000
  O   O29       1.0  0.67461  0.13718  0.59308  1.0000
  O   O30       1.0  0.86433  0.54041  0.59336  1.0000
  O   O31       1.0  0.47447  0.64603  0.95386  1.0000
  O   O32       1.0  0.35451  0.82876  0.97365  1.0000
  O   O33       1.0  0.17082  0.52364  0.99295  1.0000
  O   O34       1.0  0.52188  0.35236  0.51377  1.0000
  O   O35       1.0  0.64502  0.17629  0.53271  1.0000
  O   O36       1.0  0.82721  0.47254  0.52673  1.0000
  O   O37       1.0  0.50558  0.84750  0.93333  1.0000
  O   O38       1.0  0.15351  0.65665  0.93440  1.0000
  O   O39       1.0  0.34277  0.49320  0.96658  1.0000
  O   O40       1.0  0.49455  0.15274  0.55361  1.0000
  O   O41       1.0  0.84744  0.34360  0.57082  1.0000
  O   O42       1.0  0.65468  0.50046  0.53934  1.0000
  O   O43       1.0  0.57258  0.87427  0.00677  1.0000
  O   O44       1.0  0.12529  0.69653  0.00042  1.0000
  O   O45       1.0  0.29990  0.42326  0.00085  1.0000
  O   O46       1.0  0.42510  0.12344  0.50628  1.0000
  O   O47       1.0  0.87500  0.30497  0.48634  1.0000
  O   O48       1.0  0.69346  0.56733  0.46055  1.0000
  C  Sn1       1.0  0.53463  0.93261  0.22761  1.0000
  C   C145      1.0  0.51415  0.95259  0.27955  1.0000
  C  Sn2       1.0  0.49405  0.94091  0.40459  1.0000
  C  Sn3       1.0  0.49445  0.90861  0.47932  1.0000
  C   C146      1.0  0.51493  0.88866  0.42739  1.0000
  C  Sn4       1.0  0.53503  0.90032  0.30234  1.0000
  O  Te1       1.0  0.55452  0.94480  0.10240  1.0000
  O  Te2       1.0  0.47377  0.96132  0.45441  1.0000
  O  Te3       1.0  0.47454  0.89643  0.60461  1.0000
  O  Te4       1.0  0.55530  0.87993  0.25253  1.0000
  Mg  Mg1       1.0  0.45116  0.93359  0.62983  1.0000
  Mg  Mg2       1.0  0.57794  0.90764  0.07716  1.0000
  C  Sn5       1.0  0.90919  0.37699  0.24043  1.0000
  C   C147      1.0  0.88418  0.37582  0.13443  1.0000
  C  Sn6       1.0  0.89909  0.40832  0.04105  1.0000
  C  Sn7       1.0  0.93986  0.44271  0.05381  1.0000
  C   C148      1.0  0.96485  0.44387  0.15974  1.0000
  C  Sn8       1.0  0.94996  0.41137  0.25320  1.0000
  O  Te5       1.0  0.89364  0.34414  0.33262  1.0000
  O  Te6       1.0  0.86983  0.40406  0.93595  1.0000
  O  Te7       1.0  0.95172  0.47317  0.96151  1.0000
  O  Te8       1.0  0.97552  0.41322  0.35822  1.0000
  Mg  Mg3       1.0  0.90504  0.45637  0.83568  1.0000
  Mg  Mg4       1.0  0.94035  0.36093  0.45850  1.0000
  C  Sn9       1.0  0.77570  0.56106  0.97524  1.0000
  C   C149      1.0  0.73350  0.53117  0.96962  1.0000
  C  Sn10      1.0  0.72339  0.49289  0.01198  1.0000
  C  Sn11      1.0  0.75238  0.48185  0.06106  1.0000
  C   C150      1.0  0.79455  0.51173  0.06668  1.0000
  C  Sn12      1.0  0.80837  0.55242  0.02432  1.0000
  O  Te9       1.0  0.78879  0.60155  0.93237  1.0000
  O  Te10      1.0  0.68104  0.46354  0.00537  1.0000
  O  Te11      1.0  0.73925  0.44132  0.10394  1.0000
  O  Te12      1.0  0.85069  0.58175  0.03093  1.0000
  Mg  Mg5       1.0  0.67840  0.41243  0.07550  1.0000
  Mg  Mg6       1.0  0.84968  0.63048  0.96090  1.0000
  C  Sn13      1.0  0.51693  0.59004  0.70380  1.0000
  C   C151      1.0  0.53366  0.56754  0.76271  1.0000
  C  Sn14      1.0  0.55108  0.57779  0.89045  1.0000
  C  Sn15      1.0  0.55175  0.61123  0.96082  1.0000
  C   C152      1.0  0.53501  0.63371  0.90192  1.0000
  C  Sn16      1.0  0.51760  0.62348  0.77417  1.0000
  O  Te13      1.0  0.49967  0.57924  0.57600  1.0000
  O  Te14      1.0  0.56763  0.55485  0.94726  1.0000
  O  Te15      1.0  0.57270  0.62442  0.08871  1.0000
  O  Te16      1.0  0.50104  0.64640  0.71737  1.0000
  Mg  Mg7       1.0  0.59136  0.58388  0.12379  1.0000
  Mg  Mg8       1.0  0.48097  0.61978  0.54089  1.0000
  C  Sn17      1.0  0.51723  0.07343  0.57810  1.0000
  C   C153      1.0  0.49661  0.05091  0.69376  1.0000
  C  Sn18      1.0  0.46767  0.05841  0.76005  1.0000
  C  Sn19      1.0  0.45912  0.08904  0.70965  1.0000
  C   C154      1.0  0.47973  0.11154  0.59404  1.0000
  C  Sn20      1.0  0.50868  0.10407  0.52769  1.0000
  O  Te17      1.0  0.54605  0.06541  0.51345  1.0000
  O  Te18      1.0  0.44746  0.03550  0.87554  1.0000
  O  Te19      1.0  0.43028  0.09705  0.77441  1.0000
  O  Te20      1.0  0.52888  0.12695  0.41227  1.0000
  Mg  Mg9       1.0  0.41077  0.05774  0.92811  1.0000
  Mg  Mg10      1.0  0.56555  0.10472  0.35958  1.0000
  C  Sn21      1.0  0.41108  0.92590  0.70049  1.0000
  C   C155      1.0  0.43244  0.96472  0.76148  1.0000
  C  Sn22      1.0  0.42087  0.97063  0.88986  1.0000
  C  Sn23      1.0  0.38727  0.93703  0.95877  1.0000
  C   C156      1.0  0.36594  0.89823  0.89780  1.0000
  C  Sn24      1.0  0.37748  0.89230  0.76940  1.0000
  O  Te21      1.0  0.42318  0.92070  0.57207  1.0000
  O  Te22      1.0  0.94202  0.00973  0.94876  1.0000
  O  Te23      1.0  0.37886  0.94466  0.08728  1.0000
  O  Te24      1.0  0.35569  0.85322  0.71052  1.0000
  Mg  Mg11      1.0  0.91752  0.00376  0.12537  1.0000
  Mg  Mg12      1.0  0.38386  0.86156  0.53395  1.0000
  C  Sn25      1.0  0.46580  0.08891  0.25597  1.0000
  C   C157      1.0  0.49206  0.11740  0.15893  1.0000
  C  Sn26      1.0  0.51239  0.10594  0.06402  1.0000
  C  Sn27      1.0  0.50633  0.06516  0.06609  1.0000
  C   C158      1.0  0.48007  0.03671  0.16307  1.0000
  C  Sn28      1.0  0.45973  0.04813  0.25804  1.0000
  O  Te25      1.0  0.44579  0.10104  0.34988  1.0000
  O  Te26      1.0  0.53483  0.13256  0.96801  1.0000
  O  Te27      1.0  0.52268  0.05066  0.97208  1.0000
  O  Te28      1.0  0.43362  0.01914  0.35399  1.0000
  Mg  Mg13      1.0  0.55516  0.10127  0.86122  1.0000
  Mg  Mg14      1.0  0.41326  0.05039  0.46078  1.0000
  C  Sn29      1.0  0.55354  0.48053  0.57502  1.0000
  C   C159      1.0  0.55334  0.50231  0.68894  1.0000
  C  Sn30      1.0  0.59072  0.53121  0.74784  1.0000
  C  Sn31      1.0  0.62912  0.53850  0.69165  1.0000
  C   C160      1.0  0.62931  0.51674  0.57778  1.0000
  C  Sn32      1.0  0.59194  0.48783  0.51883  1.0000
  O  Te29      1.0  0.51579  0.45179  0.51780  1.0000
  O  Te30      1.0  0.58973  0.55259  0.86172  1.0000
  O  Te31      1.0  0.66689  0.56727  0.74898  1.0000
  O  Te32      1.0  0.59292  0.46646  0.40501  1.0000
  Mg  Mg15      1.0  0.64938  0.58866  0.90331  1.0000
  Mg  Mg16      1.0  0.53329  0.43040  0.36330  1.0000
  C  Sn33      1.0  0.19932  0.43467  0.98787  1.0000
  C   C161      1.0  0.20341  0.47469  0.00020  1.0000
  C  Sn34      1.0  0.23739  0.50979  0.99806  1.0000
  C  Sn35      1.0  0.27543  0.50969  0.98321  1.0000
  C   C162      1.0  0.27501  0.47209  0.97086  1.0000
  C  Sn36      1.0  0.23736  0.43458  0.97301  1.0000
  O  Te33      1.0  0.16131  0.39756  0.99026  1.0000
  O  Te34      1.0  0.24069  0.54940  0.01061  1.0000
  O  Te35      1.0  0.31345  0.54685  0.98082  1.0000
  O  Te36      1.0  0.23773  0.39738  0.96045  1.0000
  Mg  Mg17      1.0  0.30048  0.59191  0.00147  1.0000
  Mg  Mg18      1.0  0.17796  0.35486  0.96950  1.0000
  C  Sn37      1.0  0.42595  0.52011  0.95634  1.0000
  C   C163      1.0  0.38501  0.50028  0.91052  1.0000
  C  Sn38      1.0  0.37106  0.46691  0.82236  1.0000
  C  Sn39      1.0  0.39860  0.45305  0.77916  1.0000
  C   C164      1.0  0.43952  0.47286  0.82498  1.0000
  C  Sn40      1.0  0.45350  0.50624  0.91313  1.0000
  O  Te37      1.0  0.44291  0.55580  0.04444  1.0000
  O  Te38      1.0  0.32999  0.44760  0.77790  1.0000
  O  Te39      1.0  0.38530  0.41973  0.69098  1.0000
  O  Te40      1.0  0.49454  0.52555  0.95761  1.0000
  Mg  Mg19      1.0  0.32652  0.40350  0.65853  1.0000
  Mg  Mg20      1.0  0.50172  0.57203  0.07702  1.0000
  C  Sn41      1.0  0.72471  0.48173  0.54543  1.0000
  C   C165      1.0  0.72464  0.51915  0.53405  1.0000
  C  Sn42      1.0  0.76128  0.55580  0.50139  1.0000
  C  Sn43      1.0  0.79875  0.55504  0.47958  1.0000
  C   C166      1.0  0.79880  0.51764  0.49095  1.0000
  C  Sn44      1.0  0.76218  0.48097  0.52362  1.0000
  O  Te41      1.0  0.68772  0.44546  0.57817  1.0000
  O  Te42      1.0  0.76044  0.59284  0.49062  1.0000
  O  Te43      1.0  0.83575  0.59135  0.44683  1.0000
  O  Te44      1.0  0.76300  0.44395  0.53437  1.0000
  Mg  Mg21      1.0  0.81882  0.63408  0.44374  1.0000
  Mg  Mg22      1.0  0.70464  0.40269  0.58118  1.0000
  C  Sn45      1.0  0.91716  0.41963  0.51596  1.0000
  C   C167      1.0  0.89573  0.37952  0.57003  1.0000
  C  Sn46      1.0  0.90523  0.37140  0.69799  1.0000
  C  Sn47      1.0  0.93679  0.40405  0.77352  1.0000
  C   C168      1.0  0.95820  0.44413  0.71945  1.0000
  C  Sn48      1.0  0.94872  0.45228  0.59149  1.0000
  O  Te45      1.0  0.90715  0.42704  0.38784  1.0000
  O  Te46      1.0  0.88339  0.33105  0.74990  1.0000
  O  Te47      1.0  0.94680  0.39660  0.90172  1.0000
  O  Te48      1.0  0.97054  0.49260  0.53958  1.0000
  Mg  Mg23      1.0  0.90832  0.33648  0.92899  1.0000
  Mg  Mg24      1.0  0.94562  0.48721  0.36054  1.0000
  C  Sn49      1.0  0.24716  0.73011  0.01808  1.0000
  C   C169      1.0  0.20941  0.72991  0.01168  1.0000
  C  Sn50      1.0  0.20482  0.76287  0.96939  1.0000
  C  Sn51      1.0  0.24242  0.79919  0.93263  1.0000
  C   C170      1.0  0.28013  0.79938  0.93901  1.0000
  C  Sn52      1.0  0.28107  0.76403  0.98132  1.0000
  O  Te49      1.0  0.24733  0.69440  0.06065  1.0000
  O  Te50      1.0  0.16670  0.76192  0.96387  1.0000
  O  Te51      1.0  0.24222  0.83491  0.89004  1.0000
  O  Te52      1.0  0.31916  0.76497  0.98683  1.0000
  Mg  Mg25      1.0  0.18254  0.81834  0.89933  1.0000
  Mg  Mg26      1.0  0.30704  0.71096  0.05127  1.0000
  C  Sn53      1.0  0.54349  0.58266  0.44042  1.0000
  C   C171      1.0  0.52117  0.55820  0.33174  1.0000
  C  Sn54      1.0  0.50925  0.57513  0.22755  1.0000
  C  Sn55      1.0  0.51989  0.61740  0.23203  1.0000
  C   C172      1.0  0.54220  0.64183  0.34064  1.0000
  C  Sn56      1.0  0.55413  0.62493  0.44490  1.0000
  O  Te53      1.0  0.55509  0.56509  0.54346  1.0000
  O  Te54      1.0  0.48693  0.55006  0.11997  1.0000
  O  Te55      1.0  0.50827  0.63496  0.12886  1.0000
  O  Te56      1.0  0.57644  0.64998  0.55241  1.0000
  Mg  Mg27      1.0  0.47820  0.58823  0.00374  1.0000
  Mg  Mg28      1.0  0.58521  0.61184  0.66866  1.0000
  C  Sn57      1.0  0.05906  0.56417  0.96554  1.0000
  C   C173      1.0  0.03689  0.56214  0.85030  1.0000
  C  Sn58      1.0  0.05586  0.59143  0.74730  1.0000
  C  Sn59      1.0  0.09787  0.62342  0.75968  1.0000
  C   C174      1.0  0.12002  0.62544  0.87485  1.0000
  C  Sn60      1.0  0.10107  0.59616  0.97792  1.0000
  O  Te57      1.0  0.04315  0.53695  0.06725  1.0000
  O  Te58      1.0  0.03306  0.58877  0.63307  1.0000
  O  Te59      1.0  0.11746  0.65305  0.65784  1.0000
  O  Te60      1.0  0.12753  0.60121  0.09208  1.0000
  Mg  Mg29      1.0  0.07344  0.63635  0.52173  1.0000
  Mg  Mg30      1.0  0.08719  0.55363  0.20345  1.0000
  C  Sn61      1.0  0.43496  0.40550  0.61389  1.0000
  C   C175      1.0  0.46030  0.43119  0.71587  1.0000
  C  Sn62      1.0  0.48995  0.42369  0.77515  1.0000
  C  Sn63      1.0  0.49438  0.38981  0.73154  1.0000
  C   C176      1.0  0.46906  0.36414  0.62960  1.0000
  C  Sn64      1.0  0.43940  0.37162  0.57027  1.0000
  O  Te61      1.0  0.40553  0.41358  0.55605  1.0000
  O  Te62      1.0  0.51491  0.44980  0.87697  1.0000
  O  Te63      1.0  0.52384  0.38175  0.78948  1.0000
  O  Te64      1.0  0.41445  0.34553  0.46850  1.0000
  Mg  Mg31      1.0  0.55055  0.42610  0.92463  1.0000
  Mg  Mg32      1.0  0.37882  0.36922  0.42072  1.0000
  C  Sn65      1.0  0.07552  0.62699  0.31312  1.0000
  C   C177      1.0  0.10419  0.62822  0.40581  1.0000
  C  Sn66      1.0  0.10254  0.59162  0.44835  1.0000
  C  Sn67      1.0  0.07159  0.55296  0.39712  1.0000
  C   C178      1.0  0.04295  0.55174  0.30448  1.0000
  C  Sn68      1.0  0.04457  0.58833  0.26189  1.0000
  O  Te65      1.0  0.07776  0.66397  0.27200  1.0000
  O  Te66      1.0  0.13153  0.59364  0.54113  1.0000
  O  Te67      1.0  0.06937  0.51597  0.43833  1.0000
  O  Te68      1.0  0.01561  0.58633  0.16915  1.0000
  Mg  Mg33      1.0  0.11578  0.53476  0.56638  1.0000
  Mg  Mg34      1.0  0.03134  0.64518  0.14379  1.0000
  C  Sn69      1.0  0.73006  0.25115  0.97660  1.0000
  C   C179      1.0  0.71773  0.20900  0.97950  1.0000
  C  Sn70      1.0  0.75008  0.19865  0.00953  1.0000
  C  Sn71      1.0  0.79194  0.22867  0.03731  1.0000
  C   C180      1.0  0.80425  0.27079  0.03442  1.0000
  C  Sn72      1.0  0.77561  0.28356  0.00438  1.0000
  O  Te69      1.0  0.70088  0.26319  0.94635  1.0000
  O  Te70      1.0  0.73702  0.15634  0.01178  1.0000
  O  Te71      1.0  0.82113  0.21659  0.06757  1.0000
  O  Te72      1.0  0.78865  0.32585  0.00214  1.0000
  Mg  Mg35      1.0  0.78832  0.15534  0.05837  1.0000
  Mg  Mg36      1.0  0.73369  0.32448  0.95564  1.0000
