data_image0
_chemical_formula_structural       H60C108O24C2Sn2C2HTe2HMgC2Sn2C2HTe2HMgC2Sn2C2HTe2HMgC2Sn2C2HTe2HMgC2Sn2C2HTe2HMgC2Sn2C2HTe2HMgC2Sn2C2HTe2HMgC2Sn2C2HTe2HMgC2Sn2C2HTe2HMgC2Sn2C2HTe2HMgC2Sn2C2HTe2HMgC2Sn2C2HTe2HMg
_chemical_formula_sum              "H84 C156 O24 Sn24 Te24 Mg12"
_cell_length_a       41.2066
_cell_length_b       41.6606
_cell_length_c       8.09123
_cell_angle_alpha    90.5662
_cell_angle_beta     89.7815
_cell_angle_gamma    120.184

_symmetry_space_group_name_H-M    'P1'
_space_group_IT_number       1

loop_
  _space_group_symop_operation_xyz
  'x, y, z'

loop_
  _atom_site_type_symbol
  _atom_site_label
  _atom_site_symmetry_multiplicity
  _atom_site_fract_x
  _atom_site_fract_y
  _atom_site_fract_z
  _atom_site_occupancy
  H   H1        1.0  0.58195  0.24311  0.37598  1.0000
  H   H2        1.0  0.76151  0.34145  0.37541  1.0000
  H   H3        1.0  0.24387  0.66111  0.12288  1.0000
  H   H4        1.0  0.54684  0.17602  0.31102  1.0000
  H   H5        1.0  0.82913  0.37409  0.31099  1.0000
  H   H6        1.0  0.17586  0.62753  0.17938  1.0000
  H   H7        1.0  0.63929  0.18805  0.01678  1.0000
  H   H8        1.0  0.81655  0.45390  0.02724  1.0000
  H   H9        1.0  0.18837  0.54839  0.46891  1.0000
  H   H10       1.0  0.67453  0.25570  0.07902  1.0000
  H   H11       1.0  0.74818  0.42016  0.08523  1.0000
  H   H12       1.0  0.25690  0.58261  0.41577  1.0000
  H   H13       1.0  0.70607  0.30322  0.25252  1.0000
  H   H14       1.0  0.70036  0.40336  0.24527  1.0000
  H   H15       1.0  0.59897  0.29727  0.24560  1.0000
  H   H16       1.0  0.29772  0.69953  0.25693  1.0000
  H   H17       1.0  0.30618  0.60094  0.25921  1.0000
  H   H18       1.0  0.40606  0.70844  0.27447  1.0000
  H   H19       1.0  0.46653  0.43343  0.28463  1.0000
  H   H20       1.0  0.56583  0.03504  0.28959  1.0000
  H   H21       1.0  0.96751  0.53053  0.34821  1.0000
  H   H22       1.0  0.53174  0.55558  0.11138  1.0000
  H   H23       1.0  0.50549  0.41355  0.43334  1.0000
  H   H24       1.0  0.58439  0.09296  0.44580  1.0000
  H   H25       1.0  0.90944  0.49130  0.50126  1.0000
  H   H26       1.0  0.49249  0.57648  0.97324  1.0000
  H   H27       1.0  0.59638  0.52615  0.45173  1.0000
  H   H28       1.0  0.47014  0.06853  0.44678  1.0000
  H   H29       1.0  0.92513  0.39768  0.43505  1.0000
  H   H30       1.0  0.39305  0.47642  0.11756  1.0000
  H   H31       1.0  0.55691  0.54695  0.31074  1.0000
  H   H32       1.0  0.45071  0.00948  0.29601  1.0000
  H   H33       1.0  0.98297  0.43639  0.27712  1.0000
  H   H34       1.0  0.43207  0.45612  0.26631  1.0000
  H   H35       1.0  0.65581  0.41642  0.85561  1.0000
  H   H36       1.0  0.41832  0.75717  0.63330  1.0000
  H   H37       1.0  0.23893  0.65730  0.62514  1.0000
  H   H38       1.0  0.34051  0.58118  0.62366  1.0000
  H   H39       1.0  0.62336  0.45034  0.78123  1.0000
  H   H40       1.0  0.45302  0.82437  0.69668  1.0000
  H   H41       1.0  0.17104  0.62414  0.68681  1.0000
  H   H42       1.0  0.37369  0.54745  0.69139  1.0000
  H   H43       1.0  0.54376  0.35649  0.49221  1.0000
  H   H44       1.0  0.35928  0.81236  0.98117  1.0000
  H   H45       1.0  0.18397  0.54510  0.97544  1.0000
  H   H46       1.0  0.45250  0.64018  0.98807  1.0000
  H   H47       1.0  0.57757  0.32298  0.56005  1.0000
  H   H48       1.0  0.32463  0.74459  0.92096  1.0000
  H   H49       1.0  0.25243  0.57952  0.92062  1.0000
  H   H50       1.0  0.41855  0.67367  0.92412  1.0000
  H   H51       1.0  0.70234  0.30111  0.75227  1.0000
  H   H52       1.0  0.69465  0.40010  0.74132  1.0000
  H   H53       1.0  0.59436  0.29295  0.73080  1.0000
  H   H54       1.0  0.29384  0.69615  0.75625  1.0000
  H   H55       1.0  0.30087  0.59669  0.75616  1.0000
  H   H56       1.0  0.40155  0.70337  0.75724  1.0000
  H   H57       1.0  0.44100  0.97888  0.60550  1.0000
  H   H58       1.0  0.42185  0.91891  0.46644  1.0000
  H   H59       1.0  0.52209  0.92269  0.63903  1.0000
  H   H60       1.0  0.54057  0.98177  0.78679  1.0000
  C   C1        1.0  0.59474  0.23148  0.29563  1.0000
  C   C2        1.0  0.77308  0.36565  0.29598  1.0000
  C   C3        1.0  0.23211  0.63677  0.20137  1.0000
  C   C4        1.0  0.57464  0.19348  0.26025  1.0000
  C   C5        1.0  0.81152  0.38423  0.26206  1.0000
  C   C6        1.0  0.19351  0.61777  0.23145  1.0000
  C   C7        1.0  0.59107  0.17849  0.15792  1.0000
  C   C8        1.0  0.82659  0.41587  0.16406  1.0000
  C   C9        1.0  0.17835  0.58616  0.32980  1.0000
  C   C10       1.0  0.62753  0.20049  0.09822  1.0000
  C   C11       1.0  0.80412  0.42959  0.10577  1.0000
  C   C12       1.0  0.20087  0.57270  0.39043  1.0000
  C   C13       1.0  0.64719  0.23831  0.13516  1.0000
  C   C14       1.0  0.76583  0.41055  0.13965  1.0000
  C   C15       1.0  0.23928  0.59201  0.35921  1.0000
  C   C16       1.0  0.63086  0.25470  0.23170  1.0000
  C   C17       1.0  0.74937  0.37777  0.23271  1.0000
  C   C18       1.0  0.25583  0.62497  0.26759  1.0000
  C   C19       1.0  0.65028  0.29549  0.25296  1.0000
  C   C20       1.0  0.70813  0.35594  0.25293  1.0000
  C   C21       1.0  0.64706  0.35253  0.24892  1.0000
  C   C22       1.0  0.35400  0.70868  0.26164  1.0000
  C   C23       1.0  0.29714  0.64753  0.25336  1.0000
  C   C24       1.0  0.35890  0.65248  0.26356  1.0000
  C   C25       1.0  0.68958  0.31699  0.25566  1.0000
  C   C26       1.0  0.68643  0.37326  0.25195  1.0000
  C   C27       1.0  0.62943  0.31369  0.25201  1.0000
  C   C28       1.0  0.31482  0.68641  0.25446  1.0000
  C   C29       1.0  0.31958  0.63104  0.25596  1.0000
  C   C30       1.0  0.37570  0.69132  0.26448  1.0000
  C   C31       1.0  0.58553  0.46196  0.03493  1.0000
  C   C32       1.0  0.53582  0.12227  0.06275  1.0000
  C   C33       1.0  0.88221  0.41780  0.05716  1.0000
  C   C34       1.0  0.42134  0.54215  0.45510  1.0000
  C   C35       1.0  0.46138  0.88133  0.46161  1.0000
  C   C36       1.0  0.12155  0.58336  0.42846  1.0000
  C   C37       1.0  0.50847  0.49183  0.28596  1.0000
  C   C38       1.0  0.50669  0.01732  0.28194  1.0000
  C   C39       1.0  0.98062  0.48705  0.30066  1.0000
  C   C40       1.0  0.48508  0.50403  0.19931  1.0000
  C   C41       1.0  0.49464  0.45419  0.32405  1.0000
  C   C42       1.0  0.54444  0.04165  0.32637  1.0000
  C   C43       1.0  0.95878  0.50150  0.36619  1.0000
  C   C44       1.0  0.50137  0.53824  0.11641  1.0000
  C   C45       1.0  0.51659  0.44274  0.40655  1.0000
  C   C46       1.0  0.55515  0.07448  0.41317  1.0000
  C   C47       1.0  0.92584  0.47947  0.45306  1.0000
  C   C48       1.0  0.47941  0.55006  0.03686  1.0000
  C   C49       1.0  0.55356  0.46876  0.45264  1.0000
  C   C50       1.0  0.52825  0.08421  0.45798  1.0000
  C   C51       1.0  0.91356  0.44181  0.47947  1.0000
  C   C52       1.0  0.44018  0.52752  0.03508  1.0000
  C   C53       1.0  0.56771  0.50631  0.41526  1.0000
  C   C54       1.0  0.49066  0.06056  0.41227  1.0000
  C   C55       1.0  0.93495  0.42695  0.41543  1.0000
  C   C56       1.0  0.42351  0.49332  0.11682  1.0000
  C   C57       1.0  0.54551  0.51759  0.33470  1.0000
  C   C58       1.0  0.48014  0.02773  0.32662  1.0000
  C   C59       1.0  0.96764  0.44910  0.32779  1.0000
  C   C60       1.0  0.44560  0.48199  0.19821  1.0000
  C   C61       1.0  0.63181  0.40329  0.77249  1.0000
  C   C62       1.0  0.40539  0.76879  0.71291  1.0000
  C   C63       1.0  0.22732  0.63327  0.70553  1.0000
  C   C64       1.0  0.36450  0.59399  0.70690  1.0000
  C   C65       1.0  0.61336  0.42257  0.73292  1.0000
  C   C66       1.0  0.42517  0.80685  0.74706  1.0000
  C   C67       1.0  0.18884  0.61447  0.73813  1.0000
  C   C68       1.0  0.38326  0.57484  0.74339  1.0000
  C   C69       1.0  0.58183  0.40535  0.63090  1.0000
  C   C70       1.0  0.40825  0.82193  0.84568  1.0000
  C   C71       1.0  0.17384  0.58304  0.83742  1.0000
  C   C72       1.0  0.41454  0.59170  0.84722  1.0000
  C   C73       1.0  0.56811  0.36908  0.57329  1.0000
  C   C74       1.0  0.37167  0.79989  0.90367  1.0000
  C   C75       1.0  0.19634  0.56953  0.89753  1.0000
  C   C76       1.0  0.42821  0.62780  0.90670  1.0000
  C   C77       1.0  0.58714  0.35042  0.61284  1.0000
  C   C78       1.0  0.35238  0.76195  0.86842  1.0000
  C   C79       1.0  0.23470  0.58885  0.86484  1.0000
  C   C80       1.0  0.40909  0.64644  0.86929  1.0000
  C   C81       1.0  0.61978  0.36737  0.71072  1.0000
  C   C82       1.0  0.36914  0.74546  0.77564  1.0000
  C   C83       1.0  0.25114  0.62157  0.77141  1.0000
  C   C84       1.0  0.37626  0.62952  0.77279  1.0000
  C   C85       1.0  0.64620  0.29232  0.74637  1.0000
  C   C86       1.0  0.70342  0.35334  0.75142  1.0000
  C   C87       1.0  0.64183  0.34877  0.73881  1.0000
  C   C88       1.0  0.34995  0.70464  0.75423  1.0000
  C   C89       1.0  0.29242  0.64377  0.75239  1.0000
  C   C90       1.0  0.35383  0.64791  0.75226  1.0000
  C   C91       1.0  0.68542  0.31442  0.75333  1.0000
  C   C92       1.0  0.68116  0.37001  0.74681  1.0000
  C   C93       1.0  0.62474  0.30991  0.74104  1.0000
  C   C94       1.0  0.31065  0.68274  0.75175  1.0000
  C   C95       1.0  0.31445  0.62680  0.75097  1.0000
  C   C96       1.0  0.37109  0.68673  0.75192  1.0000
  C   C97       1.0  0.57964  0.45890  0.53275  1.0000
  C   C98       1.0  0.53735  0.11912  0.54607  1.0000
  C   C99       1.0  0.87851  0.41632  0.56778  1.0000
  C   C100      1.0  0.41505  0.53806  0.95164  1.0000
  C   C101      1.0  0.46195  0.87686  0.95544  1.0000
  C   C102      1.0  0.11805  0.58124  0.94122  1.0000
  C   C103      1.0  0.49265  0.98548  0.70523  1.0000
  C   C104      1.0  0.45885  0.96670  0.61514  1.0000
  C   C105      1.0  0.44796  0.93297  0.53583  1.0000
  C   C106      1.0  0.47097  0.91708  0.54264  1.0000
  C   C107      1.0  0.50477  0.93552  0.63152  1.0000
  C   C108      1.0  0.51520  0.96894  0.71200  1.0000
  O   O1        1.0  0.61945  0.48250  0.04393  1.0000
  O   O2        1.0  0.51389  0.13315  0.09185  1.0000
  O   O3        1.0  0.86994  0.38459  0.07328  1.0000
  O   O4        1.0  0.38782  0.52090  0.43437  1.0000
  O   O5        1.0  0.48250  0.86882  0.45270  1.0000
  O   O6        1.0  0.13293  0.61634  0.40886  1.0000
  O   O7        1.0  0.56658  0.42578  0.09130  1.0000
  O   O8        1.0  0.57338  0.14117  0.10732  1.0000
  O   O9        1.0  0.86445  0.43635  0.11601  1.0000
  O   O10       1.0  0.44000  0.57898  0.40834  1.0000
  O   O11       1.0  0.42510  0.86335  0.40060  1.0000
  O   O12       1.0  0.14036  0.56539  0.37528  1.0000
  O   O13       1.0  0.61325  0.48035  0.55019  1.0000
  O   O14       1.0  0.51516  0.13006  0.56674  1.0000
  O   O15       1.0  0.86718  0.38345  0.59088  1.0000
  O   O16       1.0  0.38128  0.51758  0.93428  1.0000
  O   O17       1.0  0.48241  0.86357  0.94960  1.0000
  O   O18       1.0  0.13035  0.61446  0.92533  1.0000
  O   O19       1.0  0.56127  0.42218  0.58168  1.0000
  O   O20       1.0  0.57434  0.13801  0.59918  1.0000
  O   O21       1.0  0.85965  0.43445  0.61722  1.0000
  O   O22       1.0  0.43461  0.57454  0.89936  1.0000
  O   O23       1.0  0.42585  0.85963  0.89204  1.0000
  O   O24       1.0  0.13595  0.56270  0.88429  1.0000
  C   C109      1.0  0.51256  0.44457  0.90400  1.0000
  C   C110      1.0  0.55062  0.46481  0.94572  1.0000
  C  Sn1       1.0  0.57157  0.50283  0.91370  1.0000
  C  Sn2       1.0  0.55403  0.52083  0.83856  1.0000
  C   C111      1.0  0.51593  0.50034  0.79740  1.0000
  C   C112      1.0  0.49523  0.46231  0.82994  1.0000
  H   H61       1.0  0.49654  0.41515  0.92925  1.0000
  O  Te1       1.0  0.60957  0.52263  0.95612  1.0000
  O  Te2       1.0  0.57431  0.55880  0.80523  1.0000
  H   H62       1.0  0.46576  0.44665  0.79772  1.0000
  Mg  Mg1       1.0  0.62536  0.57384  0.88585  1.0000
  C   C113      1.0  0.37916  0.57860  0.24016  1.0000
  C   C114      1.0  0.41258  0.59078  0.32767  1.0000
  C  Sn3       1.0  0.43064  0.62591  0.40241  1.0000
  C  Sn4       1.0  0.41487  0.64921  0.38912  1.0000
  C   C115      1.0  0.38141  0.63676  0.30140  1.0000
  C   C116      1.0  0.36359  0.60157  0.22704  1.0000
  H   H63       1.0  0.36536  0.55137  0.18270  1.0000
  O  Te3       1.0  0.46401  0.63764  0.48933  1.0000
  O  Te4       1.0  0.43232  0.68444  0.46267  1.0000
  H   H64       1.0  0.33770  0.59214  0.15938  1.0000
  Mg  Mg2       1.0  0.47732  0.68798  0.56798  1.0000
  C   C117      1.0  0.57446  0.36438  0.07938  1.0000
  C   C118      1.0  0.58050  0.39865  0.13778  1.0000
  C  Sn5       1.0  0.61101  0.42060  0.24105  1.0000
  C  Sn6       1.0  0.63589  0.40795  0.28644  1.0000
  C   C119      1.0  0.62961  0.37364  0.22726  1.0000
  C   C120      1.0  0.59899  0.35189  0.12404  1.0000
  H   H65       1.0  0.55108  0.34963  0.99944  1.0000
  O  Te5       1.0  0.61664  0.45476  0.29834  1.0000
  O  Te6       1.0  0.66661  0.42935  0.38943  1.0000
  H   H66       1.0  0.59432  0.32537  0.07875  1.0000
  Mg  Mg3       1.0  0.66246  0.47390  0.43583  1.0000
  C   C121      1.0  0.51855  0.95658  0.19672  1.0000
  C   C122      1.0  0.50201  0.97876  0.19351  1.0000
  C  Sn7       1.0  0.46805  0.96654  0.11053  1.0000
  C  Sn8       1.0  0.45038  0.93144  0.02942  1.0000
  C   C123      1.0  0.46714  0.90945  0.03345  1.0000
  C   C124      1.0  0.50113  0.92195  0.11681  1.0000
  H   H67       1.0  0.54483  0.96625  0.26129  1.0000
  O  Te7       1.0  0.45192  0.98906  0.10849  1.0000
  O  Te8       1.0  0.41673  0.92061  0.94562  1.0000
  H   H68       1.0  0.51392  0.90476  0.11936  1.0000
  Mg  Mg4       1.0  0.40576  0.96139  0.97779  1.0000
  C   C125      1.0  0.55536  0.07095  0.90720  1.0000
  C   C126      1.0  0.53389  0.08676  0.95621  1.0000
  C  Sn9       1.0  0.49520  0.06792  0.92768  1.0000
  C  Sn10      1.0  0.47776  0.03259  0.84864  1.0000
  C   C127      1.0  0.49949  0.01700  0.80018  1.0000
  C   C128      1.0  0.53818  0.03609  0.82928  1.0000
  H   H69       1.0  0.58530  0.08571  0.92979  1.0000
  O  Te9       1.0  0.47416  0.08413  0.97739  1.0000
  O  Te10      1.0  0.43914  0.01315  0.81867  1.0000
  H   H70       1.0  0.55480  0.02383  0.79142  1.0000
  Mg  Mg5       1.0  0.42245  0.04679  0.90931  1.0000
  C   C129      1.0  0.05429  0.57014  0.58618  1.0000
  C   C130      1.0  0.08234  0.56266  0.53621  1.0000
  C  Sn11      1.0  0.07790  0.52751  0.56048  1.0000
  C  Sn12      1.0  0.04473  0.49939  0.63618  1.0000
  C   C131      1.0  0.01682  0.50715  0.68563  1.0000
  C   C132      1.0  0.02156  0.54242  0.66079  1.0000
  H   H71       1.0  0.05794  0.59742  0.56689  1.0000
  O  Te11      1.0  0.10620  0.52051  0.50988  1.0000
  O  Te12      1.0  0.03957  0.46402  0.66188  1.0000
  H   H72       1.0  0.99983  0.54820  0.69939  1.0000
  Mg  Mg6       1.0  0.08616  0.46797  0.57163  1.0000
  C   C133      1.0  0.57353  0.19702  0.77700  1.0000
  C   C134      1.0  0.58422  0.17757  0.66919  1.0000
  C  Sn13      1.0  0.61940  0.19565  0.59319  1.0000
  C  Sn14      1.0  0.64430  0.23392  0.62600  1.0000
  C   C135      1.0  0.63336  0.25312  0.73413  1.0000
  C   C136      1.0  0.59808  0.23476  0.80948  1.0000
  H   H73       1.0  0.54625  0.18281  0.83538  1.0000
  O  Te13      1.0  0.62962  0.17581  0.48576  1.0000
  O  Te14      1.0  0.67964  0.25267  0.55175  1.0000
  H   H74       1.0  0.58982  0.24981  0.89303  1.0000
  Mg  Mg7       1.0  0.68075  0.21362  0.41455  1.0000
  C   C137      1.0  0.43098  0.48897  0.63058  1.0000
  C   C138      1.0  0.44169  0.52322  0.55847  1.0000
  C  Sn15      1.0  0.47954  0.55073  0.55208  1.0000
  C  Sn16      1.0  0.50712  0.54372  0.61920  1.0000
  C   C139      1.0  0.49613  0.50936  0.69097  1.0000
  C   C140      1.0  0.45817  0.48203  0.69675  1.0000
  H   H75       1.0  0.40162  0.46782  0.63498  1.0000
  O  Te15      1.0  0.48975  0.58480  0.47964  1.0000
  O  Te16      1.0  0.54515  0.57072  0.61441  1.0000
  H   H76       1.0  0.44989  0.45551  0.75250  1.0000
  Mg  Mg8       1.0  0.54511  0.61278  0.50279  1.0000
  C   C141      1.0  0.35454  0.77254  0.40173  1.0000
  C   C142      1.0  0.36571  0.75282  0.29819  1.0000
  C  Sn17      1.0  0.40081  0.77095  0.22144  1.0000
  C  Sn18      1.0  0.42512  0.80954  0.24913  1.0000
  C   C143      1.0  0.41368  0.82901  0.35303  1.0000
  C   C144      1.0  0.37850  0.81060  0.42916  1.0000
  H   H77       1.0  0.32732  0.75829  0.46071  1.0000
  O  Te17      1.0  0.41153  0.75083  0.11832  1.0000
  O  Te18      1.0  0.46036  0.82835  0.17404  1.0000
  H   H78       1.0  0.36986  0.82587  0.50941  1.0000
  Mg  Mg9       1.0  0.46230  0.78884  0.04395  1.0000
  C   C145      1.0  0.93755  0.49060  0.93291  1.0000
  C   C146      1.0  0.91847  0.45221  0.95651  1.0000
  C  Sn19      1.0  0.93408  0.43105  0.90115  1.0000
  C  Sn20      1.0  0.96946  0.44873  0.82075  1.0000
  C   C147      1.0  0.98833  0.48715  0.79784  1.0000
  C   C148      1.0  0.97245  0.50806  0.85368  1.0000
  H   H79       1.0  0.92528  0.50679  0.97619  1.0000
  O  Te19      1.0  0.91464  0.39272  0.92568  1.0000
  O  Te20      1.0  0.98571  0.42824  0.76425  1.0000
  H   H80       1.0  0.98724  0.53779  0.83549  1.0000
  Mg  Mg10      1.0  0.94834  0.37676  0.82659  1.0000
  C   C149      1.0  0.76944  0.41695  0.62475  1.0000
  C   C150      1.0  0.74794  0.38339  0.70722  1.0000
  C  Sn21      1.0  0.76528  0.36587  0.78251  1.0000
  C  Sn22      1.0  0.80489  0.38231  0.77494  1.0000
  C   C151      1.0  0.82616  0.41590  0.69223  1.0000
  C   C152      1.0  0.80851  0.43319  0.61727  1.0000
  H   H81       1.0  0.75579  0.43034  0.56682  1.0000
  O  Te21      1.0  0.74337  0.33235  0.86435  1.0000
  O  Te22      1.0  0.82295  0.36539  0.84917  1.0000
  H   H82       1.0  0.82517  0.45918  0.55351  1.0000
  Mg  Mg11      1.0  0.78096  0.31994  0.94622  1.0000
  C   C153      1.0  0.05151  0.56895  0.10299  1.0000
  C   C154      1.0  0.07876  0.56071  0.04870  1.0000
  C  Sn23      1.0  0.07326  0.52502  0.06773  1.0000
  C  Sn24      1.0  0.03982  0.49710  0.14249  1.0000
  C   C155      1.0  0.01272  0.50562  0.19628  1.0000
  C   C156      1.0  0.01851  0.54143  0.17668  1.0000
  H   H83       1.0  0.05598  0.59665  0.08775  1.0000
  O  Te23      1.0  0.10079  0.51726  0.01286  1.0000
  O  Te24      1.0  0.03360  0.46119  0.16298  1.0000
  H   H84       1.0  0.99739  0.54780  0.21862  1.0000
  Mg  Mg12      1.0  0.07941  0.46419  0.06824  1.0000
