data_image0
_chemical_formula_structural       H156C228O24C2Sn2C2HTe2HMgC2Sn2C2HTe2HMgC2Sn2C2HTe2HMgC2Sn2C2HTe2HMgC2Sn2C2HTe2HMgC2Sn2C2HTe2HMgC2Sn2C2HTe2HMgC2Sn2C2HTe2HMgC2Sn2C2HTe2HMgC2Sn2C2HTe2HMgC2Sn2C2HTe2HMgC2Sn2C2HTe2HMgC2Sn2C2HTe2HMgC2Sn2C2HTe2HMgC2Sn2C2HTe2HMgC2Sn2C2HTe2HMgC2Sn2C2HTe2HMgC2Sn2C2HTe2HMg
_chemical_formula_sum              "H192 C300 O24 Sn36 Te36 Mg18"
_cell_length_a       68.0387
_cell_length_b       68.372
_cell_length_c       7.99524
_cell_angle_alpha    92.3175
_cell_angle_beta     89.3811
_cell_angle_gamma    120.331

_symmetry_space_group_name_H-M    'P1'
_space_group_IT_number       1

loop_
  _space_group_symop_operation_xyz
  'x, y, z'

loop_
  _atom_site_type_symbol
  _atom_site_label
  _atom_site_symmetry_multiplicity
  _atom_site_fract_x
  _atom_site_fract_y
  _atom_site_fract_z
  _atom_site_occupancy
  H   H1        1.0  0.25594  0.57451  0.17262  1.0000
  H   H2        1.0  0.67961  0.25686  0.33261  1.0000
  H   H3        1.0  0.57351  0.31665  0.34555  1.0000
  H   H4        1.0  0.29543  0.60529  0.13450  1.0000
  H   H5        1.0  0.68776  0.29623  0.36612  1.0000
  H   H6        1.0  0.60512  0.30932  0.38068  1.0000
  H   H7        1.0  0.37349  0.72925  0.35364  1.0000
  H   H8        1.0  0.64420  0.37221  0.15257  1.0000
  H   H9        1.0  0.38207  0.76870  0.40040  1.0000
  H   H10       1.0  0.61313  0.38026  0.11018  1.0000
  H   H11       1.0  0.30122  0.67484  0.47451  1.0000
  H   H12       1.0  0.32783  0.62966  0.47019  1.0000
  H   H13       1.0  0.37351  0.70160  0.48112  1.0000
  H   H14       1.0  0.69921  0.32700  0.02278  1.0000
  H   H15       1.0  0.67297  0.37242  0.01852  1.0000
  H   H16       1.0  0.62703  0.30049  0.01049  1.0000
  H   H17       1.0  0.38995  0.78842  0.15173  1.0000
  H   H18       1.0  0.20857  0.59908  0.14085  1.0000
  H   H19       1.0  0.40237  0.61076  0.17068  1.0000
  H   H20       1.0  0.40188  0.82926  0.19954  1.0000
  H   H21       1.0  0.16789  0.57149  0.20018  1.0000
  H   H22       1.0  0.43236  0.60109  0.22694  1.0000
  H   H23       1.0  0.33694  0.81575  0.01604  1.0000
  H   H24       1.0  0.17883  0.51611  0.07540  1.0000
  H   H25       1.0  0.48298  0.66376  0.02248  1.0000
  H   H26       1.0  0.22329  0.54774  0.47926  1.0000
  H   H27       1.0  0.67512  0.22331  0.04934  1.0000
  H   H28       1.0  0.41725  0.87985  0.16187  1.0000
  H   H29       1.0  0.53608  0.41394  0.35377  1.0000
  H   H30       1.0  0.57843  0.12078  0.37795  1.0000
  H   H31       1.0  0.87901  0.46528  0.31717  1.0000
  H   H32       1.0  0.44937  0.91809  0.10581  1.0000
  H   H33       1.0  0.53311  0.44767  0.43710  1.0000
  H   H34       1.0  0.54569  0.08429  0.46288  1.0000
  H   H35       1.0  0.91686  0.47003  0.37664  1.0000
  H   H36       1.0  0.53132  0.59471  0.36079  1.0000
  H   H37       1.0  0.40869  0.93866  0.33789  1.0000
  H   H38       1.0  0.06443  0.46766  0.34583  1.0000
  H   H39       1.0  0.46843  0.40542  0.14984  1.0000
  H   H40       1.0  0.52619  0.62783  0.41844  1.0000
  H   H41       1.0  0.37561  0.90083  0.39532  1.0000
  H   H42       1.0  0.10255  0.47292  0.41229  1.0000
  H   H43       1.0  0.47239  0.37189  0.07684  1.0000
  H   H44       1.0  0.46584  0.49860  0.24403  1.0000
  H   H45       1.0  0.50597  0.96925  0.24188  1.0000
  H   H46       1.0  0.03497  0.53281  0.23814  1.0000
  H   H47       1.0  0.53493  0.49968  0.32510  1.0000
  H   H48       1.0  0.50427  0.03671  0.30594  1.0000
  H   H49       1.0  0.96656  0.46241  0.27015  1.0000
  H   H50       1.0  0.53633  0.52851  0.38784  1.0000
  H   H51       1.0  0.47465  0.00953  0.34192  1.0000
  H   H52       1.0  0.99227  0.46437  0.39312  1.0000
  H   H53       1.0  0.46883  0.47605  0.10447  1.0000
  H   H54       1.0  0.52708  0.99326  0.08580  1.0000
  H   H55       1.0  0.00869  0.53251  0.15108  1.0000
  H   H56       1.0  0.46625  0.53258  0.35602  1.0000
  H   H57       1.0  0.47203  0.93630  0.34785  1.0000
  H   H58       1.0  0.06804  0.53236  0.34834  1.0000
  H   H59       1.0  0.53395  0.46555  0.20983  1.0000
  H   H60       1.0  0.53808  0.06947  0.19654  1.0000
  H   H61       1.0  0.93383  0.46254  0.14885  1.0000
  H   H62       1.0  0.55502  0.57889  0.43494  1.0000
  H   H63       1.0  0.42457  0.97783  0.38896  1.0000
  H   H64       1.0  0.02263  0.44447  0.42180  1.0000
  H   H65       1.0  0.44759  0.42416  0.06402  1.0000
  H   H66       1.0  0.57908  0.02415  0.05411  1.0000
  H   H67       1.0  0.98042  0.55215  0.10596  1.0000
  H   H68       1.0  0.55833  0.56522  0.96901  1.0000
  H   H69       1.0  0.43565  0.99102  0.02013  1.0000
  H   H70       1.0  0.00513  0.45478  0.06824  1.0000
  H   H71       1.0  0.45290  0.44372  0.40451  1.0000
  H   H72       1.0  0.57431  0.02545  0.56573  1.0000
  H   H73       1.0  0.99151  0.55223  0.42574  1.0000
  H   H74       1.0  0.54212  0.56199  0.15191  1.0000
  H   H75       1.0  0.42378  0.96379  0.10630  1.0000
  H   H76       1.0  0.03474  0.46592  0.09830  1.0000
  H   H77       1.0  0.46395  0.42510  0.38555  1.0000
  H   H78       1.0  0.55242  0.00785  0.41984  1.0000
  H   H79       1.0  0.96169  0.54166  0.42142  1.0000
  H   H80       1.0  0.31912  0.74517  0.66151  1.0000
  H   H81       1.0  0.57548  0.31768  0.82259  1.0000
  H   H82       1.0  0.31137  0.70586  0.62851  1.0000
  H   H83       1.0  0.60719  0.31034  0.85366  1.0000
  H   H84       1.0  0.27128  0.64037  0.84044  1.0000
  H   H85       1.0  0.62713  0.27378  0.65781  1.0000
  H   H86       1.0  0.64411  0.37398  0.64280  1.0000
  H   H87       1.0  0.23171  0.61020  0.88811  1.0000
  H   H88       1.0  0.61833  0.23423  0.61512  1.0000
  H   H89       1.0  0.61312  0.38194  0.59529  1.0000
  H   H90       1.0  0.29954  0.66966  0.97297  1.0000
  H   H91       1.0  0.32587  0.62440  0.98027  1.0000
  H   H92       1.0  0.37174  0.69629  0.97118  1.0000
  H   H93       1.0  0.69846  0.32764  0.51689  1.0000
  H   H94       1.0  0.67197  0.37284  0.52156  1.0000
  H   H95       1.0  0.62624  0.30085  0.52355  1.0000
  H   H96       1.0  0.20908  0.60016  0.63539  1.0000
  H   H97       1.0  0.61161  0.20804  0.82478  1.0000
  H   H98       1.0  0.16925  0.57064  0.70022  1.0000
  H   H99       1.0  0.60184  0.16792  0.77353  1.0000
  H   H100      1.0  0.18340  0.51830  0.54276  1.0000
  H   H101      1.0  0.66527  0.18313  0.99930  1.0000
  H   H102      1.0  0.32497  0.77503  0.97044  1.0000
  H   H103      1.0  0.21962  0.54372  0.01600  1.0000
  H   H104      1.0  0.45308  0.67358  0.96794  1.0000
  H   H105      1.0  0.46364  0.58512  0.67051  1.0000
  H   H106      1.0  0.41980  0.88318  0.64363  1.0000
  H   H107      1.0  0.12104  0.53584  0.67677  1.0000
  H   H108      1.0  0.53741  0.41534  0.85819  1.0000
  H   H109      1.0  0.46873  0.55213  0.61275  1.0000
  H   H110      1.0  0.45294  0.92069  0.58472  1.0000
  H   H111      1.0  0.08339  0.53097  0.60737  1.0000
  H   H112      1.0  0.53400  0.44883  0.93853  1.0000
  H   H113      1.0  0.40424  0.93195  0.82812  1.0000
  H   H114      1.0  0.46762  0.40447  0.65169  1.0000
  H   H115      1.0  0.59190  0.06418  0.64269  1.0000
  H   H116      1.0  0.93588  0.53215  0.65728  1.0000
  H   H117      1.0  0.37202  0.89386  0.88964  1.0000
  H   H118      1.0  0.47116  0.37076  0.57398  1.0000
  H   H119      1.0  0.62460  0.10114  0.56357  1.0000
  H   H120      1.0  0.89789  0.52731  0.59649  1.0000
  H   H121      1.0  0.46510  0.49771  0.75061  1.0000
  H   H122      1.0  0.50312  0.96884  0.77471  1.0000
  H   H123      1.0  0.03459  0.53713  0.70328  1.0000
  H   H124      1.0  0.53408  0.49862  0.82257  1.0000
  H   H125      1.0  0.49772  0.03434  0.83310  1.0000
  H   H126      1.0  0.96632  0.46681  0.72924  1.0000
  H   H127      1.0  0.53639  0.52781  0.86924  1.0000
  H   H128      1.0  0.46765  0.00546  0.85742  1.0000
  H   H129      1.0  0.99072  0.46953  0.87023  1.0000
  H   H130      1.0  0.46812  0.47512  0.60058  1.0000
  H   H131      1.0  0.52265  0.99274  0.61171  1.0000
  H   H132      1.0  0.00748  0.53768  0.63002  1.0000
  H   H133      1.0  0.46666  0.53265  0.85567  1.0000
  H   H134      1.0  0.46954  0.93448  0.86941  1.0000
  H   H135      1.0  0.06712  0.53664  0.82503  1.0000
  H   H136      1.0  0.53314  0.46446  0.70819  1.0000
  H   H137      1.0  0.53046  0.06773  0.71947  1.0000
  H   H138      1.0  0.93305  0.46710  0.62093  1.0000
  H   H139      1.0  0.54689  0.58324  0.01134  1.0000
  H   H140      1.0  0.41514  0.96655  0.90522  1.0000
  H   H141      1.0  0.02086  0.44915  0.91498  1.0000
  H   H142      1.0  0.44663  0.42339  0.55805  1.0000
  H   H143      1.0  0.56936  0.03738  0.38906  1.0000
  H   H144      1.0  0.97806  0.55679  0.60175  1.0000
  H   H145      1.0  0.55162  0.55967  0.59039  1.0000
  H   H146      1.0  0.44456  0.99594  0.54403  1.0000
  H   H147      1.0  0.00784  0.44956  0.58565  1.0000
  H   H148      1.0  0.45298  0.44474  0.91473  1.0000
  H   H149      1.0  0.55821  0.00835  0.89716  1.0000
  H   H150      1.0  0.99352  0.54610  0.93456  1.0000
  H   H151      1.0  0.53958  0.57732  0.61872  1.0000
  H   H152      1.0  0.42711  0.96653  0.57787  1.0000
  H   H153      1.0  0.03768  0.46066  0.60330  1.0000
  H   H154      1.0  0.46429  0.42645  0.88614  1.0000
  H   H155      1.0  0.57666  0.03801  0.87982  1.0000
  H   H156      1.0  0.96397  0.53634  0.92708  1.0000
  C   C1        1.0  0.24084  0.59027  0.03547  1.0000
  C   C2        1.0  0.64815  0.24255  0.46899  1.0000
  C   C3        1.0  0.59101  0.34992  0.46692  1.0000
  C   C4        1.0  0.25925  0.58878  0.09767  1.0000
  C   C5        1.0  0.66822  0.26055  0.40604  1.0000
  C   C6        1.0  0.58888  0.32914  0.41267  1.0000
  C   C7        1.0  0.28160  0.60616  0.07515  1.0000
  C   C8        1.0  0.67287  0.28285  0.42615  1.0000
  C   C9        1.0  0.60675  0.32499  0.43346  1.0000
  C   C10       1.0  0.34184  0.71441  0.48898  1.0000
  C   C11       1.0  0.62826  0.34072  0.00498  1.0000
  C   C12       1.0  0.36175  0.73261  0.42521  1.0000
  C   C13       1.0  0.62944  0.36042  0.07664  1.0000
  C   C14       1.0  0.36653  0.75487  0.45010  1.0000
  C   C15       1.0  0.61185  0.36489  0.05415  1.0000
  C   C16       1.0  0.33778  0.69098  0.47568  1.0000
  C   C17       1.0  0.31166  0.64984  0.46933  1.0000
  C   C18       1.0  0.35292  0.66519  0.47382  1.0000
  C   C19       1.0  0.66268  0.31098  0.01900  1.0000
  C   C20       1.0  0.68893  0.35207  0.02269  1.0000
  C   C21       1.0  0.64773  0.33688  0.01683  1.0000
  C   C22       1.0  0.31564  0.67211  0.47164  1.0000
  C   C23       1.0  0.33053  0.64674  0.46920  1.0000
  C   C24       1.0  0.35624  0.68718  0.47565  1.0000
  C   C25       1.0  0.68483  0.32978  0.02302  1.0000
  C   C26       1.0  0.67015  0.35530  0.02096  1.0000
  C   C27       1.0  0.64431  0.31487  0.01636  1.0000
  C   C28       1.0  0.35662  0.77877  0.05660  1.0000
  C   C29       1.0  0.21698  0.57338  0.07214  1.0000
  C   C30       1.0  0.42555  0.64289  0.06489  1.0000
  C   C31       1.0  0.37836  0.79438  0.12156  1.0000
  C   C32       1.0  0.20211  0.58096  0.12523  1.0000
  C   C33       1.0  0.41995  0.62238  0.13776  1.0000
  C   C34       1.0  0.38511  0.81712  0.14894  1.0000
  C   C35       1.0  0.17945  0.56571  0.15912  1.0000
  C   C36       1.0  0.43657  0.61688  0.16980  1.0000
  C   C37       1.0  0.37027  0.82479  0.10828  1.0000
  C   C38       1.0  0.17116  0.54244  0.13789  1.0000
  C   C39       1.0  0.45914  0.63166  0.12560  1.0000
  C   C40       1.0  0.34833  0.80967  0.04719  1.0000
  C   C41       1.0  0.18554  0.53424  0.08972  1.0000
  C   C42       1.0  0.46542  0.65242  0.05618  1.0000
  C   C43       1.0  0.34180  0.78679  0.02233  1.0000
  C   C44       1.0  0.20836  0.54990  0.05742  1.0000
  C   C45       1.0  0.44846  0.65776  0.02678  1.0000
  C   C46       1.0  0.50606  0.36994  0.42636  1.0000
  C   C47       1.0  0.62365  0.13596  0.43569  1.0000
  C   C48       1.0  0.86260  0.49228  0.44212  1.0000
  C   C49       1.0  0.49262  0.62849  0.06009  1.0000
  C   C50       1.0  0.37315  0.86091  0.04496  1.0000
  C   C51       1.0  0.13386  0.50939  0.07373  1.0000
  C   C52       1.0  0.39246  0.88439  0.02984  1.0000
  C   C53       1.0  0.50366  0.39015  0.45725  1.0000
  C   C54       1.0  0.60368  0.11326  0.46458  1.0000
  C   C55       1.0  0.88599  0.49601  0.45389  1.0000
  C   C56       1.0  0.41444  0.89138  0.09008  1.0000
  C   C57       1.0  0.52113  0.41196  0.41871  1.0000
  C   C58       1.0  0.58128  0.10830  0.43566  1.0000
  C   C59       1.0  0.89151  0.47992  0.39117  1.0000
  C   C60       1.0  0.43248  0.91284  0.05728  1.0000
  C   C61       1.0  0.51939  0.43081  0.46540  1.0000
  C   C62       1.0  0.56295  0.08774  0.48288  1.0000
  C   C63       1.0  0.91272  0.48256  0.42561  1.0000
  C   C64       1.0  0.50034  0.57089  0.48256  1.0000
  C   C65       1.0  0.43343  0.93254  0.45657  1.0000
  C   C66       1.0  0.07111  0.49900  0.47284  1.0000
  C   C67       1.0  0.50095  0.42967  0.04874  1.0000
  C   C68       1.0  0.51679  0.59266  0.43263  1.0000
  C   C69       1.0  0.41123  0.92680  0.40800  1.0000
  C   C70       1.0  0.07659  0.48238  0.42142  1.0000
  C   C71       1.0  0.48342  0.40762  0.08361  1.0000
  C   C72       1.0  0.51393  0.61127  0.46393  1.0000
  C   C73       1.0  0.39260  0.90559  0.43922  1.0000
  C   C74       1.0  0.09789  0.48523  0.45780  1.0000
  C   C75       1.0  0.48555  0.38877  0.04284  1.0000
  C   C76       1.0  0.50152  0.55048  0.43118  1.0000
  C   C77       1.0  0.45366  0.95368  0.40511  1.0000
  C   C78       1.0  0.04968  0.49782  0.42271  1.0000
  C   C79       1.0  0.50028  0.45025  0.10404  1.0000
  C   C80       1.0  0.55307  0.05066  0.09269  1.0000
  C   C81       1.0  0.95195  0.49764  0.08677  1.0000
  C   C82       1.0  0.48174  0.53168  0.36217  1.0000
  C   C83       1.0  0.47266  0.95250  0.34683  1.0000
  C   C84       1.0  0.05130  0.51730  0.35613  1.0000
  C   C85       1.0  0.51947  0.46781  0.18898  1.0000
  C   C86       1.0  0.53570  0.05263  0.17421  1.0000
  C   C87       1.0  0.95037  0.47801  0.15053  1.0000
  C   C88       1.0  0.48157  0.51245  0.29775  1.0000
  C   C89       1.0  0.49178  0.97112  0.28465  1.0000
  C   C90       1.0  0.03246  0.51753  0.29438  1.0000
  C   C91       1.0  0.52008  0.48730  0.25284  1.0000
  C   C92       1.0  0.51640  0.03402  0.23407  1.0000
  C   C93       1.0  0.96896  0.47799  0.21998  1.0000
  C   C94       1.0  0.50140  0.51089  0.30007  1.0000
  C   C95       1.0  0.49285  0.99214  0.27605  1.0000
  C   C96       1.0  0.01061  0.49819  0.30019  1.0000
  C   C97       1.0  0.50153  0.49063  0.22884  1.0000
  C   C98       1.0  0.51297  0.01205  0.20802  1.0000
  C   C99       1.0  0.99055  0.49781  0.22689  1.0000
  C   C100      1.0  0.52080  0.52924  0.37720  1.0000
  C   C101      1.0  0.47426  0.99345  0.34130  1.0000
  C   C102      1.0  0.00894  0.47929  0.37717  1.0000
  C   C103      1.0  0.48296  0.47361  0.13519  1.0000
  C   C104      1.0  0.52971  0.01005  0.11692  1.0000
  C   C105      1.0  0.99221  0.51704  0.15577  1.0000
  C   C106      1.0  0.52136  0.54884  0.44269  1.0000
  C   C107      1.0  0.45494  0.97500  0.40668  1.0000
  C   C108      1.0  0.02780  0.47852  0.43668  1.0000
  C   C109      1.0  0.48166  0.45347  0.07499  1.0000
  C   C110      1.0  0.54976  0.02872  0.06110  1.0000
  C   C111      1.0  0.97365  0.51753  0.08672  1.0000
  C   C112      1.0  0.54355  0.56588  0.01839  1.0000
  C   C113      1.0  0.42989  0.97310  0.99050  1.0000
  C   C114      1.0  0.02156  0.46217  0.00433  1.0000
  C   C115      1.0  0.46000  0.43521  0.47480  1.0000
  C   C116      1.0  0.56098  0.02463  0.48398  1.0000
  C   C117      1.0  0.97597  0.54441  0.50089  1.0000
  C   C118      1.0  0.35129  0.75986  0.53450  1.0000
  C   C119      1.0  0.59202  0.34957  0.96372  1.0000
  C   C120      1.0  0.33096  0.74169  0.59246  1.0000
  C   C121      1.0  0.59039  0.32948  0.89726  1.0000
  C   C122      1.0  0.32650  0.71944  0.57209  1.0000
  C   C123      1.0  0.60828  0.32530  0.91609  1.0000
  C   C124      1.0  0.28646  0.62547  0.98712  1.0000
  C   C125      1.0  0.65791  0.28811  0.51261  1.0000
  C   C126      1.0  0.62726  0.34115  0.51288  1.0000
  C   C127      1.0  0.26802  0.62634  0.91784  1.0000
  C   C128      1.0  0.63842  0.27015  0.58268  1.0000
  C   C129      1.0  0.62894  0.36155  0.57341  1.0000
  C   C130      1.0  0.24571  0.60926  0.94362  1.0000
  C   C131      1.0  0.63352  0.24784  0.55957  1.0000
  C   C132      1.0  0.61136  0.36597  0.54848  1.0000
  C   C133      1.0  0.33613  0.68577  0.97021  1.0000
  C   C134      1.0  0.31000  0.64474  0.97404  1.0000
  C   C135      1.0  0.35120  0.65992  0.97321  1.0000
  C   C136      1.0  0.66193  0.31152  0.52301  1.0000
  C   C137      1.0  0.68798  0.35258  0.52128  1.0000
  C   C138      1.0  0.64674  0.33730  0.52438  1.0000
  C   C139      1.0  0.31399  0.66698  0.97058  1.0000
  C   C140      1.0  0.32878  0.64152  0.97477  1.0000
  C   C141      1.0  0.35450  0.68186  0.96970  1.0000
  C   C142      1.0  0.68403  0.33035  0.52174  1.0000
  C   C143      1.0  0.66914  0.35573  0.52389  1.0000
  C   C144      1.0  0.64347  0.31533  0.52523  1.0000
  C   C145      1.0  0.21916  0.57610  0.55290  1.0000
  C   C146      1.0  0.64408  0.21854  0.94105  1.0000
  C   C147      1.0  0.20355  0.58229  0.61487  1.0000
  C   C148      1.0  0.62334  0.20263  0.86361  1.0000
  C   C149      1.0  0.18135  0.56596  0.65163  1.0000
  C   C150      1.0  0.61781  0.18025  0.83437  1.0000
  C   C151      1.0  0.17415  0.54297  0.62387  1.0000
  C   C152      1.0  0.63285  0.17330  0.88554  1.0000
  C   C153      1.0  0.18922  0.53617  0.56425  1.0000
  C   C154      1.0  0.65377  0.18874  0.96032  1.0000
  C   C155      1.0  0.21158  0.55288  0.52952  1.0000
  C   C156      1.0  0.65912  0.21126  0.98708  1.0000
  C   C157      1.0  0.50800  0.37127  0.93760  1.0000
  C   C158      1.0  0.63084  0.13767  0.95158  1.0000
  C   C159      1.0  0.86519  0.48839  0.92636  1.0000
  C   C160      1.0  0.49080  0.62836  0.55921  1.0000
  C   C161      1.0  0.37570  0.86624  0.53493  1.0000
  C   C162      1.0  0.13752  0.50842  0.56735  1.0000
  C   C163      1.0  0.49459  0.60875  0.54751  1.0000
  C   C164      1.0  0.39553  0.88952  0.52196  1.0000
  C   C165      1.0  0.11419  0.50463  0.54856  1.0000
  C   C166      1.0  0.50510  0.39132  0.96233  1.0000
  C   C167      1.0  0.47848  0.58725  0.60304  1.0000
  C   C168      1.0  0.41746  0.89536  0.57645  1.0000
  C   C169      1.0  0.10864  0.52096  0.60439  1.0000
  C   C170      1.0  0.52234  0.41318  0.92217  1.0000
  C   C171      1.0  0.48134  0.56871  0.56995  1.0000
  C   C172      1.0  0.43605  0.91644  0.54270  1.0000
  C   C173      1.0  0.08753  0.51819  0.56524  1.0000
  C   C174      1.0  0.52035  0.43195  0.96712  1.0000
  C   C175      1.0  0.42933  0.92808  0.96386  1.0000
  C   C176      1.0  0.50005  0.42860  0.54765  1.0000
  C   C177      1.0  0.56620  0.07119  0.55577  1.0000
  C   C178      1.0  0.92917  0.50135  0.52147  1.0000
  C   C179      1.0  0.40712  0.92099  0.90651  1.0000
  C   C180      1.0  0.48248  0.40662  0.58384  1.0000
  C   C181      1.0  0.58878  0.07627  0.58152  1.0000
  C   C182      1.0  0.92370  0.51775  0.57939  1.0000
  C   C183      1.0  0.38898  0.89955  0.93922  1.0000
  C   C184      1.0  0.48432  0.38767  0.54068  1.0000
  C   C185      1.0  0.60721  0.09699  0.53813  1.0000
  C   C186      1.0  0.90243  0.51510  0.54642  1.0000
  C   C187      1.0  0.50222  0.55032  0.92139  1.0000
  C   C188      1.0  0.44916  0.94992  0.91715  1.0000
  C   C189      1.0  0.04815  0.50232  0.90454  1.0000
  C   C190      1.0  0.49946  0.44920  0.60232  1.0000
  C   C191      1.0  0.54641  0.04994  0.61180  1.0000
  C   C192      1.0  0.95065  0.50257  0.56995  1.0000
  C   C193      1.0  0.48200  0.53145  0.85856  1.0000
  C   C194      1.0  0.46915  0.95018  0.86659  1.0000
  C   C195      1.0  0.05027  0.52171  0.83225  1.0000
  C   C196      1.0  0.51869  0.46674  0.68691  1.0000
  C   C197      1.0  0.52887  0.05119  0.69754  1.0000
  C   C198      1.0  0.94948  0.48269  0.62413  1.0000
  C   C199      1.0  0.48120  0.51175  0.79756  1.0000
  C   C200      1.0  0.48807  0.96959  0.81075  1.0000
  C   C201      1.0  0.03174  0.52202  0.76426  1.0000
  C   C202      1.0  0.51930  0.48624  0.74983  1.0000
  C   C203      1.0  0.51013  0.03220  0.76021  1.0000
  C   C204      1.0  0.96836  0.48259  0.68647  1.0000
  C   C205      1.0  0.50097  0.51006  0.79453  1.0000
  C   C206      1.0  0.48789  0.98998  0.80034  1.0000
  C   C207      1.0  0.00975  0.50289  0.77023  1.0000
  C   C208      1.0  0.50080  0.48961  0.72500  1.0000
  C   C209      1.0  0.50758  0.01055  0.73490  1.0000
  C   C210      1.0  0.98976  0.50259  0.69660  1.0000
  C   C211      1.0  0.52085  0.52861  0.86404  1.0000
  C   C212      1.0  0.46827  0.98989  0.85847  1.0000
  C   C213      1.0  0.00757  0.48411  0.85237  1.0000
  C   C214      1.0  0.48219  0.47261  0.63169  1.0000
  C   C215      1.0  0.52464  0.00928  0.64268  1.0000
  C   C216      1.0  0.99110  0.52204  0.63217  1.0000
  C   C217      1.0  0.52195  0.54843  0.92946  1.0000
  C   C218      1.0  0.44918  0.97066  0.91836  1.0000
  C   C219      1.0  0.02608  0.48322  0.91767  1.0000
  C   C220      1.0  0.48089  0.45244  0.57225  1.0000
  C   C221      1.0  0.54397  0.02826  0.58250  1.0000
  C   C222      1.0  0.97224  0.52256  0.56968  1.0000
  C   C223      1.0  0.54302  0.56720  0.52601  1.0000
  C   C224      1.0  0.43679  0.97894  0.48329  1.0000
  C   C225      1.0  0.02386  0.45722  0.51620  1.0000
  C   C226      1.0  0.46055  0.43625  0.97968  1.0000
  C   C227      1.0  0.56685  0.02465  0.96800  1.0000
  C   C228      1.0  0.97798  0.53914  0.00962  1.0000
  O   O1        1.0  0.52560  0.37569  0.33555  1.0000
  O   O2        1.0  0.61695  0.14893  0.35080  1.0000
  O   O3        1.0  0.84908  0.47309  0.34207  1.0000
  O   O4        1.0  0.47343  0.62294  0.15386  1.0000
  O   O5        1.0  0.38006  0.84827  0.13217  1.0000
  O   O6        1.0  0.14777  0.52918  0.16694  1.0000
  O   O7        1.0  0.50421  0.64651  0.99340  1.0000
  O   O8        1.0  0.35424  0.85357  0.98437  1.0000
  O   O9        1.0  0.13977  0.49641  0.01660  1.0000
  O   O10       1.0  0.49313  0.35111  0.47664  1.0000
  O   O11       1.0  0.64303  0.14252  0.48325  1.0000
  O   O12       1.0  0.85601  0.50384  0.51548  1.0000
  O   O13       1.0  0.52771  0.37718  0.84895  1.0000
  O   O14       1.0  0.62422  0.15005  0.85847  1.0000
  O   O15       1.0  0.85117  0.46855  0.83396  1.0000
  O   O16       1.0  0.47137  0.62281  0.65017  1.0000
  O   O17       1.0  0.38134  0.85344  0.63163  1.0000
  O   O18       1.0  0.15109  0.52860  0.65789  1.0000
  O   O19       1.0  0.50254  0.64636  0.49288  1.0000
  O   O20       1.0  0.35731  0.85927  0.46619  1.0000
  O   O21       1.0  0.14410  0.49609  0.50766  1.0000
  O   O22       1.0  0.49540  0.35259  0.99171  1.0000
  O   O23       1.0  0.64984  0.14495  0.01042  1.0000
  O   O24       1.0  0.85913  0.50092  0.99073  1.0000
  C   C229      1.0  0.38276  0.63501  0.42449  1.0000
  C   C230      1.0  0.40346  0.64799  0.51046  1.0000
  C  Sn1       1.0  0.40845  0.66831  0.59469  1.0000
  C  Sn2       1.0  0.39238  0.67573  0.59262  1.0000
  C   C231      1.0  0.37171  0.66261  0.50635  1.0000
  C   C232      1.0  0.36690  0.64230  0.42244  1.0000
  H   H157      1.0  0.37903  0.61929  0.35964  1.0000
  O  Te1       1.0  0.42921  0.68108  0.67992  1.0000
  O  Te2       1.0  0.39693  0.69596  0.67580  1.0000
  H   H158      1.0  0.35086  0.63225  0.35598  1.0000
  Mg  Mg1       1.0  0.42759  0.70745  0.77439  1.0000
  C   C233      1.0  0.57274  0.09418  0.95178  1.0000
  C   C234      1.0  0.57093  0.07009  0.02066  1.0000
  C  Sn3       1.0  0.59120  0.07167  0.07371  1.0000
  C  Sn4       1.0  0.61212  0.09228  0.05738  1.0000
  C   C235      1.0  0.61374  0.11628  0.98843  1.0000
  C   C236      1.0  0.59335  0.11452  0.93570  1.0000
  H   H159      1.0  0.55697  0.09282  0.91107  1.0000
  O  Te3       1.0  0.59061  0.05291  0.14218  1.0000
  O  Te4       1.0  0.63262  0.09432  0.10945  1.0000
  H   H160      1.0  0.59358  0.12893  0.88248  1.0000
  Mg  Mg2       1.0  0.62304  0.06404  0.19490  1.0000
  C   C237      1.0  0.48045  0.57157  0.09666  1.0000
  C   C238      1.0  0.49764  0.57531  0.99190  1.0000
  C  Sn5       1.0  0.51479  0.59449  0.91609  1.0000
  C  Sn6       1.0  0.51624  0.61578  0.94598  1.0000
  C   C239      1.0  0.49898  0.61186  0.05109  1.0000
  C   C240      1.0  0.48188  0.59256  0.12627  1.0000
  H   H161      1.0  0.46723  0.55664  0.15491  1.0000
  O  Te5       1.0  0.53030  0.59245  0.81172  1.0000
  O  Te6       1.0  0.53322  0.63522  0.87186  1.0000
  H   H162      1.0  0.46976  0.59392  0.20746  1.0000
  Mg  Mg3       1.0  0.55038  0.62381  0.73941  1.0000
  C   C241      1.0  0.46366  0.65810  0.54894  1.0000
  C   C242      1.0  0.46063  0.63842  0.61984  1.0000
  C  Sn7       1.0  0.43888  0.62131  0.66315  1.0000
  C  Sn8       1.0  0.41984  0.62398  0.63476  1.0000
  C   C243      1.0  0.42304  0.64373  0.56366  1.0000
  C   C244      1.0  0.44488  0.66075  0.52084  1.0000
  H   H163      1.0  0.48055  0.67127  0.51572  1.0000
  O  Te7       1.0  0.43617  0.60176  0.73392  1.0000
  O  Te8       1.0  0.39791  0.60714  0.67681  1.0000
  H   H164      1.0  0.44722  0.67597  0.46585  1.0000
  Mg  Mg4       1.0  0.40291  0.58359  0.77010  1.0000
  C   C245      1.0  0.34220  0.79677  0.50905  1.0000
  C   C246      1.0  0.35399  0.78562  0.54629  1.0000
  C  Sn9       1.0  0.37505  0.79734  0.62903  1.0000
  C  Sn10      1.0  0.38445  0.82065  0.67523  1.0000
  C   C247      1.0  0.37252  0.83164  0.63751  1.0000
  C   C248      1.0  0.35145  0.81976  0.55463  1.0000
  H   H165      1.0  0.32590  0.78757  0.44500  1.0000
  O  Te9       1.0  0.38661  0.78595  0.66522  1.0000
  O  Te10      1.0  0.40547  0.83277  0.75808  1.0000
  H   H166      1.0  0.34233  0.82839  0.52591  1.0000
  Mg  Mg5       1.0  0.41472  0.80978  0.77988  1.0000
  C   C249      1.0  0.53579  0.34193  0.94559  1.0000
  C   C250      1.0  0.53904  0.36274  0.89643  1.0000
  C  Sn11      1.0  0.56075  0.38012  0.85502  1.0000
  C  Sn12      1.0  0.57952  0.37655  0.86304  1.0000
  C   C251      1.0  0.57609  0.35566  0.91226  1.0000
  C   C252      1.0  0.55430  0.33839  0.95348  1.0000
  H   H167      1.0  0.51893  0.32856  0.97740  1.0000
  O  Te11      1.0  0.56370  0.40080  0.80621  1.0000
  O  Te12      1.0  0.60140  0.39362  0.82228  1.0000
  H   H168      1.0  0.55179  0.32228  0.99143  1.0000
  Mg  Mg6       1.0  0.59679  0.41887  0.76292  1.0000
  C   C253      1.0  0.81405  0.42969  0.33884  1.0000
  C   C254      1.0  0.82434  0.45331  0.35100  1.0000
  C  Sn13      1.0  0.81225  0.46343  0.41446  1.0000
  C  Sn14      1.0  0.78943  0.44962  0.46664  1.0000
  C   C255      1.0  0.77929  0.42601  0.45407  1.0000
  C   C256      1.0  0.79155  0.41606  0.39034  1.0000
  H   H169      1.0  0.82353  0.42199  0.28961  1.0000
  O  Te13      1.0  0.82278  0.48705  0.42570  1.0000
  O  Te14      1.0  0.77695  0.45930  0.53059  1.0000
  H   H170      1.0  0.78358  0.39778  0.38103  1.0000
  Mg  Mg7       1.0  0.79875  0.49226  0.52122  1.0000
  C   C257      1.0  0.37147  0.63187  0.92241  1.0000
  C   C258      1.0  0.36963  0.65062  0.97489  1.0000
  C  Sn15      1.0  0.38642  0.66389  0.05570  1.0000
  C  Sn16      1.0  0.40694  0.66384  0.08429  1.0000
  C   C259      1.0  0.40862  0.64501  0.03120  1.0000
  C   C260      1.0  0.39171  0.63181  0.95050  1.0000
  H   H171      1.0  0.35722  0.61741  0.85988  1.0000
  O  Te15      1.0  0.38429  0.68248  0.10737  1.0000
  O  Te16      1.0  0.42551  0.68238  0.16471  1.0000
  H   H172      1.0  0.39315  0.61730  0.90978  1.0000
  Mg  Mg8       1.0  0.41432  0.70372  0.21183  1.0000
  C   C261      1.0  0.36421  0.73342  0.90871  1.0000
  C   C262      1.0  0.34594  0.71358  0.96879  1.0000
  C  Sn17      1.0  0.32698  0.70888  0.05695  1.0000
  C  Sn18      1.0  0.32789  0.72995  0.08525  1.0000
  C   C263      1.0  0.34623  0.74970  0.02453  1.0000
  C   C264      1.0  0.36512  0.75421  0.93651  1.0000
  H   H173      1.0  0.37764  0.73267  0.84053  1.0000
  O  Te17      1.0  0.30885  0.68890  0.11616  1.0000
  O  Te18      1.0  0.31068  0.73122  0.17293  1.0000
  H   H174      1.0  0.37926  0.76957  0.88991  1.0000
  Mg  Mg9       1.0  0.28950  0.69933  0.22881  1.0000
  C   C265      1.0  0.07760  0.48323  0.91467  1.0000
  C   C266      1.0  0.06910  0.49748  0.96037  1.0000
  C  Sn19      1.0  0.08127  0.51243  0.04990  1.0000
  C  Sn20      1.0  0.10390  0.51868  0.09429  1.0000
  C   C267      1.0  0.11225  0.50432  0.04788  1.0000
  C   C268      1.0  0.09992  0.48939  0.95835  1.0000
  H   H175      1.0  0.06689  0.46744  0.84532  1.0000
  O  Te19      1.0  0.07251  0.52646  0.09461  1.0000
  O  Te20      1.0  0.11796  0.53902  0.18369  1.0000
  H   H176      1.0  0.10651  0.47837  0.92289  1.0000
  Mg  Mg10      1.0  0.09826  0.55244  0.21610  1.0000
  C   C269      1.0  0.54400  0.33918  0.47223  1.0000
  C   C270      1.0  0.56710  0.35069  0.43209  1.0000
  C  Sn21      1.0  0.57690  0.37181  0.35969  1.0000
  C  Sn22      1.0  0.56327  0.38155  0.32708  1.0000
  C   C271      1.0  0.54018  0.36990  0.36781  1.0000
  C   C272      1.0  0.53055  0.34877  0.44017  1.0000
  H   H177      1.0  0.53654  0.32283  0.52830  1.0000
  O  Te21      1.0  0.60000  0.38307  0.32031  1.0000
  O  Te22      1.0  0.57263  0.40264  0.25488  1.0000
  H   H178      1.0  0.51267  0.33987  0.47133  1.0000
  Mg  Mg11      1.0  0.60493  0.41141  0.22357  1.0000
  C   C273      1.0  0.63423  0.26317  0.07155  1.0000
  C   C274      1.0  0.65409  0.28337  0.03589  1.0000
  C  Sn23      1.0  0.67363  0.28835  0.95468  1.0000
  C  Sn24      1.0  0.67169  0.26718  0.90842  1.0000
  C   C275      1.0  0.65176  0.24707  0.94455  1.0000
  C   C276      1.0  0.63231  0.24229  0.02591  1.0000
  H   H179      1.0  0.62035  0.26372  0.13441  1.0000
  O  Te23      1.0  0.69335  0.30869  0.92006  1.0000
  O  Te24      1.0  0.68945  0.26617  0.82708  1.0000
  H   H180      1.0  0.61693  0.22664  0.05340  1.0000
  Mg  Mg12      1.0  0.71288  0.29852  0.80711  1.0000
  C   C277      1.0  0.74930  0.38153  0.07223  1.0000
  C   C278      1.0  0.75910  0.40661  0.98093  1.0000
  C  Sn25      1.0  0.74402  0.41223  0.90970  1.0000
  C  Sn26      1.0  0.72023  0.39793  0.93051  1.0000
  C   C279      1.0  0.71060  0.37289  0.02216  1.0000
  C   C280      1.0  0.72584  0.36742  0.09286  1.0000
  H   H181      1.0  0.76109  0.37730  0.12701  1.0000
  O  Te25      1.0  0.75258  0.43186  0.81882  1.0000
  O  Te26      1.0  0.70478  0.40315  0.86070  1.0000
  H   H182      1.0  0.71942  0.35226  0.16363  1.0000
  Mg  Mg13      1.0  0.72473  0.43175  0.74758  1.0000
  C   C281      1.0  0.27973  0.60467  0.57230  1.0000
  C   C282      1.0  0.28756  0.62470  0.48723  1.0000
  C  Sn27      1.0  0.27210  0.62983  0.41638  1.0000
  C  Sn28      1.0  0.24837  0.61459  0.43121  1.0000
  C   C283      1.0  0.24070  0.59460  0.51667  1.0000
  C   C284      1.0  0.25632  0.58963  0.58705  1.0000
  H   H183      1.0  0.29181  0.60083  0.62684  1.0000
  O  Te27      1.0  0.28021  0.64991  0.33176  1.0000
  O  Te28      1.0  0.23254  0.61930  0.36164  1.0000
  H   H184      1.0  0.25026  0.57413  0.65300  1.0000
  Mg  Mg14      1.0  0.25195  0.64882  0.25825  1.0000
  C   C285      1.0  0.92190  0.51595  0.07343  1.0000
  C   C286      1.0  0.92969  0.50071  0.04569  1.0000
  C  Sn29      1.0  0.91797  0.48591  0.95312  1.0000
  C  Sn30      1.0  0.89655  0.48085  0.88722  1.0000
  C   C287      1.0  0.88892  0.49621  0.91557  1.0000
  C   C288      1.0  0.90078  0.51097  0.00842  1.0000
  H   H185      1.0  0.93225  0.53162  0.14520  1.0000
  O  Te29      1.0  0.92601  0.47087  0.92663  1.0000
  O  Te30      1.0  0.88299  0.46070  0.79420  1.0000
  H   H186      1.0  0.89475  0.52277  0.02979  1.0000
  Mg  Mg15      1.0  0.90132  0.44561  0.79192  1.0000
  C   C289      1.0  0.80773  0.46202  0.93334  1.0000
  C   C290      1.0  0.82519  0.45798  0.88468  1.0000
  C  Sn31      1.0  0.82057  0.43583  0.85145  1.0000
  C  Sn32      1.0  0.79802  0.41741  0.86730  1.0000
  C   C291      1.0  0.78066  0.42163  0.91595  1.0000
  C   C292      1.0  0.78548  0.44387  0.94894  1.0000
  H   H187      1.0  0.81145  0.47923  0.95878  1.0000
  O  Te31      1.0  0.83822  0.43209  0.80303  1.0000
  O  Te32      1.0  0.79292  0.39510  0.83481  1.0000
  H   H188      1.0  0.77195  0.44699  0.98650  1.0000
  Mg  Mg16      1.0  0.82277  0.39866  0.77256  1.0000
  C   C293      1.0  0.71990  0.39766  0.41552  1.0000
  C   C294      1.0  0.71221  0.37646  0.48246  1.0000
  C  Sn33      1.0  0.72763  0.37138  0.55471  1.0000
  C  Sn34      1.0  0.75118  0.38789  0.55991  1.0000
  C   C295      1.0  0.75869  0.40906  0.49270  1.0000
  C   C296      1.0  0.74311  0.41395  0.42065  1.0000
  H   H189      1.0  0.70784  0.40145  0.35985  1.0000
  O  Te33      1.0  0.71967  0.35011  0.62095  1.0000
  O  Te34      1.0  0.76696  0.38327  0.63144  1.0000
  H   H190      1.0  0.74907  0.43038  0.36893  1.0000
  Mg  Mg17      1.0  0.74780  0.35184  0.70516  1.0000
  C   C297      1.0  0.65401  0.19308  0.44701  1.0000
  C   C298      1.0  0.63260  0.17531  0.39555  1.0000
  C  Sn35      1.0  0.61535  0.17970  0.35334  1.0000
  C  Sn36      1.0  0.61968  0.20231  0.36290  1.0000
  C   C299      1.0  0.64117  0.21997  0.41441  1.0000
  C   C300      1.0  0.65830  0.21539  0.45642  1.0000
  H   H191      1.0  0.66727  0.18955  0.47942  1.0000
  O  Te35      1.0  0.59405  0.16174  0.30224  1.0000
  O  Te36      1.0  0.60276  0.20716  0.32138  1.0000
  H   H192      1.0  0.67488  0.22915  0.49615  1.0000
  Mg  Mg18      1.0  0.57648  0.17695  0.25874  1.0000
