data_image0
_chemical_formula_structural       H144C180N12O12SnCSn2CSnTe4Mg2SnCSn2CSnTe4Mg2SnCSn2CSnTe4Mg2SnCSn2CSnTe4Mg2SnCSn2CSnTe4Mg2SnCSn2CSnTe4Mg2SnCSn2CSnTe4Mg2SnCSn2CSnTe4Mg2SnCSn2CSnTe4Mg2SnCSn2CSnTe4Mg2SnCSn2CSnTe4Mg2SnCSn2CSnTe4Mg2
_chemical_formula_sum              "H144 C204 N12 O12 Sn48 Te48 Mg24"
_cell_length_a       36.9788
_cell_length_b       36.5793
_cell_length_c       8.03719
_cell_angle_alpha    91.4463
_cell_angle_beta     89.9244
_cell_angle_gamma    120.317

_symmetry_space_group_name_H-M    'P1'
_space_group_IT_number       1

loop_
  _space_group_symop_operation_xyz
  'x, y, z'

loop_
  _atom_site_type_symbol
  _atom_site_label
  _atom_site_symmetry_multiplicity
  _atom_site_fract_x
  _atom_site_fract_y
  _atom_site_fract_z
  _atom_site_occupancy
  H   H1        1.0  0.62081  0.46863  0.28792  1.0000
  H   H2        1.0  0.53683  0.15588  0.26291  1.0000
  H   H3        1.0  0.84353  0.38240  0.26063  1.0000
  H   H4        1.0  0.15452  0.61789  0.26872  1.0000
  H   H5        1.0  0.52926  0.36348  0.07444  1.0000
  H   H6        1.0  0.63972  0.16360  0.07555  1.0000
  H   H7        1.0  0.57075  0.32825  0.06220  1.0000
  H   H8        1.0  0.67505  0.24096  0.06127  1.0000
  H   H9        1.0  0.66223  0.43303  0.27026  1.0000
  H   H10       1.0  0.57330  0.23348  0.24210  1.0000
  H   H11       1.0  0.76656  0.34378  0.23687  1.0000
  H   H12       1.0  0.23159  0.65906  0.25652  1.0000
  H   H13       1.0  0.56516  0.47196  0.40869  1.0000
  H   H14       1.0  0.53553  0.09556  0.36180  1.0000
  H   H15       1.0  0.90520  0.44252  0.35833  1.0000
  H   H16       1.0  0.43494  0.53140  0.39408  1.0000
  H   H17       1.0  0.46780  0.90460  0.40924  1.0000
  H   H18       1.0  0.09618  0.56535  0.40246  1.0000
  H   H19       1.0  0.52411  0.42032  0.17011  1.0000
  H   H20       1.0  0.58581  0.10194  0.16893  1.0000
  H   H21       1.0  0.89948  0.48416  0.16228  1.0000
  H   H22       1.0  0.47863  0.57951  0.17339  1.0000
  H   H23       1.0  0.42140  0.89714  0.15706  1.0000
  H   H24       1.0  0.09965  0.51820  0.15804  1.0000
  H   H25       1.0  0.44234  0.42486  0.07627  1.0000
  H   H26       1.0  0.57429  0.01076  0.05839  1.0000
  H   H27       1.0  0.99048  0.56390  0.05465  1.0000
  H   H28       1.0  0.55871  0.57238  0.08287  1.0000
  H   H29       1.0  0.43103  0.98667  0.08865  1.0000
  H   H30       1.0  0.01042  0.44109  0.08978  1.0000
  H   H31       1.0  0.70408  0.41555  0.40759  1.0000
  H   H32       1.0  0.59008  0.29468  0.39881  1.0000
  H   H33       1.0  0.70911  0.30077  0.39442  1.0000
  H   H34       1.0  0.29591  0.58768  0.40941  1.0000
  H   H35       1.0  0.40943  0.70870  0.41559  1.0000
  H   H36       1.0  0.29014  0.70205  0.40713  1.0000
  H   H37       1.0  0.62180  0.57951  0.10531  1.0000
  H   H38       1.0  0.42818  0.04626  0.10640  1.0000
  H   H39       1.0  0.94936  0.37893  0.10375  1.0000
  H   H40       1.0  0.37941  0.41804  0.09094  1.0000
  H   H41       1.0  0.57926  0.95420  0.06517  1.0000
  H   H42       1.0  0.04759  0.62591  0.09589  1.0000
  H   H43       1.0  0.63859  0.55127  0.23302  1.0000
  H   H44       1.0  0.45707  0.08918  0.25303  1.0000
  H   H45       1.0  0.90900  0.36787  0.25189  1.0000
  H   H46       1.0  0.36309  0.44523  0.23309  1.0000
  H   H47       1.0  0.54896  0.90501  0.16735  1.0000
  H   H48       1.0  0.09547  0.64137  0.20621  1.0000
  H   H49       1.0  0.59843  0.56176  0.30442  1.0000
  H   H50       1.0  0.44280  0.03598  0.30479  1.0000
  H   H51       1.0  0.96273  0.40595  0.30333  1.0000
  H   H52       1.0  0.40318  0.43383  0.29354  1.0000
  H   H53       1.0  0.55992  0.95396  0.26984  1.0000
  H   H54       1.0  0.04622  0.60221  0.28989  1.0000
  H   H55       1.0  0.36955  0.35703  0.38033  1.0000
  H   H56       1.0  0.63834  0.01443  0.31941  1.0000
  H   H57       1.0  0.98434  0.63148  0.36574  1.0000
  H   H58       1.0  0.36415  0.99684  0.37526  1.0000
  H   H59       1.0  0.30675  0.29887  0.23469  1.0000
  H   H60       1.0  0.69502  0.01080  0.16693  1.0000
  H   H61       1.0  0.98430  0.69088  0.22239  1.0000
  H   H62       1.0  0.30952  0.00546  0.23083  1.0000
  H   H63       1.0  0.31035  0.23893  0.09811  1.0000
  H   H64       1.0  0.75940  0.07715  0.08867  1.0000
  H   H65       1.0  0.91808  0.68115  0.09976  1.0000
  H   H66       1.0  0.68254  0.75724  0.08123  1.0000
  H   H67       1.0  0.24721  0.94252  0.10233  1.0000
  H   H68       1.0  0.06728  0.30873  0.06501  1.0000
  H   H69       1.0  0.37700  0.23793  0.10534  1.0000
  H   H70       1.0  0.76697  0.14699  0.16547  1.0000
  H   H71       1.0  0.85192  0.61221  0.12538  1.0000
  H   H72       1.0  0.24002  0.87138  0.11797  1.0000
  H   H73       1.0  0.43971  0.29594  0.25236  1.0000
  H   H74       1.0  0.71011  0.15058  0.31685  1.0000
  H   H75       1.0  0.85209  0.55274  0.26839  1.0000
  H   H76       1.0  0.29476  0.86295  0.26274  1.0000
  H   H77       1.0  0.62211  0.46453  0.78254  1.0000
  H   H78       1.0  0.53670  0.15281  0.78553  1.0000
  H   H79       1.0  0.52778  0.36580  0.57274  1.0000
  H   H80       1.0  0.63635  0.16762  0.57966  1.0000
  H   H81       1.0  0.83894  0.47342  0.59829  1.0000
  H   H82       1.0  0.16169  0.52485  0.56253  1.0000
  H   H83       1.0  0.57020  0.33152  0.55981  1.0000
  H   H84       1.0  0.67182  0.24492  0.56094  1.0000
  H   H85       1.0  0.76216  0.43378  0.57731  1.0000
  H   H86       1.0  0.23837  0.56718  0.55749  1.0000
  H   H87       1.0  0.66305  0.42840  0.76767  1.0000
  H   H88       1.0  0.57319  0.23045  0.76649  1.0000
  H   H89       1.0  0.56721  0.46916  0.90267  1.0000
  H   H90       1.0  0.53347  0.09342  0.89688  1.0000
  H   H91       1.0  0.90674  0.44014  0.88033  1.0000
  H   H92       1.0  0.43974  0.53057  0.86651  1.0000
  H   H93       1.0  0.46730  0.90113  0.87507  1.0000
  H   H94       1.0  0.09604  0.56303  0.88727  1.0000
  H   H95       1.0  0.52061  0.42116  0.67100  1.0000
  H   H96       1.0  0.58291  0.10530  0.66789  1.0000
  H   H97       1.0  0.90105  0.48323  0.67393  1.0000
  H   H98       1.0  0.47945  0.58415  0.67034  1.0000
  H   H99       1.0  0.41718  0.90057  0.66423  1.0000
  H   H100      1.0  0.10214  0.51982  0.65651  1.0000
  H   H101      1.0  0.44039  0.42866  0.57501  1.0000
  H   H102      1.0  0.57127  0.01467  0.56394  1.0000
  H   H103      1.0  0.98919  0.56060  0.56957  1.0000
  H   H104      1.0  0.55883  0.57520  0.58812  1.0000
  H   H105      1.0  0.42812  0.99056  0.59419  1.0000
  H   H106      1.0  0.01278  0.43994  0.58866  1.0000
  H   H107      1.0  0.70463  0.41199  0.91052  1.0000
  H   H108      1.0  0.59130  0.29096  0.90683  1.0000
  H   H109      1.0  0.71072  0.29775  0.90594  1.0000
  H   H110      1.0  0.29557  0.58341  0.91157  1.0000
  H   H111      1.0  0.40964  0.70387  0.90634  1.0000
  H   H112      1.0  0.29096  0.69848  0.91003  1.0000
  H   H113      1.0  0.61935  0.58056  0.60326  1.0000
  H   H114      1.0  0.42485  0.04953  0.60600  1.0000
  H   H115      1.0  0.95324  0.37694  0.60041  1.0000
  H   H116      1.0  0.37783  0.42286  0.58649  1.0000
  H   H117      1.0  0.57531  0.95646  0.56560  1.0000
  H   H118      1.0  0.04617  0.62326  0.58625  1.0000
  H   H119      1.0  0.63804  0.55357  0.72848  1.0000
  H   H120      1.0  0.45349  0.09322  0.74957  1.0000
  H   H121      1.0  0.91320  0.36384  0.75150  1.0000
  H   H122      1.0  0.36215  0.45223  0.72012  1.0000
  H   H123      1.0  0.54794  0.91201  0.69761  1.0000
  H   H124      1.0  0.09479  0.64158  0.69635  1.0000
  H   H125      1.0  0.59877  0.56455  0.80753  1.0000
  H   H126      1.0  0.43956  0.04045  0.80622  1.0000
  H   H127      1.0  0.96686  0.40258  0.80206  1.0000
  H   H128      1.0  0.40152  0.44070  0.78901  1.0000
  H   H129      1.0  0.56185  0.96434  0.77235  1.0000
  H   H130      1.0  0.04626  0.60378  0.78902  1.0000
  H   H131      1.0  0.35613  0.98491  0.86236  1.0000
  H   H132      1.0  0.00778  0.36690  0.81587  1.0000
  H   H133      1.0  0.29867  0.98565  0.70522  1.0000
  H   H134      1.0  0.00483  0.30677  0.65293  1.0000
  H   H135      1.0  0.32024  0.23419  0.57523  1.0000
  H   H136      1.0  0.75530  0.06334  0.58097  1.0000
  H   H137      1.0  0.93376  0.69278  0.60029  1.0000
  H   H138      1.0  0.67827  0.75980  0.59293  1.0000
  H   H139      1.0  0.23941  0.91844  0.58790  1.0000
  H   H140      1.0  0.07065  0.31151  0.55064  1.0000
  H   H141      1.0  0.23748  0.85031  0.63129  1.0000
  H   H142      1.0  0.13919  0.37612  0.61555  1.0000
  H   H143      1.0  0.29547  0.84975  0.78520  1.0000
  H   H144      1.0  0.14205  0.43633  0.77819  1.0000
  C   C1        1.0  0.61013  0.43890  0.35077  1.0000
  C   C2        1.0  0.56602  0.17557  0.33159  1.0000
  C   C3        1.0  0.82560  0.39334  0.33213  1.0000
  C   C4        1.0  0.17314  0.60740  0.33536  1.0000
  C   C5        1.0  0.57160  0.42032  0.43405  1.0000
  C   C6        1.0  0.58304  0.15588  0.42666  1.0000
  C   C7        1.0  0.84709  0.43017  0.43418  1.0000
  C   C8        1.0  0.15244  0.56904  0.42004  1.0000
  C   C9        1.0  0.55719  0.38083  0.50621  1.0000
  C   C10       1.0  0.62216  0.18161  0.50546  1.0000
  C   C11       1.0  0.82354  0.44518  0.51806  1.0000
  C   C12       1.0  0.17664  0.55428  0.49568  1.0000
  C   C13       1.0  0.58106  0.36113  0.49633  1.0000
  C   C14       1.0  0.64254  0.22553  0.49264  1.0000
  C   C15       1.0  0.77990  0.42290  0.50434  1.0000
  C   C16       1.0  0.22025  0.57812  0.49035  1.0000
  C   C17       1.0  0.61947  0.37922  0.41338  1.0000
  C   C18       1.0  0.62543  0.24555  0.40155  1.0000
  C   C19       1.0  0.75816  0.38555  0.40667  1.0000
  C   C20       1.0  0.24133  0.61670  0.40833  1.0000
  C   C21       1.0  0.63337  0.41868  0.34080  1.0000
  C   C22       1.0  0.58673  0.21933  0.32001  1.0000
  C   C23       1.0  0.78222  0.37159  0.31948  1.0000
  C   C24       1.0  0.21658  0.63054  0.32926  1.0000
  C   C25       1.0  0.51593  0.42742  0.04706  1.0000
  C   C26       1.0  0.57536  0.08477  0.04719  1.0000
  C   C27       1.0  0.91602  0.49087  0.04211  1.0000
  C   C28       1.0  0.48517  0.56952  0.05109  1.0000
  C   C29       1.0  0.42903  0.91292  0.03542  1.0000
  C   C30       1.0  0.08361  0.51137  0.03505  1.0000
  C   C31       1.0  0.50860  0.46461  0.07525  1.0000
  C   C32       1.0  0.53769  0.04060  0.07519  1.0000
  C   C33       1.0  0.95952  0.49685  0.07206  1.0000
  C   C34       1.0  0.49240  0.53258  0.08043  1.0000
  C   C35       1.0  0.46759  0.95684  0.06505  1.0000
  C   C36       1.0  0.04118  0.50792  0.06544  1.0000
  C   C37       1.0  0.46782  0.45753  0.08363  1.0000
  C   C38       1.0  0.54262  0.00517  0.06984  1.0000
  C   C39       1.0  0.99513  0.53703  0.06753  1.0000
  C   C40       1.0  0.53324  0.53972  0.08727  1.0000
  C   C41       1.0  0.46279  0.99221  0.08623  1.0000
  C   C42       1.0  0.00568  0.46804  0.08605  1.0000
  C   C43       1.0  0.54158  0.50662  0.09757  1.0000
  C   C44       1.0  0.49700  0.03336  0.10239  1.0000
  C   C45       1.0  0.96564  0.46256  0.10143  1.0000
  C   C46       1.0  0.45946  0.49068  0.09997  1.0000
  C   C47       1.0  0.50861  0.96388  0.07511  1.0000
  C   C48       1.0  0.03556  0.54317  0.07673  1.0000
  C   C49       1.0  0.64413  0.35768  0.40316  1.0000
  C   C50       1.0  0.64701  0.29221  0.39542  1.0000
  C   C51       1.0  0.71192  0.36103  0.39933  1.0000
  C   C52       1.0  0.35557  0.64562  0.41256  1.0000
  C   C53       1.0  0.35230  0.71083  0.41039  1.0000
  C   C54       1.0  0.28754  0.64186  0.40679  1.0000
  C   C55       1.0  0.68810  0.38111  0.40300  1.0000
  C   C56       1.0  0.62412  0.31328  0.39792  1.0000
  C   C57       1.0  0.69088  0.31659  0.39494  1.0000
  C   C58       1.0  0.31163  0.62207  0.40895  1.0000
  C   C59       1.0  0.37540  0.68999  0.41249  1.0000
  C   C60       1.0  0.30841  0.68628  0.40752  1.0000
  C   C61       1.0  0.61164  0.55408  0.19537  1.0000
  C   C62       1.0  0.45252  0.05888  0.20456  1.0000
  C   C63       1.0  0.93891  0.39254  0.20326  1.0000
  C   C64       1.0  0.38990  0.44268  0.19027  1.0000
  C   C65       1.0  0.55298  0.93646  0.14979  1.0000
  C   C66       1.0  0.06411  0.61483  0.17537  1.0000
  C   C67       1.0  0.47535  0.39295  0.47790  1.0000
  C   C68       1.0  0.60774  0.08526  0.47540  1.0000
  C   C69       1.0  0.91836  0.52475  0.47541  1.0000
  C   C70       1.0  0.52383  0.60957  0.47977  1.0000
  C   C71       1.0  0.39165  0.92032  0.47561  1.0000
  C   C72       1.0  0.08095  0.47309  0.46438  1.0000
  C   C73       1.0  0.44459  0.36377  0.40930  1.0000
  C   C74       1.0  0.63703  0.08448  0.40926  1.0000
  C   C75       1.0  0.91837  0.55404  0.40634  1.0000
  C   C76       1.0  0.55360  0.63772  0.40874  1.0000
  C   C77       1.0  0.36432  0.92442  0.40970  1.0000
  C   C78       1.0  0.07763  0.44178  0.39289  1.0000
  C   C79       1.0  0.40881  0.33035  0.32663  1.0000
  C   C80       1.0  0.67022  0.08272  0.32759  1.0000
  C   C81       1.0  0.91828  0.58807  0.32588  1.0000
  C   C82       1.0  0.33294  0.92926  0.32915  1.0000
  C   C83       1.0  0.37093  0.33086  0.31958  1.0000
  C   C84       1.0  0.66654  0.04332  0.28476  1.0000
  C   C85       1.0  0.95555  0.62742  0.31162  1.0000
  C   C86       1.0  0.33688  0.96957  0.31844  1.0000
  C   C87       1.0  0.33575  0.29807  0.23888  1.0000
  C   C88       1.0  0.69853  0.04143  0.20064  1.0000
  C   C89       1.0  0.95528  0.66072  0.23246  1.0000
  C   C90       1.0  0.30609  0.97420  0.23841  1.0000
  C   C91       1.0  0.33766  0.26431  0.16273  1.0000
  C   C92       1.0  0.73480  0.07868  0.15721  1.0000
  C   C93       1.0  0.91805  0.65546  0.16510  1.0000
  C   C94       1.0  0.27097  0.93887  0.16684  1.0000
  C   C95       1.0  0.37517  0.26373  0.16717  1.0000
  C   C96       1.0  0.73890  0.11793  0.19979  1.0000
  C   C97       1.0  0.88091  0.61655  0.17857  1.0000
  C   C98       1.0  0.26695  0.89884  0.17562  1.0000
  C   C99       1.0  0.41048  0.29630  0.24832  1.0000
  C   C100      1.0  0.70704  0.12012  0.28379  1.0000
  C   C101      1.0  0.88085  0.58309  0.25792  1.0000
  C   C102      1.0  0.29756  0.89393  0.25568  1.0000
  C   C103      1.0  0.61136  0.43505  0.84715  1.0000
  C   C104      1.0  0.56666  0.17233  0.84933  1.0000
  C   C105      1.0  0.57304  0.41718  0.93144  1.0000
  C   C106      1.0  0.58499  0.15244  0.93434  1.0000
  C   C107      1.0  0.55847  0.37798  0.00656  1.0000
  C   C108      1.0  0.62482  0.17789  0.00765  1.0000
  C   C109      1.0  0.58192  0.35780  0.99772  1.0000
  C   C110      1.0  0.64504  0.22186  0.99748  1.0000
  C   C111      1.0  0.62026  0.37537  0.91437  1.0000
  C   C112      1.0  0.62705  0.24214  0.91367  1.0000
  C   C113      1.0  0.63433  0.41455  0.83903  1.0000
  C   C114      1.0  0.58738  0.21613  0.83900  1.0000
  C   C115      1.0  0.51339  0.42951  0.54840  1.0000
  C   C116      1.0  0.57256  0.08833  0.54582  1.0000
  C   C117      1.0  0.91599  0.48746  0.55094  1.0000
  C   C118      1.0  0.48596  0.57400  0.54846  1.0000
  C   C119      1.0  0.42641  0.91671  0.54343  1.0000
  C   C120      1.0  0.08511  0.51229  0.53558  1.0000
  C   C121      1.0  0.50682  0.46723  0.57808  1.0000
  C   C122      1.0  0.53470  0.04455  0.57677  1.0000
  C   C123      1.0  0.95953  0.49346  0.58069  1.0000
  C   C124      1.0  0.49240  0.53647  0.57737  1.0000
  C   C125      1.0  0.46471  0.96076  0.57594  1.0000
  C   C126      1.0  0.04205  0.50691  0.57039  1.0000
  C   C127      1.0  0.46639  0.46106  0.58224  1.0000
  C   C128      1.0  0.53965  0.00916  0.57646  1.0000
  C   C129      1.0  0.99457  0.53415  0.57927  1.0000
  C   C130      1.0  0.53289  0.54276  0.58949  1.0000
  C   C131      1.0  0.45990  0.99620  0.59267  1.0000
  C   C132      1.0  0.00728  0.46645  0.58944  1.0000
  C   C133      1.0  0.54024  0.50903  0.60201  1.0000
  C   C134      1.0  0.49406  0.03751  0.60520  1.0000
  C   C135      1.0  0.96675  0.45967  0.60743  1.0000
  C   C136      1.0  0.45893  0.49482  0.59352  1.0000
  C   C137      1.0  0.50574  0.96802  0.58859  1.0000
  C   C138      1.0  0.03537  0.54136  0.58602  1.0000
  C   C139      1.0  0.64506  0.35395  0.90778  1.0000
  C   C140      1.0  0.64848  0.28878  0.90658  1.0000
  C   C141      1.0  0.71317  0.35788  0.90699  1.0000
  C   C142      1.0  0.35547  0.64115  0.90915  1.0000
  C   C143      1.0  0.35282  0.70668  0.90757  1.0000
  C   C144      1.0  0.28774  0.63797  0.90986  1.0000
  C   C145      1.0  0.68900  0.37758  0.90783  1.0000
  C   C146      1.0  0.62533  0.30960  0.90606  1.0000
  C   C147      1.0  0.69237  0.31343  0.90562  1.0000
  C   C148      1.0  0.31151  0.61782  0.90958  1.0000
  C   C149      1.0  0.37559  0.68551  0.90720  1.0000
  C   C150      1.0  0.30894  0.68240  0.90876  1.0000
  C   C151      1.0  0.61058  0.55601  0.69630  1.0000
  C   C152      1.0  0.44930  0.06283  0.70392  1.0000
  C   C153      1.0  0.94264  0.38951  0.70335  1.0000
  C   C154      1.0  0.38857  0.44852  0.68151  1.0000
  C   C155      1.0  0.55165  0.94250  0.66340  1.0000
  C   C156      1.0  0.06344  0.61427  0.67163  1.0000
  C   C157      1.0  0.47808  0.39006  0.98045  1.0000
  C   C158      1.0  0.61018  0.08159  0.97496  1.0000
  C   C159      1.0  0.91900  0.52931  0.97521  1.0000
  C   C160      1.0  0.52251  0.60567  0.98127  1.0000
  C   C161      1.0  0.39305  0.91596  0.97763  1.0000
  C   C162      1.0  0.07867  0.47161  0.96508  1.0000
  C   C163      1.0  0.44822  0.36029  0.91013  1.0000
  C   C164      1.0  0.63761  0.07825  0.90463  1.0000
  C   C165      1.0  0.92165  0.55957  0.90412  1.0000
  C   C166      1.0  0.55156  0.63522  0.91243  1.0000
  C   C167      1.0  0.36352  0.91684  0.91522  1.0000
  C   C168      1.0  0.07679  0.44075  0.89505  1.0000
  C   C169      1.0  0.32979  0.91731  0.83343  1.0000
  C   C170      1.0  0.07508  0.40574  0.80726  1.0000
  C   C171      1.0  0.33020  0.95561  0.81049  1.0000
  C   C172      1.0  0.03639  0.36871  0.77118  1.0000
  C   C173      1.0  0.29772  0.95582  0.72373  1.0000
  C   C174      1.0  0.03493  0.33497  0.68099  1.0000
  C   C175      1.0  0.26425  0.91803  0.65864  1.0000
  C   C176      1.0  0.07187  0.33744  0.62451  1.0000
  C   C177      1.0  0.26337  0.87981  0.68205  1.0000
  C   C178      1.0  0.11040  0.37394  0.66016  1.0000
  C   C179      1.0  0.29576  0.87929  0.76809  1.0000
  C   C180      1.0  0.11218  0.40784  0.75035  1.0000
  N   N1        1.0  0.54827  0.44072  0.43378  1.0000
  N   N2        1.0  0.56064  0.11218  0.43909  1.0000
  N   N3        1.0  0.89036  0.44905  0.45097  1.0000
  N   N4        1.0  0.45090  0.56223  0.43294  1.0000
  N   N5        1.0  0.43651  0.89188  0.42470  1.0000
  N   N6        1.0  0.10862  0.54648  0.41820  1.0000
  N   N7        1.0  0.55017  0.43803  0.92972  1.0000
  N   N8        1.0  0.56378  0.10838  0.93592  1.0000
  N   N9        1.0  0.89197  0.45531  0.92492  1.0000
  N   N10       1.0  0.44888  0.55629  0.94293  1.0000
  N   N11       1.0  0.43708  0.88761  0.91181  1.0000
  N   N12       1.0  0.10889  0.54552  0.92113  1.0000
  O   O1        1.0  0.58173  0.51348  0.12418  1.0000
  O   O2        1.0  0.49257  0.06814  0.14135  1.0000
  O   O3        1.0  0.93078  0.42426  0.14149  1.0000
  O   O4        1.0  0.41971  0.48383  0.13237  1.0000
  O   O5        1.0  0.51384  0.92892  0.08279  1.0000
  O   O6        1.0  0.07068  0.58353  0.09164  1.0000
  O   O7        1.0  0.57984  0.51492  0.63246  1.0000
  O   O8        1.0  0.48935  0.07212  0.64167  1.0000
  O   O9        1.0  0.93310  0.42080  0.64929  1.0000
  O   O10       1.0  0.41901  0.48871  0.61710  1.0000
  O   O11       1.0  0.51104  0.93328  0.60723  1.0000
  O   O12       1.0  0.07025  0.58198  0.59988  1.0000
  C  Sn1       1.0  0.21031  0.56157  0.96205  1.0000
  C   C181      1.0  0.23640  0.60036  0.88842  1.0000
  C  Sn2       1.0  0.22049  0.62592  0.83927  1.0000
  C  Sn3       1.0  0.17762  0.61245  0.86430  1.0000
  C   C182      1.0  0.15157  0.57368  0.93791  1.0000
  C  Sn4       1.0  0.16745  0.54809  0.98708  1.0000
  O  Te1       1.0  0.22356  0.52928  0.01023  1.0000
  O  Te2       1.0  0.24717  0.66457  0.76587  1.0000
  O  Te3       1.0  0.16106  0.63753  0.81604  1.0000
  O  Te4       1.0  0.13746  0.50223  0.06046  1.0000
  Mg  Mg1       1.0  0.20989  0.68754  0.72138  1.0000
  Mg  Mg2       1.0  0.17470  0.47924  0.10507  1.0000
  C  Sn5       1.0  0.36310  0.57204  0.37549  1.0000
  C   C183      1.0  0.37276  0.61144  0.44453  1.0000
  C  Sn6       1.0  0.41338  0.64008  0.50124  1.0000
  C  Sn7       1.0  0.44504  0.62913  0.48860  1.0000
  C   C184      1.0  0.43538  0.58976  0.41958  1.0000
  C  Sn8       1.0  0.39475  0.56109  0.36285  1.0000
  O  Te5       1.0  0.32227  0.54390  0.31959  1.0000
  O  Te6       1.0  0.42228  0.67928  0.56984  1.0000
  O  Te7       1.0  0.48589  0.65731  0.54458  1.0000
  O  Te8       1.0  0.38585  0.52192  0.29427  1.0000
  Mg  Mg3       1.0  0.48258  0.70687  0.62846  1.0000
  Mg  Mg4       1.0  0.32557  0.49431  0.23553  1.0000
  C  Sn9       1.0  0.35206  0.78790  0.46237  1.0000
  C   C185      1.0  0.36580  0.76198  0.39001  1.0000
  C  Sn10      1.0  0.40741  0.77918  0.34117  1.0000
  C  Sn11      1.0  0.43589  0.82319  0.36523  1.0000
  C   C186      1.0  0.42215  0.84908  0.43756  1.0000
  C  Sn12      1.0  0.38054  0.83192  0.48643  1.0000
  O  Te9       1.0  0.31032  0.77003  0.51026  1.0000
  O  Te10      1.0  0.42042  0.75263  0.26905  1.0000
  O  Te11      1.0  0.47766  0.84105  0.31725  1.0000
  O  Te12      1.0  0.36754  0.85843  0.55853  1.0000
  Mg  Mg5       1.0  0.48041  0.79188  0.22448  1.0000
  Mg  Mg6       1.0  0.30756  0.81922  0.60322  1.0000
  C  Sn13      1.0  0.02918  0.34468  0.16840  1.0000
  C   C187      1.0  0.06189  0.34018  0.10394  1.0000
  C  Sn14      1.0  0.10325  0.36824  0.15406  1.0000
  C  Sn15      1.0  0.11212  0.40147  0.27114  1.0000
  C   C188      1.0  0.07943  0.40596  0.33556  1.0000
  C  Sn16      1.0  0.03805  0.37792  0.28549  1.0000
  O  Te13      1.0  0.98806  0.31626  0.11654  1.0000
  O  Te14      1.0  0.13542  0.36311  0.08782  1.0000
  O  Te15      1.0  0.15328  0.42990  0.32297  1.0000
  O  Te16      1.0  0.00589  0.38303  0.35167  1.0000
  Mg  Mg7       1.0  0.18633  0.40984  0.19727  1.0000
  Mg  Mg8       1.0  0.95497  0.33630  0.24239  1.0000
  C  Sn17      1.0  0.88650  0.62258  0.72245  1.0000
  C   C189      1.0  0.92223  0.66228  0.70293  1.0000
  C  Sn18      1.0  0.96205  0.66803  0.73155  1.0000
  C  Sn19      1.0  0.96625  0.63337  0.78061  1.0000
  C   C190      1.0  0.93054  0.59370  0.80008  1.0000
  C  Sn20      1.0  0.89071  0.58792  0.77151  1.0000
  O  Te17      1.0  0.84700  0.61756  0.69317  1.0000
  O  Te18      1.0  0.99730  0.70802  0.71129  1.0000
  O  Te19      1.0  0.00580  0.63842  0.80990  1.0000
  O  Te20      1.0  0.85547  0.54795  0.79173  1.0000
  Mg  Mg9       1.0  0.04437  0.69900  0.76571  1.0000
  Mg  Mg10      1.0  0.80839  0.55694  0.73726  1.0000
  C  Sn21      1.0  0.73754  0.11090  0.74438  1.0000
  C   C191      1.0  0.73720  0.07378  0.69575  1.0000
  C  Sn22      1.0  0.69996  0.03474  0.69675  1.0000
  C  Sn23      1.0  0.66226  0.03276  0.74731  1.0000
  C   C192      1.0  0.66261  0.06987  0.79587  1.0000
  C  Sn24      1.0  0.69985  0.10893  0.79494  1.0000
  O  Te21      1.0  0.77514  0.14959  0.74241  1.0000
  O  Te22      1.0  0.19973  0.99805  0.64765  1.0000
  O  Te23      1.0  0.12398  0.99403  0.74925  1.0000
  O  Te24      1.0  0.69941  0.14560  0.84397  1.0000
  Mg  Mg11      1.0  0.14056  0.95286  0.67140  1.0000
  Mg  Mg12      1.0  0.75856  0.19080  0.82019  1.0000
  C  Sn25      1.0  0.79350  0.36567  0.87206  1.0000
  C   C193      1.0  0.76472  0.37590  0.93907  1.0000
  C  Sn26      1.0  0.77766  0.41747  0.99132  1.0000
  C  Sn27      1.0  0.82026  0.44950  0.97618  1.0000
  C   C194      1.0  0.84900  0.43926  0.90919  1.0000
  C  Sn28      1.0  0.83609  0.39769  0.85693  1.0000
  O  Te25      1.0  0.77986  0.32390  0.82063  1.0000
  O  Te26      1.0  0.74499  0.41969  0.05796  1.0000
  O  Te27      1.0  0.83054  0.48404  0.02769  1.0000
  O  Te28      1.0  0.86540  0.38823  0.79029  1.0000
  Mg  Mg13      1.0  0.77878  0.48123  0.11040  1.0000
  Mg  Mg14      1.0  0.83164  0.32671  0.73774  1.0000
  C  Sn29      1.0  0.35116  0.30707  0.70092  1.0000
  C   C195      1.0  0.34955  0.27198  0.62019  1.0000
  C  Sn30      1.0  0.37996  0.26111  0.65351  1.0000
  C  Sn31      1.0  0.41264  0.28581  0.77003  1.0000
  C   C196      1.0  0.41423  0.32087  0.85070  1.0000
  C  Sn32      1.0  0.38384  0.33177  0.81744  1.0000
  O  Te29      1.0  0.32043  0.31735  0.66570  1.0000
  O  Te30      1.0  0.37770  0.22590  0.57120  1.0000
  O  Te31      1.0  0.44338  0.27550  0.80520  1.0000
  O  Te32      1.0  0.38608  0.36695  0.89969  1.0000
  Mg  Mg15      1.0  0.42685  0.22464  0.66133  1.0000
  Mg  Mg16      1.0  0.33694  0.36823  0.80973  1.0000
  C  Sn33      1.0  0.43468  0.64902  0.97372  1.0000
  C   C197      1.0  0.39643  0.63519  0.89179  1.0000
  C  Sn34      1.0  0.37224  0.59313  0.83505  1.0000
  C  Sn35      1.0  0.38656  0.56429  0.86082  1.0000
  C   C198      1.0  0.42478  0.57812  0.94273  1.0000
  C  Sn36      1.0  0.44900  0.62018  0.99949  1.0000
  O  Te33      1.0  0.45502  0.68397  0.02939  1.0000
  O  Te34      1.0  0.33412  0.58004  0.75342  1.0000
  O  Te35      1.0  0.36286  0.52207  0.80506  1.0000
  O  Te36      1.0  0.48377  0.62602  0.08110  1.0000
  Mg  Mg17      1.0  0.31309  0.51938  0.70066  1.0000
  Mg  Mg18      1.0  0.50481  0.68667  0.13399  1.0000
  C  Sn37      1.0  0.64327  0.68461  0.67817  1.0000
  C   C199      1.0  0.64751  0.72292  0.62868  1.0000
  C  Sn38      1.0  0.62165  0.73709  0.69486  1.0000
  C  Sn39      1.0  0.59092  0.71247  0.81305  1.0000
  C   C200      1.0  0.58670  0.67418  0.86250  1.0000
  C  Sn40      1.0  0.61255  0.65998  0.79636  1.0000
  O  Te37      1.0  0.66947  0.67106  0.61038  1.0000
  O  Te38      1.0  0.62647  0.77549  0.64342  1.0000
  O  Te39      1.0  0.56472  0.72605  0.88082  1.0000
  O  Te40      1.0  0.60775  0.62161  0.84775  1.0000
  Mg  Mg19      1.0  0.58335  0.78053  0.77158  1.0000
  Mg  Mg20      1.0  0.65086  0.61655  0.71975  1.0000
  C  Sn41      1.0  0.63725  0.67676  0.31239  1.0000
  C   C201      1.0  0.59985  0.67526  0.35461  1.0000
  C  Sn42      1.0  0.58837  0.70192  0.27882  1.0000
  C  Sn43      1.0  0.61479  0.73067  0.15822  1.0000
  C   C202      1.0  0.65216  0.73216  0.11604  1.0000
  C  Sn44      1.0  0.66367  0.70551  0.19179  1.0000
  O  Te41      1.0  0.64810  0.64982  0.38974  1.0000
  O  Te42      1.0  0.55084  0.69985  0.32311  1.0000
  O  Te43      1.0  0.60390  0.75762  0.08087  1.0000
  O  Te44      1.0  0.70117  0.70757  0.14754  1.0000
  Mg  Mg21      1.0  0.54965  0.74298  0.18296  1.0000
  Mg  Mg22      1.0  0.70238  0.66444  0.28753  1.0000
  C  Sn45      1.0  0.42422  0.81208  0.78110  1.0000
  C   C203      1.0  0.41310  0.83851  0.86760  1.0000
  C  Sn46      1.0  0.38356  0.82255  0.99410  1.0000
  C  Sn47      1.0  0.36141  0.77204  0.03508  1.0000
  C   C204      1.0  0.37586  0.75288  0.94863  1.0000
  C  Sn48      1.0  0.40540  0.76881  0.82208  1.0000
  O  Te45      1.0  0.45383  0.82871  0.65509  1.0000
  O  Te46      1.0  0.36962  0.84234  0.07879  1.0000
  O  Te47      1.0  0.33178  0.75542  0.16120  1.0000
  O  Te48      1.0  0.41602  0.74180  0.73744  1.0000
  Mg  Mg23      1.0  0.32766  0.80483  0.24076  1.0000
  Mg  Mg24      1.0  0.45798  0.77929  0.57552  1.0000
