data_image0
_chemical_formula_structural       H96C108N12O12SnCSn2CSnTe4Mg2SnCSn2CSnTe4Mg2SnCSn2CSnTe4Mg2SnCSn2CSnTe4Mg2SnCSn2CSnTe4Mg2SnCSn2CSnTe4Mg2SnCSn2CSnTe4Mg2SnCSn2CSnTe4Mg2SnCSn2CSnTe4Mg2SnCSn2CSnTe4Mg2SnCSn2CSnTe4Mg2SnCSn2CSnTe4Mg2SnCSn2CSnTe4Mg2SnCSn2CSnTe4Mg2SnCSn2CSnTe4Mg2SnCSn2CSnTe4Mg2SnCSn2CSnTe4Mg2SnCSn2CSnTe4Mg2SnCSn2CSnTe4Mg2SnCSn2CSnTe4Mg2SnCSn2CSnTe4Mg2SnCSn2CSnTe4Mg2SnCSn2CSnTe4Mg2SnCSn2CSnTe4Mg2
_chemical_formula_sum              "H96 C156 N12 O12 Sn96 Te96 Mg48"
_cell_length_a       37.0291
_cell_length_b       36.6792
_cell_length_c       8.95878
_cell_angle_alpha    90.0164
_cell_angle_beta     91.5582
_cell_angle_gamma    120.223

_symmetry_space_group_name_H-M    'P1'
_space_group_IT_number       1

loop_
  _space_group_symop_operation_xyz
  'x, y, z'

loop_
  _atom_site_type_symbol
  _atom_site_label
  _atom_site_symmetry_multiplicity
  _atom_site_fract_x
  _atom_site_fract_y
  _atom_site_fract_z
  _atom_site_occupancy
  H   H1        1.0  0.56645  0.46839  0.34789  1.0000
  H   H2        1.0  0.53532  0.09961  0.34078  1.0000
  H   H3        1.0  0.90440  0.43653  0.35173  1.0000
  H   H4        1.0  0.43286  0.52923  0.33724  1.0000
  H   H5        1.0  0.46620  0.90245  0.35819  1.0000
  H   H6        1.0  0.09851  0.56234  0.34092  1.0000
  H   H7        1.0  0.55354  0.44987  0.07692  1.0000
  H   H8        1.0  0.54985  0.10145  0.07146  1.0000
  H   H9        1.0  0.89631  0.44817  0.08623  1.0000
  H   H10       1.0  0.44704  0.54866  0.07414  1.0000
  H   H11       1.0  0.44671  0.89454  0.08524  1.0000
  H   H12       1.0  0.10138  0.54906  0.07115  1.0000
  H   H13       1.0  0.45025  0.42269  0.18182  1.0000
  H   H14       1.0  0.57447  0.02274  0.15777  1.0000
  H   H15       1.0  0.97812  0.55232  0.16785  1.0000
  H   H16       1.0  0.55067  0.57610  0.16794  1.0000
  H   H17       1.0  0.42417  0.97508  0.19664  1.0000
  H   H18       1.0  0.02255  0.44566  0.18342  1.0000
  H   H19       1.0  0.70580  0.41480  0.38584  1.0000
  H   H20       1.0  0.59318  0.29359  0.37391  1.0000
  H   H21       1.0  0.71294  0.30150  0.36796  1.0000
  H   H22       1.0  0.29815  0.58636  0.37601  1.0000
  H   H23       1.0  0.41084  0.70748  0.37967  1.0000
  H   H24       1.0  0.29132  0.70002  0.37676  1.0000
  H   H25       1.0  0.61202  0.58824  0.09420  1.0000
  H   H26       1.0  0.41411  0.02767  0.11555  1.0000
  H   H27       1.0  0.96485  0.38304  0.09693  1.0000
  H   H28       1.0  0.38747  0.41202  0.09660  1.0000
  H   H29       1.0  0.57585  0.96811  0.03809  1.0000
  H   H30       1.0  0.03252  0.61579  0.09501  1.0000
  H   H31       1.0  0.64559  0.57212  0.18308  1.0000
  H   H32       1.0  0.43213  0.07641  0.21663  1.0000
  H   H33       1.0  0.92097  0.35320  0.21354  1.0000
  H   H34       1.0  0.35538  0.42736  0.19386  1.0000
  H   H35       1.0  0.56620  0.92131  0.13526  1.0000
  H   H36       1.0  0.08097  0.64512  0.19940  1.0000
  H   H37       1.0  0.61050  0.58093  0.29190  1.0000
  H   H38       1.0  0.42178  0.02959  0.31466  1.0000
  H   H39       1.0  0.97173  0.38824  0.29607  1.0000
  H   H40       1.0  0.39082  0.41601  0.29641  1.0000
  H   H41       1.0  0.58502  0.97013  0.23629  1.0000
  H   H42       1.0  0.03395  0.60993  0.29327  1.0000
  H   H43       1.0  0.37369  0.23510  0.19654  1.0000
  H   H44       1.0  0.76139  0.13869  0.19563  1.0000
  H   H45       1.0  0.84456  0.61738  0.21619  1.0000
  H   H46       1.0  0.62058  0.76392  0.20035  1.0000
  H   H47       1.0  0.23996  0.87187  0.18213  1.0000
  H   H48       1.0  0.13009  0.36804  0.17963  1.0000
  H   H49       1.0  0.56881  0.47076  0.85054  1.0000
  H   H50       1.0  0.53525  0.09934  0.83838  1.0000
  H   H51       1.0  0.90326  0.43663  0.85219  1.0000
  H   H52       1.0  0.43432  0.53348  0.84597  1.0000
  H   H53       1.0  0.46792  0.90370  0.85578  1.0000
  H   H54       1.0  0.09700  0.56152  0.83903  1.0000
  H   H55       1.0  0.55381  0.45366  0.58493  1.0000
  H   H56       1.0  0.55163  0.10352  0.57269  1.0000
  H   H57       1.0  0.89536  0.44887  0.58578  1.0000
  H   H58       1.0  0.44624  0.54933  0.57919  1.0000
  H   H59       1.0  0.44878  0.89639  0.58665  1.0000
  H   H60       1.0  0.09989  0.54905  0.56924  1.0000
  H   H61       1.0  0.44985  0.42461  0.68256  1.0000
  H   H62       1.0  0.57659  0.02476  0.66264  1.0000
  H   H63       1.0  0.97712  0.55289  0.67718  1.0000
  H   H64       1.0  0.55035  0.57824  0.69270  1.0000
  H   H65       1.0  0.42586  0.97690  0.68603  1.0000
  H   H66       1.0  0.02063  0.44550  0.67229  1.0000
  H   H67       1.0  0.70440  0.41409  0.87946  1.0000
  H   H68       1.0  0.59170  0.29297  0.87308  1.0000
  H   H69       1.0  0.71139  0.30070  0.88305  1.0000
  H   H70       1.0  0.29686  0.58839  0.86253  1.0000
  H   H71       1.0  0.40945  0.70932  0.87432  1.0000
  H   H72       1.0  0.28961  0.70161  0.87267  1.0000
  H   H73       1.0  0.61348  0.59001  0.63096  1.0000
  H   H74       1.0  0.41648  0.02919  0.59539  1.0000
  H   H75       1.0  0.96325  0.38288  0.58883  1.0000
  H   H76       1.0  0.38535  0.41349  0.61075  1.0000
  H   H77       1.0  0.57735  0.96943  0.54374  1.0000
  H   H78       1.0  0.02989  0.61373  0.58938  1.0000
  H   H79       1.0  0.64485  0.57434  0.73900  1.0000
  H   H80       1.0  0.43331  0.07793  0.69435  1.0000
  H   H81       1.0  0.91845  0.35307  0.70096  1.0000
  H   H82       1.0  0.35541  0.42945  0.71855  1.0000
  H   H83       1.0  0.56818  0.92295  0.64218  1.0000
  H   H84       1.0  0.07896  0.64546  0.68893  1.0000
  H   H85       1.0  0.60701  0.58324  0.82838  1.0000
  H   H86       1.0  0.42234  0.03124  0.79521  1.0000
  H   H87       1.0  0.96863  0.38760  0.78861  1.0000
  H   H88       1.0  0.39276  0.41868  0.80974  1.0000
  H   H89       1.0  0.58743  0.97210  0.74143  1.0000
  H   H90       1.0  0.03272  0.61133  0.78896  1.0000
  H   H91       1.0  0.37381  0.23156  0.69347  1.0000
  H   H92       1.0  0.75811  0.12979  0.69764  1.0000
  H   H93       1.0  0.87214  0.63322  0.69614  1.0000
  H   H94       1.0  0.61869  0.75995  0.68972  1.0000
  H   H95       1.0  0.23458  0.86229  0.68823  1.0000
  H   H96       1.0  0.13373  0.37140  0.67550  1.0000
  C   C1        1.0  0.52982  0.43857  0.16331  1.0000
  C   C2        1.0  0.56175  0.08936  0.16141  1.0000
  C   C3        1.0  0.91116  0.47309  0.17316  1.0000
  C   C4        1.0  0.47080  0.56010  0.16599  1.0000
  C   C5        1.0  0.43672  0.90857  0.17200  1.0000
  C   C6        1.0  0.08900  0.52508  0.15893  1.0000
  C   C7        1.0  0.51446  0.46999  0.17238  1.0000
  C   C8        1.0  0.52962  0.04244  0.17538  1.0000
  C   C9        1.0  0.95753  0.48684  0.18004  1.0000
  C   C10       1.0  0.48651  0.52884  0.17581  1.0000
  C   C11       1.0  0.46915  0.95543  0.18093  1.0000
  C   C12       1.0  0.04293  0.51116  0.17165  1.0000
  C   C13       1.0  0.47191  0.45648  0.18029  1.0000
  C   C14       1.0  0.54147  0.01186  0.16936  1.0000
  C   C15       1.0  0.98839  0.52937  0.17505  1.0000
  C   C16       1.0  0.52910  0.54235  0.17276  1.0000
  C   C17       1.0  0.45735  0.98598  0.19157  1.0000
  C   C18       1.0  0.01227  0.46867  0.18171  1.0000
  C   C19       1.0  0.54320  0.51349  0.17019  1.0000
  C   C20       1.0  0.48696  0.02899  0.18817  1.0000
  C   C21       1.0  0.96998  0.45643  0.18734  1.0000
  C   C22       1.0  0.45781  0.48532  0.18124  1.0000
  C   C23       1.0  0.51184  0.96884  0.17196  1.0000
  C   C24       1.0  0.03068  0.54169  0.17279  1.0000
  C   C25       1.0  0.64649  0.35657  0.38086  1.0000
  C   C26       1.0  0.65059  0.29198  0.37355  1.0000
  C   C27       1.0  0.71472  0.36110  0.38060  1.0000
  C   C28       1.0  0.35742  0.64446  0.38021  1.0000
  C   C29       1.0  0.35348  0.70912  0.38040  1.0000
  C   C30       1.0  0.28927  0.64019  0.37800  1.0000
  C   C31       1.0  0.69035  0.38051  0.38466  1.0000
  C   C32       1.0  0.62715  0.31238  0.37783  1.0000
  C   C33       1.0  0.69437  0.31681  0.37518  1.0000
  C   C34       1.0  0.31356  0.62065  0.37988  1.0000
  C   C35       1.0  0.37691  0.68866  0.38209  1.0000
  C   C36       1.0  0.30974  0.68445  0.38001  1.0000
  C   C37       1.0  0.61470  0.56927  0.18431  1.0000
  C   C38       1.0  0.43358  0.04734  0.21094  1.0000
  C   C39       1.0  0.95005  0.38329  0.20147  1.0000
  C   C40       1.0  0.38604  0.42964  0.19349  1.0000
  C   C41       1.0  0.56486  0.95041  0.14217  1.0000
  C   C42       1.0  0.05141  0.61506  0.19056  1.0000
  C   C43       1.0  0.49657  0.39764  0.10653  1.0000
  C   C44       1.0  0.60136  0.09550  0.10853  1.0000
  C   C45       1.0  0.90494  0.50705  0.11857  1.0000
  C   C46       1.0  0.50354  0.60129  0.11687  1.0000
  C   C47       1.0  0.39636  0.90187  0.11620  1.0000
  C   C48       1.0  0.09474  0.49103  0.10288  1.0000
  C   C49       1.0  0.47108  0.36669  0.03481  1.0000
  C   C50       1.0  0.63113  0.09925  0.04118  1.0000
  C   C51       1.0  0.90121  0.53312  0.04622  1.0000
  C   C52       1.0  0.52823  0.63185  0.04718  1.0000
  C   C53       1.0  0.36574  0.89659  0.04378  1.0000
  C   C54       1.0  0.09953  0.46591  0.02957  1.0000
  C   C55       1.0  0.53008  0.44117  0.67174  1.0000
  C   C56       1.0  0.56333  0.09085  0.66114  1.0000
  C   C57       1.0  0.90997  0.47348  0.67370  1.0000
  C   C58       1.0  0.47056  0.56198  0.66921  1.0000
  C   C59       1.0  0.43857  0.91061  0.67185  1.0000
  C   C60       1.0  0.08743  0.52478  0.65603  1.0000
  C   C61       1.0  0.51418  0.47210  0.68640  1.0000
  C   C62       1.0  0.53136  0.04405  0.67154  1.0000
  C   C63       1.0  0.95624  0.48718  0.68049  1.0000
  C   C64       1.0  0.48612  0.53078  0.68616  1.0000
  C   C65       1.0  0.47106  0.95740  0.67919  1.0000
  C   C66       1.0  0.04144  0.51114  0.66955  1.0000
  C   C67       1.0  0.47152  0.45841  0.68778  1.0000
  C   C68       1.0  0.54343  0.01364  0.67038  1.0000
  C   C69       1.0  0.98720  0.52974  0.67962  1.0000
  C   C70       1.0  0.52877  0.54444  0.69334  1.0000
  C   C71       1.0  0.45909  0.98788  0.68412  1.0000
  C   C72       1.0  0.01058  0.46864  0.67543  1.0000
  C   C73       1.0  0.54289  0.51561  0.69548  1.0000
  C   C74       1.0  0.48866  0.03078  0.67986  1.0000
  C   C75       1.0  0.96839  0.45655  0.68175  1.0000
  C   C76       1.0  0.45740  0.48724  0.69032  1.0000
  C   C77       1.0  0.51380  0.97066  0.67467  1.0000
  C   C78       1.0  0.02945  0.54186  0.67529  1.0000
  C   C79       1.0  0.64505  0.35604  0.87915  1.0000
  C   C80       1.0  0.64909  0.29141  0.87901  1.0000
  C   C81       1.0  0.71328  0.36037  0.88334  1.0000
  C   C82       1.0  0.35608  0.64639  0.87072  1.0000
  C   C83       1.0  0.35210  0.71108  0.87596  1.0000
  C   C84       1.0  0.28786  0.64200  0.86980  1.0000
  C   C85       1.0  0.68894  0.37984  0.88212  1.0000
  C   C86       1.0  0.62566  0.31185  0.87844  1.0000
  C   C87       1.0  0.69287  0.31614  0.88381  1.0000
  C   C88       1.0  0.31226  0.62261  0.86910  1.0000
  C   C89       1.0  0.37550  0.69056  0.87544  1.0000
  C   C90       1.0  0.30826  0.68628  0.87470  1.0000
  C   C91       1.0  0.61398  0.57141  0.72654  1.0000
  C   C92       1.0  0.43500  0.04897  0.69213  1.0000
  C   C93       1.0  0.94777  0.38312  0.69171  1.0000
  C   C94       1.0  0.38589  0.43166  0.70928  1.0000
  C   C95       1.0  0.56680  0.95205  0.64873  1.0000
  C   C96       1.0  0.04968  0.61506  0.68575  1.0000
  C   C97       1.0  0.49739  0.40051  0.61175  1.0000
  C   C98       1.0  0.60328  0.09797  0.60876  1.0000
  C   C99       1.0  0.90321  0.50725  0.62039  1.0000
  C   C100      1.0  0.50310  0.60238  0.61359  1.0000
  C   C101      1.0  0.39851  0.90415  0.61417  1.0000
  C   C102      1.0  0.09303  0.49073  0.59854  1.0000
  C   C103      1.0  0.47241  0.37001  0.53658  1.0000
  C   C104      1.0  0.63356  0.10340  0.54082  1.0000
  C   C105      1.0  0.89674  0.53166  0.54860  1.0000
  C   C106      1.0  0.52794  0.63248  0.54232  1.0000
  C   C107      1.0  0.36860  0.90040  0.54119  1.0000
  C   C108      1.0  0.09741  0.46515  0.52652  1.0000
  N   N1        1.0  0.54976  0.43814  0.30831  1.0000
  N   N2        1.0  0.56475  0.11181  0.30239  1.0000
  N   N3        1.0  0.89241  0.45490  0.31790  1.0000
  N   N4        1.0  0.45058  0.55985  0.30635  1.0000
  N   N5        1.0  0.43634  0.88865  0.31586  1.0000
  N   N6        1.0  0.11093  0.54505  0.30223  1.0000
  N   N7        1.0  0.55054  0.44022  0.81508  1.0000
  N   N8        1.0  0.56519  0.11176  0.80484  1.0000
  N   N9        1.0  0.89082  0.45451  0.81718  1.0000
  N   N10       1.0  0.45133  0.56364  0.80970  1.0000
  N   N11       1.0  0.43778  0.89106  0.81723  1.0000
  N   N12       1.0  0.10935  0.54416  0.80019  1.0000
  O   O1        1.0  0.58509  0.52527  0.16323  1.0000
  O   O2        1.0  0.47675  0.06055  0.19312  1.0000
  O   O3        1.0  0.93813  0.41483  0.19949  1.0000
  O   O4        1.0  0.41590  0.47376  0.18507  1.0000
  O   O5        1.0  0.52186  0.93723  0.16349  1.0000
  O   O6        1.0  0.06268  0.58343  0.17035  1.0000
  O   O7        1.0  0.58489  0.52736  0.70325  1.0000
  O   O8        1.0  0.47843  0.06236  0.68109  1.0000
  O   O9        1.0  0.93625  0.41494  0.68838  1.0000
  O   O10       1.0  0.41554  0.47564  0.69542  1.0000
  O   O11       1.0  0.52391  0.93902  0.67313  1.0000
  O   O12       1.0  0.06160  0.58360  0.67372  1.0000
  C  Sn1       1.0  0.62235  0.43931  0.40370  1.0000
  C   C109      1.0  0.58734  0.42701  0.30916  1.0000
  C  Sn2       1.0  0.56536  0.38611  0.24884  1.0000
  C  Sn3       1.0  0.57863  0.35688  0.28381  1.0000
  C   C110      1.0  0.61362  0.36918  0.37832  1.0000
  C  Sn4       1.0  0.63562  0.41007  0.43867  1.0000
  O  Te1       1.0  0.64385  0.48035  0.46274  1.0000
  O  Te2       1.0  0.53046  0.37456  0.15456  1.0000
  O  Te3       1.0  0.55710  0.31581  0.22468  1.0000
  O  Te4       1.0  0.67050  0.42163  0.53292  1.0000
  Mg  Mg1       1.0  0.51146  0.31503  0.10185  1.0000
  Mg  Mg2       1.0  0.68951  0.48114  0.58575  1.0000
  C  Sn5       1.0  0.63686  0.19146  0.26749  1.0000
  C   C111      1.0  0.60072  0.16082  0.33527  1.0000
  C  Sn6       1.0  0.57497  0.17222  0.40865  1.0000
  C  Sn7       1.0  0.58555  0.21513  0.41434  1.0000
  C   C112      1.0  0.62167  0.24574  0.34658  1.0000
  C  Sn8       1.0  0.64744  0.23437  0.27318  1.0000
  O  Te5       1.0  0.66214  0.17935  0.19473  1.0000
  O  Te6       1.0  0.53901  0.14103  0.47562  1.0000
  O  Te7       1.0  0.56024  0.22723  0.48719  1.0000
  O  Te8       1.0  0.68338  0.26553  0.20622  1.0000
  Mg  Mg3       1.0  0.51453  0.17321  0.56139  1.0000
  Mg  Mg4       1.0  0.70787  0.23339  0.12036  1.0000
  C  Sn9       1.0  0.78711  0.42269  0.23780  1.0000
  C   C113      1.0  0.76398  0.38682  0.32332  1.0000
  C  Sn10      1.0  0.78388  0.37524  0.43219  1.0000
  C  Sn11      1.0  0.82782  0.40004  0.45617  1.0000
  C   C114      1.0  0.85092  0.43589  0.37070  1.0000
  C  Sn12      1.0  0.83104  0.44748  0.26177  1.0000
  O  Te9       1.0  0.76655  0.43367  0.12957  1.0000
  O  Te10      1.0  0.76010  0.33925  0.51626  1.0000
  O  Te11      1.0  0.84836  0.38903  0.56450  1.0000
  O  Te12      1.0  0.85480  0.48346  0.17775  1.0000
  Mg  Mg5       1.0  0.80239  0.33724  0.65060  1.0000
  Mg  Mg6       1.0  0.81254  0.48551  0.04345  1.0000
  C  Sn13      1.0  0.38202  0.58483  0.47330  1.0000
  C   C115      1.0  0.38827  0.62234  0.41025  1.0000
  C  Sn14      1.0  0.41281  0.63861  0.28497  1.0000
  C  Sn15      1.0  0.43148  0.61691  0.22132  1.0000
  C   C116      1.0  0.42523  0.57942  0.28435  1.0000
  C  Sn16      1.0  0.40069  0.56313  0.40965  1.0000
  O  Te13      1.0  0.35737  0.56915  0.59853  1.0000
  O  Te14      1.0  0.41861  0.67617  0.22394  1.0000
  O  Te15      1.0  0.45615  0.63262  0.09599  1.0000
  O  Te16      1.0  0.39488  0.52559  0.47065  1.0000
  Mg  Mg7       1.0  0.45482  0.68488  0.05321  1.0000
  Mg  Mg8       1.0  0.35867  0.51684  0.64133  1.0000
  C  Sn17      1.0  0.43671  0.81620  0.40517  1.0000
  C   C117      1.0  0.42479  0.83918  0.31229  1.0000
  C  Sn18      1.0  0.38404  0.82060  0.25222  1.0000
  C  Sn19      1.0  0.35458  0.77816  0.28576  1.0000
  C   C118      1.0  0.36650  0.75521  0.37861  1.0000
  C  Sn20      1.0  0.40725  0.77376  0.43871  1.0000
  O  Te17      1.0  0.47761  0.83541  0.46399  1.0000
  O  Te18      1.0  0.37286  0.84420  0.15961  1.0000
  O  Te19      1.0  0.31365  0.75896  0.22685  1.0000
  O  Te20      1.0  0.41843  0.75018  0.53129  1.0000
  Mg  Mg9       1.0  0.31340  0.80409  0.10654  1.0000
  Mg  Mg10      1.0  0.47787  0.79027  0.58448  1.0000
  C  Sn21      1.0  0.18923  0.55153  0.27779  1.0000
  C   C119      1.0  0.15924  0.55915  0.33865  1.0000
  C  Sn22      1.0  0.17107  0.59824  0.40472  1.0000
  C  Sn23      1.0  0.21376  0.63041  0.41001  1.0000
  C   C120      1.0  0.24372  0.62279  0.34916  1.0000
  C  Sn24      1.0  0.23192  0.58370  0.28308  1.0000
  O  Te21      1.0  0.17669  0.51222  0.21228  1.0000
  O  Te22      1.0  0.14053  0.60510  0.46485  1.0000
  O  Te23      1.0  0.22628  0.66974  0.47560  1.0000
  O  Te24      1.0  0.26243  0.57684  0.22296  1.0000
  Mg  Mg11      1.0  0.17310  0.66389  0.54215  1.0000
  Mg  Mg12      1.0  0.22989  0.51807  0.14557  1.0000
  C  Sn25      1.0  0.39458  0.30928  0.26440  1.0000
  C   C121      1.0  0.39882  0.27413  0.23678  1.0000
  C  Sn26      1.0  0.42546  0.26636  0.32730  1.0000
  C  Sn27      1.0  0.44832  0.29429  0.44801  1.0000
  C   C122      1.0  0.44407  0.32940  0.47559  1.0000
  C  Sn28      1.0  0.41744  0.33720  0.38511  1.0000
  O  Te25      1.0  0.36777  0.31643  0.17248  1.0000
  O  Te26      1.0  0.42919  0.23103  0.29745  1.0000
  O  Te27      1.0  0.47514  0.28711  0.53994  1.0000
  O  Te28      1.0  0.41370  0.37250  0.41492  1.0000
  Mg  Mg13      1.0  0.46966  0.23473  0.45434  1.0000
  Mg  Mg14      1.0  0.37323  0.36882  0.25816  1.0000
  C  Sn29      1.0  0.69299  0.08327  0.29075  1.0000
  C   C123      1.0  0.72388  0.12283  0.24298  1.0000
  C  Sn30      1.0  0.72998  0.15960  0.31326  1.0000
  C  Sn31      1.0  0.70471  0.15677  0.43386  1.0000
  C   C124      1.0  0.67384  0.11723  0.48158  1.0000
  C  Sn32      1.0  0.66771  0.08044  0.41135  1.0000
  O  Te29      1.0  0.68743  0.04692  0.21886  1.0000
  O  Te30      1.0  0.76105  0.19879  0.26348  1.0000
  O  Te31      1.0  0.71029  0.19316  0.50574  1.0000
  O  Te32      1.0  0.63667  0.04127  0.46108  1.0000
  Mg  Mg15      1.0  0.75665  0.23924  0.39736  1.0000
  Mg  Mg16      1.0  0.13966  0.00079  0.32734  1.0000
  C  Sn33      1.0  0.90181  0.60192  0.27096  1.0000
  C   C125      1.0  0.86111  0.59480  0.25438  1.0000
  C  Sn34      1.0  0.83061  0.56933  0.35482  1.0000
  C  Sn35      1.0  0.84102  0.55061  0.47439  1.0000
  C   C126      1.0  0.88170  0.55774  0.49093  1.0000
  C  Sn36      1.0  0.91221  0.58320  0.39052  1.0000
  O  Te33      1.0  0.93180  0.62750  0.16924  1.0000
  O  Te34      1.0  0.79013  0.56266  0.33593  1.0000
  O  Te35      1.0  0.81099  0.52502  0.57614  1.0000
  O  Te36      1.0  0.95267  0.58988  0.40939  1.0000
  Mg  Mg17      1.0  0.76020  0.52537  0.50356  1.0000
  Mg  Mg18      1.0  0.98263  0.62718  0.24187  1.0000
  C  Sn37      1.0  0.53656  0.69662  0.35512  1.0000
  C   C127      1.0  0.54615  0.66667  0.40940  1.0000
  C  Sn38      1.0  0.58708  0.67429  0.40664  1.0000
  C  Sn39      1.0  0.61910  0.71266  0.34851  1.0000
  C   C128      1.0  0.60950  0.74258  0.29430  1.0000
  C  Sn40      1.0  0.56857  0.73498  0.29699  1.0000
  O  Te37      1.0  0.49542  0.68833  0.35899  1.0000
  O  Te38      1.0  0.59591  0.64387  0.46149  1.0000
  O  Te39      1.0  0.66025  0.72093  0.34468  1.0000
  O  Te40      1.0  0.55974  0.76538  0.24221  1.0000
  Mg  Mg19      1.0  0.65672  0.66974  0.43233  1.0000
  Mg  Mg20      1.0  0.49895  0.73956  0.27138  1.0000
  C  Sn41      1.0  0.31901  0.92890  0.39907  1.0000
  C   C129      1.0  0.32678  0.89946  0.46975  1.0000
  C  Sn42      1.0  0.30501  0.85714  0.42377  1.0000
  C  Sn43      1.0  0.27486  0.84396  0.30460  1.0000
  C   C130      1.0  0.26711  0.87339  0.23398  1.0000
  C  Sn44      1.0  0.28886  0.91573  0.27990  1.0000
  O  Te41      1.0  0.34114  0.97105  0.44688  1.0000
  O  Te42      1.0  0.31331  0.82828  0.49618  1.0000
  O  Te43      1.0  0.25272  0.80177  0.25683  1.0000
  O  Te44      1.0  0.28058  0.94457  0.20754  1.0000
  Mg  Mg21      1.0  0.27510  0.77435  0.39051  1.0000
  Mg  Mg22      1.0  0.31879  0.99851  0.31306  1.0000
  C  Sn45      1.0  0.07601  0.38334  0.27069  1.0000
  C   C131      1.0  0.11505  0.39084  0.22655  1.0000
  C  Sn46      1.0  0.15160  0.42148  0.30033  1.0000
  C  Sn47      1.0  0.14907  0.44511  0.42082  1.0000
  C   C132      1.0  0.11004  0.43760  0.46491  1.0000
  C  Sn48      1.0  0.07348  0.40696  0.39117  1.0000
  O  Te45      1.0  0.03988  0.35254  0.19533  1.0000
  O  Te46      1.0  0.19027  0.42843  0.25415  1.0000
  O  Te47      1.0  0.18524  0.47592  0.49617  1.0000
  O  Te48      1.0  0.03482  0.40001  0.43731  1.0000
  Mg  Mg23      1.0  0.23060  0.47379  0.39196  1.0000
  Mg  Mg24      1.0  0.99447  0.35465  0.29964  1.0000
  C  Sn49      1.0  0.62413  0.44087  0.88793  1.0000
  C   C133      1.0  0.58633  0.42688  0.80838  1.0000
  C  Sn50      1.0  0.56151  0.38443  0.76626  1.0000
  C  Sn51      1.0  0.57473  0.35536  0.80452  1.0000
  C   C134      1.0  0.61251  0.36935  0.88405  1.0000
  C  Sn52      1.0  0.63736  0.41179  0.92620  1.0000
  O  Te49      1.0  0.64844  0.48345  0.92890  1.0000
  O  Te50      1.0  0.52385  0.37120  0.68673  1.0000
  O  Te51      1.0  0.55039  0.31275  0.76348  1.0000
  O  Te52      1.0  0.66613  0.42046  0.00570  1.0000
  Mg  Mg25      1.0  0.50161  0.30999  0.65615  1.0000
  Mg  Mg26      1.0  0.68838  0.48166  0.03641  1.0000
  C  Sn53      1.0  0.63795  0.21757  0.73353  1.0000
  C   C135      1.0  0.62487  0.24121  0.81446  1.0000
  C  Sn54      1.0  0.59319  0.22168  0.91728  1.0000
  C  Sn55      1.0  0.57419  0.17760  0.93975  1.0000
  C   C136      1.0  0.58727  0.15399  0.85887  1.0000
  C  Sn56      1.0  0.61895  0.17350  0.75601  1.0000
  O  Te53      1.0  0.66969  0.23775  0.63134  1.0000
  O  Te54      1.0  0.58064  0.24597  0.99683  1.0000
  O  Te55      1.0  0.53357  0.15286  0.04204  1.0000
  O  Te56      1.0  0.63150  0.14923  0.67650  1.0000
  Mg  Mg27      1.0  0.52731  0.19947  0.12361  1.0000
  Mg  Mg28      1.0  0.67598  0.19113  0.54975  1.0000
  C  Sn57      1.0  0.81234  0.44895  0.79545  1.0000
  C   C137      1.0  0.84304  0.44117  0.85518  1.0000
  C  Sn58      1.0  0.83191  0.40207  0.91699  1.0000
  C  Sn59      1.0  0.78921  0.37006  0.91906  1.0000
  C   C138      1.0  0.75854  0.37783  0.85934  1.0000
  C  Sn60      1.0  0.76964  0.41693  0.79753  1.0000
  O  Te57      1.0  0.82418  0.48827  0.73422  1.0000
  O  Te58      1.0  0.86316  0.39505  0.97607  1.0000
  O  Te59      1.0  0.77739  0.33071  0.98036  1.0000
  O  Te60      1.0  0.73842  0.42396  0.73845  1.0000
  Mg  Mg29      1.0  0.82252  0.33174  0.04708  1.0000
  Mg  Mg30      1.0  0.77016  0.48267  0.66734  1.0000
  C  Sn61      1.0  0.44453  0.63621  0.78735  1.0000
  C   C139      1.0  0.43702  0.59771  0.84524  1.0000
  C  Sn62      1.0  0.39806  0.56936  0.90207  1.0000
  C  Sn63      1.0  0.36594  0.57969  0.90094  1.0000
  C   C140      1.0  0.37346  0.61816  0.84305  1.0000
  C  Sn64      1.0  0.41240  0.64653  0.78621  1.0000
  O  Te61      1.0  0.48371  0.66407  0.73110  1.0000
  O  Te62      1.0  0.39130  0.53107  0.95941  1.0000
  O  Te63      1.0  0.32674  0.55178  0.95725  1.0000
  O  Te64      1.0  0.41917  0.68480  0.72888  1.0000
  Mg  Mg31      1.0  0.32383  0.49895  0.02334  1.0000
  Mg  Mg32      1.0  0.47776  0.71235  0.66485  1.0000
  C  Sn65      1.0  0.41496  0.79485  0.97200  1.0000
  C   C141      1.0  0.37574  0.76458  0.91332  1.0000
  C  Sn66      1.0  0.35679  0.77461  0.79607  1.0000
  C  Sn67      1.0  0.37748  0.81575  0.73614  1.0000
  C   C142      1.0  0.41668  0.84600  0.79479  1.0000
  C  Sn68      1.0  0.43565  0.83600  0.91207  1.0000
  O  Te65      1.0  0.42446  0.77955  0.08921  1.0000
  O  Te66      1.0  0.31756  0.74381  0.73929  1.0000
  O  Te67      1.0  0.35909  0.82646  0.61884  1.0000
  O  Te68      1.0  0.47485  0.86676  0.96882  1.0000
  Mg  Mg33      1.0  0.30535  0.77365  0.57933  1.0000
  Mg  Mg34      1.0  0.47825  0.83238  0.12872  1.0000
  C  Sn69      1.0  0.21399  0.57951  0.71878  1.0000
  C   C143      1.0  0.23759  0.61581  0.80710  1.0000
  C  Sn70      1.0  0.21862  0.62673  0.91741  1.0000
  C  Sn71      1.0  0.17516  0.60082  0.93999  1.0000
  C   C144      1.0  0.15159  0.56454  0.85172  1.0000
  C  Sn72      1.0  0.17054  0.55359  0.74136  1.0000
  O  Te69      1.0  0.23361  0.56920  0.60916  1.0000
  O  Te70      1.0  0.23399  0.65862  0.00429  1.0000
  O  Te71      1.0  0.14670  0.60659  0.04972  1.0000
  O  Te72      1.0  0.14633  0.51716  0.65454  1.0000
  Mg  Mg35      1.0  0.19298  0.65937  0.13962  1.0000
  Mg  Mg36      1.0  0.18731  0.51636  0.51923  1.0000
  C  Sn73      1.0  0.39463  0.31434  0.88207  1.0000
  C   C145      1.0  0.43093  0.32353  0.96432  1.0000
  C  Sn74      1.0  0.45158  0.30127  0.93680  1.0000
  C  Sn75      1.0  0.43564  0.26916  0.82467  1.0000
  C   C146      1.0  0.39936  0.25999  0.74248  1.0000
  C  Sn76      1.0  0.37868  0.28223  0.76994  1.0000
  O  Te73      1.0  0.37449  0.33700  0.91147  1.0000
  O  Te74      1.0  0.47895  0.30645  0.02051  1.0000
  O  Te75      1.0  0.45580  0.24650  0.79532  1.0000
  O  Te76      1.0  0.34248  0.27250  0.68629  1.0000
  Mg  Mg37      1.0  0.50410  0.27136  0.93894  1.0000
  Mg  Mg38      1.0  0.32618  0.31215  0.76770  1.0000
  C  Sn77      1.0  0.69700  0.15297  0.86507  1.0000
  C   C147      1.0  0.66522  0.11388  0.91288  1.0000
  C  Sn78      1.0  0.66907  0.07804  0.90023  1.0000
  C  Sn79      1.0  0.70546  0.08133  0.83859  1.0000
  C   C148      1.0  0.73721  0.12040  0.79085  1.0000
  C  Sn80      1.0  0.73338  0.15626  0.80344  1.0000
  O  Te77      1.0  0.69248  0.18839  0.87879  1.0000
  O  Te78      1.0  0.63687  0.03930  0.94875  1.0000
  O  Te79      1.0  0.70995  0.04587  0.82490  1.0000
  O  Te80      1.0  0.76556  0.19498  0.75498  1.0000
  Mg  Mg39      1.0  0.15618  0.00011  0.90680  1.0000
  Mg  Mg40      1.0  0.74490  0.23419  0.79695  1.0000
  C  Sn81      1.0  0.84730  0.54839  0.87135  1.0000
  C   C149      1.0  0.88596  0.55324  0.91590  1.0000
  C  Sn82      1.0  0.92273  0.59176  0.89804  1.0000
  C  Sn83      1.0  0.92082  0.62618  0.83440  1.0000
  C   C150      1.0  0.88218  0.62133  0.78992  1.0000
  C  Sn84      1.0  0.84539  0.58281  0.80771  1.0000
  O  Te81      1.0  0.81094  0.50959  0.89027  1.0000
  O  Te82      1.0  0.96102  0.59584  0.94338  1.0000
  O  Te83      1.0  0.95722  0.66500  0.81551  1.0000
  O  Te84      1.0  0.80712  0.57872  0.76244  1.0000
  Mg  Mg41      1.0  0.00187  0.65500  0.89462  1.0000
  Mg  Mg42      1.0  0.76625  0.51959  0.81121  1.0000
  C  Sn85      1.0  0.56405  0.73081  0.88338  1.0000
  C   C151      1.0  0.60061  0.74005  0.81103  1.0000
  C  Sn86      1.0  0.61275  0.70976  0.80003  1.0000
  C  Sn87      1.0  0.58782  0.66939  0.86257  1.0000
  C   C152      1.0  0.55129  0.66016  0.93485  1.0000
  C  Sn88      1.0  0.53913  0.69044  0.94592  1.0000
  O  Te85      1.0  0.55251  0.76157  0.89305  1.0000
  O  Te86      1.0  0.64943  0.71974  0.72721  1.0000
  O  Te87      1.0  0.59940  0.63862  0.85285  1.0000
  O  Te88      1.0  0.49361  0.67590  0.01866  1.0000
  Mg  Mg43      1.0  0.65202  0.66726  0.74274  1.0000
  Mg  Mg44      1.0  0.49098  0.72835  0.00313  1.0000
  C  Sn89      1.0  0.31561  0.92265  0.89161  1.0000
  C   C153      1.0  0.32360  0.89442  0.97021  1.0000
  C  Sn90      1.0  0.30120  0.85135  0.93464  1.0000
  C  Sn91      1.0  0.27017  0.83618  0.81802  1.0000
  C   C154      1.0  0.26221  0.86440  0.73948  1.0000
  C  Sn92      1.0  0.28459  0.90748  0.77499  1.0000
  O  Te89      1.0  0.33839  0.96557  0.92906  1.0000
  O  Te90      1.0  0.30087  0.81916  0.01483  1.0000
  O  Te91      1.0  0.24739  0.79322  0.78061  1.0000
  O  Te92      1.0  0.27608  0.93509  0.69485  1.0000
  Mg  Mg45      1.0  0.27040  0.76806  0.92212  1.0000
  Mg  Mg46      1.0  0.31540  0.99077  0.78741  1.0000
  C  Sn93      1.0  0.16014  0.42723  0.87630  1.0000
  C   C155      1.0  0.13216  0.39045  0.79680  1.0000
  C  Sn94      1.0  0.09037  0.37949  0.77516  1.0000
  C  Sn95      1.0  0.07625  0.40586  0.83412  1.0000
  C   C156      1.0  0.10422  0.44262  0.91354  1.0000
  C  Sn96      1.0  0.14602  0.45360  0.93526  1.0000
  O  Te93      1.0  0.20178  0.43757  0.89658  1.0000
  O  Te94      1.0  0.06298  0.34255  0.69535  1.0000
  O  Te95      1.0  0.03457  0.39549  0.81378  1.0000
  O  Te96      1.0  0.16454  0.48595  0.01500  1.0000
  Mg  Mg47      1.0  0.00923  0.34195  0.69719  1.0000
  Mg  Mg48      1.0  0.21830  0.48659  0.01315  1.0000
