data_image0
_chemical_formula_structural       H96C108N12O12C2Sn2C2HTe2HMgC2Sn2C2HTe2HMgC2Sn2C2HTe2HMgC2Sn2C2HTe2HMgC2Sn2C2HTe2HMgC2Sn2C2HTe2HMgC2Sn2C2HTe2HMgC2Sn2C2HTe2HMgC2Sn2C2HTe2HMgC2Sn2C2HTe2HMgC2Sn2C2HTe2HMgC2Sn2C2HTe2HMgC2Sn2C2HTe2HMgC2Sn2C2HTe2HMgC2Sn2C2HTe2HMgC2Sn2C2HTe2HMgC2Sn2C2HTe2HMgC2Sn2C2HTe2HMgC2Sn2C2HTe2HMgC2Sn2C2HTe2HMgC2Sn2C2HTe2HMgC2Sn2C2HTe2HMgC2Sn2C2HTe2HMgC2Sn2C2HTe2HMg
_chemical_formula_sum              "H144 C204 N12 O12 Sn48 Te48 Mg24"
_cell_length_a       37.0291
_cell_length_b       36.6792
_cell_length_c       8.95878
_cell_angle_alpha    90.0164
_cell_angle_beta     91.5582
_cell_angle_gamma    120.223

_symmetry_space_group_name_H-M    'P1'
_space_group_IT_number       1

loop_
  _space_group_symop_operation_xyz
  'x, y, z'

loop_
  _atom_site_type_symbol
  _atom_site_label
  _atom_site_symmetry_multiplicity
  _atom_site_fract_x
  _atom_site_fract_y
  _atom_site_fract_z
  _atom_site_occupancy
  H   H1        1.0  0.56645  0.46839  0.34789  1.0000
  H   H2        1.0  0.53532  0.09961  0.34078  1.0000
  H   H3        1.0  0.90440  0.43653  0.35173  1.0000
  H   H4        1.0  0.43286  0.52923  0.33724  1.0000
  H   H5        1.0  0.46620  0.90245  0.35819  1.0000
  H   H6        1.0  0.09851  0.56234  0.34092  1.0000
  H   H7        1.0  0.55354  0.44987  0.07692  1.0000
  H   H8        1.0  0.54985  0.10145  0.07146  1.0000
  H   H9        1.0  0.89631  0.44817  0.08623  1.0000
  H   H10       1.0  0.44704  0.54866  0.07414  1.0000
  H   H11       1.0  0.44671  0.89454  0.08524  1.0000
  H   H12       1.0  0.10138  0.54906  0.07115  1.0000
  H   H13       1.0  0.45025  0.42269  0.18182  1.0000
  H   H14       1.0  0.57447  0.02274  0.15777  1.0000
  H   H15       1.0  0.97812  0.55232  0.16785  1.0000
  H   H16       1.0  0.55067  0.57610  0.16794  1.0000
  H   H17       1.0  0.42417  0.97508  0.19664  1.0000
  H   H18       1.0  0.02255  0.44566  0.18342  1.0000
  H   H19       1.0  0.70580  0.41480  0.38584  1.0000
  H   H20       1.0  0.59318  0.29359  0.37391  1.0000
  H   H21       1.0  0.71294  0.30150  0.36796  1.0000
  H   H22       1.0  0.29815  0.58636  0.37601  1.0000
  H   H23       1.0  0.41084  0.70748  0.37967  1.0000
  H   H24       1.0  0.29132  0.70002  0.37676  1.0000
  H   H25       1.0  0.61202  0.58824  0.09420  1.0000
  H   H26       1.0  0.41411  0.02767  0.11555  1.0000
  H   H27       1.0  0.96485  0.38304  0.09693  1.0000
  H   H28       1.0  0.38747  0.41202  0.09660  1.0000
  H   H29       1.0  0.57585  0.96811  0.03809  1.0000
  H   H30       1.0  0.03252  0.61579  0.09501  1.0000
  H   H31       1.0  0.64559  0.57212  0.18308  1.0000
  H   H32       1.0  0.43213  0.07641  0.21663  1.0000
  H   H33       1.0  0.92097  0.35320  0.21354  1.0000
  H   H34       1.0  0.35538  0.42736  0.19386  1.0000
  H   H35       1.0  0.56620  0.92131  0.13526  1.0000
  H   H36       1.0  0.08097  0.64512  0.19940  1.0000
  H   H37       1.0  0.61050  0.58093  0.29190  1.0000
  H   H38       1.0  0.42178  0.02959  0.31466  1.0000
  H   H39       1.0  0.97173  0.38824  0.29607  1.0000
  H   H40       1.0  0.39082  0.41601  0.29641  1.0000
  H   H41       1.0  0.58502  0.97013  0.23629  1.0000
  H   H42       1.0  0.03395  0.60993  0.29327  1.0000
  H   H43       1.0  0.37369  0.23510  0.19654  1.0000
  H   H44       1.0  0.76139  0.13869  0.19563  1.0000
  H   H45       1.0  0.84456  0.61738  0.21619  1.0000
  H   H46       1.0  0.62058  0.76392  0.20035  1.0000
  H   H47       1.0  0.23996  0.87187  0.18213  1.0000
  H   H48       1.0  0.13009  0.36804  0.17963  1.0000
  H   H49       1.0  0.56881  0.47076  0.85054  1.0000
  H   H50       1.0  0.53525  0.09934  0.83838  1.0000
  H   H51       1.0  0.90326  0.43663  0.85219  1.0000
  H   H52       1.0  0.43432  0.53348  0.84597  1.0000
  H   H53       1.0  0.46792  0.90370  0.85578  1.0000
  H   H54       1.0  0.09700  0.56152  0.83903  1.0000
  H   H55       1.0  0.55381  0.45366  0.58493  1.0000
  H   H56       1.0  0.55163  0.10352  0.57269  1.0000
  H   H57       1.0  0.89536  0.44887  0.58578  1.0000
  H   H58       1.0  0.44624  0.54933  0.57919  1.0000
  H   H59       1.0  0.44878  0.89639  0.58665  1.0000
  H   H60       1.0  0.09989  0.54905  0.56924  1.0000
  H   H61       1.0  0.44985  0.42461  0.68256  1.0000
  H   H62       1.0  0.57659  0.02476  0.66264  1.0000
  H   H63       1.0  0.97712  0.55289  0.67718  1.0000
  H   H64       1.0  0.55035  0.57824  0.69270  1.0000
  H   H65       1.0  0.42586  0.97690  0.68603  1.0000
  H   H66       1.0  0.02063  0.44550  0.67229  1.0000
  H   H67       1.0  0.70440  0.41409  0.87946  1.0000
  H   H68       1.0  0.59170  0.29297  0.87308  1.0000
  H   H69       1.0  0.71139  0.30070  0.88305  1.0000
  H   H70       1.0  0.29686  0.58839  0.86253  1.0000
  H   H71       1.0  0.40945  0.70932  0.87432  1.0000
  H   H72       1.0  0.28961  0.70161  0.87267  1.0000
  H   H73       1.0  0.61348  0.59001  0.63096  1.0000
  H   H74       1.0  0.41648  0.02919  0.59539  1.0000
  H   H75       1.0  0.96325  0.38288  0.58883  1.0000
  H   H76       1.0  0.38535  0.41349  0.61075  1.0000
  H   H77       1.0  0.57735  0.96943  0.54374  1.0000
  H   H78       1.0  0.02989  0.61373  0.58938  1.0000
  H   H79       1.0  0.64485  0.57434  0.73900  1.0000
  H   H80       1.0  0.43331  0.07793  0.69435  1.0000
  H   H81       1.0  0.91845  0.35307  0.70096  1.0000
  H   H82       1.0  0.35541  0.42945  0.71855  1.0000
  H   H83       1.0  0.56818  0.92295  0.64218  1.0000
  H   H84       1.0  0.07896  0.64546  0.68893  1.0000
  H   H85       1.0  0.60701  0.58324  0.82838  1.0000
  H   H86       1.0  0.42234  0.03124  0.79521  1.0000
  H   H87       1.0  0.96863  0.38760  0.78861  1.0000
  H   H88       1.0  0.39276  0.41868  0.80974  1.0000
  H   H89       1.0  0.58743  0.97210  0.74143  1.0000
  H   H90       1.0  0.03272  0.61133  0.78896  1.0000
  H   H91       1.0  0.37381  0.23156  0.69347  1.0000
  H   H92       1.0  0.75811  0.12979  0.69764  1.0000
  H   H93       1.0  0.87214  0.63322  0.69614  1.0000
  H   H94       1.0  0.61869  0.75995  0.68972  1.0000
  H   H95       1.0  0.23458  0.86229  0.68823  1.0000
  H   H96       1.0  0.13373  0.37140  0.67550  1.0000
  C   C1        1.0  0.52982  0.43857  0.16331  1.0000
  C   C2        1.0  0.56175  0.08936  0.16141  1.0000
  C   C3        1.0  0.91116  0.47309  0.17316  1.0000
  C   C4        1.0  0.47080  0.56010  0.16599  1.0000
  C   C5        1.0  0.43672  0.90857  0.17200  1.0000
  C   C6        1.0  0.08900  0.52508  0.15893  1.0000
  C   C7        1.0  0.51446  0.46999  0.17238  1.0000
  C   C8        1.0  0.52962  0.04244  0.17538  1.0000
  C   C9        1.0  0.95753  0.48684  0.18004  1.0000
  C   C10       1.0  0.48651  0.52884  0.17581  1.0000
  C   C11       1.0  0.46915  0.95543  0.18093  1.0000
  C   C12       1.0  0.04293  0.51116  0.17165  1.0000
  C   C13       1.0  0.47191  0.45648  0.18029  1.0000
  C   C14       1.0  0.54147  0.01186  0.16936  1.0000
  C   C15       1.0  0.98839  0.52937  0.17505  1.0000
  C   C16       1.0  0.52910  0.54235  0.17276  1.0000
  C   C17       1.0  0.45735  0.98598  0.19157  1.0000
  C   C18       1.0  0.01227  0.46867  0.18171  1.0000
  C   C19       1.0  0.54320  0.51349  0.17019  1.0000
  C   C20       1.0  0.48696  0.02899  0.18817  1.0000
  C   C21       1.0  0.96998  0.45643  0.18734  1.0000
  C   C22       1.0  0.45781  0.48532  0.18124  1.0000
  C   C23       1.0  0.51184  0.96884  0.17196  1.0000
  C   C24       1.0  0.03068  0.54169  0.17279  1.0000
  C   C25       1.0  0.64649  0.35657  0.38086  1.0000
  C   C26       1.0  0.65059  0.29198  0.37355  1.0000
  C   C27       1.0  0.71472  0.36110  0.38060  1.0000
  C   C28       1.0  0.35742  0.64446  0.38021  1.0000
  C   C29       1.0  0.35348  0.70912  0.38040  1.0000
  C   C30       1.0  0.28927  0.64019  0.37800  1.0000
  C   C31       1.0  0.69035  0.38051  0.38466  1.0000
  C   C32       1.0  0.62715  0.31238  0.37783  1.0000
  C   C33       1.0  0.69437  0.31681  0.37518  1.0000
  C   C34       1.0  0.31356  0.62065  0.37988  1.0000
  C   C35       1.0  0.37691  0.68866  0.38209  1.0000
  C   C36       1.0  0.30974  0.68445  0.38001  1.0000
  C   C37       1.0  0.61470  0.56927  0.18431  1.0000
  C   C38       1.0  0.43358  0.04734  0.21094  1.0000
  C   C39       1.0  0.95005  0.38329  0.20147  1.0000
  C   C40       1.0  0.38604  0.42964  0.19349  1.0000
  C   C41       1.0  0.56486  0.95041  0.14217  1.0000
  C   C42       1.0  0.05141  0.61506  0.19056  1.0000
  C   C43       1.0  0.49657  0.39764  0.10653  1.0000
  C   C44       1.0  0.60136  0.09550  0.10853  1.0000
  C   C45       1.0  0.90494  0.50705  0.11857  1.0000
  C   C46       1.0  0.50354  0.60129  0.11687  1.0000
  C   C47       1.0  0.39636  0.90187  0.11620  1.0000
  C   C48       1.0  0.09474  0.49103  0.10288  1.0000
  C   C49       1.0  0.47108  0.36669  0.03481  1.0000
  C   C50       1.0  0.63113  0.09925  0.04118  1.0000
  C   C51       1.0  0.90121  0.53312  0.04622  1.0000
  C   C52       1.0  0.52823  0.63185  0.04718  1.0000
  C   C53       1.0  0.36574  0.89659  0.04378  1.0000
  C   C54       1.0  0.09953  0.46591  0.02957  1.0000
  C   C55       1.0  0.53008  0.44117  0.67174  1.0000
  C   C56       1.0  0.56333  0.09085  0.66114  1.0000
  C   C57       1.0  0.90997  0.47348  0.67370  1.0000
  C   C58       1.0  0.47056  0.56198  0.66921  1.0000
  C   C59       1.0  0.43857  0.91061  0.67185  1.0000
  C   C60       1.0  0.08743  0.52478  0.65603  1.0000
  C   C61       1.0  0.51418  0.47210  0.68640  1.0000
  C   C62       1.0  0.53136  0.04405  0.67154  1.0000
  C   C63       1.0  0.95624  0.48718  0.68049  1.0000
  C   C64       1.0  0.48612  0.53078  0.68616  1.0000
  C   C65       1.0  0.47106  0.95740  0.67919  1.0000
  C   C66       1.0  0.04144  0.51114  0.66955  1.0000
  C   C67       1.0  0.47152  0.45841  0.68778  1.0000
  C   C68       1.0  0.54343  0.01364  0.67038  1.0000
  C   C69       1.0  0.98720  0.52974  0.67962  1.0000
  C   C70       1.0  0.52877  0.54444  0.69334  1.0000
  C   C71       1.0  0.45909  0.98788  0.68412  1.0000
  C   C72       1.0  0.01058  0.46864  0.67543  1.0000
  C   C73       1.0  0.54289  0.51561  0.69548  1.0000
  C   C74       1.0  0.48866  0.03078  0.67986  1.0000
  C   C75       1.0  0.96839  0.45655  0.68175  1.0000
  C   C76       1.0  0.45740  0.48724  0.69032  1.0000
  C   C77       1.0  0.51380  0.97066  0.67467  1.0000
  C   C78       1.0  0.02945  0.54186  0.67529  1.0000
  C   C79       1.0  0.64505  0.35604  0.87915  1.0000
  C   C80       1.0  0.64909  0.29141  0.87901  1.0000
  C   C81       1.0  0.71328  0.36037  0.88334  1.0000
  C   C82       1.0  0.35608  0.64639  0.87072  1.0000
  C   C83       1.0  0.35210  0.71108  0.87596  1.0000
  C   C84       1.0  0.28786  0.64200  0.86980  1.0000
  C   C85       1.0  0.68894  0.37984  0.88212  1.0000
  C   C86       1.0  0.62566  0.31185  0.87844  1.0000
  C   C87       1.0  0.69287  0.31614  0.88381  1.0000
  C   C88       1.0  0.31226  0.62261  0.86910  1.0000
  C   C89       1.0  0.37550  0.69056  0.87544  1.0000
  C   C90       1.0  0.30826  0.68628  0.87470  1.0000
  C   C91       1.0  0.61398  0.57141  0.72654  1.0000
  C   C92       1.0  0.43500  0.04897  0.69213  1.0000
  C   C93       1.0  0.94777  0.38312  0.69171  1.0000
  C   C94       1.0  0.38589  0.43166  0.70928  1.0000
  C   C95       1.0  0.56680  0.95205  0.64873  1.0000
  C   C96       1.0  0.04968  0.61506  0.68575  1.0000
  C   C97       1.0  0.49739  0.40051  0.61175  1.0000
  C   C98       1.0  0.60328  0.09797  0.60876  1.0000
  C   C99       1.0  0.90321  0.50725  0.62039  1.0000
  C   C100      1.0  0.50310  0.60238  0.61359  1.0000
  C   C101      1.0  0.39851  0.90415  0.61417  1.0000
  C   C102      1.0  0.09303  0.49073  0.59854  1.0000
  C   C103      1.0  0.47241  0.37001  0.53658  1.0000
  C   C104      1.0  0.63356  0.10340  0.54082  1.0000
  C   C105      1.0  0.89674  0.53166  0.54860  1.0000
  C   C106      1.0  0.52794  0.63248  0.54232  1.0000
  C   C107      1.0  0.36860  0.90040  0.54119  1.0000
  C   C108      1.0  0.09741  0.46515  0.52652  1.0000
  N   N1        1.0  0.54976  0.43814  0.30831  1.0000
  N   N2        1.0  0.56475  0.11181  0.30239  1.0000
  N   N3        1.0  0.89241  0.45490  0.31790  1.0000
  N   N4        1.0  0.45058  0.55985  0.30635  1.0000
  N   N5        1.0  0.43634  0.88865  0.31586  1.0000
  N   N6        1.0  0.11093  0.54505  0.30223  1.0000
  N   N7        1.0  0.55054  0.44022  0.81508  1.0000
  N   N8        1.0  0.56519  0.11176  0.80484  1.0000
  N   N9        1.0  0.89082  0.45451  0.81718  1.0000
  N   N10       1.0  0.45133  0.56364  0.80970  1.0000
  N   N11       1.0  0.43778  0.89106  0.81723  1.0000
  N   N12       1.0  0.10935  0.54416  0.80019  1.0000
  O   O1        1.0  0.58509  0.52527  0.16323  1.0000
  O   O2        1.0  0.47675  0.06055  0.19312  1.0000
  O   O3        1.0  0.93813  0.41483  0.19949  1.0000
  O   O4        1.0  0.41590  0.47376  0.18507  1.0000
  O   O5        1.0  0.52186  0.93723  0.16349  1.0000
  O   O6        1.0  0.06268  0.58343  0.17035  1.0000
  O   O7        1.0  0.58489  0.52736  0.70325  1.0000
  O   O8        1.0  0.47843  0.06236  0.68109  1.0000
  O   O9        1.0  0.93625  0.41494  0.68838  1.0000
  O   O10       1.0  0.41554  0.47564  0.69542  1.0000
  O   O11       1.0  0.52391  0.93902  0.67313  1.0000
  O   O12       1.0  0.06160  0.58360  0.67372  1.0000
  C   C109      1.0  0.61603  0.43353  0.44691  1.0000
  C   C110      1.0  0.58374  0.42434  0.34239  1.0000
  C  Sn1       1.0  0.56805  0.38860  0.24973  1.0000
  C  Sn2       1.0  0.58505  0.36160  0.26222  1.0000
  C   C111      1.0  0.61733  0.37105  0.36721  1.0000
  C   C112      1.0  0.63280  0.40691  0.45934  1.0000
  H   H97       1.0  0.62799  0.46126  0.51825  1.0000
  O  Te1       1.0  0.53580  0.37989  0.14587  1.0000
  O  Te2       1.0  0.56994  0.32566  0.17105  1.0000
  H   H98       1.0  0.65778  0.41400  0.54032  1.0000
  Mg  Mg1       1.0  0.52572  0.32718  0.04660  1.0000
  C   C113      1.0  0.64383  0.21675  0.24384  1.0000
  C   C114      1.0  0.63223  0.24134  0.32653  1.0000
  C  Sn3       1.0  0.59720  0.22212  0.41554  1.0000
  C  Sn4       1.0  0.57339  0.17745  0.42169  1.0000
  C   C115      1.0  0.58526  0.15313  0.33863  1.0000
  C   C116      1.0  0.62037  0.17269  0.24989  1.0000
  H   H99       1.0  0.67100  0.23188  0.17524  1.0000
  O  Te3       1.0  0.58604  0.24716  0.49740  1.0000
  O  Te4       1.0  0.53824  0.15742  0.50978  1.0000
  H   H100      1.0  0.62935  0.15364  0.18596  1.0000
  Mg  Mg2       1.0  0.53558  0.20516  0.60101  1.0000
  C   C117      1.0  0.82124  0.38859  0.44332  1.0000
  C   C118      1.0  0.84450  0.42199  0.34783  1.0000
  C  Sn5       1.0  0.82515  0.44014  0.26548  1.0000
  C  Sn6       1.0  0.78171  0.42449  0.27923  1.0000
  C   C119      1.0  0.75873  0.39108  0.37514  1.0000
  C   C120      1.0  0.77840  0.37315  0.45699  1.0000
  H   H101      1.0  0.83646  0.37473  0.50671  1.0000
  O  Te5       1.0  0.84884  0.47348  0.17056  1.0000
  O  Te6       1.0  0.76159  0.44205  0.19827  1.0000
  H   H102      1.0  0.76039  0.34730  0.53099  1.0000
  Mg  Mg3       1.0  0.80726  0.48695  0.08353  1.0000
  C   C121      1.0  0.42629  0.64030  0.25823  1.0000
  C   C122      1.0  0.38959  0.62697  0.33592  1.0000
  C  Sn7       1.0  0.37258  0.58981  0.41763  1.0000
  C  Sn8       1.0  0.39275  0.56561  0.42144  1.0000
  C   C123      1.0  0.42947  0.57923  0.34343  1.0000
  C   C124      1.0  0.44622  0.61646  0.26198  1.0000
  H   H103      1.0  0.43927  0.66912  0.19528  1.0000
  O  Te7       1.0  0.33588  0.57694  0.49456  1.0000
  O  Te8       1.0  0.37643  0.52835  0.50227  1.0000
  H   H104      1.0  0.47465  0.62679  0.20192  1.0000
  Mg  Mg4       1.0  0.32575  0.52389  0.58885  1.0000
  C   C125      1.0  0.42147  0.79332  0.45308  1.0000
  C   C126      1.0  0.38266  0.76195  0.39513  1.0000
  C  Sn9       1.0  0.36033  0.77209  0.29151  1.0000
  C  Sn10      1.0  0.37725  0.81445  0.24523  1.0000
  C   C127      1.0  0.41611  0.84560  0.30378  1.0000
  C   C128      1.0  0.43819  0.83511  0.40745  1.0000
  H   H105      1.0  0.43856  0.78520  0.53323  1.0000
  O  Te9       1.0  0.32160  0.74036  0.23476  1.0000
  O  Te10      1.0  0.35561  0.82546  0.14177  1.0000
  H   H106      1.0  0.46824  0.85940  0.45223  1.0000
  Mg  Mg5       1.0  0.30397  0.77103  0.09643  1.0000
  C   C129      1.0  0.20692  0.62635  0.43808  1.0000
  C   C130      1.0  0.23713  0.61743  0.38824  1.0000
  C  Sn11      1.0  0.22578  0.58339  0.29059  1.0000
  C  Sn12      1.0  0.18338  0.55787  0.24210  1.0000
  C   C131      1.0  0.15340  0.56707  0.29253  1.0000
  C   C132      1.0  0.16510  0.60120  0.39027  1.0000
  H   H107      1.0  0.21597  0.65277  0.51364  1.0000
  O  Te11      1.0  0.25635  0.57492  0.24192  1.0000
  O  Te12      1.0  0.17118  0.52366  0.14448  1.0000
  H   H108      1.0  0.14171  0.60811  0.42877  1.0000
  Mg  Mg6       1.0  0.22430  0.52481  0.10935  1.0000
  C   C133      1.0  0.40090  0.32484  0.34461  1.0000
  C   C134      1.0  0.43540  0.33283  0.43591  1.0000
  C  Sn13      1.0  0.45057  0.30482  0.43615  1.0000
  C  Sn14      1.0  0.43079  0.26818  0.34310  1.0000
  C   C135      1.0  0.39632  0.26049  0.25209  1.0000
  C   C136      1.0  0.38138  0.28871  0.25276  1.0000
  H   H109      1.0  0.38935  0.34669  0.34506  1.0000
  O  Te13      1.0  0.48506  0.31328  0.52810  1.0000
  O  Te14      1.0  0.44532  0.23967  0.34111  1.0000
  H   H110      1.0  0.35468  0.28253  0.18198  1.0000
  Mg  Mg7       1.0  0.49329  0.26497  0.48621  1.0000
  C   C137      1.0  0.68007  0.07625  0.37441  1.0000
  C   C138      1.0  0.67070  0.10379  0.44907  1.0000
  C  Sn15      1.0  0.69436  0.14722  0.42636  1.0000
  C  Sn16      1.0  0.72800  0.16329  0.32696  1.0000
  C   C139      1.0  0.73710  0.13548  0.25273  1.0000
  C   C140      1.0  0.71323  0.09207  0.27632  1.0000
  H   H111      1.0  0.66159  0.04266  0.39259  1.0000
  O  Te15      1.0  0.68459  0.17430  0.50189  1.0000
  O  Te16      1.0  0.75215  0.20657  0.30216  1.0000
  H   H112      1.0  0.72047  0.07075  0.21842  1.0000
  Mg  Mg8       1.0  0.72662  0.23077  0.43114  1.0000
  C   C141      1.0  0.83222  0.54515  0.44367  1.0000
  C   C142      1.0  0.87213  0.55000  0.45479  1.0000
  C  Sn17      1.0  0.90538  0.58291  0.38152  1.0000
  C  Sn18      1.0  0.89845  0.61144  0.29563  1.0000
  C   C143      1.0  0.85841  0.60633  0.28530  1.0000
  C   C144      1.0  0.82536  0.57328  0.35904  1.0000
  H   H113      1.0  0.80665  0.51959  0.50079  1.0000
  O  Te17      1.0  0.94506  0.58730  0.39376  1.0000
  O  Te18      1.0  0.93113  0.64462  0.22130  1.0000
  H   H114      1.0  0.79446  0.56955  0.35049  1.0000
  Mg  Mg9       1.0  0.97958  0.63749  0.27189  1.0000
  C   C145      1.0  0.54098  0.70572  0.39450  1.0000
  C   C146      1.0  0.54787  0.67303  0.43728  1.0000
  C  Sn19      1.0  0.58483  0.67412  0.40061  1.0000
  C  Sn20      1.0  0.61542  0.70864  0.31965  1.0000
  C   C147      1.0  0.60824  0.74121  0.27746  1.0000
  C   C148      1.0  0.57114  0.73979  0.31469  1.0000
  H   H115      1.0  0.51229  0.70464  0.42337  1.0000
  O  Te19      1.0  0.59120  0.64119  0.44417  1.0000
  O  Te20      1.0  0.65264  0.71054  0.28159  1.0000
  H   H116      1.0  0.56583  0.76512  0.28164  1.0000
  Mg  Mg10      1.0  0.64692  0.65806  0.36600  1.0000
  C   C149      1.0  0.32655  0.93128  0.35763  1.0000
  C   C150      1.0  0.33286  0.90272  0.44149  1.0000
  C  Sn21      1.0  0.30469  0.85942  0.42727  1.0000
  C  Sn22      1.0  0.26961  0.84451  0.32712  1.0000
  C   C151      1.0  0.26360  0.87334  0.24364  1.0000
  C   C152      1.0  0.29196  0.91661  0.25878  1.0000
  H   H117      1.0  0.34851  0.96476  0.36927  1.0000
  O  Te21      1.0  0.31145  0.83132  0.51195  1.0000
  O  Te22      1.0  0.24098  0.80139  0.31069  1.0000
  H   H118      1.0  0.28709  0.93871  0.19376  1.0000
  Mg  Mg11      1.0  0.26367  0.77552  0.45047  1.0000
  C   C153      1.0  0.06910  0.38997  0.35414  1.0000
  C   C154      1.0  0.09680  0.42739  0.43090  1.0000
  C  Sn23      1.0  0.13983  0.44634  0.41145  1.0000
  C  Sn24      1.0  0.15531  0.42741  0.31322  1.0000
  C   C155      1.0  0.12733  0.38999  0.23686  1.0000
  C   C156      1.0  0.08434  0.37128  0.25719  1.0000
  H   H119      1.0  0.03583  0.37551  0.36980  1.0000
  O  Te23      1.0  0.16707  0.48372  0.48904  1.0000
  O  Te24      1.0  0.19816  0.44569  0.29166  1.0000
  H   H120      1.0  0.06290  0.34232  0.19768  1.0000
  Mg  Mg12      1.0  0.22281  0.49661  0.42251  1.0000
  C   C157      1.0  0.56033  0.36962  0.75440  1.0000
  C   C158      1.0  0.56651  0.40667  0.82274  1.0000
  C  Sn25      1.0  0.60220  0.43119  0.91286  1.0000
  C  Sn26      1.0  0.63220  0.41830  0.93473  1.0000
  C   C159      1.0  0.62574  0.38119  0.86578  1.0000
  C   C160      1.0  0.58991  0.35689  0.77586  1.0000
  H   H121      1.0  0.53262  0.35082  0.68477  1.0000
  O  Te25      1.0  0.60788  0.46811  0.98035  1.0000
  O  Te26      1.0  0.65929  0.43765  0.02419  1.0000
  H   H122      1.0  0.58515  0.32822  0.72289  1.0000
  Mg  Mg13      1.0  0.65303  0.48547  0.09230  1.0000
  C   C161      1.0  0.57931  0.20795  0.93006  1.0000
  C   C162      1.0  0.61951  0.23865  0.89028  1.0000
  C  Sn27      1.0  0.64350  0.22767  0.80359  1.0000
  C  Sn28      1.0  0.62683  0.18513  0.75599  1.0000
  C   C163      1.0  0.58657  0.15465  0.79629  1.0000
  C   C164      1.0  0.56284  0.16599  0.88310  1.0000
  H   H123      1.0  0.56094  0.21672  0.99716  1.0000
  O  Te27      1.0  0.68362  0.25874  0.76489  1.0000
  O  Te28      1.0  0.65012  0.17328  0.66922  1.0000
  H   H124      1.0  0.53170  0.14222  0.91381  1.0000
  Mg  Mg14      1.0  0.70323  0.22703  0.64514  1.0000
  C   C165      1.0  0.78690  0.43132  0.76936  1.0000
  C   C166      1.0  0.76306  0.39337  0.84344  1.0000
  C  Sn29      1.0  0.78265  0.37499  0.92292  1.0000
  C  Sn30      1.0  0.82693  0.39506  0.92817  1.0000
  C   C167      1.0  0.85050  0.43304  0.85378  1.0000
  C   C168      1.0  0.83058  0.45115  0.77453  1.0000
  H   H125      1.0  0.77149  0.44535  0.70812  1.0000
  O  Te29      1.0  0.75836  0.33705  0.99625  1.0000
  O  Te30      1.0  0.83845  0.37281  0.00683  1.0000
  H   H126      1.0  0.84904  0.48055  0.71727  1.0000
  Mg  Mg15      1.0  0.79174  0.32075  0.08866  1.0000
  C   C169      1.0  0.42696  0.64377  0.75962  1.0000
  C   C170      1.0  0.38892  0.62934  0.82942  1.0000
  C  Sn31      1.0  0.37078  0.59130  0.90610  1.0000
  C  Sn32      1.0  0.39118  0.56734  0.91287  1.0000
  C   C171      1.0  0.42925  0.58206  0.84277  1.0000
  C   C172      1.0  0.44711  0.62016  0.76630  1.0000
  H   H127      1.0  0.44080  0.67326  0.70052  1.0000
  O  Te31      1.0  0.33275  0.57734  0.97515  1.0000
  O  Te32      1.0  0.37375  0.52922  0.98880  1.0000
  H   H128      1.0  0.47658  0.63134  0.71236  1.0000
  Mg  Mg16      1.0  0.31259  0.51883  0.06508  1.0000
  C   C173      1.0  0.42329  0.79426  0.93724  1.0000
  C   C174      1.0  0.38249  0.76395  0.89282  1.0000
  C  Sn33      1.0  0.35797  0.77540  0.80597  1.0000
  C  Sn34      1.0  0.37469  0.81800  0.76292  1.0000
  C   C175      1.0  0.41555  0.84808  0.80784  1.0000
  C   C176      1.0  0.43981  0.83629  0.89478  1.0000
  H   H129      1.0  0.43322  0.78057  0.00443  1.0000
  O  Te33      1.0  0.31726  0.74472  0.76260  1.0000
  O  Te34      1.0  0.35086  0.83030  0.67609  1.0000
  H   H130      1.0  0.47141  0.85976  0.92907  1.0000
  Mg  Mg17      1.0  0.29706  0.77697  0.64473  1.0000
  C   C177      1.0  0.21317  0.56957  0.75062  1.0000
  C   C178      1.0  0.23754  0.60820  0.82563  1.0000
  C  Sn35      1.0  0.21853  0.62612  0.90701  1.0000
  C  Sn36      1.0  0.17430  0.60488  0.91325  1.0000
  C   C179      1.0  0.15020  0.56623  0.83792  1.0000
  C   C180      1.0  0.16954  0.54859  0.75677  1.0000
  H   H131      1.0  0.22813  0.55591  0.68790  1.0000
  O  Te35      1.0  0.24334  0.66474  0.98125  1.0000
  O  Te36      1.0  0.15448  0.62206  0.99382  1.0000
  H   H132      1.0  0.15067  0.51867  0.69879  1.0000
  Mg  Mg18      1.0  0.19292  0.67084  0.07627  1.0000
  C   C181      1.0  0.45068  0.28660  0.92086  1.0000
  C   C182      1.0  0.44878  0.32343  0.93920  1.0000
  C  Sn37      1.0  0.41619  0.32684  0.87153  1.0000
  C  Sn38      1.0  0.38496  0.29269  0.78399  1.0000
  C   C183      1.0  0.38713  0.25597  0.76642  1.0000
  C   C184      1.0  0.41989  0.25290  0.83458  1.0000
  H   H133      1.0  0.47602  0.28422  0.97366  1.0000
  O  Te37      1.0  0.41477  0.36387  0.89096  1.0000
  O  Te38      1.0  0.35203  0.29525  0.71517  1.0000
  H   H134      1.0  0.42134  0.22437  0.82045  1.0000
  Mg  Mg19      1.0  0.36371  0.35226  0.77470  1.0000
  C   C185      1.0  0.70614  0.15673  0.90445  1.0000
  C   C186      1.0  0.67174  0.11795  0.94112  1.0000
  C  Sn39      1.0  0.66909  0.08029  0.89478  1.0000
  C  Sn40      1.0  0.70155  0.08157  0.81020  1.0000
  C   C187      1.0  0.73585  0.12052  0.77417  1.0000
  C   C188      1.0  0.73817  0.15802  0.82108  1.0000
  H   H135      1.0  0.70796  0.18575  0.94080  1.0000
  O  Te39      1.0  0.63449  0.04181  0.93234  1.0000
  O  Te40      1.0  0.69970  0.04440  0.76250  1.0000
  H   H136      1.0  0.76483  0.18804  0.79275  1.0000
  Mg  Mg20      1.0  0.14480  0.99973  0.84157  1.0000
  C   C189      1.0  0.84499  0.55462  0.91059  1.0000
  C   C190      1.0  0.88289  0.55634  0.94424  1.0000
  C  Sn41      1.0  0.92031  0.58958  0.89290  1.0000
  C  Sn42      1.0  0.91967  0.62164  0.80633  1.0000
  C   C191      1.0  0.88159  0.61965  0.77336  1.0000
  C   C192      1.0  0.84433  0.58625  0.82526  1.0000
  H   H137      1.0  0.81616  0.52879  0.95081  1.0000
  O  Te41      1.0  0.95791  0.59080  0.92749  1.0000
  O  Te42      1.0  0.95661  0.65522  0.75364  1.0000
  H   H138      1.0  0.81499  0.58494  0.79927  1.0000
  Mg  Mg21      1.0  1.00000  0.64297  0.83016  1.0000
  C   C193      1.0  0.55440  0.72334  0.84692  1.0000
  C   C194      1.0  0.59315  0.73572  0.78578  1.0000
  C  Sn43      1.0  0.61205  0.71129  0.80688  1.0000
  C  Sn44      1.0  0.59168  0.67378  0.89076  1.0000
  C   C195      1.0  0.55289  0.66166  0.95139  1.0000
  C   C196      1.0  0.53428  0.68634  0.92963  1.0000
  H   H139      1.0  0.53998  0.74243  0.83003  1.0000
  O  Te43      1.0  0.65079  0.72413  0.74506  1.0000
  O  Te44      1.0  0.60985  0.64877  0.91352  1.0000
  H   H140      1.0  0.50425  0.67674  0.97690  1.0000
  Mg  Mg22      1.0  0.66296  0.67947  0.80693  1.0000
  C   C197      1.0  0.32281  0.92412  0.84988  1.0000
  C   C198      1.0  0.32945  0.89705  0.94136  1.0000
  C  Sn45      1.0  0.30093  0.85371  0.93753  1.0000
  C  Sn46      1.0  0.26514  0.83724  0.84016  1.0000
  C   C199      1.0  0.25879  0.86458  0.74902  1.0000
  C   C200      1.0  0.28752  0.90791  0.75378  1.0000
  H   H141      1.0  0.34505  0.95764  0.85350  1.0000
  O  Te45      1.0  0.29917  0.82254  0.02971  1.0000
  O  Te46      1.0  0.23614  0.79405  0.83406  1.0000
  H   H142      1.0  0.28239  0.92885  0.68287  1.0000
  Mg  Mg23      1.0  0.25953  0.77056  0.98126  1.0000
  C   C201      1.0  0.15822  0.44925  0.89785  1.0000
  C   C202      1.0  0.11945  0.44516  0.92662  1.0000
  C  Sn47      1.0  0.08266  0.41065  0.86886  1.0000
  C  Sn48      1.0  0.08480  0.37968  0.78073  1.0000
  C   C203      1.0  0.12373  0.38404  0.75267  1.0000
  C   C204      1.0  0.16036  0.41872  0.81098  1.0000
  H   H143      1.0  0.18656  0.47606  0.94302  1.0000
  O  Te47      1.0  0.04419  0.40706  0.89865  1.0000
  O  Te48      1.0  0.04851  0.34486  0.72167  1.0000
  H   H144      1.0  0.19037  0.42185  0.78876  1.0000
  Mg  Mg24      1.0  0.00348  0.35394  0.79334  1.0000
