data_image0
_chemical_formula_structural       H96C108N12O12SnCSn2CSnTe4Mg2SnCSn2CSnTe4Mg2SnCSn2CSnTe4Mg2SnCSn2CSnTe4Mg2SnCSn2CSnTe4Mg2SnCSn2CSnTe4Mg2SnCSn2CSnTe4Mg2SnCSn2CSnTe4Mg2SnCSn2CSnTe4Mg2SnCSn2CSnTe4Mg2SnCSn2CSnTe4Mg2SnCSn2CSnTe4Mg2SnCSn2CSnTe4Mg2SnCSn2CSnTe4Mg2SnCSn2CSnTe4Mg2SnCSn2CSnTe4Mg2SnCSn2CSnTe4Mg2SnCSn2CSnTe4Mg2SnCSn2CSnTe4Mg2SnCSn2CSnTe4Mg2SnCSn2CSnTe4Mg2SnCSn2CSnTe4Mg2SnCSn2CSnTe4Mg2SnCSn2CSnTe4Mg2
_chemical_formula_sum              "H96 C156 N12 O12 Sn96 Te96 Mg48"
_cell_length_a       36.9788
_cell_length_b       36.5793
_cell_length_c       8.03719
_cell_angle_alpha    91.4463
_cell_angle_beta     89.9244
_cell_angle_gamma    120.317

_symmetry_space_group_name_H-M    'P1'
_space_group_IT_number       1

loop_
  _space_group_symop_operation_xyz
  'x, y, z'

loop_
  _atom_site_type_symbol
  _atom_site_label
  _atom_site_symmetry_multiplicity
  _atom_site_fract_x
  _atom_site_fract_y
  _atom_site_fract_z
  _atom_site_occupancy
  H   H1        1.0  0.56516  0.47196  0.40869  1.0000
  H   H2        1.0  0.53553  0.09556  0.36180  1.0000
  H   H3        1.0  0.90520  0.44252  0.35833  1.0000
  H   H4        1.0  0.43494  0.53140  0.39408  1.0000
  H   H5        1.0  0.46780  0.90460  0.40924  1.0000
  H   H6        1.0  0.09618  0.56535  0.40246  1.0000
  H   H7        1.0  0.52411  0.42032  0.17011  1.0000
  H   H8        1.0  0.58581  0.10194  0.16893  1.0000
  H   H9        1.0  0.89948  0.48416  0.16228  1.0000
  H   H10       1.0  0.47863  0.57951  0.17339  1.0000
  H   H11       1.0  0.42140  0.89714  0.15706  1.0000
  H   H12       1.0  0.09965  0.51820  0.15804  1.0000
  H   H13       1.0  0.44234  0.42486  0.07627  1.0000
  H   H14       1.0  0.57429  0.01076  0.05839  1.0000
  H   H15       1.0  0.99048  0.56390  0.05465  1.0000
  H   H16       1.0  0.55871  0.57238  0.08287  1.0000
  H   H17       1.0  0.43103  0.98667  0.08865  1.0000
  H   H18       1.0  0.01042  0.44109  0.08978  1.0000
  H   H19       1.0  0.70408  0.41555  0.40759  1.0000
  H   H20       1.0  0.59008  0.29468  0.39881  1.0000
  H   H21       1.0  0.70911  0.30077  0.39442  1.0000
  H   H22       1.0  0.29591  0.58768  0.40941  1.0000
  H   H23       1.0  0.40943  0.70870  0.41559  1.0000
  H   H24       1.0  0.29014  0.70205  0.40713  1.0000
  H   H25       1.0  0.62180  0.57951  0.10531  1.0000
  H   H26       1.0  0.42818  0.04626  0.10640  1.0000
  H   H27       1.0  0.94936  0.37893  0.10375  1.0000
  H   H28       1.0  0.37941  0.41804  0.09094  1.0000
  H   H29       1.0  0.57926  0.95420  0.06517  1.0000
  H   H30       1.0  0.04759  0.62591  0.09589  1.0000
  H   H31       1.0  0.63859  0.55127  0.23302  1.0000
  H   H32       1.0  0.45707  0.08918  0.25303  1.0000
  H   H33       1.0  0.90900  0.36787  0.25189  1.0000
  H   H34       1.0  0.36309  0.44523  0.23309  1.0000
  H   H35       1.0  0.54896  0.90501  0.16735  1.0000
  H   H36       1.0  0.09547  0.64137  0.20621  1.0000
  H   H37       1.0  0.59843  0.56176  0.30442  1.0000
  H   H38       1.0  0.44280  0.03598  0.30479  1.0000
  H   H39       1.0  0.96273  0.40595  0.30333  1.0000
  H   H40       1.0  0.40318  0.43383  0.29354  1.0000
  H   H41       1.0  0.55992  0.95396  0.26984  1.0000
  H   H42       1.0  0.04622  0.60221  0.28989  1.0000
  H   H43       1.0  0.31035  0.23893  0.09811  1.0000
  H   H44       1.0  0.75940  0.07715  0.08867  1.0000
  H   H45       1.0  0.91808  0.68115  0.09976  1.0000
  H   H46       1.0  0.68254  0.75724  0.08123  1.0000
  H   H47       1.0  0.24721  0.94252  0.10233  1.0000
  H   H48       1.0  0.06728  0.30873  0.06501  1.0000
  H   H49       1.0  0.56721  0.46916  0.90267  1.0000
  H   H50       1.0  0.53347  0.09342  0.89688  1.0000
  H   H51       1.0  0.90674  0.44014  0.88033  1.0000
  H   H52       1.0  0.43974  0.53057  0.86651  1.0000
  H   H53       1.0  0.46730  0.90113  0.87507  1.0000
  H   H54       1.0  0.09604  0.56303  0.88727  1.0000
  H   H55       1.0  0.52061  0.42116  0.67100  1.0000
  H   H56       1.0  0.58291  0.10530  0.66789  1.0000
  H   H57       1.0  0.90105  0.48323  0.67393  1.0000
  H   H58       1.0  0.47945  0.58415  0.67034  1.0000
  H   H59       1.0  0.41718  0.90057  0.66423  1.0000
  H   H60       1.0  0.10214  0.51982  0.65651  1.0000
  H   H61       1.0  0.44039  0.42866  0.57501  1.0000
  H   H62       1.0  0.57127  0.01467  0.56394  1.0000
  H   H63       1.0  0.98919  0.56060  0.56957  1.0000
  H   H64       1.0  0.55883  0.57520  0.58812  1.0000
  H   H65       1.0  0.42812  0.99056  0.59419  1.0000
  H   H66       1.0  0.01278  0.43994  0.58866  1.0000
  H   H67       1.0  0.70463  0.41199  0.91052  1.0000
  H   H68       1.0  0.59130  0.29096  0.90683  1.0000
  H   H69       1.0  0.71072  0.29775  0.90594  1.0000
  H   H70       1.0  0.29557  0.58341  0.91157  1.0000
  H   H71       1.0  0.40964  0.70387  0.90634  1.0000
  H   H72       1.0  0.29096  0.69848  0.91003  1.0000
  H   H73       1.0  0.61935  0.58056  0.60326  1.0000
  H   H74       1.0  0.42485  0.04953  0.60600  1.0000
  H   H75       1.0  0.95324  0.37694  0.60041  1.0000
  H   H76       1.0  0.37783  0.42286  0.58649  1.0000
  H   H77       1.0  0.57531  0.95646  0.56560  1.0000
  H   H78       1.0  0.04617  0.62326  0.58625  1.0000
  H   H79       1.0  0.63804  0.55357  0.72848  1.0000
  H   H80       1.0  0.45349  0.09322  0.74957  1.0000
  H   H81       1.0  0.91320  0.36384  0.75150  1.0000
  H   H82       1.0  0.36215  0.45223  0.72012  1.0000
  H   H83       1.0  0.54794  0.91201  0.69761  1.0000
  H   H84       1.0  0.09479  0.64158  0.69635  1.0000
  H   H85       1.0  0.59877  0.56455  0.80753  1.0000
  H   H86       1.0  0.43956  0.04045  0.80622  1.0000
  H   H87       1.0  0.96686  0.40258  0.80206  1.0000
  H   H88       1.0  0.40152  0.44070  0.78901  1.0000
  H   H89       1.0  0.56185  0.96434  0.77235  1.0000
  H   H90       1.0  0.04626  0.60378  0.78902  1.0000
  H   H91       1.0  0.32024  0.23419  0.57523  1.0000
  H   H92       1.0  0.75530  0.06334  0.58097  1.0000
  H   H93       1.0  0.93376  0.69278  0.60029  1.0000
  H   H94       1.0  0.67827  0.75980  0.59293  1.0000
  H   H95       1.0  0.23941  0.91844  0.58790  1.0000
  H   H96       1.0  0.07065  0.31151  0.55064  1.0000
  C   C1        1.0  0.51593  0.42742  0.04706  1.0000
  C   C2        1.0  0.57536  0.08477  0.04719  1.0000
  C   C3        1.0  0.91602  0.49087  0.04211  1.0000
  C   C4        1.0  0.48517  0.56952  0.05109  1.0000
  C   C5        1.0  0.42903  0.91292  0.03542  1.0000
  C   C6        1.0  0.08361  0.51137  0.03505  1.0000
  C   C7        1.0  0.50860  0.46461  0.07525  1.0000
  C   C8        1.0  0.53769  0.04060  0.07519  1.0000
  C   C9        1.0  0.95952  0.49685  0.07206  1.0000
  C   C10       1.0  0.49240  0.53258  0.08043  1.0000
  C   C11       1.0  0.46759  0.95684  0.06505  1.0000
  C   C12       1.0  0.04118  0.50792  0.06544  1.0000
  C   C13       1.0  0.46782  0.45753  0.08363  1.0000
  C   C14       1.0  0.54262  0.00517  0.06984  1.0000
  C   C15       1.0  0.99513  0.53703  0.06753  1.0000
  C   C16       1.0  0.53324  0.53972  0.08727  1.0000
  C   C17       1.0  0.46279  0.99221  0.08623  1.0000
  C   C18       1.0  0.00568  0.46804  0.08605  1.0000
  C   C19       1.0  0.54158  0.50662  0.09757  1.0000
  C   C20       1.0  0.49700  0.03336  0.10239  1.0000
  C   C21       1.0  0.96564  0.46256  0.10143  1.0000
  C   C22       1.0  0.45946  0.49068  0.09997  1.0000
  C   C23       1.0  0.50861  0.96388  0.07511  1.0000
  C   C24       1.0  0.03556  0.54317  0.07673  1.0000
  C   C25       1.0  0.64413  0.35768  0.40316  1.0000
  C   C26       1.0  0.64701  0.29221  0.39542  1.0000
  C   C27       1.0  0.71192  0.36103  0.39933  1.0000
  C   C28       1.0  0.35557  0.64562  0.41256  1.0000
  C   C29       1.0  0.35230  0.71083  0.41039  1.0000
  C   C30       1.0  0.28754  0.64186  0.40679  1.0000
  C   C31       1.0  0.68810  0.38111  0.40300  1.0000
  C   C32       1.0  0.62412  0.31328  0.39792  1.0000
  C   C33       1.0  0.69088  0.31659  0.39494  1.0000
  C   C34       1.0  0.31163  0.62207  0.40895  1.0000
  C   C35       1.0  0.37540  0.68999  0.41249  1.0000
  C   C36       1.0  0.30841  0.68628  0.40752  1.0000
  C   C37       1.0  0.61164  0.55408  0.19537  1.0000
  C   C38       1.0  0.45252  0.05888  0.20456  1.0000
  C   C39       1.0  0.93891  0.39254  0.20326  1.0000
  C   C40       1.0  0.38990  0.44268  0.19027  1.0000
  C   C41       1.0  0.55298  0.93646  0.14979  1.0000
  C   C42       1.0  0.06411  0.61483  0.17537  1.0000
  C   C43       1.0  0.47535  0.39295  0.47790  1.0000
  C   C44       1.0  0.60774  0.08526  0.47540  1.0000
  C   C45       1.0  0.91836  0.52475  0.47541  1.0000
  C   C46       1.0  0.52383  0.60957  0.47977  1.0000
  C   C47       1.0  0.39165  0.92032  0.47561  1.0000
  C   C48       1.0  0.08095  0.47309  0.46438  1.0000
  C   C49       1.0  0.44459  0.36377  0.40930  1.0000
  C   C50       1.0  0.63703  0.08448  0.40926  1.0000
  C   C51       1.0  0.91837  0.55404  0.40634  1.0000
  C   C52       1.0  0.55360  0.63772  0.40874  1.0000
  C   C53       1.0  0.36432  0.92442  0.40970  1.0000
  C   C54       1.0  0.07763  0.44178  0.39289  1.0000
  C   C55       1.0  0.51339  0.42951  0.54840  1.0000
  C   C56       1.0  0.57256  0.08833  0.54582  1.0000
  C   C57       1.0  0.91599  0.48746  0.55094  1.0000
  C   C58       1.0  0.48596  0.57400  0.54846  1.0000
  C   C59       1.0  0.42641  0.91671  0.54343  1.0000
  C   C60       1.0  0.08511  0.51229  0.53558  1.0000
  C   C61       1.0  0.50682  0.46723  0.57808  1.0000
  C   C62       1.0  0.53470  0.04455  0.57677  1.0000
  C   C63       1.0  0.95953  0.49346  0.58069  1.0000
  C   C64       1.0  0.49240  0.53647  0.57737  1.0000
  C   C65       1.0  0.46471  0.96076  0.57594  1.0000
  C   C66       1.0  0.04205  0.50691  0.57039  1.0000
  C   C67       1.0  0.46639  0.46106  0.58224  1.0000
  C   C68       1.0  0.53965  0.00916  0.57646  1.0000
  C   C69       1.0  0.99457  0.53415  0.57927  1.0000
  C   C70       1.0  0.53289  0.54276  0.58949  1.0000
  C   C71       1.0  0.45990  0.99620  0.59267  1.0000
  C   C72       1.0  0.00728  0.46645  0.58944  1.0000
  C   C73       1.0  0.54024  0.50903  0.60201  1.0000
  C   C74       1.0  0.49406  0.03751  0.60520  1.0000
  C   C75       1.0  0.96675  0.45967  0.60743  1.0000
  C   C76       1.0  0.45893  0.49482  0.59352  1.0000
  C   C77       1.0  0.50574  0.96802  0.58859  1.0000
  C   C78       1.0  0.03537  0.54136  0.58602  1.0000
  C   C79       1.0  0.64506  0.35395  0.90778  1.0000
  C   C80       1.0  0.64848  0.28878  0.90658  1.0000
  C   C81       1.0  0.71317  0.35788  0.90699  1.0000
  C   C82       1.0  0.35547  0.64115  0.90915  1.0000
  C   C83       1.0  0.35282  0.70668  0.90757  1.0000
  C   C84       1.0  0.28774  0.63797  0.90986  1.0000
  C   C85       1.0  0.68900  0.37758  0.90783  1.0000
  C   C86       1.0  0.62533  0.30960  0.90606  1.0000
  C   C87       1.0  0.69237  0.31343  0.90562  1.0000
  C   C88       1.0  0.31151  0.61782  0.90958  1.0000
  C   C89       1.0  0.37559  0.68551  0.90720  1.0000
  C   C90       1.0  0.30894  0.68240  0.90876  1.0000
  C   C91       1.0  0.61058  0.55601  0.69630  1.0000
  C   C92       1.0  0.44930  0.06283  0.70392  1.0000
  C   C93       1.0  0.94264  0.38951  0.70335  1.0000
  C   C94       1.0  0.38857  0.44852  0.68151  1.0000
  C   C95       1.0  0.55165  0.94250  0.66340  1.0000
  C   C96       1.0  0.06344  0.61427  0.67163  1.0000
  C   C97       1.0  0.47808  0.39006  0.98045  1.0000
  C   C98       1.0  0.61018  0.08159  0.97496  1.0000
  C   C99       1.0  0.91900  0.52931  0.97521  1.0000
  C   C100      1.0  0.52251  0.60567  0.98127  1.0000
  C   C101      1.0  0.39305  0.91596  0.97763  1.0000
  C   C102      1.0  0.07867  0.47161  0.96508  1.0000
  C   C103      1.0  0.44822  0.36029  0.91013  1.0000
  C   C104      1.0  0.63761  0.07825  0.90463  1.0000
  C   C105      1.0  0.92165  0.55957  0.90412  1.0000
  C   C106      1.0  0.55156  0.63522  0.91243  1.0000
  C   C107      1.0  0.36352  0.91684  0.91522  1.0000
  C   C108      1.0  0.07679  0.44075  0.89505  1.0000
  N   N1        1.0  0.54827  0.44072  0.43378  1.0000
  N   N2        1.0  0.56064  0.11218  0.43909  1.0000
  N   N3        1.0  0.89036  0.44905  0.45097  1.0000
  N   N4        1.0  0.45090  0.56223  0.43294  1.0000
  N   N5        1.0  0.43651  0.89188  0.42470  1.0000
  N   N6        1.0  0.10862  0.54648  0.41820  1.0000
  N   N7        1.0  0.55017  0.43803  0.92972  1.0000
  N   N8        1.0  0.56378  0.10838  0.93592  1.0000
  N   N9        1.0  0.89197  0.45531  0.92492  1.0000
  N   N10       1.0  0.44888  0.55629  0.94293  1.0000
  N   N11       1.0  0.43708  0.88761  0.91181  1.0000
  N   N12       1.0  0.10889  0.54552  0.92113  1.0000
  O   O1        1.0  0.58173  0.51348  0.12418  1.0000
  O   O2        1.0  0.49257  0.06814  0.14135  1.0000
  O   O3        1.0  0.93078  0.42426  0.14149  1.0000
  O   O4        1.0  0.41971  0.48383  0.13237  1.0000
  O   O5        1.0  0.51384  0.92892  0.08279  1.0000
  O   O6        1.0  0.07068  0.58353  0.09164  1.0000
  O   O7        1.0  0.57984  0.51492  0.63246  1.0000
  O   O8        1.0  0.48935  0.07212  0.64167  1.0000
  O   O9        1.0  0.93310  0.42080  0.64929  1.0000
  O   O10       1.0  0.41901  0.48871  0.61710  1.0000
  O   O11       1.0  0.51104  0.93328  0.60723  1.0000
  O   O12       1.0  0.07025  0.58198  0.59988  1.0000
  C  Sn1       1.0  0.61087  0.43068  0.29988  1.0000
  C   C109      1.0  0.57338  0.41783  0.38376  1.0000
  C  Sn2       1.0  0.55971  0.38640  0.50224  1.0000
  C  Sn3       1.0  0.58402  0.36743  0.53771  1.0000
  C   C110      1.0  0.62149  0.38028  0.45388  1.0000
  C  Sn4       1.0  0.63519  0.41171  0.33535  1.0000
  O  Te1       1.0  0.62394  0.46216  0.18192  1.0000
  O  Te2       1.0  0.52211  0.37407  0.58444  1.0000
  O  Te3       1.0  0.57092  0.33593  0.65577  1.0000
  O  Te4       1.0  0.67276  0.42404  0.25320  1.0000
  Mg  Mg1       1.0  0.51751  0.32991  0.73483  1.0000
  Mg  Mg2       1.0  0.67740  0.46821  0.10285  1.0000
  C  Sn5       1.0  0.62237  0.19174  0.55081  1.0000
  C   C111      1.0  0.58512  0.16135  0.47221  1.0000
  C  Sn6       1.0  0.56840  0.17238  0.33988  1.0000
  C  Sn7       1.0  0.58936  0.21466  0.28489  1.0000
  C   C112      1.0  0.62659  0.24503  0.36344  1.0000
  C  Sn8       1.0  0.64333  0.23403  0.49581  1.0000
  O  Te5       1.0  0.63851  0.18001  0.68285  1.0000
  O  Te6       1.0  0.53112  0.14145  0.26330  1.0000
  O  Te7       1.0  0.57318  0.22638  0.15274  1.0000
  O  Te8       1.0  0.68059  0.26493  0.57235  1.0000
  Mg  Mg3       1.0  0.52156  0.17293  0.08844  1.0000
  Mg  Mg4       1.0  0.69019  0.23349  0.74715  1.0000
  C  Sn9       1.0  0.79083  0.36708  0.35391  1.0000
  C   C113      1.0  0.76262  0.37719  0.42768  1.0000
  C  Sn10      1.0  0.77675  0.41756  0.49779  1.0000
  C  Sn11      1.0  0.81998  0.44849  0.49399  1.0000
  C   C114      1.0  0.84816  0.43838  0.42022  1.0000
  C  Sn12      1.0  0.83405  0.39800  0.35011  1.0000
  O  Te9       1.0  0.77600  0.32652  0.28458  1.0000
  O  Te10      1.0  0.74796  0.42692  0.57090  1.0000
  O  Te11      1.0  0.83479  0.48908  0.56340  1.0000
  O  Te12      1.0  0.86281  0.38864  0.27701  1.0000
  Mg  Mg5       1.0  0.78339  0.48661  0.64868  1.0000
  Mg  Mg6       1.0  0.82742  0.32897  0.19912  1.0000
  C  Sn13      1.0  0.43185  0.64668  0.47304  1.0000
  C   C115      1.0  0.39284  0.63212  0.39646  1.0000
  C  Sn14      1.0  0.36844  0.58974  0.34393  1.0000
  C  Sn15      1.0  0.38333  0.56131  0.36853  1.0000
  C   C116      1.0  0.42231  0.57588  0.44509  1.0000
  C  Sn16      1.0  0.44673  0.61825  0.49764  1.0000
  O  Te13      1.0  0.45571  0.68918  0.52457  1.0000
  O  Te14      1.0  0.32956  0.57592  0.26762  1.0000
  O  Te15      1.0  0.35943  0.51879  0.31691  1.0000
  O  Te16      1.0  0.48559  0.63207  0.57393  1.0000
  Mg  Mg7       1.0  0.30854  0.51508  0.21911  1.0000
  Mg  Mg8       1.0  0.50662  0.69290  0.62257  1.0000
  C  Sn17      1.0  0.35206  0.78790  0.46237  1.0000
  C   C117      1.0  0.36580  0.76198  0.39001  1.0000
  C  Sn18      1.0  0.40741  0.77918  0.34117  1.0000
  C  Sn19      1.0  0.43589  0.82319  0.36523  1.0000
  C   C118      1.0  0.42215  0.84908  0.43756  1.0000
  C  Sn20      1.0  0.38054  0.83192  0.48643  1.0000
  O  Te17      1.0  0.31032  0.77003  0.51026  1.0000
  O  Te18      1.0  0.42042  0.75263  0.26905  1.0000
  O  Te19      1.0  0.47766  0.84105  0.31725  1.0000
  O  Te20      1.0  0.36754  0.85843  0.55853  1.0000
  Mg  Mg9       1.0  0.48041  0.79188  0.22448  1.0000
  Mg  Mg10      1.0  0.30756  0.81922  0.60322  1.0000
  C  Sn21      1.0  0.21119  0.56468  0.45520  1.0000
  C   C119      1.0  0.23653  0.60382  0.38270  1.0000
  C  Sn22      1.0  0.21958  0.62848  0.33363  1.0000
  C  Sn23      1.0  0.17641  0.61373  0.35760  1.0000
  C   C120      1.0  0.15110  0.57463  0.43008  1.0000
  C  Sn24      1.0  0.16802  0.54994  0.47917  1.0000
  O  Te21      1.0  0.22880  0.54056  0.50333  1.0000
  O  Te22      1.0  0.24554  0.66749  0.26137  1.0000
  O  Te23      1.0  0.15881  0.63790  0.30939  1.0000
  O  Te24      1.0  0.14209  0.51096  0.55142  1.0000
  Mg  Mg11      1.0  0.20695  0.68886  0.21649  1.0000
  Mg  Mg12      1.0  0.18065  0.48957  0.59642  1.0000
  C  Sn25      1.0  0.34522  0.31281  0.21622  1.0000
  C   C121      1.0  0.34106  0.27643  0.13676  1.0000
  C  Sn26      1.0  0.37067  0.26415  0.16435  1.0000
  C  Sn27      1.0  0.40513  0.28873  0.27372  1.0000
  C   C122      1.0  0.40928  0.32508  0.35312  1.0000
  C  Sn28      1.0  0.37969  0.33738  0.32558  1.0000
  O  Te25      1.0  0.31525  0.32449  0.18680  1.0000
  O  Te26      1.0  0.36585  0.22766  0.08345  1.0000
  O  Te27      1.0  0.43511  0.27702  0.30308  1.0000
  O  Te28      1.0  0.38449  0.37384  0.40643  1.0000
  Mg  Mg13      1.0  0.41489  0.22475  0.16386  1.0000
  Mg  Mg14      1.0  0.33546  0.37678  0.32618  1.0000
  C  Sn29      1.0  0.67710  0.03996  0.31060  1.0000
  C   C123      1.0  0.67533  0.07597  0.35920  1.0000
  C  Sn30      1.0  0.70272  0.11517  0.29132  1.0000
  C  Sn31      1.0  0.73250  0.11844  0.17230  1.0000
  C   C124      1.0  0.73426  0.08245  0.12374  1.0000
  C  Sn32      1.0  0.70688  0.04324  0.19158  1.0000
  O  Te29      1.0  0.14874  0.00110  0.38008  1.0000
  O  Te30      1.0  0.70036  0.15073  0.34190  1.0000
  O  Te31      1.0  0.76020  0.15735  0.10283  1.0000
  O  Te32      1.0  0.70922  0.00770  0.14105  1.0000
  Mg  Mg15      1.0  0.74479  0.19667  0.21144  1.0000
  Mg  Mg16      1.0  0.16413  0.96174  0.27135  1.0000
  C  Sn33      1.0  0.87551  0.61175  0.23711  1.0000
  C   C125      1.0  0.90947  0.65210  0.20861  1.0000
  C  Sn34      1.0  0.95047  0.66025  0.22704  1.0000
  C  Sn35      1.0  0.95768  0.62738  0.27487  1.0000
  C   C126      1.0  0.92373  0.58706  0.30332  1.0000
  C  Sn36      1.0  0.88272  0.57888  0.28494  1.0000
  O  Te33      1.0  0.83479  0.60431  0.21793  1.0000
  O  Te34      1.0  0.98392  0.70084  0.19791  1.0000
  O  Te35      1.0  0.99844  0.63485  0.29404  1.0000
  O  Te36      1.0  0.84929  0.53831  0.31401  1.0000
  Mg  Mg17      1.0  0.03367  0.69535  0.24023  1.0000
  Mg  Mg18      1.0  0.79953  0.54377  0.27165  1.0000
  C  Sn37      1.0  0.63725  0.67676  0.31239  1.0000
  C   C127      1.0  0.59985  0.67526  0.35461  1.0000
  C  Sn38      1.0  0.58837  0.70192  0.27882  1.0000
  C  Sn39      1.0  0.61479  0.73067  0.15822  1.0000
  C   C128      1.0  0.65216  0.73216  0.11604  1.0000
  C  Sn40      1.0  0.66367  0.70551  0.19179  1.0000
  O  Te37      1.0  0.64810  0.64982  0.38974  1.0000
  O  Te38      1.0  0.55084  0.69985  0.32311  1.0000
  O  Te39      1.0  0.60390  0.75762  0.08087  1.0000
  O  Te40      1.0  0.70117  0.70757  0.14754  1.0000
  Mg  Mg19      1.0  0.54965  0.74298  0.18296  1.0000
  Mg  Mg20      1.0  0.70238  0.66444  0.28753  1.0000
  C  Sn41      1.0  0.29576  0.89383  0.19267  1.0000
  C   C129      1.0  0.33190  0.92498  0.27543  1.0000
  C  Sn42      1.0  0.33631  0.96430  0.31802  1.0000
  C  Sn43      1.0  0.30392  0.97266  0.27713  1.0000
  C   C130      1.0  0.26781  0.94152  0.19444  1.0000
  C  Sn44      1.0  0.26338  0.90219  0.15178  1.0000
  O  Te41      1.0  0.29202  0.85474  0.15132  1.0000
  O  Te42      1.0  0.37273  0.99495  0.40068  1.0000
  O  Te43      1.0  0.80836  0.01179  0.31856  1.0000
  O  Te44      1.0  0.22699  0.87155  0.06920  1.0000
  Mg  Mg21      1.0  0.86386  0.04331  0.43071  1.0000
  Mg  Mg22      1.0  0.23647  0.82317  0.03918  1.0000
  C  Sn45      1.0  0.11215  0.40618  0.18230  1.0000
  C   C131      1.0  0.07967  0.40990  0.25414  1.0000
  C  Sn46      1.0  0.04064  0.37390  0.27907  1.0000
  C  Sn47      1.0  0.03393  0.33332  0.23128  1.0000
  C   C132      1.0  0.06640  0.32962  0.15951  1.0000
  C  Sn48      1.0  0.10544  0.36561  0.13451  1.0000
  O  Te45      1.0  0.15091  0.44261  0.15856  1.0000
  O  Te46      1.0  0.00865  0.37841  0.35107  1.0000
  O  Te47      1.0  0.99513  0.29689  0.25508  1.0000
  O  Te48      1.0  0.13741  0.36110  0.06258  1.0000
  Mg  Mg23      1.0  0.96136  0.31936  0.35797  1.0000
  Mg  Mg24      1.0  0.18472  0.42013  0.05570  1.0000
  C  Sn49      1.0  0.56765  0.37790  0.05378  1.0000
  C   C133      1.0  0.57930  0.42266  0.97910  1.0000
  C  Sn50      1.0  0.60905  0.43980  0.85372  1.0000
  C  Sn51      1.0  0.63091  0.41899  0.80180  1.0000
  C   C134      1.0  0.62258  0.38150  0.87644  1.0000
  C  Sn52      1.0  0.58951  0.35709  0.00186  1.0000
  O  Te49      1.0  0.53778  0.36133  0.17889  1.0000
  O  Te50      1.0  0.61684  0.47735  0.78096  1.0000
  O  Te51      1.0  0.66080  0.43560  0.67659  1.0000
  O  Te52      1.0  0.58172  0.31956  0.07458  1.0000
  Mg  Mg25      1.0  0.66039  0.48746  0.61535  1.0000
  Mg  Mg26      1.0  0.53816  0.30942  0.24013  1.0000
  C  Sn53      1.0  0.64876  0.21231  0.96317  1.0000
  C   C135      1.0  0.63467  0.23702  0.88842  1.0000
  C  Sn54      1.0  0.59257  0.21930  0.84242  1.0000
  C  Sn55      1.0  0.56395  0.17599  0.87185  1.0000
  C   C136      1.0  0.57804  0.15131  0.94659  1.0000
  C  Sn56      1.0  0.62014  0.16900  0.99260  1.0000
  O  Te53      1.0  0.68766  0.22344  0.00814  1.0000
  O  Te54      1.0  0.57922  0.24463  0.76781  1.0000
  O  Te55      1.0  0.52169  0.15762  0.82680  1.0000
  O  Te56      1.0  0.63016  0.13645  0.06719  1.0000
  Mg  Mg27      1.0  0.51861  0.20510  0.72889  1.0000
  Mg  Mg28      1.0  0.69076  0.17595  0.10624  1.0000
  C  Sn57      1.0  0.81842  0.39086  0.79172  1.0000
  C   C137      1.0  0.84395  0.42961  0.87517  1.0000
  C  Sn58      1.0  0.82725  0.44463  0.99671  1.0000
  C  Sn59      1.0  0.78080  0.41315  0.03575  1.0000
  C   C138      1.0  0.75864  0.38166  0.95236  1.0000
  C  Sn60      1.0  0.77531  0.36662  0.83077  1.0000
  O  Te57      1.0  0.83579  0.37646  0.67067  1.0000
  O  Te58      1.0  0.85005  0.47623  0.07841  1.0000
  O  Te59      1.0  0.76345  0.42758  0.15692  1.0000
  O  Te60      1.0  0.74921  0.32780  0.74912  1.0000
  Mg  Mg29      1.0  0.81176  0.48238  0.23388  1.0000
  Mg  Mg30      1.0  0.78746  0.32161  0.59369  1.0000
  C  Sn61      1.0  0.43468  0.64902  0.97372  1.0000
  C   C139      1.0  0.39643  0.63519  0.89179  1.0000
  C  Sn62      1.0  0.37224  0.59313  0.83505  1.0000
  C  Sn63      1.0  0.38656  0.56429  0.86082  1.0000
  C   C140      1.0  0.42478  0.57812  0.94273  1.0000
  C  Sn64      1.0  0.44900  0.62018  0.99949  1.0000
  O  Te61      1.0  0.45502  0.68397  0.02939  1.0000
  O  Te62      1.0  0.33412  0.58004  0.75342  1.0000
  O  Te63      1.0  0.36286  0.52207  0.80506  1.0000
  O  Te64      1.0  0.48377  0.62602  0.08110  1.0000
  Mg  Mg31      1.0  0.31309  0.51938  0.70066  1.0000
  Mg  Mg32      1.0  0.50481  0.68667  0.13399  1.0000
  C  Sn65      1.0  0.42422  0.81208  0.78110  1.0000
  C   C141      1.0  0.41310  0.83851  0.86760  1.0000
  C  Sn66      1.0  0.38356  0.82255  0.99410  1.0000
  C  Sn67      1.0  0.36141  0.77204  0.03508  1.0000
  C   C142      1.0  0.37586  0.75288  0.94863  1.0000
  C  Sn68      1.0  0.40540  0.76881  0.82208  1.0000
  O  Te65      1.0  0.45383  0.82871  0.65509  1.0000
  O  Te66      1.0  0.36962  0.84234  0.07879  1.0000
  O  Te67      1.0  0.33178  0.75542  0.16120  1.0000
  O  Te68      1.0  0.41602  0.74180  0.73744  1.0000
  Mg  Mg33      1.0  0.32766  0.80483  0.24076  1.0000
  Mg  Mg34      1.0  0.45798  0.77929  0.57552  1.0000
  C  Sn69      1.0  0.18565  0.56142  0.05043  1.0000
  C   C143      1.0  0.16070  0.57771  0.97284  1.0000
  C  Sn70      1.0  0.17407  0.60738  0.84739  1.0000
  C  Sn71      1.0  0.21659  0.62844  0.79838  1.0000
  C   C144      1.0  0.24485  0.61939  0.87592  1.0000
  C  Sn72      1.0  0.22817  0.58249  0.00142  1.0000
  O  Te69      1.0  0.17160  0.53165  0.17556  1.0000
  O  Te70      1.0  0.14522  0.61589  0.77169  1.0000
  O  Te71      1.0  0.23063  0.65824  0.67315  1.0000
  O  Te72      1.0  0.25700  0.57396  0.07708  1.0000
  Mg  Mg35      1.0  0.17946  0.65900  0.60731  1.0000
  Mg  Mg36      1.0  0.22279  0.53085  0.24141  1.0000
  C  Sn73      1.0  0.38930  0.25964  0.71638  1.0000
  C   C145      1.0  0.34953  0.25405  0.68742  1.0000
  C  Sn74      1.0  0.34218  0.28759  0.71522  1.0000
  C  Sn75      1.0  0.37527  0.32755  0.77307  1.0000
  C   C146      1.0  0.41500  0.33312  0.80197  1.0000
  C  Sn76      1.0  0.42238  0.29960  0.77423  1.0000
  O  Te73      1.0  0.39594  0.22567  0.68773  1.0000
  O  Te74      1.0  0.30216  0.28123  0.68543  1.0000
  O  Te75      1.0  0.36859  0.36152  0.80171  1.0000
  O  Te76      1.0  0.46238  0.30595  0.80396  1.0000
  Mg  Mg37      1.0  0.30866  0.33721  0.74286  1.0000
  Mg  Mg38      1.0  0.45591  0.25000  0.74649  1.0000
  C  Sn77      1.0  0.73754  0.11090  0.74438  1.0000
  C   C147      1.0  0.73720  0.07378  0.69575  1.0000
  C  Sn78      1.0  0.69996  0.03474  0.69675  1.0000
  C  Sn79      1.0  0.66226  0.03276  0.74731  1.0000
  C   C148      1.0  0.66261  0.06987  0.79587  1.0000
  C  Sn80      1.0  0.69985  0.10893  0.79494  1.0000
  O  Te77      1.0  0.77514  0.14959  0.74241  1.0000
  O  Te78      1.0  0.19973  0.99805  0.64765  1.0000
  O  Te79      1.0  0.12398  0.99403  0.74925  1.0000
  O  Te80      1.0  0.69941  0.14560  0.84397  1.0000
  Mg  Mg39      1.0  0.14056  0.95286  0.67140  1.0000
  Mg  Mg40      1.0  0.75856  0.19080  0.82019  1.0000
  C  Sn81      1.0  0.89019  0.59441  0.68113  1.0000
  C   C149      1.0  0.92143  0.59165  0.76780  1.0000
  C  Sn82      1.0  0.95853  0.62834  0.81630  1.0000
  C  Sn83      1.0  0.96452  0.66863  0.77748  1.0000
  C   C150      1.0  0.93330  0.67137  0.69089  1.0000
  C  Sn84      1.0  0.89619  0.63470  0.64230  1.0000
  O  Te81      1.0  0.85335  0.55732  0.63388  1.0000
  O  Te82      1.0  0.98931  0.62478  0.90279  1.0000
  O  Te83      1.0  0.00140  0.70573  0.82481  1.0000
  O  Te84      1.0  0.86541  0.63825  0.55590  1.0000
  Mg  Mg41      1.0  0.03409  0.68448  0.94047  1.0000
  Mg  Mg42      1.0  0.82062  0.57857  0.51824  1.0000
  C  Sn85      1.0  0.63517  0.67718  0.81345  1.0000
  C   C151      1.0  0.59757  0.67442  0.86162  1.0000
  C  Sn86      1.0  0.58504  0.70115  0.79392  1.0000
  C  Sn87      1.0  0.61062  0.73125  0.67553  1.0000
  C   C152      1.0  0.64820  0.73400  0.62740  1.0000
  C  Sn88      1.0  0.66076  0.70728  0.69506  1.0000
  O  Te85      1.0  0.64708  0.65014  0.88274  1.0000
  O  Te86      1.0  0.54731  0.69781  0.84405  1.0000
  O  Te87      1.0  0.59869  0.75830  0.60625  1.0000
  O  Te88      1.0  0.69845  0.71061  0.64497  1.0000
  Mg  Mg43      1.0  0.54457  0.74163  0.71408  1.0000
  Mg  Mg44      1.0  0.70122  0.66679  0.77479  1.0000
  C  Sn89      1.0  0.26262  0.87503  0.74172  1.0000
  C   C153      1.0  0.25857  0.90991  0.70424  1.0000
  C  Sn90      1.0  0.29301  0.95094  0.71937  1.0000
  C  Sn91      1.0  0.33234  0.95725  0.77299  1.0000
  C   C154      1.0  0.33638  0.92239  0.81041  1.0000
  C  Sn92      1.0  0.30195  0.88134  0.79534  1.0000
  O  Te89      1.0  0.22776  0.83429  0.72570  1.0000
  O  Te90      1.0  0.28819  0.98531  0.68123  1.0000
  O  Te91      1.0  0.36721  0.99803  0.78899  1.0000
  O  Te92      1.0  0.30676  0.84699  0.83342  1.0000
  Mg  Mg45      1.0  0.84559  0.03470  0.72239  1.0000
  Mg  Mg46      1.0  0.25005  0.79759  0.79222  1.0000
  C  Sn93      1.0  0.11392  0.40737  0.68745  1.0000
  C   C155      1.0  0.08066  0.41006  0.75714  1.0000
  C  Sn94      1.0  0.04148  0.37364  0.77365  1.0000
  C  Sn95      1.0  0.03542  0.33370  0.71947  1.0000
  C   C156      1.0  0.06866  0.33103  0.64985  1.0000
  C  Sn96      1.0  0.10785  0.36743  0.63326  1.0000
  O  Te93      1.0  0.15282  0.44419  0.67216  1.0000
  O  Te94      1.0  0.00871  0.37712  0.84367  1.0000
  O  Te95      1.0  0.99647  0.29687  0.73481  1.0000
  O  Te96      1.0  0.14062  0.36397  0.56333  1.0000
  Mg  Mg47      1.0  0.96153  0.31788  0.83815  1.0000
  Mg  Mg48      1.0  0.18781  0.42318  0.56886  1.0000
