data_image0
_chemical_formula_structural       H96C108N12O12C2Sn2C2HTe2HMgC2Sn2C2HTe2HMgC2Sn2C2HTe2HMgC2Sn2C2HTe2HMgC2Sn2C2HTe2HMgC2Sn2C2HTe2HMgC2Sn2C2HTe2HMgC2Sn2C2HTe2HMgC2Sn2C2HTe2HMgC2Sn2C2HTe2HMgC2Sn2C2HTe2HMgC2Sn2C2HTe2HMgC2Sn2C2HTe2HMgC2Sn2C2HTe2HMgC2Sn2C2HTe2HMgC2Sn2C2HTe2HMgC2Sn2C2HTe2HMgC2Sn2C2HTe2HMgC2Sn2C2HTe2HMgC2Sn2C2HTe2HMgC2Sn2C2HTe2HMgC2Sn2C2HTe2HMgC2Sn2C2HTe2HMgC2Sn2C2HTe2HMg
_chemical_formula_sum              "H144 C204 N12 O12 Sn48 Te48 Mg24"
_cell_length_a       36.9788
_cell_length_b       36.5793
_cell_length_c       8.03719
_cell_angle_alpha    91.4463
_cell_angle_beta     89.9244
_cell_angle_gamma    120.317

_symmetry_space_group_name_H-M    'P1'
_space_group_IT_number       1

loop_
  _space_group_symop_operation_xyz
  'x, y, z'

loop_
  _atom_site_type_symbol
  _atom_site_label
  _atom_site_symmetry_multiplicity
  _atom_site_fract_x
  _atom_site_fract_y
  _atom_site_fract_z
  _atom_site_occupancy
  H   H1        1.0  0.56516  0.47196  0.40869  1.0000
  H   H2        1.0  0.53553  0.09556  0.36180  1.0000
  H   H3        1.0  0.90520  0.44252  0.35833  1.0000
  H   H4        1.0  0.43494  0.53140  0.39408  1.0000
  H   H5        1.0  0.46780  0.90460  0.40924  1.0000
  H   H6        1.0  0.09618  0.56535  0.40246  1.0000
  H   H7        1.0  0.52411  0.42032  0.17011  1.0000
  H   H8        1.0  0.58581  0.10194  0.16893  1.0000
  H   H9        1.0  0.89948  0.48416  0.16228  1.0000
  H   H10       1.0  0.47863  0.57951  0.17339  1.0000
  H   H11       1.0  0.42140  0.89714  0.15706  1.0000
  H   H12       1.0  0.09965  0.51820  0.15804  1.0000
  H   H13       1.0  0.44234  0.42486  0.07627  1.0000
  H   H14       1.0  0.57429  0.01076  0.05839  1.0000
  H   H15       1.0  0.99048  0.56390  0.05465  1.0000
  H   H16       1.0  0.55871  0.57238  0.08287  1.0000
  H   H17       1.0  0.43103  0.98667  0.08865  1.0000
  H   H18       1.0  0.01042  0.44109  0.08978  1.0000
  H   H19       1.0  0.70408  0.41555  0.40759  1.0000
  H   H20       1.0  0.59008  0.29468  0.39881  1.0000
  H   H21       1.0  0.70911  0.30077  0.39442  1.0000
  H   H22       1.0  0.29591  0.58768  0.40941  1.0000
  H   H23       1.0  0.40943  0.70870  0.41559  1.0000
  H   H24       1.0  0.29014  0.70205  0.40713  1.0000
  H   H25       1.0  0.62180  0.57951  0.10531  1.0000
  H   H26       1.0  0.42818  0.04626  0.10640  1.0000
  H   H27       1.0  0.94936  0.37893  0.10375  1.0000
  H   H28       1.0  0.37941  0.41804  0.09094  1.0000
  H   H29       1.0  0.57926  0.95420  0.06517  1.0000
  H   H30       1.0  0.04759  0.62591  0.09589  1.0000
  H   H31       1.0  0.63859  0.55127  0.23302  1.0000
  H   H32       1.0  0.45707  0.08918  0.25303  1.0000
  H   H33       1.0  0.90900  0.36787  0.25189  1.0000
  H   H34       1.0  0.36309  0.44523  0.23309  1.0000
  H   H35       1.0  0.54896  0.90501  0.16735  1.0000
  H   H36       1.0  0.09547  0.64137  0.20621  1.0000
  H   H37       1.0  0.59843  0.56176  0.30442  1.0000
  H   H38       1.0  0.44280  0.03598  0.30479  1.0000
  H   H39       1.0  0.96273  0.40595  0.30333  1.0000
  H   H40       1.0  0.40318  0.43383  0.29354  1.0000
  H   H41       1.0  0.55992  0.95396  0.26984  1.0000
  H   H42       1.0  0.04622  0.60221  0.28989  1.0000
  H   H43       1.0  0.31035  0.23893  0.09811  1.0000
  H   H44       1.0  0.75940  0.07715  0.08867  1.0000
  H   H45       1.0  0.91808  0.68115  0.09976  1.0000
  H   H46       1.0  0.68254  0.75724  0.08123  1.0000
  H   H47       1.0  0.24721  0.94252  0.10233  1.0000
  H   H48       1.0  0.06728  0.30873  0.06501  1.0000
  H   H49       1.0  0.56721  0.46916  0.90267  1.0000
  H   H50       1.0  0.53347  0.09342  0.89688  1.0000
  H   H51       1.0  0.90674  0.44014  0.88033  1.0000
  H   H52       1.0  0.43974  0.53057  0.86651  1.0000
  H   H53       1.0  0.46730  0.90113  0.87507  1.0000
  H   H54       1.0  0.09604  0.56303  0.88727  1.0000
  H   H55       1.0  0.52061  0.42116  0.67100  1.0000
  H   H56       1.0  0.58291  0.10530  0.66789  1.0000
  H   H57       1.0  0.90105  0.48323  0.67393  1.0000
  H   H58       1.0  0.47945  0.58415  0.67034  1.0000
  H   H59       1.0  0.41718  0.90057  0.66423  1.0000
  H   H60       1.0  0.10214  0.51982  0.65651  1.0000
  H   H61       1.0  0.44039  0.42866  0.57501  1.0000
  H   H62       1.0  0.57127  0.01467  0.56394  1.0000
  H   H63       1.0  0.98919  0.56060  0.56957  1.0000
  H   H64       1.0  0.55883  0.57520  0.58812  1.0000
  H   H65       1.0  0.42812  0.99056  0.59419  1.0000
  H   H66       1.0  0.01278  0.43994  0.58866  1.0000
  H   H67       1.0  0.70463  0.41199  0.91052  1.0000
  H   H68       1.0  0.59130  0.29096  0.90683  1.0000
  H   H69       1.0  0.71072  0.29775  0.90594  1.0000
  H   H70       1.0  0.29557  0.58341  0.91157  1.0000
  H   H71       1.0  0.40964  0.70387  0.90634  1.0000
  H   H72       1.0  0.29096  0.69848  0.91003  1.0000
  H   H73       1.0  0.61935  0.58056  0.60326  1.0000
  H   H74       1.0  0.42485  0.04953  0.60600  1.0000
  H   H75       1.0  0.95324  0.37694  0.60041  1.0000
  H   H76       1.0  0.37783  0.42286  0.58649  1.0000
  H   H77       1.0  0.57531  0.95646  0.56560  1.0000
  H   H78       1.0  0.04617  0.62326  0.58625  1.0000
  H   H79       1.0  0.63804  0.55357  0.72848  1.0000
  H   H80       1.0  0.45349  0.09322  0.74957  1.0000
  H   H81       1.0  0.91320  0.36384  0.75150  1.0000
  H   H82       1.0  0.36215  0.45223  0.72012  1.0000
  H   H83       1.0  0.54794  0.91201  0.69761  1.0000
  H   H84       1.0  0.09479  0.64158  0.69635  1.0000
  H   H85       1.0  0.59877  0.56455  0.80753  1.0000
  H   H86       1.0  0.43956  0.04045  0.80622  1.0000
  H   H87       1.0  0.96686  0.40258  0.80206  1.0000
  H   H88       1.0  0.40152  0.44070  0.78901  1.0000
  H   H89       1.0  0.56185  0.96434  0.77235  1.0000
  H   H90       1.0  0.04626  0.60378  0.78902  1.0000
  H   H91       1.0  0.32024  0.23419  0.57523  1.0000
  H   H92       1.0  0.75530  0.06334  0.58097  1.0000
  H   H93       1.0  0.93376  0.69278  0.60029  1.0000
  H   H94       1.0  0.67827  0.75980  0.59293  1.0000
  H   H95       1.0  0.23941  0.91844  0.58790  1.0000
  H   H96       1.0  0.07065  0.31151  0.55064  1.0000
  C   C1        1.0  0.51593  0.42742  0.04706  1.0000
  C   C2        1.0  0.57536  0.08477  0.04719  1.0000
  C   C3        1.0  0.91602  0.49087  0.04211  1.0000
  C   C4        1.0  0.48517  0.56952  0.05109  1.0000
  C   C5        1.0  0.42903  0.91292  0.03542  1.0000
  C   C6        1.0  0.08361  0.51137  0.03505  1.0000
  C   C7        1.0  0.50860  0.46461  0.07525  1.0000
  C   C8        1.0  0.53769  0.04060  0.07519  1.0000
  C   C9        1.0  0.95952  0.49685  0.07206  1.0000
  C   C10       1.0  0.49240  0.53258  0.08043  1.0000
  C   C11       1.0  0.46759  0.95684  0.06505  1.0000
  C   C12       1.0  0.04118  0.50792  0.06544  1.0000
  C   C13       1.0  0.46782  0.45753  0.08363  1.0000
  C   C14       1.0  0.54262  0.00517  0.06984  1.0000
  C   C15       1.0  0.99513  0.53703  0.06753  1.0000
  C   C16       1.0  0.53324  0.53972  0.08727  1.0000
  C   C17       1.0  0.46279  0.99221  0.08623  1.0000
  C   C18       1.0  0.00568  0.46804  0.08605  1.0000
  C   C19       1.0  0.54158  0.50662  0.09757  1.0000
  C   C20       1.0  0.49700  0.03336  0.10239  1.0000
  C   C21       1.0  0.96564  0.46256  0.10143  1.0000
  C   C22       1.0  0.45946  0.49068  0.09997  1.0000
  C   C23       1.0  0.50861  0.96388  0.07511  1.0000
  C   C24       1.0  0.03556  0.54317  0.07673  1.0000
  C   C25       1.0  0.64413  0.35768  0.40316  1.0000
  C   C26       1.0  0.64701  0.29221  0.39542  1.0000
  C   C27       1.0  0.71192  0.36103  0.39933  1.0000
  C   C28       1.0  0.35557  0.64562  0.41256  1.0000
  C   C29       1.0  0.35230  0.71083  0.41039  1.0000
  C   C30       1.0  0.28754  0.64186  0.40679  1.0000
  C   C31       1.0  0.68810  0.38111  0.40300  1.0000
  C   C32       1.0  0.62412  0.31328  0.39792  1.0000
  C   C33       1.0  0.69088  0.31659  0.39494  1.0000
  C   C34       1.0  0.31163  0.62207  0.40895  1.0000
  C   C35       1.0  0.37540  0.68999  0.41249  1.0000
  C   C36       1.0  0.30841  0.68628  0.40752  1.0000
  C   C37       1.0  0.61164  0.55408  0.19537  1.0000
  C   C38       1.0  0.45252  0.05888  0.20456  1.0000
  C   C39       1.0  0.93891  0.39254  0.20326  1.0000
  C   C40       1.0  0.38990  0.44268  0.19027  1.0000
  C   C41       1.0  0.55298  0.93646  0.14979  1.0000
  C   C42       1.0  0.06411  0.61483  0.17537  1.0000
  C   C43       1.0  0.47535  0.39295  0.47790  1.0000
  C   C44       1.0  0.60774  0.08526  0.47540  1.0000
  C   C45       1.0  0.91836  0.52475  0.47541  1.0000
  C   C46       1.0  0.52383  0.60957  0.47977  1.0000
  C   C47       1.0  0.39165  0.92032  0.47561  1.0000
  C   C48       1.0  0.08095  0.47309  0.46438  1.0000
  C   C49       1.0  0.44459  0.36377  0.40930  1.0000
  C   C50       1.0  0.63703  0.08448  0.40926  1.0000
  C   C51       1.0  0.91837  0.55404  0.40634  1.0000
  C   C52       1.0  0.55360  0.63772  0.40874  1.0000
  C   C53       1.0  0.36432  0.92442  0.40970  1.0000
  C   C54       1.0  0.07763  0.44178  0.39289  1.0000
  C   C55       1.0  0.51339  0.42951  0.54840  1.0000
  C   C56       1.0  0.57256  0.08833  0.54582  1.0000
  C   C57       1.0  0.91599  0.48746  0.55094  1.0000
  C   C58       1.0  0.48596  0.57400  0.54846  1.0000
  C   C59       1.0  0.42641  0.91671  0.54343  1.0000
  C   C60       1.0  0.08511  0.51229  0.53558  1.0000
  C   C61       1.0  0.50682  0.46723  0.57808  1.0000
  C   C62       1.0  0.53470  0.04455  0.57677  1.0000
  C   C63       1.0  0.95953  0.49346  0.58069  1.0000
  C   C64       1.0  0.49240  0.53647  0.57737  1.0000
  C   C65       1.0  0.46471  0.96076  0.57594  1.0000
  C   C66       1.0  0.04205  0.50691  0.57039  1.0000
  C   C67       1.0  0.46639  0.46106  0.58224  1.0000
  C   C68       1.0  0.53965  0.00916  0.57646  1.0000
  C   C69       1.0  0.99457  0.53415  0.57927  1.0000
  C   C70       1.0  0.53289  0.54276  0.58949  1.0000
  C   C71       1.0  0.45990  0.99620  0.59267  1.0000
  C   C72       1.0  0.00728  0.46645  0.58944  1.0000
  C   C73       1.0  0.54024  0.50903  0.60201  1.0000
  C   C74       1.0  0.49406  0.03751  0.60520  1.0000
  C   C75       1.0  0.96675  0.45967  0.60743  1.0000
  C   C76       1.0  0.45893  0.49482  0.59352  1.0000
  C   C77       1.0  0.50574  0.96802  0.58859  1.0000
  C   C78       1.0  0.03537  0.54136  0.58602  1.0000
  C   C79       1.0  0.64506  0.35395  0.90778  1.0000
  C   C80       1.0  0.64848  0.28878  0.90658  1.0000
  C   C81       1.0  0.71317  0.35788  0.90699  1.0000
  C   C82       1.0  0.35547  0.64115  0.90915  1.0000
  C   C83       1.0  0.35282  0.70668  0.90757  1.0000
  C   C84       1.0  0.28774  0.63797  0.90986  1.0000
  C   C85       1.0  0.68900  0.37758  0.90783  1.0000
  C   C86       1.0  0.62533  0.30960  0.90606  1.0000
  C   C87       1.0  0.69237  0.31343  0.90562  1.0000
  C   C88       1.0  0.31151  0.61782  0.90958  1.0000
  C   C89       1.0  0.37559  0.68551  0.90720  1.0000
  C   C90       1.0  0.30894  0.68240  0.90876  1.0000
  C   C91       1.0  0.61058  0.55601  0.69630  1.0000
  C   C92       1.0  0.44930  0.06283  0.70392  1.0000
  C   C93       1.0  0.94264  0.38951  0.70335  1.0000
  C   C94       1.0  0.38857  0.44852  0.68151  1.0000
  C   C95       1.0  0.55165  0.94250  0.66340  1.0000
  C   C96       1.0  0.06344  0.61427  0.67163  1.0000
  C   C97       1.0  0.47808  0.39006  0.98045  1.0000
  C   C98       1.0  0.61018  0.08159  0.97496  1.0000
  C   C99       1.0  0.91900  0.52931  0.97521  1.0000
  C   C100      1.0  0.52251  0.60567  0.98127  1.0000
  C   C101      1.0  0.39305  0.91596  0.97763  1.0000
  C   C102      1.0  0.07867  0.47161  0.96508  1.0000
  C   C103      1.0  0.44822  0.36029  0.91013  1.0000
  C   C104      1.0  0.63761  0.07825  0.90463  1.0000
  C   C105      1.0  0.92165  0.55957  0.90412  1.0000
  C   C106      1.0  0.55156  0.63522  0.91243  1.0000
  C   C107      1.0  0.36352  0.91684  0.91522  1.0000
  C   C108      1.0  0.07679  0.44075  0.89505  1.0000
  N   N1        1.0  0.54827  0.44072  0.43378  1.0000
  N   N2        1.0  0.56064  0.11218  0.43909  1.0000
  N   N3        1.0  0.89036  0.44905  0.45097  1.0000
  N   N4        1.0  0.45090  0.56223  0.43294  1.0000
  N   N5        1.0  0.43651  0.89188  0.42470  1.0000
  N   N6        1.0  0.10862  0.54648  0.41820  1.0000
  N   N7        1.0  0.55017  0.43803  0.92972  1.0000
  N   N8        1.0  0.56378  0.10838  0.93592  1.0000
  N   N9        1.0  0.89197  0.45531  0.92492  1.0000
  N   N10       1.0  0.44888  0.55629  0.94293  1.0000
  N   N11       1.0  0.43708  0.88761  0.91181  1.0000
  N   N12       1.0  0.10889  0.54552  0.92113  1.0000
  O   O1        1.0  0.58173  0.51348  0.12418  1.0000
  O   O2        1.0  0.49257  0.06814  0.14135  1.0000
  O   O3        1.0  0.93078  0.42426  0.14149  1.0000
  O   O4        1.0  0.41971  0.48383  0.13237  1.0000
  O   O5        1.0  0.51384  0.92892  0.08279  1.0000
  O   O6        1.0  0.07068  0.58353  0.09164  1.0000
  O   O7        1.0  0.57984  0.51492  0.63246  1.0000
  O   O8        1.0  0.48935  0.07212  0.64167  1.0000
  O   O9        1.0  0.93310  0.42080  0.64929  1.0000
  O   O10       1.0  0.41901  0.48871  0.61710  1.0000
  O   O11       1.0  0.51104  0.93328  0.60723  1.0000
  O   O12       1.0  0.07025  0.58198  0.59988  1.0000
  C   C109      1.0  0.55797  0.37120  0.51399  1.0000
  C   C110      1.0  0.56732  0.41075  0.45663  1.0000
  C  Sn1       1.0  0.60385  0.43516  0.36710  1.0000
  C  Sn2       1.0  0.63147  0.41960  0.33456  1.0000
  C   C111      1.0  0.62181  0.37999  0.39238  1.0000
  C   C112      1.0  0.58518  0.35583  0.48189  1.0000
  H   H97       1.0  0.52962  0.35249  0.58317  1.0000
  O  Te1       1.0  0.61273  0.47461  0.31075  1.0000
  O  Te2       1.0  0.66818  0.44334  0.24533  1.0000
  H   H98       1.0  0.57793  0.32520  0.52620  1.0000
  Mg  Mg1       1.0  0.66661  0.49521  0.19460  1.0000
  C   C113      1.0  0.56573  0.18514  0.31804  1.0000
  C   C114      1.0  0.57890  0.15995  0.39514  1.0000
  C  Sn3       1.0  0.61633  0.17869  0.48717  1.0000
  C  Sn4       1.0  0.64096  0.22349  0.50209  1.0000
  C   C115      1.0  0.62750  0.24842  0.42458  1.0000
  C   C116      1.0  0.59000  0.22933  0.33275  1.0000
  H   H99       1.0  0.53671  0.17038  0.24705  1.0000
  O  Te3       1.0  0.62903  0.15305  0.56335  1.0000
  O  Te4       1.0  0.67850  0.24305  0.59338  1.0000
  H   H100      1.0  0.57980  0.24884  0.27315  1.0000
  Mg  Mg2       1.0  0.68258  0.19457  0.67436  1.0000
  C   C117      1.0  0.79244  0.37313  0.30400  1.0000
  C   C118      1.0  0.76342  0.38008  0.38944  1.0000
  C  Sn5       1.0  0.77709  0.41515  0.49801  1.0000
  C  Sn6       1.0  0.82065  0.44373  0.52117  1.0000
  C   C119      1.0  0.84944  0.43651  0.43502  1.0000
  C   C120      1.0  0.83541  0.40132  0.32672  1.0000
  H   H101      1.0  0.78159  0.34591  0.22013  1.0000
  O  Te5       1.0  0.74767  0.42161  0.58245  1.0000
  O  Te6       1.0  0.83518  0.47903  0.62889  1.0000
  H   H102      1.0  0.85789  0.39596  0.26049  1.0000
  Mg  Mg3       1.0  0.78289  0.47427  0.71588  1.0000
  C   C121      1.0  0.37956  0.56378  0.33421  1.0000
  C   C122      1.0  0.41894  0.57802  0.40676  1.0000
  C  Sn7       1.0  0.43902  0.61636  0.49779  1.0000
  C  Sn8       1.0  0.41923  0.64083  0.51636  1.0000
  C   C123      1.0  0.37982  0.62629  0.44339  1.0000
  C   C124      1.0  0.36001  0.58788  0.35251  1.0000
  H   H103      1.0  0.36422  0.53405  0.26397  1.0000
  O  Te7       1.0  0.47837  0.63013  0.56940  1.0000
  O  Te8       1.0  0.43858  0.67926  0.60674  1.0000
  H   H104      1.0  0.32951  0.57685  0.29645  1.0000
  Mg  Mg4       1.0  0.49214  0.68463  0.68093  1.0000
  C   C125      1.0  0.43320  0.81642  0.33134  1.0000
  C   C126      1.0  0.41991  0.84302  0.40066  1.0000
  C  Sn9       1.0  0.38251  0.82602  0.48873  1.0000
  C  Sn10      1.0  0.35803  0.78156  0.50759  1.0000
  C   C127      1.0  0.37161  0.75522  0.43787  1.0000
  C   C128      1.0  0.40908  0.77257  0.34993  1.0000
  H   H105      1.0  0.46220  0.82984  0.26338  1.0000
  O  Te9       1.0  0.36968  0.85304  0.55714  1.0000
  O  Te10      1.0  0.32053  0.76373  0.59506  1.0000
  H   H106      1.0  0.41938  0.75197  0.29637  1.0000
  Mg  Mg5       1.0  0.31624  0.81365  0.66545  1.0000
  C   C129      1.0  0.20627  0.62884  0.31390  1.0000
  C   C130      1.0  0.23585  0.62205  0.39363  1.0000
  C  Sn11      1.0  0.22293  0.58584  0.48671  1.0000
  C  Sn12      1.0  0.17957  0.55594  0.49993  1.0000
  C   C131      1.0  0.15023  0.56301  0.41960  1.0000
  C   C132      1.0  0.16351  0.59936  0.32683  1.0000
  H   H107      1.0  0.21654  0.65695  0.24204  1.0000
  O  Te11      1.0  0.25289  0.57955  0.56563  1.0000
  O  Te12      1.0  0.16579  0.51948  0.59211  1.0000
  H   H108      1.0  0.14060  0.60460  0.26502  1.0000
  Mg  Mg6       1.0  0.21862  0.52500  0.67701  1.0000
  C   C133      1.0  0.38667  0.26893  0.17636  1.0000
  C   C134      1.0  0.34596  0.26207  0.16730  1.0000
  C  Sn13      1.0  0.33684  0.29189  0.23644  1.0000
  C  Sn14      1.0  0.36915  0.32924  0.31601  1.0000
  C   C135      1.0  0.40979  0.33582  0.32432  1.0000
  C   C136      1.0  0.41856  0.30577  0.25476  1.0000
  H   H109      1.0  0.39347  0.24569  0.12247  1.0000
  O  Te13      1.0  0.29599  0.28453  0.22634  1.0000
  O  Te14      1.0  0.36091  0.35957  0.38610  1.0000
  H   H110      1.0  0.45009  0.31110  0.26170  1.0000
  Mg  Mg7       1.0  0.30030  0.33521  0.34066  1.0000
  C   C137      1.0  0.67004  0.03667  0.26150  1.0000
  C   C138      1.0  0.66938  0.07214  0.32634  1.0000
  C  Sn15      1.0  0.70258  0.11286  0.29719  1.0000
  C  Sn16      1.0  0.73703  0.11808  0.20128  1.0000
  C   C139      1.0  0.73738  0.08240  0.13687  1.0000
  C   C140      1.0  0.70400  0.04179  0.16683  1.0000
  H   H111      1.0  0.64420  0.00525  0.28460  1.0000
  O  Te15      1.0  0.70142  0.14795  0.36295  1.0000
  O  Te16      1.0  0.77062  0.15843  0.17020  1.0000
  H   H112      1.0  0.70450  0.01434  0.11653  1.0000
  Mg  Mg8       1.0  0.75463  0.19644  0.28648  1.0000
  C   C141      1.0  0.96110  0.65707  0.25905  1.0000
  C   C142      1.0  0.92846  0.65732  0.17261  1.0000
  C  Sn17      1.0  0.88832  0.62159  0.16986  1.0000
  C  Sn18      1.0  0.88081  0.58499  0.25540  1.0000
  C   C143      1.0  0.91366  0.58507  0.34161  1.0000
  C   C144      1.0  0.95371  0.62099  0.34350  1.0000
  H   H113      1.0  0.99208  0.68487  0.26059  1.0000
  O  Te17      1.0  0.85607  0.62237  0.08285  1.0000
  O  Te18      1.0  0.84099  0.54885  0.25475  1.0000
  H   H114      1.0  0.97897  0.62080  0.41052  1.0000
  Mg  Mg9       1.0  0.80720  0.56533  0.11849  1.0000
  C   C145      1.0  0.65267  0.68728  0.22602  1.0000
  C   C146      1.0  0.65688  0.72352  0.15341  1.0000
  C  Sn19      1.0  0.62580  0.73423  0.17386  1.0000
  C  Sn20      1.0  0.58988  0.70811  0.26887  1.0000
  C   C147      1.0  0.58598  0.67193  0.34110  1.0000
  C   C148      1.0  0.61726  0.66151  0.31981  1.0000
  H   H115      1.0  0.67689  0.67923  0.20963  1.0000
  O  Te19      1.0  0.63049  0.77054  0.10041  1.0000
  O  Te20      1.0  0.55835  0.71807  0.29134  1.0000
  H   H116      1.0  0.61401  0.63346  0.37613  1.0000
  Mg  Mg10      1.0  0.57902  0.77084  0.16661  1.0000
  C   C149      1.0  0.33361  0.97691  0.30134  1.0000
  C   C150      1.0  0.33393  0.93979  0.33516  1.0000
  C  Sn21      1.0  0.30186  0.90064  0.27370  1.0000
  C  Sn22      1.0  0.26891  0.89874  0.17657  1.0000
  C   C151      1.0  0.26889  0.93606  0.14333  1.0000
  C   C152      1.0  0.30113  0.97506  0.20549  1.0000
  H   H117      1.0  0.85924  0.00709  0.34935  1.0000
  O  Te21      1.0  0.30266  0.86386  0.30872  1.0000
  O  Te22      1.0  0.23647  0.86004  0.11354  1.0000
  H   H118      1.0  0.80156  0.00380  0.17919  1.0000
  Mg  Mg11      1.0  0.25141  0.81867  0.19510  1.0000
  C   C153      1.0  0.02867  0.35845  0.25665  1.0000
  C   C154      1.0  0.06424  0.39637  0.30769  1.0000
  C  Sn23      1.0  0.10407  0.40475  0.26106  1.0000
  C  Sn24      1.0  0.10826  0.37455  0.16145  1.0000
  C   C155      1.0  0.07248  0.33672  0.11093  1.0000
  C   C156      1.0  0.03278  0.32865  0.15835  1.0000
  H   H119      1.0  0.99795  0.35221  0.29325  1.0000
  O  Te23      1.0  0.13927  0.44278  0.31319  1.0000
  O  Te24      1.0  0.14769  0.38212  0.11302  1.0000
  H   H120      1.0  0.00525  0.29931  0.11872  1.0000
  Mg  Mg12      1.0  0.18628  0.43860  0.21525  1.0000
  C   C157      1.0  0.55912  0.36829  0.01464  1.0000
  C   C158      1.0  0.57219  0.41507  0.95584  1.0000
  C  Sn25      1.0  0.60861  0.43888  0.86494  1.0000
  C  Sn26      1.0  0.63574  0.42273  0.83247  1.0000
  C   C159      1.0  0.62571  0.38313  0.89174  1.0000
  C   C160      1.0  0.58918  0.35957  0.98262  1.0000
  H   H121      1.0  0.53085  0.35005  0.08488  1.0000
  O  Te25      1.0  0.61787  0.47833  0.80716  1.0000
  O  Te26      1.0  0.67234  0.44586  0.74188  1.0000
  H   H122      1.0  0.57831  0.32170  0.02804  1.0000
  Mg  Mg13      1.0  0.67141  0.49798  0.68948  1.0000
  C   C161      1.0  0.64122  0.20509  0.01601  1.0000
  C   C162      1.0  0.63317  0.23752  0.92793  1.0000
  C  Sn27      1.0  0.59500  0.21904  0.84107  1.0000
  C  Sn28      1.0  0.56778  0.17450  0.84271  1.0000
  C   C163      1.0  0.57944  0.14957  0.93130  1.0000
  C   C164      1.0  0.61439  0.16116  0.01774  1.0000
  H   H123      1.0  0.67082  0.21965  0.08297  1.0000
  O  Te27      1.0  0.58411  0.24467  0.75366  1.0000
  O  Te28      1.0  0.52944  0.15519  0.75702  1.0000
  H   H124      1.0  0.62318  0.14165  0.08602  1.0000
  Mg  Mg14      1.0  0.52856  0.20356  0.65604  1.0000
  C   C165      1.0  0.79433  0.37021  0.81962  1.0000
  C   C166      1.0  0.76500  0.37768  0.89966  1.0000
  C  Sn29      1.0  0.77815  0.41517  0.99268  1.0000
  C  Sn30      1.0  0.81814  0.43845  0.00553  1.0000
  C   C167      1.0  0.85057  0.43794  0.92489  1.0000
  C   C168      1.0  0.83707  0.40031  0.83218  1.0000
  H   H125      1.0  0.78389  0.34111  0.74781  1.0000
  O  Te29      1.0  0.74510  0.41487  0.07191  1.0000
  O  Te30      1.0  0.83214  0.47620  0.09764  1.0000
  H   H126      1.0  0.85978  0.39455  0.77013  1.0000
  Mg  Mg15      1.0  0.77961  0.47116  0.18306  1.0000
  C   C169      1.0  0.36866  0.57201  0.81442  1.0000
  C   C170      1.0  0.37490  0.60870  0.89850  1.0000
  C  Sn31      1.0  0.40693  0.62502  0.00033  1.0000
  C  Sn32      1.0  0.43655  0.61153  0.01803  1.0000
  C   C171      1.0  0.43337  0.58204  0.93330  1.0000
  C   C172      1.0  0.39787  0.55870  0.83176  1.0000
  H   H127      1.0  0.34121  0.55396  0.73578  1.0000
  O  Te31      1.0  0.41266  0.66158  0.08348  1.0000
  O  Te32      1.0  0.47217  0.63449  0.11897  1.0000
  H   H128      1.0  0.39307  0.53031  0.76660  1.0000
  Mg  Mg16      1.0  0.46613  0.68216  0.20682  1.0000
  C   C173      1.0  0.35565  0.77820  0.01433  1.0000
  C   C174      1.0  0.36865  0.75832  0.92469  1.0000
  C  Sn33      1.0  0.40490  0.77485  0.82936  1.0000
  C  Sn34      1.0  0.43191  0.81938  0.82395  1.0000
  C   C175      1.0  0.42197  0.84624  0.91416  1.0000
  C   C176      1.0  0.38228  0.82212  0.00911  1.0000
  H   H129      1.0  0.32753  0.76515  0.08787  1.0000
  O  Te33      1.0  0.41409  0.74730  0.74051  1.0000
  O  Te34      1.0  0.46835  0.83674  0.72972  1.0000
  H   H130      1.0  0.37481  0.84313  0.07858  1.0000
  Mg  Mg17      1.0  0.46738  0.78619  0.63010  1.0000
  C   C177      1.0  0.18382  0.61588  0.83062  1.0000
  C   C178      1.0  0.15705  0.57650  0.89865  1.0000
  C  Sn35      1.0  0.17346  0.55554  0.98649  1.0000
  C  Sn36      1.0  0.21415  0.56721  0.00641  1.0000
  C   C179      1.0  0.24400  0.61388  0.93797  1.0000
  C   C180      1.0  0.22725  0.63456  0.85027  1.0000
  H   H131      1.0  0.17086  0.63191  0.76283  1.0000
  O  Te35      1.0  0.14294  0.50896  0.05360  1.0000
  O  Te36      1.0  0.23139  0.54696  0.09367  1.0000
  H   H132      1.0  0.24798  0.66507  0.79770  1.0000
  Mg  Mg18      1.0  0.18146  0.49379  0.16213  1.0000
  C   C181      1.0  0.39582  0.26624  0.66940  1.0000
  C   C182      1.0  0.35461  0.25764  0.65317  1.0000
  C  Sn37      1.0  0.34316  0.28591  0.72027  1.0000
  C  Sn38      1.0  0.37362  0.32346  0.80509  1.0000
  C   C183      1.0  0.41477  0.33180  0.82057  1.0000
  C   C184      1.0  0.42588  0.30329  0.75299  1.0000
  H   H133      1.0  0.40442  0.24420  0.61705  1.0000
  O  Te37      1.0  0.30184  0.27681  0.70298  1.0000
  O  Te38      1.0  0.36303  0.35227  0.87330  1.0000
  H   H134      1.0  0.45780  0.30997  0.76549  1.0000
  Mg  Mg19      1.0  0.30268  0.32584  0.81737  1.0000
  C   C185      1.0  0.73249  0.11336  0.69739  1.0000
  C   C186      1.0  0.73487  0.07702  0.66249  1.0000
  C  Sn39      1.0  0.70181  0.03717  0.70345  1.0000
  C  Sn40      1.0  0.66574  0.03373  0.78073  1.0000
  C   C187      1.0  0.66365  0.07027  0.81503  1.0000
  C   C188      1.0  0.69691  0.11000  0.77356  1.0000
  H   H135      1.0  0.75821  0.14410  0.66523  1.0000
  O  Te39      1.0  0.20404  0.00118  0.66775  1.0000
  O  Te40      1.0  0.13158  0.99428  0.82294  1.0000
  H   H136      1.0  0.69505  0.13813  0.80050  1.0000
  Mg  Mg20      1.0  0.15027  0.95448  0.74912  1.0000
  C   C189      1.0  0.88653  0.61609  0.67384  1.0000
  C   C190      1.0  0.92074  0.65729  0.66745  1.0000
  C  Sn41      1.0  0.95938  0.66711  0.73642  1.0000
  C  Sn42      1.0  0.96376  0.63501  0.81310  1.0000
  C   C191      1.0  0.92936  0.59389  0.81875  1.0000
  C   C192      1.0  0.89083  0.58441  0.74938  1.0000
  H   H137      1.0  0.85673  0.60875  0.62010  1.0000
  O  Te41      1.0  0.99323  0.70843  0.72901  1.0000
  O  Te42      1.0  0.00203  0.64395  0.88296  1.0000
  H   H138      1.0  0.86436  0.55251  0.75426  1.0000
  Mg  Mg21      1.0  0.03898  0.70502  0.84183  1.0000
  C   C193      1.0  0.58933  0.71641  0.77088  1.0000
  C   C194      1.0  0.58326  0.67686  0.81270  1.0000
  C  Sn43      1.0  0.61458  0.66692  0.78256  1.0000
  C  Sn44      1.0  0.65265  0.69721  0.70922  1.0000
  C   C195      1.0  0.65843  0.73670  0.66794  1.0000
  C   C196      1.0  0.62687  0.74631  0.69860  1.0000
  H   H139      1.0  0.56492  0.72385  0.79467  1.0000
  O  Te43      1.0  0.60800  0.62726  0.82505  1.0000
  O  Te44      1.0  0.68448  0.68812  0.67779  1.0000
  H   H140      1.0  0.63159  0.77694  0.66630  1.0000
  Mg  Mg22      1.0  0.66071  0.62972  0.75772  1.0000
  C   C197      1.0  0.32619  0.96198  0.79001  1.0000
  C   C198      1.0  0.32961  0.92739  0.83809  1.0000
  C  Sn45      1.0  0.29952  0.88632  0.78598  1.0000
  C  Sn46      1.0  0.26541  0.87987  0.68381  1.0000
  C   C199      1.0  0.26229  0.91469  0.63628  1.0000
  C   C200      1.0  0.29257  0.95565  0.68918  1.0000
  H   H141      1.0  0.34963  0.99367  0.83085  1.0000
  O  Te45      1.0  0.30340  0.85211  0.83522  1.0000
  O  Te46      1.0  0.23490  0.83917  0.62990  1.0000
  H   H142      1.0  0.28993  0.98243  0.65184  1.0000
  Mg  Mg23      1.0  0.25388  0.80268  0.72991  1.0000
  C   C201      1.0  0.11800  0.40286  0.73167  1.0000
  C   C202      1.0  0.08505  0.40807  0.78774  1.0000
  C  Sn47      1.0  0.04361  0.37530  0.76588  1.0000
  C  Sn48      1.0  0.03509  0.33663  0.68641  1.0000
  C   C203      1.0  0.06828  0.33173  0.63085  1.0000
  C   C204      1.0  0.10964  0.36473  0.65332  1.0000
  H   H143      1.0  0.15000  0.42839  0.74912  1.0000
  O  Te47      1.0  0.01105  0.38104  0.82261  1.0000
  O  Te48      1.0  0.99396  0.30336  0.66301  1.0000
  H   H144      1.0  0.13514  0.36068  0.60998  1.0000
  Mg  Mg24      1.0  0.96026  0.32641  0.76188  1.0000
