data_image0
_chemical_formula_structural       H144C180N12O12C2Sn2C2HTe2HMgC2Sn2C2HTe2HMgC2Sn2C2HTe2HMgC2Sn2C2HTe2HMgC2Sn2C2HTe2HMgC2Sn2C2HTe2HMgC2Sn2C2HTe2HMgC2Sn2C2HTe2HMgC2Sn2C2HTe2HMgC2Sn2C2HTe2HMgC2Sn2C2HTe2HMgC2Sn2C2HTe2HMg
_chemical_formula_sum              "H168 C228 N12 O12 Sn24 Te24 Mg12"
_cell_length_a       36.9788
_cell_length_b       36.5793
_cell_length_c       8.03719
_cell_angle_alpha    91.4463
_cell_angle_beta     89.9244
_cell_angle_gamma    120.317

_symmetry_space_group_name_H-M    'P1'
_space_group_IT_number       1

loop_
  _space_group_symop_operation_xyz
  'x, y, z'

loop_
  _atom_site_type_symbol
  _atom_site_label
  _atom_site_symmetry_multiplicity
  _atom_site_fract_x
  _atom_site_fract_y
  _atom_site_fract_z
  _atom_site_occupancy
  H   H1        1.0  0.53683  0.15588  0.26291  1.0000
  H   H2        1.0  0.46205  0.84462  0.27636  1.0000
  H   H3        1.0  0.52926  0.36348  0.07444  1.0000
  H   H4        1.0  0.63972  0.16360  0.07555  1.0000
  H   H5        1.0  0.83935  0.47738  0.06963  1.0000
  H   H6        1.0  0.36469  0.83533  0.07122  1.0000
  H   H7        1.0  0.16044  0.52282  0.07037  1.0000
  H   H8        1.0  0.57075  0.32825  0.06220  1.0000
  H   H9        1.0  0.67505  0.24096  0.06127  1.0000
  H   H10       1.0  0.76271  0.43478  0.06131  1.0000
  H   H11       1.0  0.32954  0.75781  0.06649  1.0000
  H   H12       1.0  0.23732  0.56329  0.06318  1.0000
  H   H13       1.0  0.57330  0.23348  0.24210  1.0000
  H   H14       1.0  0.42585  0.76664  0.26361  1.0000
  H   H15       1.0  0.56516  0.47196  0.40869  1.0000
  H   H16       1.0  0.53553  0.09556  0.36180  1.0000
  H   H17       1.0  0.90520  0.44252  0.35833  1.0000
  H   H18       1.0  0.43494  0.53140  0.39408  1.0000
  H   H19       1.0  0.46780  0.90460  0.40924  1.0000
  H   H20       1.0  0.09618  0.56535  0.40246  1.0000
  H   H21       1.0  0.52411  0.42032  0.17011  1.0000
  H   H22       1.0  0.58581  0.10194  0.16893  1.0000
  H   H23       1.0  0.89948  0.48416  0.16228  1.0000
  H   H24       1.0  0.47863  0.57951  0.17339  1.0000
  H   H25       1.0  0.42140  0.89714  0.15706  1.0000
  H   H26       1.0  0.09965  0.51820  0.15804  1.0000
  H   H27       1.0  0.44234  0.42486  0.07627  1.0000
  H   H28       1.0  0.57429  0.01076  0.05839  1.0000
  H   H29       1.0  0.99048  0.56390  0.05465  1.0000
  H   H30       1.0  0.55871  0.57238  0.08287  1.0000
  H   H31       1.0  0.43103  0.98667  0.08865  1.0000
  H   H32       1.0  0.01042  0.44109  0.08978  1.0000
  H   H33       1.0  0.70408  0.41555  0.40759  1.0000
  H   H34       1.0  0.59008  0.29468  0.39881  1.0000
  H   H35       1.0  0.70911  0.30077  0.39442  1.0000
  H   H36       1.0  0.29591  0.58768  0.40941  1.0000
  H   H37       1.0  0.40943  0.70870  0.41559  1.0000
  H   H38       1.0  0.29014  0.70205  0.40713  1.0000
  H   H39       1.0  0.62180  0.57951  0.10531  1.0000
  H   H40       1.0  0.42818  0.04626  0.10640  1.0000
  H   H41       1.0  0.94936  0.37893  0.10375  1.0000
  H   H42       1.0  0.37941  0.41804  0.09094  1.0000
  H   H43       1.0  0.57926  0.95420  0.06517  1.0000
  H   H44       1.0  0.04759  0.62591  0.09589  1.0000
  H   H45       1.0  0.63859  0.55127  0.23302  1.0000
  H   H46       1.0  0.45707  0.08918  0.25303  1.0000
  H   H47       1.0  0.90900  0.36787  0.25189  1.0000
  H   H48       1.0  0.36309  0.44523  0.23309  1.0000
  H   H49       1.0  0.54896  0.90501  0.16735  1.0000
  H   H50       1.0  0.09547  0.64137  0.20621  1.0000
  H   H51       1.0  0.59843  0.56176  0.30442  1.0000
  H   H52       1.0  0.44280  0.03598  0.30479  1.0000
  H   H53       1.0  0.96273  0.40595  0.30333  1.0000
  H   H54       1.0  0.40318  0.43383  0.29354  1.0000
  H   H55       1.0  0.55992  0.95396  0.26984  1.0000
  H   H56       1.0  0.04622  0.60221  0.28989  1.0000
  H   H57       1.0  0.98434  0.63148  0.36574  1.0000
  H   H58       1.0  0.62343  0.63764  0.32621  1.0000
  H   H59       1.0  0.36415  0.99684  0.37526  1.0000
  H   H60       1.0  0.98430  0.69088  0.22239  1.0000
  H   H61       1.0  0.68372  0.69334  0.17245  1.0000
  H   H62       1.0  0.30952  0.00546  0.23083  1.0000
  H   H63       1.0  0.31035  0.23893  0.09811  1.0000
  H   H64       1.0  0.75940  0.07715  0.08867  1.0000
  H   H65       1.0  0.91808  0.68115  0.09976  1.0000
  H   H66       1.0  0.68254  0.75724  0.08123  1.0000
  H   H67       1.0  0.24721  0.94252  0.10233  1.0000
  H   H68       1.0  0.06728  0.30873  0.06501  1.0000
  H   H69       1.0  0.85192  0.61221  0.12538  1.0000
  H   H70       1.0  0.62100  0.76515  0.14434  1.0000
  H   H71       1.0  0.24002  0.87138  0.11797  1.0000
  H   H72       1.0  0.85209  0.55274  0.26839  1.0000
  H   H73       1.0  0.56069  0.70940  0.29837  1.0000
  H   H74       1.0  0.29476  0.86295  0.26274  1.0000
  H   H75       1.0  0.62211  0.46453  0.78254  1.0000
  H   H76       1.0  0.53670  0.15281  0.78553  1.0000
  H   H77       1.0  0.84596  0.38089  0.77554  1.0000
  H   H78       1.0  0.46162  0.83969  0.75940  1.0000
  H   H79       1.0  0.15612  0.61726  0.77499  1.0000
  H   H80       1.0  0.63635  0.16762  0.57966  1.0000
  H   H81       1.0  0.36180  0.83886  0.56960  1.0000
  H   H82       1.0  0.67182  0.24492  0.56094  1.0000
  H   H83       1.0  0.32724  0.76125  0.56448  1.0000
  H   H84       1.0  0.66305  0.42840  0.76767  1.0000
  H   H85       1.0  0.57319  0.23045  0.76649  1.0000
  H   H86       1.0  0.76878  0.33873  0.76424  1.0000
  H   H87       1.0  0.42535  0.76169  0.75187  1.0000
  H   H88       1.0  0.23313  0.65685  0.76445  1.0000
  H   H89       1.0  0.56721  0.46916  0.90267  1.0000
  H   H90       1.0  0.53347  0.09342  0.89688  1.0000
  H   H91       1.0  0.90674  0.44014  0.88033  1.0000
  H   H92       1.0  0.43974  0.53057  0.86651  1.0000
  H   H93       1.0  0.46730  0.90113  0.87507  1.0000
  H   H94       1.0  0.09604  0.56303  0.88727  1.0000
  H   H95       1.0  0.52061  0.42116  0.67100  1.0000
  H   H96       1.0  0.58291  0.10530  0.66789  1.0000
  H   H97       1.0  0.90105  0.48323  0.67393  1.0000
  H   H98       1.0  0.47945  0.58415  0.67034  1.0000
  H   H99       1.0  0.41718  0.90057  0.66423  1.0000
  H   H100      1.0  0.10214  0.51982  0.65651  1.0000
  H   H101      1.0  0.44039  0.42866  0.57501  1.0000
  H   H102      1.0  0.57127  0.01467  0.56394  1.0000
  H   H103      1.0  0.98919  0.56060  0.56957  1.0000
  H   H104      1.0  0.55883  0.57520  0.58812  1.0000
  H   H105      1.0  0.42812  0.99056  0.59419  1.0000
  H   H106      1.0  0.01278  0.43994  0.58866  1.0000
  H   H107      1.0  0.70463  0.41199  0.91052  1.0000
  H   H108      1.0  0.59130  0.29096  0.90683  1.0000
  H   H109      1.0  0.71072  0.29775  0.90594  1.0000
  H   H110      1.0  0.29557  0.58341  0.91157  1.0000
  H   H111      1.0  0.40964  0.70387  0.90634  1.0000
  H   H112      1.0  0.29096  0.69848  0.91003  1.0000
  H   H113      1.0  0.61935  0.58056  0.60326  1.0000
  H   H114      1.0  0.42485  0.04953  0.60600  1.0000
  H   H115      1.0  0.95324  0.37694  0.60041  1.0000
  H   H116      1.0  0.37783  0.42286  0.58649  1.0000
  H   H117      1.0  0.57531  0.95646  0.56560  1.0000
  H   H118      1.0  0.04617  0.62326  0.58625  1.0000
  H   H119      1.0  0.63804  0.55357  0.72848  1.0000
  H   H120      1.0  0.45349  0.09322  0.74957  1.0000
  H   H121      1.0  0.91320  0.36384  0.75150  1.0000
  H   H122      1.0  0.36215  0.45223  0.72012  1.0000
  H   H123      1.0  0.54794  0.91201  0.69761  1.0000
  H   H124      1.0  0.09479  0.64158  0.69635  1.0000
  H   H125      1.0  0.59877  0.56455  0.80753  1.0000
  H   H126      1.0  0.43956  0.04045  0.80622  1.0000
  H   H127      1.0  0.96686  0.40258  0.80206  1.0000
  H   H128      1.0  0.40152  0.44070  0.78901  1.0000
  H   H129      1.0  0.56185  0.96434  0.77235  1.0000
  H   H130      1.0  0.04626  0.60378  0.78902  1.0000
  H   H131      1.0  0.62229  0.63822  0.82195  1.0000
  H   H132      1.0  0.35613  0.98491  0.86236  1.0000
  H   H133      1.0  0.68136  0.69598  0.67083  1.0000
  H   H134      1.0  0.29867  0.98565  0.70522  1.0000
  H   H135      1.0  0.32024  0.23419  0.57523  1.0000
  H   H136      1.0  0.75530  0.06334  0.58097  1.0000
  H   H137      1.0  0.93376  0.69278  0.60029  1.0000
  H   H138      1.0  0.67827  0.75980  0.59293  1.0000
  H   H139      1.0  0.23941  0.91844  0.58790  1.0000
  H   H140      1.0  0.07065  0.31151  0.55064  1.0000
  H   H141      1.0  0.61619  0.76570  0.66949  1.0000
  H   H142      1.0  0.23748  0.85031  0.63129  1.0000
  H   H143      1.0  0.55681  0.70752  0.81834  1.0000
  H   H144      1.0  0.29547  0.84975  0.78520  1.0000
  C   C1        1.0  0.56602  0.17557  0.33159  1.0000
  C   C2        1.0  0.43287  0.82623  0.34291  1.0000
  C   C3        1.0  0.58304  0.15588  0.42666  1.0000
  C   C4        1.0  0.41524  0.84756  0.42749  1.0000
  C   C5        1.0  0.62216  0.18161  0.50546  1.0000
  C   C6        1.0  0.37626  0.82339  0.50318  1.0000
  C   C7        1.0  0.64254  0.22553  0.49264  1.0000
  C   C8        1.0  0.35636  0.77926  0.49756  1.0000
  C   C9        1.0  0.62543  0.24555  0.40155  1.0000
  C   C10       1.0  0.37372  0.75758  0.41468  1.0000
  C   C11       1.0  0.58673  0.21933  0.32001  1.0000
  C   C12       1.0  0.41242  0.78225  0.33636  1.0000
  C   C13       1.0  0.51593  0.42742  0.04706  1.0000
  C   C14       1.0  0.57536  0.08477  0.04719  1.0000
  C   C15       1.0  0.91602  0.49087  0.04211  1.0000
  C   C16       1.0  0.48517  0.56952  0.05109  1.0000
  C   C17       1.0  0.42903  0.91292  0.03542  1.0000
  C   C18       1.0  0.08361  0.51137  0.03505  1.0000
  C   C19       1.0  0.50860  0.46461  0.07525  1.0000
  C   C20       1.0  0.53769  0.04060  0.07519  1.0000
  C   C21       1.0  0.95952  0.49685  0.07206  1.0000
  C   C22       1.0  0.49240  0.53258  0.08043  1.0000
  C   C23       1.0  0.46759  0.95684  0.06505  1.0000
  C   C24       1.0  0.04118  0.50792  0.06544  1.0000
  C   C25       1.0  0.46782  0.45753  0.08363  1.0000
  C   C26       1.0  0.54262  0.00517  0.06984  1.0000
  C   C27       1.0  0.99513  0.53703  0.06753  1.0000
  C   C28       1.0  0.53324  0.53972  0.08727  1.0000
  C   C29       1.0  0.46279  0.99221  0.08623  1.0000
  C   C30       1.0  0.00568  0.46804  0.08605  1.0000
  C   C31       1.0  0.54158  0.50662  0.09757  1.0000
  C   C32       1.0  0.49700  0.03336  0.10239  1.0000
  C   C33       1.0  0.96564  0.46256  0.10143  1.0000
  C   C34       1.0  0.45946  0.49068  0.09997  1.0000
  C   C35       1.0  0.50861  0.96388  0.07511  1.0000
  C   C36       1.0  0.03556  0.54317  0.07673  1.0000
  C   C37       1.0  0.64413  0.35768  0.40316  1.0000
  C   C38       1.0  0.64701  0.29221  0.39542  1.0000
  C   C39       1.0  0.71192  0.36103  0.39933  1.0000
  C   C40       1.0  0.35557  0.64562  0.41256  1.0000
  C   C41       1.0  0.35230  0.71083  0.41039  1.0000
  C   C42       1.0  0.28754  0.64186  0.40679  1.0000
  C   C43       1.0  0.68810  0.38111  0.40300  1.0000
  C   C44       1.0  0.62412  0.31328  0.39792  1.0000
  C   C45       1.0  0.69088  0.31659  0.39494  1.0000
  C   C46       1.0  0.31163  0.62207  0.40895  1.0000
  C   C47       1.0  0.37540  0.68999  0.41249  1.0000
  C   C48       1.0  0.30841  0.68628  0.40752  1.0000
  C   C49       1.0  0.61164  0.55408  0.19537  1.0000
  C   C50       1.0  0.45252  0.05888  0.20456  1.0000
  C   C51       1.0  0.93891  0.39254  0.20326  1.0000
  C   C52       1.0  0.38990  0.44268  0.19027  1.0000
  C   C53       1.0  0.55298  0.93646  0.14979  1.0000
  C   C54       1.0  0.06411  0.61483  0.17537  1.0000
  C   C55       1.0  0.47535  0.39295  0.47790  1.0000
  C   C56       1.0  0.60774  0.08526  0.47540  1.0000
  C   C57       1.0  0.91836  0.52475  0.47541  1.0000
  C   C58       1.0  0.52383  0.60957  0.47977  1.0000
  C   C59       1.0  0.39165  0.92032  0.47561  1.0000
  C   C60       1.0  0.08095  0.47309  0.46438  1.0000
  C   C61       1.0  0.44459  0.36377  0.40930  1.0000
  C   C62       1.0  0.63703  0.08448  0.40926  1.0000
  C   C63       1.0  0.91837  0.55404  0.40634  1.0000
  C   C64       1.0  0.55360  0.63772  0.40874  1.0000
  C   C65       1.0  0.36432  0.92442  0.40970  1.0000
  C   C66       1.0  0.07763  0.44178  0.39289  1.0000
  C   C67       1.0  0.91828  0.58807  0.32588  1.0000
  C   C68       1.0  0.58819  0.66995  0.32350  1.0000
  C   C69       1.0  0.33294  0.92926  0.32915  1.0000
  C   C70       1.0  0.95555  0.62742  0.31162  1.0000
  C   C71       1.0  0.62322  0.66573  0.28629  1.0000
  C   C72       1.0  0.33688  0.96957  0.31844  1.0000
  C   C73       1.0  0.95528  0.66072  0.23246  1.0000
  C   C74       1.0  0.65703  0.69713  0.20129  1.0000
  C   C75       1.0  0.30609  0.97420  0.23841  1.0000
  C   C76       1.0  0.91805  0.65546  0.16510  1.0000
  C   C77       1.0  0.65653  0.73318  0.15084  1.0000
  C   C78       1.0  0.27097  0.93887  0.16684  1.0000
  C   C79       1.0  0.88091  0.61655  0.17857  1.0000
  C   C80       1.0  0.62182  0.73751  0.18604  1.0000
  C   C81       1.0  0.26695  0.89884  0.17562  1.0000
  C   C82       1.0  0.88085  0.58309  0.25792  1.0000
  C   C83       1.0  0.58785  0.70629  0.27121  1.0000
  C   C84       1.0  0.29756  0.89393  0.25568  1.0000
  C   C85       1.0  0.61136  0.43505  0.84715  1.0000
  C   C86       1.0  0.56666  0.17233  0.84933  1.0000
  C   C87       1.0  0.82756  0.39213  0.84161  1.0000
  C   C88       1.0  0.43304  0.82168  0.82978  1.0000
  C   C89       1.0  0.17401  0.60595  0.84182  1.0000
  C   C90       1.0  0.57304  0.41718  0.93144  1.0000
  C   C91       1.0  0.58499  0.15244  0.93434  1.0000
  C   C92       1.0  0.84841  0.43176  0.92598  1.0000
  C   C93       1.0  0.41634  0.84347  0.91760  1.0000
  C   C94       1.0  0.15254  0.56754  0.92575  1.0000
  C   C95       1.0  0.55847  0.37798  0.00656  1.0000
  C   C96       1.0  0.62482  0.17789  0.00765  1.0000
  C   C97       1.0  0.82424  0.44704  0.00236  1.0000
  C   C98       1.0  0.37831  0.81964  0.00053  1.0000
  C   C99       1.0  0.17606  0.55211  0.00274  1.0000
  C   C100      1.0  0.58192  0.35780  0.99772  1.0000
  C   C101      1.0  0.64504  0.22186  0.99748  1.0000
  C   C102      1.0  0.78064  0.42298  0.99532  1.0000
  C   C103      1.0  0.35815  0.77552  0.99620  1.0000
  C   C104      1.0  0.21972  0.57497  0.99681  1.0000
  C   C105      1.0  0.62026  0.37537  0.91437  1.0000
  C   C106      1.0  0.62705  0.24214  0.91367  1.0000
  C   C107      1.0  0.75941  0.38332  0.91204  1.0000
  C   C108      1.0  0.37456  0.75343  0.90973  1.0000
  C   C109      1.0  0.24151  0.61346  0.91430  1.0000
  C   C110      1.0  0.63433  0.41455  0.83903  1.0000
  C   C111      1.0  0.58738  0.21613  0.83900  1.0000
  C   C112      1.0  0.78408  0.36860  0.83508  1.0000
  C   C113      1.0  0.41255  0.77769  0.82613  1.0000
  C   C114      1.0  0.21744  0.62820  0.83620  1.0000
  C   C115      1.0  0.51339  0.42951  0.54840  1.0000
  C   C116      1.0  0.57256  0.08833  0.54582  1.0000
  C   C117      1.0  0.91599  0.48746  0.55094  1.0000
  C   C118      1.0  0.48596  0.57400  0.54846  1.0000
  C   C119      1.0  0.42641  0.91671  0.54343  1.0000
  C   C120      1.0  0.08511  0.51229  0.53558  1.0000
  C   C121      1.0  0.50682  0.46723  0.57808  1.0000
  C   C122      1.0  0.53470  0.04455  0.57677  1.0000
  C   C123      1.0  0.95953  0.49346  0.58069  1.0000
  C   C124      1.0  0.49240  0.53647  0.57737  1.0000
  C   C125      1.0  0.46471  0.96076  0.57594  1.0000
  C   C126      1.0  0.04205  0.50691  0.57039  1.0000
  C   C127      1.0  0.46639  0.46106  0.58224  1.0000
  C   C128      1.0  0.53965  0.00916  0.57646  1.0000
  C   C129      1.0  0.99457  0.53415  0.57927  1.0000
  C   C130      1.0  0.53289  0.54276  0.58949  1.0000
  C   C131      1.0  0.45990  0.99620  0.59267  1.0000
  C   C132      1.0  0.00728  0.46645  0.58944  1.0000
  C   C133      1.0  0.54024  0.50903  0.60201  1.0000
  C   C134      1.0  0.49406  0.03751  0.60520  1.0000
  C   C135      1.0  0.96675  0.45967  0.60743  1.0000
  C   C136      1.0  0.45893  0.49482  0.59352  1.0000
  C   C137      1.0  0.50574  0.96802  0.58859  1.0000
  C   C138      1.0  0.03537  0.54136  0.58602  1.0000
  C   C139      1.0  0.64506  0.35395  0.90778  1.0000
  C   C140      1.0  0.64848  0.28878  0.90658  1.0000
  C   C141      1.0  0.71317  0.35788  0.90699  1.0000
  C   C142      1.0  0.35547  0.64115  0.90915  1.0000
  C   C143      1.0  0.35282  0.70668  0.90757  1.0000
  C   C144      1.0  0.28774  0.63797  0.90986  1.0000
  C   C145      1.0  0.68900  0.37758  0.90783  1.0000
  C   C146      1.0  0.62533  0.30960  0.90606  1.0000
  C   C147      1.0  0.69237  0.31343  0.90562  1.0000
  C   C148      1.0  0.31151  0.61782  0.90958  1.0000
  C   C149      1.0  0.37559  0.68551  0.90720  1.0000
  C   C150      1.0  0.30894  0.68240  0.90876  1.0000
  C   C151      1.0  0.61058  0.55601  0.69630  1.0000
  C   C152      1.0  0.44930  0.06283  0.70392  1.0000
  C   C153      1.0  0.94264  0.38951  0.70335  1.0000
  C   C154      1.0  0.38857  0.44852  0.68151  1.0000
  C   C155      1.0  0.55165  0.94250  0.66340  1.0000
  C   C156      1.0  0.06344  0.61427  0.67163  1.0000
  C   C157      1.0  0.47808  0.39006  0.98045  1.0000
  C   C158      1.0  0.61018  0.08159  0.97496  1.0000
  C   C159      1.0  0.91900  0.52931  0.97521  1.0000
  C   C160      1.0  0.52251  0.60567  0.98127  1.0000
  C   C161      1.0  0.39305  0.91596  0.97763  1.0000
  C   C162      1.0  0.07867  0.47161  0.96508  1.0000
  C   C163      1.0  0.44822  0.36029  0.91013  1.0000
  C   C164      1.0  0.63761  0.07825  0.90463  1.0000
  C   C165      1.0  0.92165  0.55957  0.90412  1.0000
  C   C166      1.0  0.55156  0.63522  0.91243  1.0000
  C   C167      1.0  0.36352  0.91684  0.91522  1.0000
  C   C168      1.0  0.07679  0.44075  0.89505  1.0000
  C   C169      1.0  0.58552  0.66888  0.82978  1.0000
  C   C170      1.0  0.32979  0.91731  0.83343  1.0000
  C   C171      1.0  0.62114  0.66617  0.78734  1.0000
  C   C172      1.0  0.33020  0.95561  0.81049  1.0000
  C   C173      1.0  0.65433  0.69879  0.70416  1.0000
  C   C174      1.0  0.29772  0.95582  0.72373  1.0000
  C   C175      1.0  0.65276  0.73479  0.66138  1.0000
  C   C176      1.0  0.26425  0.91803  0.65864  1.0000
  C   C177      1.0  0.61765  0.73787  0.70326  1.0000
  C   C178      1.0  0.26337  0.87981  0.68205  1.0000
  C   C179      1.0  0.58423  0.70532  0.78605  1.0000
  C   C180      1.0  0.29576  0.87929  0.76809  1.0000
  N   N1        1.0  0.54827  0.44072  0.43378  1.0000
  N   N2        1.0  0.56064  0.11218  0.43909  1.0000
  N   N3        1.0  0.89036  0.44905  0.45097  1.0000
  N   N4        1.0  0.45090  0.56223  0.43294  1.0000
  N   N5        1.0  0.43651  0.89188  0.42470  1.0000
  N   N6        1.0  0.10862  0.54648  0.41820  1.0000
  N   N7        1.0  0.55017  0.43803  0.92972  1.0000
  N   N8        1.0  0.56378  0.10838  0.93592  1.0000
  N   N9        1.0  0.89197  0.45531  0.92492  1.0000
  N   N10       1.0  0.44888  0.55629  0.94293  1.0000
  N   N11       1.0  0.43708  0.88761  0.91181  1.0000
  N   N12       1.0  0.10889  0.54552  0.92113  1.0000
  O   O1        1.0  0.58173  0.51348  0.12418  1.0000
  O   O2        1.0  0.49257  0.06814  0.14135  1.0000
  O   O3        1.0  0.93078  0.42426  0.14149  1.0000
  O   O4        1.0  0.41971  0.48383  0.13237  1.0000
  O   O5        1.0  0.51384  0.92892  0.08279  1.0000
  O   O6        1.0  0.07068  0.58353  0.09164  1.0000
  O   O7        1.0  0.57984  0.51492  0.63246  1.0000
  O   O8        1.0  0.48935  0.07212  0.64167  1.0000
  O   O9        1.0  0.93310  0.42080  0.64929  1.0000
  O   O10       1.0  0.41901  0.48871  0.61710  1.0000
  O   O11       1.0  0.51104  0.93328  0.60723  1.0000
  O   O12       1.0  0.07025  0.58198  0.59988  1.0000
  C   C181      1.0  0.36866  0.57201  0.81442  1.0000
  C   C182      1.0  0.37490  0.60870  0.89850  1.0000
  C  Sn1       1.0  0.40693  0.62502  0.00033  1.0000
  C  Sn2       1.0  0.43655  0.61153  0.01803  1.0000
  C   C183      1.0  0.43337  0.58204  0.93330  1.0000
  C   C184      1.0  0.39787  0.55870  0.83176  1.0000
  H   H145      1.0  0.34121  0.55396  0.73578  1.0000
  O  Te1       1.0  0.41266  0.66158  0.08348  1.0000
  O  Te2       1.0  0.47217  0.63449  0.11897  1.0000
  H   H146      1.0  0.39307  0.53031  0.76660  1.0000
  Mg  Mg1       1.0  0.46613  0.68216  0.20682  1.0000
  C   C185      1.0  0.68531  0.02493  0.72552  1.0000
  C   C186      1.0  0.72180  0.05634  0.65238  1.0000
  C  Sn3       1.0  0.73327  0.09894  0.67141  1.0000
  C  Sn4       1.0  0.70769  0.11021  0.76551  1.0000
  C   C187      1.0  0.67126  0.07855  0.83828  1.0000
  C   C188      1.0  0.66007  0.03602  0.81841  1.0000
  H   H147      1.0  0.17599  0.99203  0.71023  1.0000
  O  Te3       1.0  0.76982  0.12991  0.59745  1.0000
  O  Te4       1.0  0.71843  0.15254  0.78655  1.0000
  H   H148      1.0  0.63183  0.01172  0.87514  1.0000
  Mg  Mg2       1.0  0.77123  0.18326  0.66163  1.0000
  C   C189      1.0  0.57193  0.36154  0.51447  1.0000
  C   C190      1.0  0.60885  0.37313  0.42814  1.0000
  C  Sn5       1.0  0.62870  0.41102  0.34261  1.0000
  C  Sn6       1.0  0.61119  0.43774  0.34379  1.0000
  C   C191      1.0  0.57426  0.42587  0.43062  1.0000
  C   C192      1.0  0.55465  0.38788  0.51575  1.0000
  H   H149      1.0  0.55677  0.33215  0.58041  1.0000
  O  Te5       1.0  0.66556  0.42211  0.25695  1.0000
  O  Te6       1.0  0.63039  0.47579  0.25940  1.0000
  H   H150      1.0  0.52608  0.37893  0.58266  1.0000
  Mg  Mg3       1.0  0.68011  0.47712  0.16063  1.0000
  C   C193      1.0  0.02928  0.33904  0.70727  1.0000
  C   C194      1.0  0.06174  0.33647  0.62914  1.0000
  C  Sn7       1.0  0.10312  0.36954  0.64843  1.0000
  C  Sn8       1.0  0.11208  0.40582  0.74789  1.0000
  C   C195      1.0  0.07939  0.40808  0.82562  1.0000
  C   C196      1.0  0.03809  0.37480  0.80544  1.0000
  H   H151      1.0  0.99732  0.31328  0.69174  1.0000
  O  Te7       1.0  0.13517  0.36647  0.56944  1.0000
  O  Te8       1.0  0.15317  0.43933  0.76931  1.0000
  H   H152      1.0  0.01297  0.37679  0.86604  1.0000
  Mg  Mg4       1.0  0.18611  0.42036  0.63634  1.0000
  C   C197      1.0  0.73442  0.12455  0.21513  1.0000
  C   C198      1.0  0.73794  0.08917  0.17334  1.0000
  C  Sn9       1.0  0.70507  0.04845  0.20520  1.0000
  C  Sn10      1.0  0.66804  0.04316  0.28026  1.0000
  C   C199      1.0  0.66482  0.07876  0.32148  1.0000
  C   C200      1.0  0.69790  0.11936  0.28910  1.0000
  H   H153      1.0  0.76001  0.15597  0.19000  1.0000
  O  Te9       1.0  0.70911  0.01344  0.16272  1.0000
  O  Te10      1.0  0.63470  0.00282  0.31342  1.0000
  H   H154      1.0  0.69516  0.14675  0.32136  1.0000
  Mg  Mg5       1.0  0.15444  0.96493  0.23278  1.0000
  C   C201      1.0  0.02867  0.35845  0.25665  1.0000
  C   C202      1.0  0.06424  0.39637  0.30769  1.0000
  C  Sn11      1.0  0.10407  0.40475  0.26106  1.0000
  C  Sn12      1.0  0.10826  0.37455  0.16145  1.0000
  C   C203      1.0  0.07248  0.33672  0.11093  1.0000
  C   C204      1.0  0.03278  0.32865  0.15835  1.0000
  H   H155      1.0  0.99795  0.35221  0.29325  1.0000
  O  Te11      1.0  0.13927  0.44278  0.31319  1.0000
  O  Te12      1.0  0.14769  0.38212  0.11302  1.0000
  H   H156      1.0  0.00525  0.29931  0.11872  1.0000
  Mg  Mg6       1.0  0.18628  0.43860  0.21525  1.0000
  C   C205      1.0  0.88653  0.61609  0.67384  1.0000
  C   C206      1.0  0.92074  0.65729  0.66745  1.0000
  C  Sn13      1.0  0.95938  0.66711  0.73642  1.0000
  C  Sn14      1.0  0.96376  0.63501  0.81310  1.0000
  C   C207      1.0  0.92936  0.59389  0.81875  1.0000
  C   C208      1.0  0.89083  0.58441  0.74938  1.0000
  H   H157      1.0  0.85673  0.60875  0.62010  1.0000
  O  Te13      1.0  0.99323  0.70843  0.72901  1.0000
  O  Te14      1.0  0.00203  0.64395  0.88296  1.0000
  H   H158      1.0  0.86436  0.55251  0.75426  1.0000
  Mg  Mg7       1.0  0.03898  0.70502  0.84183  1.0000
  C   C209      1.0  0.36005  0.32677  0.30310  1.0000
  C   C210      1.0  0.39898  0.33044  0.33314  1.0000
  C  Sn15      1.0  0.40789  0.30027  0.26638  1.0000
  C  Sn16      1.0  0.37720  0.26581  0.16773  1.0000
  C   C211      1.0  0.33836  0.26243  0.13831  1.0000
  C   C212      1.0  0.32976  0.29280  0.20576  1.0000
  H   H159      1.0  0.35340  0.35028  0.35520  1.0000
  O  Te15      1.0  0.44695  0.30441  0.29768  1.0000
  O  Te16      1.0  0.38529  0.23521  0.09945  1.0000
  H   H160      1.0  0.29963  0.28996  0.18239  1.0000
  Mg  Mg8       1.0  0.44314  0.25463  0.17738  1.0000
  C   C213      1.0  0.44167  0.63230  0.52340  1.0000
  C   C214      1.0  0.43235  0.59264  0.45857  1.0000
  C  Sn17      1.0  0.39594  0.56811  0.36333  1.0000
  C  Sn18      1.0  0.36842  0.58368  0.33261  1.0000
  C   C215      1.0  0.37805  0.62342  0.39793  1.0000
  C   C216      1.0  0.41456  0.64769  0.49310  1.0000
  H   H161      1.0  0.46993  0.65110  0.59697  1.0000
  O  Te17      1.0  0.38709  0.52854  0.29954  1.0000
  O  Te18      1.0  0.33183  0.55983  0.23779  1.0000
  H   H162      1.0  0.42179  0.67841  0.54320  1.0000
  Mg  Mg9       1.0  0.33339  0.50782  0.17775  1.0000
  C   C217      1.0  0.81342  0.44476  0.52744  1.0000
  C   C218      1.0  0.84217  0.43465  0.45924  1.0000
  C  Sn19      1.0  0.82846  0.39924  0.35251  1.0000
  C  Sn20      1.0  0.78515  0.37356  0.31354  1.0000
  C   C219      1.0  0.75664  0.38396  0.38232  1.0000
  C   C220      1.0  0.77070  0.41945  0.48901  1.0000
  H   H163      1.0  0.82429  0.47223  0.60992  1.0000
  O  Te19      1.0  0.85761  0.38959  0.28551  1.0000
  O  Te20      1.0  0.77060  0.33801  0.20718  1.0000
  H   H164      1.0  0.74843  0.42729  0.54171  1.0000
  Mg  Mg10      1.0  0.82247  0.33786  0.14697  1.0000
  C   C221      1.0  0.18281  0.61744  0.32388  1.0000
  C   C222      1.0  0.15677  0.57800  0.39294  1.0000
  C  Sn21      1.0  0.17401  0.55787  0.48115  1.0000
  C  Sn22      1.0  0.21814  0.57768  0.50041  1.0000
  C   C223      1.0  0.24391  0.61715  0.43095  1.0000
  C   C224      1.0  0.22633  0.63700  0.34288  1.0000
  H   H165      1.0  0.16921  0.63281  0.25582  1.0000
  O  Te21      1.0  0.14754  0.51847  0.54928  1.0000
  O  Te22      1.0  0.23619  0.55828  0.58802  1.0000
  H   H166      1.0  0.24650  0.66755  0.28952  1.0000
  Mg  Mg11      1.0  0.18705  0.50465  0.65793  1.0000
  C   C225      1.0  0.39582  0.26624  0.66940  1.0000
  C   C226      1.0  0.35461  0.25764  0.65317  1.0000
  C  Sn23      1.0  0.34316  0.28591  0.72027  1.0000
  C  Sn24      1.0  0.37362  0.32346  0.80509  1.0000
  C   C227      1.0  0.41477  0.33180  0.82057  1.0000
  C   C228      1.0  0.42588  0.30329  0.75299  1.0000
  H   H167      1.0  0.40442  0.24420  0.61705  1.0000
  O  Te23      1.0  0.30184  0.27681  0.70298  1.0000
  O  Te24      1.0  0.36303  0.35227  0.87330  1.0000
  H   H168      1.0  0.45780  0.30997  0.76549  1.0000
  Mg  Mg12      1.0  0.30268  0.32584  0.81737  1.0000
