data_image0
_chemical_formula_structural       H144C180N12O12C2Sn2C2HTe2HMgC2Sn2C2HTe2HMgC2Sn2C2HTe2HMgC2Sn2C2HTe2HMgC2Sn2C2HTe2HMgC2Sn2C2HTe2HMgC2Sn2C2HTe2HMgC2Sn2C2HTe2HMgC2Sn2C2HTe2HMgC2Sn2C2HTe2HMgC2Sn2C2HTe2HMgC2Sn2C2HTe2HMg
_chemical_formula_sum              "H168 C228 N12 O12 Sn24 Te24 Mg12"
_cell_length_a       37.0291
_cell_length_b       36.6792
_cell_length_c       8.95878
_cell_angle_alpha    90.0164
_cell_angle_beta     91.5582
_cell_angle_gamma    120.223

_symmetry_space_group_name_H-M    'P1'
_space_group_IT_number       1

loop_
  _space_group_symop_operation_xyz
  'x, y, z'

loop_
  _atom_site_type_symbol
  _atom_site_label
  _atom_site_symmetry_multiplicity
  _atom_site_fract_x
  _atom_site_fract_y
  _atom_site_fract_z
  _atom_site_occupancy
  H   H1        1.0  0.61653  0.46334  0.48666  1.0000
  H   H2        1.0  0.46143  0.84652  0.48864  1.0000
  H   H3        1.0  0.53706  0.36712  0.16346  1.0000
  H   H4        1.0  0.36515  0.83020  0.16888  1.0000
  H   H5        1.0  0.57883  0.33292  0.20055  1.0000
  H   H6        1.0  0.33016  0.75355  0.20128  1.0000
  H   H7        1.0  0.65732  0.42770  0.52706  1.0000
  H   H8        1.0  0.42489  0.76967  0.52577  1.0000
  H   H9        1.0  0.56645  0.46839  0.34789  1.0000
  H   H10       1.0  0.53532  0.09961  0.34078  1.0000
  H   H11       1.0  0.90440  0.43653  0.35173  1.0000
  H   H12       1.0  0.43286  0.52923  0.33724  1.0000
  H   H13       1.0  0.46620  0.90245  0.35819  1.0000
  H   H14       1.0  0.09851  0.56234  0.34092  1.0000
  H   H15       1.0  0.55354  0.44987  0.07692  1.0000
  H   H16       1.0  0.54985  0.10145  0.07146  1.0000
  H   H17       1.0  0.89631  0.44817  0.08623  1.0000
  H   H18       1.0  0.44704  0.54866  0.07414  1.0000
  H   H19       1.0  0.44671  0.89454  0.08524  1.0000
  H   H20       1.0  0.10138  0.54906  0.07115  1.0000
  H   H21       1.0  0.45025  0.42269  0.18182  1.0000
  H   H22       1.0  0.57447  0.02274  0.15777  1.0000
  H   H23       1.0  0.97812  0.55232  0.16785  1.0000
  H   H24       1.0  0.55067  0.57610  0.16794  1.0000
  H   H25       1.0  0.42417  0.97508  0.19664  1.0000
  H   H26       1.0  0.02255  0.44566  0.18342  1.0000
  H   H27       1.0  0.70580  0.41480  0.38584  1.0000
  H   H28       1.0  0.59318  0.29359  0.37391  1.0000
  H   H29       1.0  0.71294  0.30150  0.36796  1.0000
  H   H30       1.0  0.29815  0.58636  0.37601  1.0000
  H   H31       1.0  0.41084  0.70748  0.37967  1.0000
  H   H32       1.0  0.29132  0.70002  0.37676  1.0000
  H   H33       1.0  0.61202  0.58824  0.09420  1.0000
  H   H34       1.0  0.41411  0.02767  0.11555  1.0000
  H   H35       1.0  0.96485  0.38304  0.09693  1.0000
  H   H36       1.0  0.38747  0.41202  0.09660  1.0000
  H   H37       1.0  0.57585  0.96811  0.03809  1.0000
  H   H38       1.0  0.03252  0.61579  0.09501  1.0000
  H   H39       1.0  0.64559  0.57212  0.18308  1.0000
  H   H40       1.0  0.43213  0.07641  0.21663  1.0000
  H   H41       1.0  0.92097  0.35320  0.21354  1.0000
  H   H42       1.0  0.35538  0.42736  0.19386  1.0000
  H   H43       1.0  0.56620  0.92131  0.13526  1.0000
  H   H44       1.0  0.08097  0.64512  0.19940  1.0000
  H   H45       1.0  0.61050  0.58093  0.29190  1.0000
  H   H46       1.0  0.42178  0.02959  0.31466  1.0000
  H   H47       1.0  0.97173  0.38824  0.29607  1.0000
  H   H48       1.0  0.39082  0.41601  0.29641  1.0000
  H   H49       1.0  0.58502  0.97013  0.23629  1.0000
  H   H50       1.0  0.03395  0.60993  0.29327  1.0000
  H   H51       1.0  0.69122  0.17961  0.45319  1.0000
  H   H52       1.0  0.81904  0.51567  0.51571  1.0000
  H   H53       1.0  0.50877  0.68909  0.44654  1.0000
  H   H54       1.0  0.17226  0.48152  0.44339  1.0000
  H   H55       1.0  0.75119  0.19636  0.29304  1.0000
  H   H56       1.0  0.79395  0.55532  0.36154  1.0000
  H   H57       1.0  0.55188  0.75095  0.28869  1.0000
  H   H58       1.0  0.18795  0.43642  0.28190  1.0000
  H   H59       1.0  0.37369  0.23510  0.19654  1.0000
  H   H60       1.0  0.76139  0.13869  0.19563  1.0000
  H   H61       1.0  0.84456  0.61738  0.21619  1.0000
  H   H62       1.0  0.62058  0.76392  0.20035  1.0000
  H   H63       1.0  0.23996  0.87187  0.18213  1.0000
  H   H64       1.0  0.13009  0.36804  0.17963  1.0000
  H   H65       1.0  0.71243  0.06441  0.26461  1.0000
  H   H66       1.0  0.91970  0.63867  0.22361  1.0000
  H   H67       1.0  0.64613  0.71527  0.27371  1.0000
  H   H68       1.0  0.05666  0.34445  0.24345  1.0000
  H   H69       1.0  0.65315  0.04776  0.42949  1.0000
  H   H70       1.0  0.94489  0.59949  0.38020  1.0000
  H   H71       1.0  0.60351  0.65405  0.43492  1.0000
  H   H72       1.0  0.04108  0.38939  0.40723  1.0000
  H   H73       1.0  0.53830  0.15496  0.95330  1.0000
  H   H74       1.0  0.84890  0.38586  0.97654  1.0000
  H   H75       1.0  0.46532  0.84697  0.96658  1.0000
  H   H76       1.0  0.64031  0.16863  0.69336  1.0000
  H   H77       1.0  0.83341  0.47172  0.69081  1.0000
  H   H78       1.0  0.36116  0.83481  0.70048  1.0000
  H   H79       1.0  0.67516  0.24559  0.72613  1.0000
  H   H80       1.0  0.75760  0.43092  0.72437  1.0000
  H   H81       1.0  0.32502  0.75806  0.72863  1.0000
  H   H82       1.0  0.57522  0.23195  0.99725  1.0000
  H   H83       1.0  0.77317  0.34667  0.01665  1.0000
  H   H84       1.0  0.42785  0.77004  0.00164  1.0000
  H   H85       1.0  0.56881  0.47076  0.85054  1.0000
  H   H86       1.0  0.53525  0.09934  0.83838  1.0000
  H   H87       1.0  0.90326  0.43663  0.85219  1.0000
  H   H88       1.0  0.43432  0.53348  0.84597  1.0000
  H   H89       1.0  0.46792  0.90370  0.85578  1.0000
  H   H90       1.0  0.09700  0.56152  0.83903  1.0000
  H   H91       1.0  0.55381  0.45366  0.58493  1.0000
  H   H92       1.0  0.55163  0.10352  0.57269  1.0000
  H   H93       1.0  0.89536  0.44887  0.58578  1.0000
  H   H94       1.0  0.44624  0.54933  0.57919  1.0000
  H   H95       1.0  0.44878  0.89639  0.58665  1.0000
  H   H96       1.0  0.09989  0.54905  0.56924  1.0000
  H   H97       1.0  0.44985  0.42461  0.68256  1.0000
  H   H98       1.0  0.57659  0.02476  0.66264  1.0000
  H   H99       1.0  0.97712  0.55289  0.67718  1.0000
  H   H100      1.0  0.55035  0.57824  0.69270  1.0000
  H   H101      1.0  0.42586  0.97690  0.68603  1.0000
  H   H102      1.0  0.02063  0.44550  0.67229  1.0000
  H   H103      1.0  0.70440  0.41409  0.87946  1.0000
  H   H104      1.0  0.59170  0.29297  0.87308  1.0000
  H   H105      1.0  0.71139  0.30070  0.88305  1.0000
  H   H106      1.0  0.29686  0.58839  0.86253  1.0000
  H   H107      1.0  0.40945  0.70932  0.87432  1.0000
  H   H108      1.0  0.28961  0.70161  0.87267  1.0000
  H   H109      1.0  0.61348  0.59001  0.63096  1.0000
  H   H110      1.0  0.41648  0.02919  0.59539  1.0000
  H   H111      1.0  0.96325  0.38288  0.58883  1.0000
  H   H112      1.0  0.38535  0.41349  0.61075  1.0000
  H   H113      1.0  0.57735  0.96943  0.54374  1.0000
  H   H114      1.0  0.02989  0.61373  0.58938  1.0000
  H   H115      1.0  0.64485  0.57434  0.73900  1.0000
  H   H116      1.0  0.43331  0.07793  0.69435  1.0000
  H   H117      1.0  0.91845  0.35307  0.70096  1.0000
  H   H118      1.0  0.35541  0.42945  0.71855  1.0000
  H   H119      1.0  0.56818  0.92295  0.64218  1.0000
  H   H120      1.0  0.07896  0.64546  0.68893  1.0000
  H   H121      1.0  0.60701  0.58324  0.82838  1.0000
  H   H122      1.0  0.42234  0.03124  0.79521  1.0000
  H   H123      1.0  0.96863  0.38760  0.78861  1.0000
  H   H124      1.0  0.39276  0.41868  0.80974  1.0000
  H   H125      1.0  0.58743  0.97210  0.74143  1.0000
  H   H126      1.0  0.03272  0.61133  0.78896  1.0000
  H   H127      1.0  0.48099  0.30067  0.99201  1.0000
  H   H128      1.0  0.82700  0.52359  0.97292  1.0000
  H   H129      1.0  0.29966  0.82060  0.98631  1.0000
  H   H130      1.0  0.43581  0.23738  0.83265  1.0000
  H   H131      1.0  0.81307  0.57022  0.80970  1.0000
  H   H132      1.0  0.23841  0.80423  0.81896  1.0000
  H   H133      1.0  0.37381  0.23156  0.69347  1.0000
  H   H134      1.0  0.75811  0.12979  0.69764  1.0000
  H   H135      1.0  0.87214  0.63322  0.69614  1.0000
  H   H136      1.0  0.61869  0.75995  0.68972  1.0000
  H   H137      1.0  0.23458  0.86229  0.68823  1.0000
  H   H138      1.0  0.13373  0.37140  0.67550  1.0000
  H   H139      1.0  0.35708  0.28893  0.71647  1.0000
  H   H140      1.0  0.94520  0.65007  0.74981  1.0000
  H   H141      1.0  0.29206  0.93643  0.72629  1.0000
  H   H142      1.0  0.40209  0.35199  0.87756  1.0000
  H   H143      1.0  0.95924  0.60368  0.91456  1.0000
  H   H144      1.0  0.35319  0.95262  0.89425  1.0000
  C   C1        1.0  0.60791  0.43446  0.42410  1.0000
  C   C2        1.0  0.43230  0.82625  0.42628  1.0000
  C   C3        1.0  0.57333  0.41785  0.32263  1.0000
  C   C4        1.0  0.41585  0.84447  0.32719  1.0000
  C   C5        1.0  0.56286  0.38034  0.24486  1.0000
  C   C6        1.0  0.37820  0.81735  0.24863  1.0000
  C   C7        1.0  0.58641  0.36078  0.26745  1.0000
  C   C8        1.0  0.35816  0.77391  0.26887  1.0000
  C   C9        1.0  0.62107  0.37721  0.36759  1.0000
  C   C10       1.0  0.37432  0.75549  0.36762  1.0000
  C   C11       1.0  0.63119  0.41451  0.44622  1.0000
  C   C12       1.0  0.41185  0.78277  0.44643  1.0000
  C   C13       1.0  0.52982  0.43857  0.16331  1.0000
  C   C14       1.0  0.56175  0.08936  0.16141  1.0000
  C   C15       1.0  0.91116  0.47309  0.17316  1.0000
  C   C16       1.0  0.47080  0.56010  0.16599  1.0000
  C   C17       1.0  0.43672  0.90857  0.17200  1.0000
  C   C18       1.0  0.08900  0.52508  0.15893  1.0000
  C   C19       1.0  0.51446  0.46999  0.17238  1.0000
  C   C20       1.0  0.52962  0.04244  0.17538  1.0000
  C   C21       1.0  0.95753  0.48684  0.18004  1.0000
  C   C22       1.0  0.48651  0.52884  0.17581  1.0000
  C   C23       1.0  0.46915  0.95543  0.18093  1.0000
  C   C24       1.0  0.04293  0.51116  0.17165  1.0000
  C   C25       1.0  0.47191  0.45648  0.18029  1.0000
  C   C26       1.0  0.54147  0.01186  0.16936  1.0000
  C   C27       1.0  0.98839  0.52937  0.17505  1.0000
  C   C28       1.0  0.52910  0.54235  0.17276  1.0000
  C   C29       1.0  0.45735  0.98598  0.19157  1.0000
  C   C30       1.0  0.01227  0.46867  0.18171  1.0000
  C   C31       1.0  0.54320  0.51349  0.17019  1.0000
  C   C32       1.0  0.48696  0.02899  0.18817  1.0000
  C   C33       1.0  0.96998  0.45643  0.18734  1.0000
  C   C34       1.0  0.45781  0.48532  0.18124  1.0000
  C   C35       1.0  0.51184  0.96884  0.17196  1.0000
  C   C36       1.0  0.03068  0.54169  0.17279  1.0000
  C   C37       1.0  0.64649  0.35657  0.38086  1.0000
  C   C38       1.0  0.65059  0.29198  0.37355  1.0000
  C   C39       1.0  0.71472  0.36110  0.38060  1.0000
  C   C40       1.0  0.35742  0.64446  0.38021  1.0000
  C   C41       1.0  0.35348  0.70912  0.38040  1.0000
  C   C42       1.0  0.28927  0.64019  0.37800  1.0000
  C   C43       1.0  0.69035  0.38051  0.38466  1.0000
  C   C44       1.0  0.62715  0.31238  0.37783  1.0000
  C   C45       1.0  0.69437  0.31681  0.37518  1.0000
  C   C46       1.0  0.31356  0.62065  0.37988  1.0000
  C   C47       1.0  0.37691  0.68866  0.38209  1.0000
  C   C48       1.0  0.30974  0.68445  0.38001  1.0000
  C   C49       1.0  0.61470  0.56927  0.18431  1.0000
  C   C50       1.0  0.43358  0.04734  0.21094  1.0000
  C   C51       1.0  0.95005  0.38329  0.20147  1.0000
  C   C52       1.0  0.38604  0.42964  0.19349  1.0000
  C   C53       1.0  0.56486  0.95041  0.14217  1.0000
  C   C54       1.0  0.05141  0.61506  0.19056  1.0000
  C   C55       1.0  0.49657  0.39764  0.10653  1.0000
  C   C56       1.0  0.60136  0.09550  0.10853  1.0000
  C   C57       1.0  0.90494  0.50705  0.11857  1.0000
  C   C58       1.0  0.50354  0.60129  0.11687  1.0000
  C   C59       1.0  0.39636  0.90187  0.11620  1.0000
  C   C60       1.0  0.09474  0.49103  0.10288  1.0000
  C   C61       1.0  0.47108  0.36669  0.03481  1.0000
  C   C62       1.0  0.63113  0.09925  0.04118  1.0000
  C   C63       1.0  0.90121  0.53312  0.04622  1.0000
  C   C64       1.0  0.52823  0.63185  0.04718  1.0000
  C   C65       1.0  0.36574  0.89659  0.04378  1.0000
  C   C66       1.0  0.09953  0.46591  0.02957  1.0000
  C   C67       1.0  0.66855  0.11261  0.45394  1.0000
  C   C68       1.0  0.88379  0.55568  0.46198  1.0000
  C   C69       1.0  0.55357  0.66789  0.45386  1.0000
  C   C70       1.0  0.10567  0.43826  0.43750  1.0000
  C   C71       1.0  0.69660  0.15468  0.41438  1.0000
  C   C72       1.0  0.84095  0.54318  0.45401  1.0000
  C   C73       1.0  0.53925  0.69558  0.41072  1.0000
  C   C74       1.0  0.14723  0.45120  0.40097  1.0000
  C   C75       1.0  0.73003  0.16384  0.32374  1.0000
  C   C76       1.0  0.82709  0.56548  0.36713  1.0000
  C   C77       1.0  0.56349  0.73006  0.32152  1.0000
  C   C78       1.0  0.15579  0.42582  0.31008  1.0000
  C   C79       1.0  0.73598  0.13150  0.26987  1.0000
  C   C80       1.0  0.85544  0.60030  0.28563  1.0000
  C   C81       1.0  0.60213  0.73748  0.27245  1.0000
  C   C82       1.0  0.12333  0.38729  0.25323  1.0000
  C   C83       1.0  0.70826  0.08970  0.30814  1.0000
  C   C84       1.0  0.89783  0.61246  0.29057  1.0000
  C   C85       1.0  0.61641  0.70999  0.31339  1.0000
  C   C86       1.0  0.08202  0.37420  0.28855  1.0000
  C   C87       1.0  0.67492  0.08023  0.39990  1.0000
  C   C88       1.0  0.91204  0.59049  0.37807  1.0000
  C   C89       1.0  0.59251  0.67554  0.40350  1.0000
  C   C90       1.0  0.07317  0.39934  0.37994  1.0000
  C   C91       1.0  0.56857  0.17489  0.90406  1.0000
  C   C92       1.0  0.82895  0.39602  0.92113  1.0000
  C   C93       1.0  0.43440  0.82747  0.91422  1.0000
  C   C94       1.0  0.58641  0.15597  0.81931  1.0000
  C   C95       1.0  0.84712  0.43185  0.83000  1.0000
  C   C96       1.0  0.41629  0.84681  0.82932  1.0000
  C   C97       1.0  0.62588  0.18228  0.75968  1.0000
  C   C98       1.0  0.82054  0.44450  0.76251  1.0000
  C   C99       1.0  0.37598  0.82088  0.76634  1.0000
  C   C100      1.0  0.64580  0.22581  0.78089  1.0000
  C   C101      1.0  0.77765  0.42155  0.78333  1.0000
  C   C102      1.0  0.35541  0.77736  0.78434  1.0000
  C   C103      1.0  0.62811  0.24502  0.86447  1.0000
  C   C104      1.0  0.75921  0.38550  0.87248  1.0000
  C   C105      1.0  0.37345  0.75761  0.86679  1.0000
  C   C106      1.0  0.58917  0.21838  0.92727  1.0000
  C   C107      1.0  0.78604  0.37356  0.94263  1.0000
  C   C108      1.0  0.41331  0.78391  0.93305  1.0000
  C   C109      1.0  0.53008  0.44117  0.67174  1.0000
  C   C110      1.0  0.56333  0.09085  0.66114  1.0000
  C   C111      1.0  0.90997  0.47348  0.67370  1.0000
  C   C112      1.0  0.47056  0.56198  0.66921  1.0000
  C   C113      1.0  0.43857  0.91061  0.67185  1.0000
  C   C114      1.0  0.08743  0.52478  0.65603  1.0000
  C   C115      1.0  0.51418  0.47210  0.68640  1.0000
  C   C116      1.0  0.53136  0.04405  0.67154  1.0000
  C   C117      1.0  0.95624  0.48718  0.68049  1.0000
  C   C118      1.0  0.48612  0.53078  0.68616  1.0000
  C   C119      1.0  0.47106  0.95740  0.67919  1.0000
  C   C120      1.0  0.04144  0.51114  0.66955  1.0000
  C   C121      1.0  0.47152  0.45841  0.68778  1.0000
  C   C122      1.0  0.54343  0.01364  0.67038  1.0000
  C   C123      1.0  0.98720  0.52974  0.67962  1.0000
  C   C124      1.0  0.52877  0.54444  0.69334  1.0000
  C   C125      1.0  0.45909  0.98788  0.68412  1.0000
  C   C126      1.0  0.01058  0.46864  0.67543  1.0000
  C   C127      1.0  0.54289  0.51561  0.69548  1.0000
  C   C128      1.0  0.48866  0.03078  0.67986  1.0000
  C   C129      1.0  0.96839  0.45655  0.68175  1.0000
  C   C130      1.0  0.45740  0.48724  0.69032  1.0000
  C   C131      1.0  0.51380  0.97066  0.67467  1.0000
  C   C132      1.0  0.02945  0.54186  0.67529  1.0000
  C   C133      1.0  0.64505  0.35604  0.87915  1.0000
  C   C134      1.0  0.64909  0.29141  0.87901  1.0000
  C   C135      1.0  0.71328  0.36037  0.88334  1.0000
  C   C136      1.0  0.35608  0.64639  0.87072  1.0000
  C   C137      1.0  0.35210  0.71108  0.87596  1.0000
  C   C138      1.0  0.28786  0.64200  0.86980  1.0000
  C   C139      1.0  0.68894  0.37984  0.88212  1.0000
  C   C140      1.0  0.62566  0.31185  0.87844  1.0000
  C   C141      1.0  0.69287  0.31614  0.88381  1.0000
  C   C142      1.0  0.31226  0.62261  0.86910  1.0000
  C   C143      1.0  0.37550  0.69056  0.87544  1.0000
  C   C144      1.0  0.30826  0.68628  0.87470  1.0000
  C   C145      1.0  0.61398  0.57141  0.72654  1.0000
  C   C146      1.0  0.43500  0.04897  0.69213  1.0000
  C   C147      1.0  0.94777  0.38312  0.69171  1.0000
  C   C148      1.0  0.38589  0.43166  0.70928  1.0000
  C   C149      1.0  0.56680  0.95205  0.64873  1.0000
  C   C150      1.0  0.04968  0.61506  0.68575  1.0000
  C   C151      1.0  0.49739  0.40051  0.61175  1.0000
  C   C152      1.0  0.60328  0.09797  0.60876  1.0000
  C   C153      1.0  0.90321  0.50725  0.62039  1.0000
  C   C154      1.0  0.50310  0.60238  0.61359  1.0000
  C   C155      1.0  0.39851  0.90415  0.61417  1.0000
  C   C156      1.0  0.09303  0.49073  0.59854  1.0000
  C   C157      1.0  0.47241  0.37001  0.53658  1.0000
  C   C158      1.0  0.63356  0.10340  0.54082  1.0000
  C   C159      1.0  0.89674  0.53166  0.54860  1.0000
  C   C160      1.0  0.52794  0.63248  0.54232  1.0000
  C   C161      1.0  0.36860  0.90040  0.54119  1.0000
  C   C162      1.0  0.09741  0.46515  0.52652  1.0000
  C   C163      1.0  0.44419  0.33022  0.94715  1.0000
  C   C164      1.0  0.89404  0.56086  0.95668  1.0000
  C   C165      1.0  0.33019  0.88776  0.95293  1.0000
  C   C166      1.0  0.45351  0.29753  0.93282  1.0000
  C   C167      1.0  0.85270  0.55168  0.92554  1.0000
  C   C168      1.0  0.29748  0.84574  0.93013  1.0000
  C   C169      1.0  0.42808  0.26220  0.84314  1.0000
  C   C170      1.0  0.84511  0.57789  0.83371  1.0000
  C   C171      1.0  0.26327  0.83681  0.83628  1.0000
  C   C172      1.0  0.39317  0.25880  0.76553  1.0000
  C   C173      1.0  0.87832  0.61345  0.77058  1.0000
  C   C174      1.0  0.26098  0.86936  0.76323  1.0000
  C   C175      1.0  0.38379  0.29113  0.77846  1.0000
  C   C176      1.0  0.91938  0.62274  0.80030  1.0000
  C   C177      1.0  0.29335  0.91110  0.78471  1.0000
  C   C178      1.0  0.40895  0.32652  0.86851  1.0000
  C   C179      1.0  0.92734  0.59680  0.89259  1.0000
  C   C180      1.0  0.32764  0.92031  0.87855  1.0000
  N   N1        1.0  0.54976  0.43814  0.30831  1.0000
  N   N2        1.0  0.56475  0.11181  0.30239  1.0000
  N   N3        1.0  0.89241  0.45490  0.31790  1.0000
  N   N4        1.0  0.45058  0.55985  0.30635  1.0000
  N   N5        1.0  0.43634  0.88865  0.31586  1.0000
  N   N6        1.0  0.11093  0.54505  0.30223  1.0000
  N   N7        1.0  0.55054  0.44022  0.81508  1.0000
  N   N8        1.0  0.56519  0.11176  0.80484  1.0000
  N   N9        1.0  0.89082  0.45451  0.81718  1.0000
  N   N10       1.0  0.45133  0.56364  0.80970  1.0000
  N   N11       1.0  0.43778  0.89106  0.81723  1.0000
  N   N12       1.0  0.10935  0.54416  0.80019  1.0000
  O   O1        1.0  0.58509  0.52527  0.16323  1.0000
  O   O2        1.0  0.47675  0.06055  0.19312  1.0000
  O   O3        1.0  0.93813  0.41483  0.19949  1.0000
  O   O4        1.0  0.41590  0.47376  0.18507  1.0000
  O   O5        1.0  0.52186  0.93723  0.16349  1.0000
  O   O6        1.0  0.06268  0.58343  0.17035  1.0000
  O   O7        1.0  0.58489  0.52736  0.70325  1.0000
  O   O8        1.0  0.47843  0.06236  0.68109  1.0000
  O   O9        1.0  0.93625  0.41494  0.68838  1.0000
  O   O10       1.0  0.41554  0.47564  0.69542  1.0000
  O   O11       1.0  0.52391  0.93902  0.67313  1.0000
  O   O12       1.0  0.06160  0.58360  0.67372  1.0000
  C   C181      1.0  0.38561  0.56531  0.43581  1.0000
  C   C182      1.0  0.41743  0.57454  0.33630  1.0000
  C  Sn1       1.0  0.43382  0.61119  0.25182  1.0000
  C  Sn2       1.0  0.41801  0.63905  0.26752  1.0000
  C   C183      1.0  0.38620  0.62954  0.36745  1.0000
  C   C184      1.0  0.37001  0.59278  0.45141  1.0000
  H   H145      1.0  0.37310  0.53688  0.50084  1.0000
  O  Te1       1.0  0.46559  0.61992  0.15287  1.0000
  O  Te2       1.0  0.43384  0.67589  0.18449  1.0000
  H   H146      1.0  0.34540  0.58565  0.52852  1.0000
  Mg  Mg1       1.0  0.47700  0.67404  0.06431  1.0000
  C   C185      1.0  0.43946  0.27254  0.36083  1.0000
  C   C186      1.0  0.40101  0.26115  0.29027  1.0000
  C  Sn3       1.0  0.38535  0.28873  0.29259  1.0000
  C  Sn4       1.0  0.40868  0.32844  0.36699  1.0000
  C   C187      1.0  0.44712  0.33955  0.43716  1.0000
  C   C188      1.0  0.46250  0.31170  0.43419  1.0000
  H   H147      1.0  0.45137  0.25100  0.35848  1.0000
  O  Te3       1.0  0.34688  0.27685  0.22157  1.0000
  O  Te4       1.0  0.39377  0.35662  0.37097  1.0000
  H   H148      1.0  0.49228  0.32054  0.48875  1.0000
  Mg  Mg2       1.0  0.33971  0.32608  0.25787  1.0000
  C   C189      1.0  0.21317  0.56957  0.75062  1.0000
  C   C190      1.0  0.23754  0.60820  0.82563  1.0000
  C  Sn5       1.0  0.21853  0.62612  0.90701  1.0000
  C  Sn6       1.0  0.17430  0.60488  0.91325  1.0000
  C   C191      1.0  0.15020  0.56623  0.83792  1.0000
  C   C192      1.0  0.16954  0.54859  0.75677  1.0000
  H   H149      1.0  0.22813  0.55591  0.68790  1.0000
  O  Te5       1.0  0.24334  0.66474  0.98125  1.0000
  O  Te6       1.0  0.15448  0.62206  0.99382  1.0000
  H   H150      1.0  0.15067  0.51867  0.69879  1.0000
  Mg  Mg3       1.0  0.19292  0.67084  0.07627  1.0000
  C   C193      1.0  0.42696  0.64377  0.75962  1.0000
  C   C194      1.0  0.38892  0.62934  0.82942  1.0000
  C  Sn7       1.0  0.37078  0.59130  0.90610  1.0000
  C  Sn8       1.0  0.39118  0.56734  0.91287  1.0000
  C   C195      1.0  0.42925  0.58206  0.84277  1.0000
  C   C196      1.0  0.44711  0.62016  0.76630  1.0000
  H   H151      1.0  0.44080  0.67326  0.70052  1.0000
  O  Te7       1.0  0.33275  0.57734  0.97515  1.0000
  O  Te8       1.0  0.37375  0.52922  0.98880  1.0000
  H   H152      1.0  0.47658  0.63134  0.71236  1.0000
  Mg  Mg4       1.0  0.31259  0.51883  0.06508  1.0000
  C   C197      1.0  0.81187  0.44387  0.25240  1.0000
  C   C198      1.0  0.84321  0.43905  0.32375  1.0000
  C  Sn9       1.0  0.83271  0.40528  0.41931  1.0000
  C  Sn10      1.0  0.79002  0.37584  0.44364  1.0000
  C   C199      1.0  0.75890  0.38093  0.37165  1.0000
  C   C200      1.0  0.76976  0.41484  0.27629  1.0000
  H   H153      1.0  0.82027  0.47009  0.17855  1.0000
  O  Te9       1.0  0.86441  0.40094  0.48974  1.0000
  O  Te10      1.0  0.77864  0.34180  0.53854  1.0000
  H   H154      1.0  0.74548  0.41855  0.22099  1.0000
  Mg  Mg5       1.0  0.83319  0.34936  0.60898  1.0000
  C   C201      1.0  0.57178  0.35771  0.77275  1.0000
  C   C202      1.0  0.61144  0.37278  0.83925  1.0000
  C  Sn11      1.0  0.63171  0.41186  0.91366  1.0000
  C  Sn12      1.0  0.61182  0.43624  0.92150  1.0000
  C   C203      1.0  0.57212  0.42087  0.85471  1.0000
  C   C204      1.0  0.55212  0.38173  0.78048  1.0000
  H   H155      1.0  0.55629  0.32741  0.71539  1.0000
  O  Te11      1.0  0.67135  0.42645  0.97944  1.0000
  O  Te12      1.0  0.63136  0.47540  0.99522  1.0000
  H   H156      1.0  0.52140  0.37006  0.72909  1.0000
  Mg  Mg6       1.0  0.67643  0.47718  0.06728  1.0000
  C   C205      1.0  0.63123  0.19320  0.22455  1.0000
  C   C206      1.0  0.59775  0.16181  0.30190  1.0000
  C  Sn13      1.0  0.57776  0.17273  0.40824  1.0000
  C  Sn14      1.0  0.59162  0.21590  0.43740  1.0000
  C   C207      1.0  0.62512  0.24706  0.35933  1.0000
  C   C208      1.0  0.64490  0.23578  0.25320  1.0000
  H   H157      1.0  0.64652  0.18447  0.14237  1.0000
  O  Te13      1.0  0.54437  0.14097  0.48455  1.0000
  O  Te14      1.0  0.57220  0.22769  0.54305  1.0000
  H   H158      1.0  0.67081  0.26009  0.19326  1.0000
  Mg  Mg7       1.0  0.52801  0.17289  0.61817  1.0000
  C   C209      1.0  0.69395  0.07401  0.82643  1.0000
  C   C210      1.0  0.72461  0.11249  0.77016  1.0000
  C  Sn15      1.0  0.72680  0.15012  0.81417  1.0000
  C  Sn16      1.0  0.69774  0.14911  0.91645  1.0000
  C   C211      1.0  0.66721  0.11046  0.97218  1.0000
  C   C212      1.0  0.66528  0.07299  0.92736  1.0000
  H   H159      1.0  0.69247  0.04502  0.79182  1.0000
  O  Te15      1.0  0.75762  0.18828  0.75683  1.0000
  O  Te16      1.0  0.69924  0.18625  0.96235  1.0000
  H   H160      1.0  0.64156  0.04321  0.97102  1.0000
  Mg  Mg8       1.0  0.74695  0.23044  0.85301  1.0000
  C   C213      1.0  0.07708  0.37959  0.79587  1.0000
  C   C214      1.0  0.11587  0.38762  0.74659  1.0000
  C  Sn17      1.0  0.15267  0.42263  0.80182  1.0000
  C  Sn18      1.0  0.15050  0.45003  0.90839  1.0000
  C   C215      1.0  0.11155  0.44170  0.95707  1.0000
  C   C216      1.0  0.07492  0.40659  0.90103  1.0000
  H   H161      1.0  0.04874  0.35241  0.75258  1.0000
  O  Te17      1.0  0.19116  0.43021  0.75134  1.0000
  O  Te18      1.0  0.18680  0.48524  0.96548  1.0000
  H   H162      1.0  0.04489  0.40036  0.93928  1.0000
  Mg  Mg9       1.0  0.23186  0.48226  0.86217  1.0000
  C   C217      1.0  0.27350  0.83977  0.34425  1.0000
  C   C218      1.0  0.26386  0.86859  0.27926  1.0000
  C  Sn19      1.0  0.29162  0.91193  0.29571  1.0000
  C  Sn20      1.0  0.32973  0.92659  0.37881  1.0000
  C   C219      1.0  0.33910  0.89751  0.44330  1.0000
  C   C220      1.0  0.31109  0.85421  0.42618  1.0000
  H   H163      1.0  0.25184  0.80627  0.33094  1.0000
  O  Te19      1.0  0.28149  0.94029  0.23009  1.0000
  O  Te20      1.0  0.35805  0.96974  0.39696  1.0000
  H   H164      1.0  0.31858  0.83190  0.47643  1.0000
  Mg  Mg10      1.0  0.33020  0.99601  0.28634  1.0000
  C   C221      1.0  0.20692  0.62635  0.43808  1.0000
  C   C222      1.0  0.23713  0.61743  0.38824  1.0000
  C  Sn21      1.0  0.22578  0.58339  0.29059  1.0000
  C  Sn22      1.0  0.18338  0.55787  0.24210  1.0000
  C   C223      1.0  0.15340  0.56707  0.29253  1.0000
  C   C224      1.0  0.16510  0.60120  0.39027  1.0000
  H   H165      1.0  0.21597  0.65277  0.51364  1.0000
  O  Te21      1.0  0.25635  0.57492  0.24192  1.0000
  O  Te22      1.0  0.17118  0.52366  0.14448  1.0000
  H   H166      1.0  0.14171  0.60811  0.42877  1.0000
  Mg  Mg11      1.0  0.22430  0.52481  0.10935  1.0000
  C   C225      1.0  0.61330  0.69686  0.82497  1.0000
  C   C226      1.0  0.60411  0.72670  0.76657  1.0000
  C  Sn23      1.0  0.56880  0.72769  0.81184  1.0000
  C  Sn24      1.0  0.54226  0.69823  0.91759  1.0000
  C   C227      1.0  0.55174  0.66852  0.97543  1.0000
  C   C228      1.0  0.58715  0.66780  0.92932  1.0000
  H   H167      1.0  0.64071  0.69631  0.78937  1.0000
  O  Te23      1.0  0.56008  0.75770  0.75234  1.0000
  O  Te24      1.0  0.50678  0.69852  0.96481  1.0000
  H   H168      1.0  0.59427  0.64471  0.97463  1.0000
  Mg  Mg12      1.0  0.50807  0.74549  0.85151  1.0000
