data_image0
_chemical_formula_structural       H96C180N24SnCSn2CSnTe4Mg2SnCSn2CSnTe4Mg2SnCSn2CSnTe4Mg2SnCSn2CSnTe4Mg2SnCSn2CSnTe4Mg2SnCSn2CSnTe4Mg2SnCSn2CSnTe4Mg2SnCSn2CSnTe4Mg2SnCSn2CSnTe4Mg2SnCSn2CSnTe4Mg2SnCSn2CSnTe4Mg2SnCSn2CSnTe4Mg2SnCSn2CSnTe4Mg2SnCSn2CSnTe4Mg2SnCSn2CSnTe4Mg2SnCSn2CSnTe4Mg2SnCSn2CSnTe4Mg2SnCSn2CSnTe4Mg2SnCSn2CSnTe4Mg2SnCSn2CSnTe4Mg2SnCSn2CSnTe4Mg2SnCSn2CSnTe4Mg2SnCSn2CSnTe4Mg2SnCSn2CSnTe4Mg2
_chemical_formula_sum              "H96 C228 N24 Sn96 Te96 Mg48"
_cell_length_a       43.7647
_cell_length_b       44.0691
_cell_length_c       10.2172
_cell_angle_alpha    91.0456
_cell_angle_beta     87.4674
_cell_angle_gamma    120.237

_symmetry_space_group_name_H-M    'P1'
_space_group_IT_number       1

loop_
  _space_group_symop_operation_xyz
  'x, y, z'

loop_
  _atom_site_type_symbol
  _atom_site_label
  _atom_site_symmetry_multiplicity
  _atom_site_fract_x
  _atom_site_fract_y
  _atom_site_fract_z
  _atom_site_occupancy
  H   H1        1.0  0.67614  0.53561  0.06817  1.0000
  H   H2        1.0  0.34267  0.44326  0.43845  1.0000
  H   H3        1.0  0.66345  0.48030  0.25754  1.0000
  H   H4        1.0  0.70424  0.45946  0.16699  1.0000
  H   H5        1.0  0.73521  0.54343  0.06931  1.0000
  H   H6        1.0  0.29506  0.48561  0.61615  1.0000
  H   H7        1.0  0.22613  0.38099  0.83438  1.0000
  H   H8        1.0  0.29019  0.40379  0.87791  1.0000
  H   H9        1.0  0.21207  0.49611  0.17750  1.0000
  H   H10       1.0  0.11991  0.43430  0.44197  1.0000
  H   H11       1.0  0.15021  0.40671  0.31448  1.0000
  H   H12       1.0  0.15615  0.49719  0.22350  1.0000
  H   H13       1.0  0.79101  0.45930  0.18757  1.0000
  H   H14       1.0  0.84921  0.48219  0.29355  1.0000
  H   H15       1.0  0.82725  0.54786  0.07932  1.0000
  H   H16       1.0  0.88998  0.51354  0.43193  1.0000
  H   H17       1.0  0.50497  0.63677  0.41377  1.0000
  H   H18       1.0  0.49567  0.35415  0.06847  1.0000
  H   H19       1.0  0.54062  0.73026  0.10370  1.0000
  H   H20       1.0  0.45994  0.69843  0.21929  1.0000
  H   H21       1.0  0.47812  0.65593  0.28881  1.0000
  H   H22       1.0  0.41672  0.31982  0.28299  1.0000
  H   H23       1.0  0.39319  0.26811  0.43620  1.0000
  H   H24       1.0  0.48892  0.29267  0.08501  1.0000
  H   H25       1.0  0.40053  0.19177  0.56591  1.0000
  H   H26       1.0  0.42839  0.15408  0.54855  1.0000
  H   H27       1.0  0.48875  0.20696  0.19545  1.0000
  H   H28       1.0  0.54478  0.82151  0.16012  1.0000
  H   H29       1.0  0.48294  0.84085  0.40029  1.0000
  H   H30       1.0  0.46233  0.78516  0.27044  1.0000
  H   H31       1.0  0.46575  0.13761  0.46051  1.0000
  H   H32       1.0  0.54504  0.87864  0.18947  1.0000
  H   H33       1.0  0.67393  0.16979  0.38255  1.0000
  H   H34       1.0  0.92568  0.35222  0.45242  1.0000
  H   H35       1.0  0.15995  0.67594  0.29019  1.0000
  H   H36       1.0  0.39430  0.88661  0.06879  1.0000
  H   H37       1.0  0.72532  0.12389  0.39690  1.0000
  H   H38       1.0  0.79076  0.15143  0.42972  1.0000
  H   H39       1.0  0.72837  0.22098  0.88448  1.0000
  H   H40       1.0  0.81920  0.31036  0.94589  1.0000
  H   H41       1.0  0.88015  0.23320  0.46429  1.0000
  H   H42       1.0  0.91670  0.29897  0.47348  1.0000
  H   H43       1.0  0.19255  0.65970  0.97431  1.0000
  H   H44       1.0  0.25205  0.69778  0.85940  1.0000
  H   H45       1.0  0.21492  0.73653  0.27897  1.0000
  H   H46       1.0  0.30680  0.82616  0.26120  1.0000
  H   H47       1.0  0.33983  0.78289  0.84272  1.0000
  H   H48       1.0  0.38034  0.84230  0.93661  1.0000
  H   H49       1.0  0.68066  0.54094  0.53874  1.0000
  H   H50       1.0  0.34226  0.44034  0.97608  1.0000
  H   H51       1.0  0.66576  0.48752  0.75502  1.0000
  H   H52       1.0  0.70862  0.47022  0.65543  1.0000
  H   H53       1.0  0.73955  0.54808  0.53649  1.0000
  H   H54       1.0  0.29739  0.49003  0.10869  1.0000
  H   H55       1.0  0.23201  0.39702  0.25637  1.0000
  H   H56       1.0  0.29388  0.41496  0.31469  1.0000
  H   H57       1.0  0.20902  0.49129  0.68833  1.0000
  H   H58       1.0  0.11491  0.42154  0.99816  1.0000
  H   H59       1.0  0.14351  0.38999  0.88744  1.0000
  H   H60       1.0  0.15465  0.49531  0.72310  1.0000
  H   H61       1.0  0.79625  0.47162  0.67110  1.0000
  H   H62       1.0  0.85272  0.49137  0.78554  1.0000
  H   H63       1.0  0.83010  0.55002  0.55220  1.0000
  H   H64       1.0  0.89045  0.51710  0.93878  1.0000
  H   H65       1.0  0.51374  0.64893  0.89182  1.0000
  H   H66       1.0  0.49597  0.34945  0.56242  1.0000
  H   H67       1.0  0.53569  0.72131  0.61324  1.0000
  H   H68       1.0  0.45916  0.70637  0.72717  1.0000
  H   H69       1.0  0.48089  0.66532  0.78184  1.0000
  H   H70       1.0  0.41812  0.31357  0.78041  1.0000
  H   H71       1.0  0.39717  0.26249  0.93640  1.0000
  H   H72       1.0  0.49090  0.28821  0.57512  1.0000
  H   H73       1.0  0.40718  0.18893  0.06524  1.0000
  H   H74       1.0  0.43657  0.15245  0.04945  1.0000
  H   H75       1.0  0.49512  0.20454  0.69238  1.0000
  H   H76       1.0  0.53980  0.81275  0.66150  1.0000
  H   H77       1.0  0.48409  0.84882  0.91645  1.0000
  H   H78       1.0  0.46111  0.79255  0.78807  1.0000
  H   H79       1.0  0.47446  0.13768  0.96598  1.0000
  H   H80       1.0  0.53801  0.86807  0.69213  1.0000
  H   H81       1.0  0.67288  0.16329  0.86150  1.0000
  H   H82       1.0  0.91940  0.35446  0.00722  1.0000
  H   H83       1.0  0.15672  0.68562  0.76103  1.0000
  H   H84       1.0  0.40321  0.87780  0.61589  1.0000
  H   H85       1.0  0.73110  0.12471  0.84348  1.0000
  H   H86       1.0  0.79573  0.15522  0.89550  1.0000
  H   H87       1.0  0.73093  0.22447  0.41699  1.0000
  H   H88       1.0  0.82468  0.31058  0.45866  1.0000
  H   H89       1.0  0.87818  0.23728  0.99877  1.0000
  H   H90       1.0  0.91103  0.30259  0.02767  1.0000
  H   H91       1.0  0.19438  0.65778  0.48447  1.0000
  H   H92       1.0  0.25626  0.69158  0.38368  1.0000
  H   H93       1.0  0.21247  0.74358  0.74184  1.0000
  H   H94       1.0  0.30549  0.83160  0.71986  1.0000
  H   H95       1.0  0.34782  0.77298  0.38311  1.0000
  H   H96       1.0  0.38877  0.83303  0.47187  1.0000
  C   C1        1.0  0.49278  0.50245  0.06682  1.0000
  C   C2        1.0  0.52585  0.53220  0.06661  1.0000
  C   C3        1.0  0.67148  0.52406  0.96948  1.0000
  C   C4        1.0  0.33423  0.46074  0.48480  1.0000
  C   C5        1.0  0.69805  0.51614  0.91407  1.0000
  C   C6        1.0  0.29759  0.45105  0.46528  1.0000
  C   C7        1.0  0.68959  0.49034  0.29610  1.0000
  C   C8        1.0  0.71218  0.47850  0.24593  1.0000
  C   C9        1.0  0.74457  0.49265  0.30316  1.0000
  C   C10       1.0  0.75402  0.51957  0.92270  1.0000
  C   C11       1.0  0.73049  0.52842  0.97924  1.0000
  C   C12       1.0  0.28059  0.46654  0.54080  1.0000
  C   C13       1.0  0.24632  0.45548  0.51078  1.0000
  C   C14       1.0  0.22876  0.43074  0.40805  1.0000
  C   C15       1.0  0.24093  0.40444  0.89276  1.0000
  C   C16       1.0  0.27972  0.42604  0.36822  1.0000
  C   C17       1.0  0.77861  0.49285  0.31021  1.0000
  C   C18       1.0  0.19413  0.42646  0.97063  1.0000
  C   C19       1.0  0.21348  0.45665  0.05093  1.0000
  C   C20       1.0  0.19794  0.47366  0.11353  1.0000
  C   C21       1.0  0.16132  0.46003  0.09077  1.0000
  C   C22       1.0  0.14272  0.43042  0.01062  1.0000
  C   C23       1.0  0.16304  0.42452  0.39502  1.0000
  C   C24       1.0  0.14249  0.47698  0.14889  1.0000
  C   C25       1.0  0.00512  0.50092  0.26648  1.0000
  C   C26       1.0  0.79899  0.47890  0.26450  1.0000
  C   C27       1.0  0.83171  0.49205  0.32438  1.0000
  C   C28       1.0  0.84288  0.51719  0.42493  1.0000
  C   C29       1.0  0.82001  0.53195  0.99114  1.0000
  C   C30       1.0  0.78914  0.52073  0.92786  1.0000
  C   C31       1.0  0.87592  0.52546  0.48255  1.0000
  C   C32       1.0  0.00487  0.53169  0.25135  1.0000
  C   C33       1.0  0.51265  0.65713  0.48912  1.0000
  C   C34       1.0  0.50639  0.68546  0.45581  1.0000
  C   C35       1.0  0.46822  0.34249  0.10758  1.0000
  C   C36       1.0  0.45321  0.30892  0.17759  1.0000
  C   C37       1.0  0.52350  0.72621  0.02325  1.0000
  C   C38       1.0  0.51271  0.74917  0.98819  1.0000
  C   C39       1.0  0.48913  0.74181  0.88330  1.0000
  C   C40       1.0  0.47579  0.70362  0.30471  1.0000
  C   C41       1.0  0.48601  0.67972  0.34550  1.0000
  C   C42       1.0  0.42620  0.30129  0.27351  1.0000
  C   C43       1.0  0.41284  0.27227  0.35897  1.0000
  C   C44       1.0  0.42757  0.25113  0.34100  1.0000
  C   C45       1.0  0.45413  0.25760  0.24058  1.0000
  C   C46       1.0  0.46794  0.28649  0.15920  1.0000
  C   C47       1.0  0.49005  0.77573  0.90683  1.0000
  C   C48       1.0  0.42977  0.22069  0.39009  1.0000
  C   C49       1.0  0.41922  0.19534  0.48572  1.0000
  C   C50       1.0  0.43508  0.17429  0.47507  1.0000
  C   C51       1.0  0.45890  0.17774  0.37147  1.0000
  C   C52       1.0  0.47005  0.20464  0.27378  1.0000
  C   C53       1.0  0.45564  0.22596  0.28792  1.0000
  C   C54       1.0  0.51380  0.78391  0.01105  1.0000
  C   C55       1.0  0.52689  0.81486  0.08005  1.0000
  C   C56       1.0  0.51496  0.83822  0.04284  1.0000
  C   C57       1.0  0.49164  0.82957  0.93952  1.0000
  C   C58       1.0  0.47844  0.79044  0.35519  1.0000
  C   C59       1.0  0.47012  0.15175  0.36763  1.0000
  C   C60       1.0  0.52621  0.87162  0.11088  1.0000
  C   C61       1.0  0.52810  0.02080  0.24966  1.0000
  C   C62       1.0  0.49725  0.02215  0.25776  1.0000
  C   C63       1.0  0.68703  0.15401  0.37910  1.0000
  C   C64       1.0  0.72482  0.17203  0.40547  1.0000
  C   C65       1.0  0.89774  0.34527  0.46203  1.0000
  C   C66       1.0  0.87287  0.30775  0.47005  1.0000
  C   C67       1.0  0.16519  0.67166  0.18709  1.0000
  C   C68       1.0  0.20050  0.69574  0.12909  1.0000
  C   C69       1.0  0.37162  0.87288  0.13864  1.0000
  C   C70       1.0  0.34578  0.83731  0.10032  1.0000
  C   C71       1.0  0.74177  0.15209  0.40993  1.0000
  C   C72       1.0  0.77825  0.16736  0.42790  1.0000
  C   C73       1.0  0.79670  0.20342  0.44151  1.0000
  C   C74       1.0  0.77895  0.22419  0.91193  1.0000
  C   C75       1.0  0.74342  0.20748  0.88704  1.0000
  C   C76       1.0  0.83074  0.29381  0.95820  1.0000
  C   C77       1.0  0.81298  0.25794  0.94375  1.0000
  C   C78       1.0  0.83182  0.23554  0.45711  1.0000
  C   C79       1.0  0.86772  0.24923  0.46516  1.0000
  C   C80       1.0  0.88799  0.28621  0.47122  1.0000
  C   C81       1.0  0.21127  0.68533  0.01300  1.0000
  C   C82       1.0  0.24441  0.70644  0.94892  1.0000
  C   C83       1.0  0.26598  0.73837  0.00713  1.0000
  C   C84       1.0  0.25571  0.74949  0.12515  1.0000
  C   C85       1.0  0.22338  0.72881  0.18888  1.0000
  C   C86       1.0  0.31287  0.81608  0.17190  1.0000
  C   C87       1.0  0.29100  0.78373  0.11893  1.0000
  C   C88       1.0  0.30062  0.77180  0.00079  1.0000
  C   C89       1.0  0.33240  0.79156  0.93262  1.0000
  C   C90       1.0  0.35486  0.82498  0.98592  1.0000
  C   C91       1.0  0.49015  0.49534  0.57083  1.0000
  C   C92       1.0  0.52384  0.52428  0.56772  1.0000
  C   C93       1.0  0.67310  0.52408  0.45147  1.0000
  C   C94       1.0  0.33382  0.45896  0.00964  1.0000
  C   C95       1.0  0.69892  0.51482  0.39895  1.0000
  C   C96       1.0  0.29682  0.44779  0.99227  1.0000
  C   C97       1.0  0.69098  0.49587  0.79909  1.0000
  C   C98       1.0  0.71484  0.48623  0.74332  1.0000
  C   C99       1.0  0.74610  0.49844  0.80718  1.0000
  C   C100      1.0  0.75484  0.51808  0.40584  1.0000
  C   C101      1.0  0.73277  0.52955  0.45601  1.0000
  C   C102      1.0  0.28132  0.46704  0.04969  1.0000
  C   C103      1.0  0.24633  0.45399  0.02625  1.0000
  C   C104      1.0  0.22642  0.42336  0.94765  1.0000
  C   C105      1.0  0.24471  0.41552  0.33523  1.0000
  C   C106      1.0  0.27698  0.41748  0.91789  1.0000
  C   C107      1.0  0.78045  0.49915  0.81267  1.0000
  C   C108      1.0  0.19664  0.43402  0.43258  1.0000
  C   C109      1.0  0.21344  0.45826  0.53657  1.0000
  C   C110      1.0  0.19689  0.47310  0.60793  1.0000
  C   C111      1.0  0.16207  0.46357  0.57021  1.0000
  C   C112      1.0  0.14623  0.44002  0.46618  1.0000
  C   C113      1.0  0.15866  0.41281  0.94849  1.0000
  C   C114      1.0  0.14234  0.47843  0.63816  1.0000
  C   C115      1.0  0.00579  0.50264  0.78166  1.0000
  C   C116      1.0  0.80231  0.48785  0.75824  1.0000
  C   C117      1.0  0.83414  0.49932  0.82270  1.0000
  C   C118      1.0  0.84318  0.52055  0.93507  1.0000
  C   C119      1.0  0.82121  0.53121  0.47234  1.0000
  C   C120      1.0  0.78959  0.51858  0.41280  1.0000
  C   C121      1.0  0.87575  0.52773  0.99384  1.0000
  C   C122      1.0  0.00536  0.53309  0.75650  1.0000
  C   C123      1.0  0.51802  0.66702  0.97369  1.0000
  C   C124      1.0  0.51060  0.69496  0.94572  1.0000
  C   C125      1.0  0.46838  0.33660  0.60077  1.0000
  C   C126      1.0  0.45470  0.30333  0.67128  1.0000
  C   C127      1.0  0.51946  0.71725  0.52991  1.0000
  C   C128      1.0  0.50982  0.74062  0.48875  1.0000
  C   C129      1.0  0.48793  0.73367  0.37860  1.0000
  C   C130      1.0  0.47655  0.71196  0.80808  1.0000
  C   C131      1.0  0.48863  0.68884  0.84037  1.0000
  C   C132      1.0  0.42818  0.29551  0.76973  1.0000
  C   C133      1.0  0.41632  0.26700  0.85671  1.0000
  C   C134      1.0  0.43200  0.24677  0.83746  1.0000
  C   C135      1.0  0.45811  0.25345  0.73501  1.0000
  C   C136      1.0  0.47046  0.28183  0.65181  1.0000
  C   C137      1.0  0.48917  0.76785  0.39805  1.0000
  C   C138      1.0  0.43545  0.21723  0.88733  1.0000
  C   C139      1.0  0.42571  0.19245  0.98448  1.0000
  C   C140      1.0  0.44241  0.17219  0.97485  1.0000
  C   C141      1.0  0.46636  0.17606  0.87118  1.0000
  C   C142      1.0  0.47633  0.20208  0.77068  1.0000
  C   C143      1.0  0.46099  0.22261  0.78350  1.0000
  C   C144      1.0  0.51117  0.77558  0.50780  1.0000
  C   C145      1.0  0.52319  0.80629  0.57745  1.0000
  C   C146      1.0  0.51201  0.82989  0.53512  1.0000
  C   C147      1.0  0.49032  0.82165  0.42675  1.0000
  C   C148      1.0  0.47858  0.79812  0.86873  1.0000
  C   C149      1.0  0.47866  0.15098  0.87127  1.0000
  C   C150      1.0  0.52217  0.86275  0.60504  1.0000
  C   C151      1.0  0.52868  0.01328  0.75609  1.0000
  C   C152      1.0  0.49953  0.01754  0.77474  1.0000
  C   C153      1.0  0.68826  0.15009  0.84110  1.0000
  C   C154      1.0  0.72638  0.17046  0.86326  1.0000
  C   C155      1.0  0.89208  0.34743  0.98718  1.0000
  C   C156      1.0  0.86744  0.30975  0.98795  1.0000
  C   C157      1.0  0.16402  0.67617  0.67122  1.0000
  C   C158      1.0  0.20012  0.69829  0.61595  1.0000
  C   C159      1.0  0.37546  0.87053  0.63766  1.0000
  C   C160      1.0  0.34930  0.83536  0.59667  1.0000
  C   C161      1.0  0.74561  0.15271  0.86410  1.0000
  C   C162      1.0  0.78165  0.16966  0.89286  1.0000
  C   C163      1.0  0.79739  0.20517  0.91855  1.0000
  C   C164      1.0  0.78002  0.22417  0.43889  1.0000
  C   C165      1.0  0.74429  0.20933  0.42134  1.0000
  C   C166      1.0  0.83534  0.29304  0.46233  1.0000
  C   C167      1.0  0.81580  0.25710  0.45538  1.0000
  C   C168      1.0  0.83028  0.23773  0.95433  1.0000
  C   C169      1.0  0.86500  0.25236  0.98788  1.0000
  C   C170      1.0  0.88315  0.28909  0.00505  1.0000
  C   C171      1.0  0.21269  0.68437  0.51609  1.0000
  C   C172      1.0  0.24724  0.70310  0.46011  1.0000
  C   C173      1.0  0.26828  0.73651  0.50835  1.0000
  C   C174      1.0  0.25579  0.75159  0.60701  1.0000
  C   C175      1.0  0.22224  0.73310  0.66401  1.0000
  C   C176      1.0  0.31341  0.81824  0.64732  1.0000
  C   C177      1.0  0.29177  0.78496  0.60151  1.0000
  C   C178      1.0  0.30391  0.76888  0.50502  1.0000
  C   C179      1.0  0.33833  0.78501  0.45554  1.0000
  C   C180      1.0  0.36108  0.81880  0.50579  1.0000
  N   N1        1.0  0.52473  0.65346  0.59787  1.0000
  N   N2        1.0  0.64278  0.51156  0.39802  1.0000
  N   N3        1.0  0.45034  0.35836  0.09938  1.0000
  N   N4        1.0  0.35640  0.48817  0.54816  1.0000
  N   N5        1.0  0.11150  0.46779  0.10808  1.0000
  N   N6        1.0  0.88738  0.54403  0.10362  1.0000
  N   N7        1.0  0.14251  0.64646  0.11584  1.0000
  N   N8        1.0  0.88958  0.36973  0.45807  1.0000
  N   N9        1.0  0.48309  0.14432  0.26355  1.0000
  N   N10       1.0  0.51353  0.89087  0.07411  1.0000
  N   N11       1.0  0.67103  0.12124  0.34741  1.0000
  N   N12       1.0  0.37018  0.88850  0.24494  1.0000
  N   N13       1.0  0.52667  0.66157  0.08683  1.0000
  N   N14       1.0  0.64387  0.51677  0.90448  1.0000
  N   N15       1.0  0.44928  0.35118  0.59268  1.0000
  N   N16       1.0  0.35633  0.48906  0.05727  1.0000
  N   N17       1.0  0.11207  0.47133  0.59543  1.0000
  N   N18       1.0  0.88840  0.54383  0.58793  1.0000
  N   N19       1.0  0.14307  0.64701  0.61350  1.0000
  N   N20       1.0  0.88556  0.37196  0.95579  1.0000
  N   N21       1.0  0.49196  0.14307  0.76942  1.0000
  N   N22       1.0  0.51135  0.88322  0.56372  1.0000
  N   N23       1.0  0.67401  0.11813  0.79970  1.0000
  N   N24       1.0  0.36817  0.89292  0.69278  1.0000
  C  Sn1       1.0  0.52092  0.59600  0.73093  1.0000
  C   C181      1.0  0.53646  0.62388  0.64140  1.0000
  C  Sn2       1.0  0.54720  0.61915  0.51562  1.0000
  C  Sn3       1.0  0.54228  0.58585  0.47852  1.0000
  C   C182      1.0  0.52674  0.55800  0.56801  1.0000
  C  Sn4       1.0  0.51600  0.56271  0.69383  1.0000
  O  Te1       1.0  0.51038  0.60133  0.85615  1.0000
  O  Te2       1.0  0.56268  0.64741  0.42783  1.0000
  O  Te3       1.0  0.55283  0.58055  0.35319  1.0000
  O  Te4       1.0  0.50051  0.53446  0.78157  1.0000
  Mg  Mg1       1.0  0.57265  0.62710  0.26846  1.0000
  Mg  Mg2       1.0  0.49052  0.55474  0.94094  1.0000
  C  Sn5       1.0  0.53759  0.61647  0.97553  1.0000
  C   C183      1.0  0.52889  0.62760  0.05883  1.0000
  C  Sn6       1.0  0.51215  0.60852  0.17329  1.0000
  C  Sn7       1.0  0.51512  0.57895  0.20521  1.0000
  C   C184      1.0  0.53476  0.56907  0.12194  1.0000
  C  Sn8       1.0  0.55151  0.58814  0.00744  1.0000
  O  Te5       1.0  0.55411  0.63593  0.86162  1.0000
  O  Te6       1.0  0.49264  0.61891  0.25502  1.0000
  O  Te7       1.0  0.49857  0.55949  0.31923  1.0000
  O  Te8       1.0  0.56006  0.57652  0.92576  1.0000
  Mg  Mg3       1.0  0.47499  0.58400  0.39924  1.0000
  Mg  Mg4       1.0  0.57774  0.61142  0.78156  1.0000
  C  Sn9       1.0  0.55610  0.48953  0.43632  1.0000
  C   C185      1.0  0.55336  0.51069  0.53425  1.0000
  C  Sn10      1.0  0.58377  0.53920  0.58312  1.0000
  C  Sn11      1.0  0.61763  0.54674  0.53300  1.0000
  C   C186      1.0  0.62036  0.52559  0.43511  1.0000
  C  Sn12      1.0  0.58995  0.49706  0.38620  1.0000
  O  Te9       1.0  0.52534  0.46116  0.38891  1.0000
  O  Te10      1.0  0.58037  0.55997  0.68106  1.0000
  O  Te11      1.0  0.64840  0.57514  0.58050  1.0000
  O  Te12      1.0  0.59335  0.47631  0.28830  1.0000
  Mg  Mg5       1.0  0.63007  0.59572  0.71398  1.0000
  Mg  Mg6       1.0  0.54367  0.44057  0.25526  1.0000
  C  Sn13      1.0  0.60879  0.53602  0.10089  1.0000
  C   C187      1.0  0.60203  0.51745  0.99171  1.0000
  C  Sn14      1.0  0.57934  0.50821  0.88770  1.0000
  C  Sn15      1.0  0.55192  0.51649  0.89287  1.0000
  C   C188      1.0  0.55869  0.53507  0.00198  1.0000
  C  Sn16      1.0  0.58137  0.54431  0.10606  1.0000
  O  Te13      1.0  0.63178  0.54501  0.20375  1.0000
  O  Te14      1.0  0.58404  0.49088  0.77961  1.0000
  O  Te15      1.0  0.52892  0.50749  0.78989  1.0000
  O  Te16      1.0  0.57668  0.56163  0.21408  1.0000
  Mg  Mg7       1.0  0.54600  0.48413  0.66388  1.0000
  Mg  Mg8       1.0  0.61471  0.56841  0.32983  1.0000
  C  Sn17      1.0  0.41666  0.46186  0.61778  1.0000
  C   C189      1.0  0.44911  0.48707  0.56067  1.0000
  C  Sn18      1.0  0.45342  0.51852  0.51250  1.0000
  C  Sn19      1.0  0.42471  0.52491  0.52167  1.0000
  C   C190      1.0  0.39229  0.49971  0.57877  1.0000
  C  Sn20      1.0  0.38795  0.46825  0.62695  1.0000
  O  Te17      1.0  0.41294  0.43061  0.66529  1.0000
  O  Te18      1.0  0.48611  0.54333  0.45578  1.0000
  O  Te19      1.0  0.42845  0.55619  0.47409  1.0000
  O  Te20      1.0  0.35529  0.44346  0.68366  1.0000
  Mg  Mg9       1.0  0.47813  0.58188  0.40528  1.0000
  Mg  Mg10      1.0  0.36324  0.40491  0.73424  1.0000
  C  Sn21      1.0  0.40519  0.47824  0.18796  1.0000
  C   C191      1.0  0.39453  0.49763  0.11536  1.0000
  C  Sn22      1.0  0.41591  0.51877  0.01098  1.0000
  C  Sn23      1.0  0.43768  0.51932  0.97842  1.0000
  C   C192      1.0  0.45926  0.50118  0.05099  1.0000
  C  Sn24      1.0  0.43790  0.48003  0.15541  1.0000
  O  Te21      1.0  0.38339  0.45728  0.29190  1.0000
  O  Te22      1.0  0.39375  0.53668  0.93985  1.0000
  O  Te23      1.0  0.45948  0.54031  0.87438  1.0000
  O  Te24      1.0  0.44909  0.46088  0.22649  1.0000
  Mg  Mg11      1.0  0.43269  0.56147  0.80678  1.0000
  Mg  Mg12      1.0  0.41018  0.43608  0.35953  1.0000
  C  Sn25      1.0  0.50772  0.44173  0.62324  1.0000
  C   C193      1.0  0.49407  0.45784  0.54724  1.0000
  C  Sn26      1.0  0.46213  0.43766  0.48526  1.0000
  C  Sn27      1.0  0.44344  0.40059  0.49960  1.0000
  C   C194      1.0  0.45709  0.38449  0.57557  1.0000
  C  Sn28      1.0  0.48903  0.40466  0.63757  1.0000
  O  Te25      1.0  0.53969  0.46243  0.68432  1.0000
  O  Te26      1.0  0.44902  0.45436  0.40975  1.0000
  O  Te27      1.0  0.41145  0.37989  0.43843  1.0000
  O  Te28      1.0  0.50214  0.38797  0.71306  1.0000
  Mg  Mg13      1.0  0.40439  0.41483  0.34590  1.0000
  Mg  Mg14      1.0  0.54676  0.42748  0.77701  1.0000
  C  Sn29      1.0  0.49223  0.42644  0.17373  1.0000
  C   C195      1.0  0.46549  0.39829  0.10682  1.0000
  C  Sn30      1.0  0.44072  0.40304  0.99595  1.0000
  C  Sn31      1.0  0.45391  0.43788  0.95096  1.0000
  C   C196      1.0  0.49158  0.46724  0.01784  1.0000
  C  Sn32      1.0  0.50542  0.46128  0.12874  1.0000
  O  Te29      1.0  0.50567  0.41984  0.28434  1.0000
  O  Te30      1.0  0.41398  0.37448  0.93071  1.0000
  O  Te31      1.0  0.44045  0.44446  0.84025  1.0000
  O  Te32      1.0  0.53214  0.48981  0.19394  1.0000
  Mg  Mg15      1.0  0.40422  0.39690  0.78470  1.0000
  Mg  Mg16      1.0  0.54194  0.46742  0.33992  1.0000
  C  Sn33      1.0  0.08276  0.49399  0.30182  1.0000
  C   C197      1.0  0.08544  0.47696  0.18891  1.0000
  C  Sn34      1.0  0.06542  0.47340  0.08085  1.0000
  C  Sn35      1.0  0.04226  0.48716  0.08572  1.0000
  C   C198      1.0  0.03960  0.50419  0.19856  1.0000
  C  Sn36      1.0  0.05960  0.50776  0.30668  1.0000
  O  Te33      1.0  0.10302  0.49726  0.40867  1.0000
  O  Te34      1.0  0.05759  0.45501  0.96908  1.0000
  O  Te35      1.0  0.01105  0.48264  0.97873  1.0000
  O  Te36      1.0  0.05649  0.52490  0.41839  1.0000
  Mg  Mg17      1.0  0.02451  0.45715  0.84864  1.0000
  Mg  Mg18      1.0  0.08958  0.52278  0.53886  1.0000
  C  Sn37      1.0  0.93855  0.50567  0.14991  1.0000
  C   C199      1.0  0.96986  0.53138  0.20445  1.0000
  C  Sn38      1.0  0.97282  0.56273  0.25083  1.0000
  C  Sn39      1.0  0.94387  0.56849  0.24261  1.0000
  C   C200      1.0  0.91257  0.54279  0.18813  1.0000
  C  Sn40      1.0  0.90959  0.51143  0.14170  1.0000
  O  Te37      1.0  0.93618  0.47453  0.10417  1.0000
  O  Te38      1.0  0.00440  0.58805  0.30490  1.0000
  O  Te39      1.0  0.94626  0.59967  0.28841  1.0000
  O  Te40      1.0  0.87804  0.48612  0.08767  1.0000
  Mg  Mg19      1.0  0.99476  0.62620  0.35389  1.0000
  Mg  Mg20      1.0  0.88764  0.44796  0.03872  1.0000
  C  Sn41      1.0  0.06869  0.56476  0.10261  1.0000
  C   C201      1.0  0.04647  0.56043  0.21184  1.0000
  C  Sn42      1.0  0.05380  0.58878  0.29408  1.0000
  C  Sn43      1.0  0.08395  0.62215  0.26652  1.0000
  C   C202      1.0  0.10616  0.62647  0.15734  1.0000
  C  Sn44      1.0  0.09885  0.59813  0.07506  1.0000
  O  Te41      1.0  0.06086  0.53606  0.02173  1.0000
  O  Te42      1.0  0.03119  0.58381  0.40273  1.0000
  O  Te43      1.0  0.09178  0.65086  0.34752  1.0000
  O  Te44      1.0  0.11048  0.60185  0.96646  1.0000
  Mg  Mg21      1.0  0.05303  0.63094  0.48365  1.0000
  Mg  Mg22      1.0  0.08867  0.55474  0.88543  1.0000
  C  Sn45      1.0  0.95451  0.45911  0.46686  1.0000
  C   C203      1.0  0.97574  0.46489  0.35322  1.0000
  C  Sn46      1.0  0.96547  0.43900  0.25704  1.0000
  C  Sn47      1.0  0.93330  0.40666  0.27476  1.0000
  C   C204      1.0  0.91210  0.40090  0.38833  1.0000
  C  Sn48      1.0  0.92235  0.42678  0.48458  1.0000
  O  Te45      1.0  0.96530  0.48537  0.56171  1.0000
  O  Te46      1.0  0.98713  0.44537  0.14428  1.0000
  O  Te47      1.0  0.92253  0.38040  0.17979  1.0000
  O  Te48      1.0  0.90070  0.42041  0.59727  1.0000
  Mg  Mg23      1.0  0.96105  0.40149  0.04308  1.0000
  Mg  Mg24      1.0  0.92675  0.46428  0.69850  1.0000
  C  Sn49      1.0  0.45938  0.05669  0.32188  1.0000
  C   C205      1.0  0.48465  0.05193  0.25069  1.0000
  C  Sn50      1.0  0.51456  0.08064  0.19311  1.0000
  C  Sn51      1.0  0.51932  0.11483  0.20703  1.0000
  C   C206      1.0  0.49406  0.11957  0.27820  1.0000
  C  Sn52      1.0  0.46414  0.09087  0.33580  1.0000
  O  Te49      1.0  0.42969  0.02761  0.37862  1.0000
  O  Te50      1.0  0.53946  0.07523  0.12236  1.0000
  O  Te51      1.0  0.54905  0.14391  0.15021  1.0000
  O  Te52      1.0  0.43926  0.09628  0.40653  1.0000
  Mg  Mg25      1.0  0.57553  0.12314  0.06331  1.0000
  Mg  Mg26      1.0  0.40319  0.04839  0.46568  1.0000
  C  Sn53      1.0  0.51757  0.95290  0.03160  1.0000
  C   C207      1.0  0.52727  0.93178  0.09796  1.0000
  C  Sn54      1.0  0.53452  0.93717  0.23086  1.0000
  C  Sn55      1.0  0.53200  0.96422  0.29888  1.0000
  C   C208      1.0  0.52230  0.98532  0.23254  1.0000
  C  Sn56      1.0  0.51505  0.97995  0.09962  1.0000
  O  Te53      1.0  0.49949  0.94580  0.89874  1.0000
  O  Te54      1.0  0.54418  0.91572  0.29509  1.0000
  O  Te55      1.0  0.53915  0.97006  0.43185  1.0000
  O  Te56      1.0  0.99831  0.00138  0.03541  1.0000
  Mg  Mg27      1.0  0.55127  0.93396  0.47641  1.0000
  Mg  Mg28      1.0  0.48734  0.98191  0.85411  1.0000
  C  Sn57      1.0  0.45490  0.94999  0.32341  1.0000
  C   C209      1.0  0.46438  0.97969  0.24726  1.0000
  C  Sn58      1.0  0.43864  0.98295  0.18311  1.0000
  C  Sn59      1.0  0.40266  0.95595  0.19538  1.0000
  C   C210      1.0  0.39319  0.92627  0.27150  1.0000
  C  Sn60      1.0  0.41893  0.92299  0.33568  1.0000
  O  Te57      1.0  0.48109  0.94729  0.38668  1.0000
  O  Te58      1.0  0.94168  0.01289  0.10750  1.0000
  O  Te59      1.0  0.37647  0.95867  0.13202  1.0000
  O  Te60      1.0  0.40882  0.89308  0.41127  1.0000
  Mg  Mg29      1.0  0.89632  0.00447  0.04025  1.0000
  Mg  Mg30      1.0  0.45415  0.90147  0.47861  1.0000
  C  Sn61      1.0  0.57860  0.08956  0.34882  1.0000
  C   C211      1.0  0.56632  0.06153  0.26105  1.0000
  C  Sn62      1.0  0.58920  0.05070  0.20769  1.0000
  C  Sn63      1.0  0.62510  0.06825  0.24285  1.0000
  C   C212      1.0  0.63736  0.09626  0.33059  1.0000
  C  Sn64      1.0  0.61450  0.10711  0.38398  1.0000
  O  Te61      1.0  0.55525  0.09994  0.40097  1.0000
  O  Te62      1.0  0.57632  0.02261  0.12011  1.0000
  O  Te63      1.0  0.64845  0.05784  0.19062  1.0000
  O  Te64      1.0  0.62736  0.13518  0.47153  1.0000
  Mg  Mg31      1.0  0.61838  0.01819  0.07538  1.0000
  Mg  Mg32      1.0  0.58532  0.13961  0.51637  1.0000
  C  Sn65      1.0  0.05732  0.48159  0.55980  1.0000
  C   C213      1.0  0.08849  0.48943  0.62014  1.0000
  C  Sn66      1.0  0.09355  0.50059  0.75027  1.0000
  C  Sn67      1.0  0.06688  0.50397  0.82162  1.0000
  C   C214      1.0  0.03572  0.49612  0.76130  1.0000
  C  Sn68      1.0  0.03065  0.48496  0.63115  1.0000
  O  Te65      1.0  0.05282  0.47047  0.42961  1.0000
  O  Te66      1.0  0.12495  0.50829  0.80848  1.0000
  O  Te67      1.0  0.07140  0.51509  0.95191  1.0000
  O  Te68      1.0  0.99927  0.47726  0.57296  1.0000
  Mg  Mg33      1.0  0.11872  0.52245  0.98816  1.0000
  Mg  Mg34      1.0  0.00546  0.46308  0.39331  1.0000
  C  Sn69      1.0  0.91494  0.50372  0.69062  1.0000
  C   C215      1.0  0.91176  0.53361  0.68160  1.0000
  C  Sn70      1.0  0.94152  0.56709  0.69026  1.0000
  C  Sn71      1.0  0.97518  0.57078  0.70823  1.0000
  C   C216      1.0  0.97836  0.54090  0.71721  1.0000
  C  Sn72      1.0  0.94860  0.50741  0.70858  1.0000
  O  Te69      1.0  0.88483  0.47051  0.68169  1.0000
  O  Te70      1.0  0.93767  0.59657  0.68101  1.0000
  O  Te71      1.0  0.00530  0.60402  0.71716  1.0000
  O  Te72      1.0  0.95244  0.47794  0.71780  1.0000
  Mg  Mg35      1.0  0.98655  0.63622  0.69885  1.0000
  Mg  Mg36      1.0  0.90359  0.43828  0.69991  1.0000
  C  Sn73      1.0  0.08720  0.61308  0.80536  1.0000
  C   C217      1.0  0.10844  0.61799  0.69246  1.0000
  C  Sn74      1.0  0.09396  0.59764  0.58125  1.0000
  C  Sn75      1.0  0.05748  0.57185  0.58287  1.0000
  C   C218      1.0  0.03626  0.56695  0.69571  1.0000
  C  Sn76      1.0  0.05072  0.58729  0.80699  1.0000
  O  Te73      1.0  0.10224  0.63373  0.91541  1.0000
  O  Te74      1.0  0.11572  0.60303  0.46955  1.0000
  O  Te75      1.0  0.04245  0.55120  0.47269  1.0000
  O  Te76      1.0  0.02898  0.58192  0.91862  1.0000
  Mg  Mg37      1.0  0.08292  0.56837  0.34407  1.0000
  Mg  Mg38      1.0  0.07269  0.61781  0.04413  1.0000
  C  Sn77      1.0  0.91927  0.44482  0.92542  1.0000
  C   C219      1.0  0.91210  0.41062  0.90026  1.0000
  C  Sn78      1.0  0.93883  0.40461  0.85052  1.0000
  C  Sn79      1.0  0.97345  0.43338  0.82548  1.0000
  C   C220      1.0  0.98061  0.46755  0.85067  1.0000
  C  Sn80      1.0  0.95390  0.47359  0.90039  1.0000
  O  Te77      1.0  0.89215  0.45022  0.97515  1.0000
  O  Te78      1.0  0.93102  0.37018  0.82610  1.0000
  O  Te79      1.0  0.00058  0.42795  0.77572  1.0000
  O  Te80      1.0  0.96169  0.50799  0.92482  1.0000
  Mg  Mg39      1.0  0.97688  0.37626  0.75848  1.0000
  Mg  Mg40      1.0  0.91586  0.50194  0.99250  1.0000
  C  Sn81      1.0  0.47894  0.08163  0.89894  1.0000
  C   C221      1.0  0.49848  0.11182  0.82196  1.0000
  C  Sn82      1.0  0.51890  0.11167  0.71319  1.0000
  C  Sn83      1.0  0.51979  0.08069  0.68062  1.0000
  C   C222      1.0  0.50025  0.05052  0.75756  1.0000
  C  Sn84      1.0  0.47983  0.05065  0.86637  1.0000
  O  Te81      1.0  0.46966  0.08361  0.00723  1.0000
  O  Te82      1.0  0.53822  0.14218  0.63773  1.0000
  O  Te83      1.0  0.54004  0.07997  0.57222  1.0000
  O  Te84      1.0  0.46052  0.02016  0.94178  1.0000
  Mg  Mg41      1.0  0.56177  0.12811  0.49967  1.0000
  Mg  Mg42      1.0  0.44789  0.03544  0.07982  1.0000
  C  Sn85      1.0  0.55537  0.96554  0.72504  1.0000
  C   C223      1.0  0.53647  0.98167  0.68906  1.0000
  C  Sn86      1.0  0.50499  0.96268  0.62320  1.0000
  C  Sn87      1.0  0.49212  0.92683  0.59275  1.0000
  C   C224      1.0  0.51102  0.91073  0.62874  1.0000
  C  Sn88      1.0  0.54251  0.92969  0.69458  1.0000
  O  Te85      1.0  0.58678  0.98503  0.79083  1.0000
  O  Te86      1.0  0.48655  0.97937  0.58820  1.0000
  O  Te87      1.0  0.46069  0.90735  0.52691  1.0000
  O  Te88      1.0  0.56093  0.91302  0.72960  1.0000
  Mg  Mg43      1.0  0.44506  0.94175  0.49986  1.0000
  Mg  Mg44      1.0  0.60242  0.95061  0.81800  1.0000
  C  Sn89      1.0  0.41537  0.96245  0.64454  1.0000
  C   C225      1.0  0.40277  0.92904  0.69781  1.0000
  C  Sn90      1.0  0.41870  0.92459  0.80561  1.0000
  C  Sn91      1.0  0.44783  0.95415  0.86139  1.0000
  C   C226      1.0  0.46042  0.98754  0.80815  1.0000
  C  Sn92      1.0  0.44450  0.99201  0.70033  1.0000
  O  Te89      1.0  0.39904  0.96628  0.53677  1.0000
  O  Te90      1.0  0.40564  0.89092  0.85712  1.0000
  O  Te91      1.0  0.46417  0.95029  0.96925  1.0000
  O  Te92      1.0  0.95046  0.02565  0.64883  1.0000
  Mg  Mg45      1.0  0.44773  0.90038  0.00449  1.0000
  Mg  Mg46      1.0  0.91934  0.01746  0.50152  1.0000
  C  Sn93      1.0  0.58144  0.07920  0.86253  1.0000
  C   C227      1.0  0.56672  0.05320  0.76696  1.0000
  C  Sn94      1.0  0.58844  0.04586  0.68419  1.0000
  C  Sn95      1.0  0.62564  0.06489  0.69725  1.0000
  C   C228      1.0  0.64033  0.09087  0.79278  1.0000
  C  Sn96      1.0  0.61864  0.09824  0.87559  1.0000
  O  Te93      1.0  0.55923  0.08610  0.94421  1.0000
  O  Te94      1.0  0.57311  0.01974  0.58936  1.0000
  O  Te95      1.0  0.64784  0.05797  0.61546  1.0000
  O  Te96      1.0  0.63395  0.12433  0.97038  1.0000
  Mg  Mg47      1.0  0.61443  0.01994  0.50134  1.0000
  Mg  Mg48      1.0  0.60360  0.12538  0.05850  1.0000
