data_image0
_chemical_formula_structural       H144C252N24SnCSn2CSnTe4Mg2SnCSn2CSnTe4Mg2SnCSn2CSnTe4Mg2SnCSn2CSnTe4Mg2SnCSn2CSnTe4Mg2SnCSn2CSnTe4Mg2SnCSn2CSnTe4Mg2SnCSn2CSnTe4Mg2SnCSn2CSnTe4Mg2SnCSn2CSnTe4Mg2SnCSn2CSnTe4Mg2SnCSn2CSnTe4Mg2
_chemical_formula_sum              "H144 C276 N24 Sn48 Te48 Mg24"
_cell_length_a       43.7647
_cell_length_b       44.0691
_cell_length_c       10.2172
_cell_angle_alpha    91.0456
_cell_angle_beta     87.4674
_cell_angle_gamma    120.237

_symmetry_space_group_name_H-M    'P1'
_space_group_IT_number       1

loop_
  _space_group_symop_operation_xyz
  'x, y, z'

loop_
  _atom_site_type_symbol
  _atom_site_label
  _atom_site_symmetry_multiplicity
  _atom_site_fract_x
  _atom_site_fract_y
  _atom_site_fract_z
  _atom_site_occupancy
  H   H1        1.0  0.56238  0.58127  0.41374  1.0000
  H   H2        1.0  0.56154  0.63709  0.42186  1.0000
  H   H3        1.0  0.49194  0.60870  0.25347  1.0000
  H   H4        1.0  0.49211  0.55279  0.25099  1.0000
  H   H5        1.0  0.47583  0.54261  0.45334  1.0000
  H   H6        1.0  0.41744  0.53828  0.44002  1.0000
  H   H7        1.0  0.37464  0.45244  0.20910  1.0000
  H   H8        1.0  0.43436  0.45903  0.21342  1.0000
  H   H9        1.0  0.50726  0.41064  0.20891  1.0000
  H   H10       1.0  0.52688  0.47387  0.18991  1.0000
  H   H11       1.0  0.67614  0.53561  0.06817  1.0000
  H   H12       1.0  0.34267  0.44326  0.43845  1.0000
  H   H13       1.0  0.66345  0.48030  0.25754  1.0000
  H   H14       1.0  0.70424  0.45946  0.16699  1.0000
  H   H15       1.0  0.73521  0.54343  0.06931  1.0000
  H   H16       1.0  0.29506  0.48561  0.61615  1.0000
  H   H17       1.0  0.22613  0.38099  0.83438  1.0000
  H   H18       1.0  0.29019  0.40379  0.87791  1.0000
  H   H19       1.0  0.21207  0.49611  0.17750  1.0000
  H   H20       1.0  0.11991  0.43430  0.44197  1.0000
  H   H21       1.0  0.15021  0.40671  0.31448  1.0000
  H   H22       1.0  0.15615  0.49719  0.22350  1.0000
  H   H23       1.0  0.79101  0.45930  0.18757  1.0000
  H   H24       1.0  0.84921  0.48219  0.29355  1.0000
  H   H25       1.0  0.82725  0.54786  0.07932  1.0000
  H   H26       1.0  0.88998  0.51354  0.43193  1.0000
  H   H27       1.0  0.04421  0.54409  0.02876  1.0000
  H   H28       1.0  0.10523  0.59388  0.97875  1.0000
  H   H29       1.0  0.10196  0.64219  0.34443  1.0000
  H   H30       1.0  0.04243  0.59225  0.39604  1.0000
  H   H31       1.0  0.89904  0.43710  0.02730  1.0000
  H   H32       1.0  0.50497  0.63677  0.41377  1.0000
  H   H33       1.0  0.49567  0.35415  0.06847  1.0000
  H   H34       1.0  0.54062  0.73026  0.10370  1.0000
  H   H35       1.0  0.45994  0.69843  0.21929  1.0000
  H   H36       1.0  0.47812  0.65593  0.28881  1.0000
  H   H37       1.0  0.41672  0.31982  0.28299  1.0000
  H   H38       1.0  0.39319  0.26811  0.43620  1.0000
  H   H39       1.0  0.48892  0.29267  0.08501  1.0000
  H   H40       1.0  0.40053  0.19177  0.56591  1.0000
  H   H41       1.0  0.42839  0.15408  0.54855  1.0000
  H   H42       1.0  0.48875  0.20696  0.19545  1.0000
  H   H43       1.0  0.54478  0.82151  0.16012  1.0000
  H   H44       1.0  0.48294  0.84085  0.40029  1.0000
  H   H45       1.0  0.46233  0.78516  0.27044  1.0000
  H   H46       1.0  0.46575  0.13761  0.46051  1.0000
  H   H47       1.0  0.54504  0.87864  0.18947  1.0000
  H   H48       1.0  0.54528  0.92493  0.30829  1.0000
  H   H49       1.0  0.55174  0.98182  0.37743  1.0000
  H   H50       1.0  0.50286  0.98649  0.03012  1.0000
  H   H51       1.0  0.58707  0.03033  0.12604  1.0000
  H   H52       1.0  0.64924  0.07414  0.17331  1.0000
  H   H53       1.0  0.61255  0.12127  0.46578  1.0000
  H   H54       1.0  0.55052  0.07696  0.42078  1.0000
  H   H55       1.0  0.67393  0.16979  0.38255  1.0000
  H   H56       1.0  0.92568  0.35222  0.45242  1.0000
  H   H57       1.0  0.15995  0.67594  0.29019  1.0000
  H   H58       1.0  0.39430  0.88661  0.06879  1.0000
  H   H59       1.0  0.72532  0.12389  0.39690  1.0000
  H   H60       1.0  0.79076  0.15143  0.42972  1.0000
  H   H61       1.0  0.72837  0.22098  0.88448  1.0000
  H   H62       1.0  0.81920  0.31036  0.94589  1.0000
  H   H63       1.0  0.88015  0.23320  0.46429  1.0000
  H   H64       1.0  0.91670  0.29897  0.47348  1.0000
  H   H65       1.0  0.19255  0.65970  0.97431  1.0000
  H   H66       1.0  0.25205  0.69778  0.85940  1.0000
  H   H67       1.0  0.21492  0.73653  0.27897  1.0000
  H   H68       1.0  0.30680  0.82616  0.26120  1.0000
  H   H69       1.0  0.33983  0.78289  0.84272  1.0000
  H   H70       1.0  0.38034  0.84230  0.93661  1.0000
  H   H71       1.0  0.57165  0.59211  0.93793  1.0000
  H   H72       1.0  0.57158  0.64829  0.94089  1.0000
  H   H73       1.0  0.49981  0.60426  0.78499  1.0000
  H   H74       1.0  0.49937  0.54766  0.77231  1.0000
  H   H75       1.0  0.47461  0.54618  0.94583  1.0000
  H   H76       1.0  0.41489  0.53937  0.94054  1.0000
  H   H77       1.0  0.37069  0.44722  0.68984  1.0000
  H   H78       1.0  0.42906  0.45114  0.70125  1.0000
  H   H79       1.0  0.44677  0.44967  0.91313  1.0000
  H   H80       1.0  0.42819  0.38652  0.92629  1.0000
  H   H81       1.0  0.68066  0.54094  0.53874  1.0000
  H   H82       1.0  0.34226  0.44034  0.97608  1.0000
  H   H83       1.0  0.66576  0.48752  0.75502  1.0000
  H   H84       1.0  0.70862  0.47022  0.65543  1.0000
  H   H85       1.0  0.73955  0.54808  0.53649  1.0000
  H   H86       1.0  0.29739  0.49003  0.10869  1.0000
  H   H87       1.0  0.23201  0.39702  0.25637  1.0000
  H   H88       1.0  0.29388  0.41496  0.31469  1.0000
  H   H89       1.0  0.20902  0.49129  0.68833  1.0000
  H   H90       1.0  0.11491  0.42154  0.99816  1.0000
  H   H91       1.0  0.14351  0.38999  0.88744  1.0000
  H   H92       1.0  0.15465  0.49531  0.72310  1.0000
  H   H93       1.0  0.79625  0.47162  0.67110  1.0000
  H   H94       1.0  0.85272  0.49137  0.78554  1.0000
  H   H95       1.0  0.83010  0.55002  0.55220  1.0000
  H   H96       1.0  0.89045  0.51710  0.93878  1.0000
  H   H97       1.0  0.89156  0.48545  0.61097  1.0000
  H   H98       1.0  0.94106  0.48094  0.68851  1.0000
  H   H99       1.0  0.99652  0.59144  0.77485  1.0000
  H   H100      1.0  0.94613  0.59579  0.69840  1.0000
  H   H101      1.0  0.04523  0.54361  0.53569  1.0000
  H   H102      1.0  0.10592  0.59334  0.48253  1.0000
  H   H103      1.0  0.10223  0.64440  0.84109  1.0000
  H   H104      1.0  0.04285  0.59468  0.89485  1.0000
  H   H105      1.0  0.95081  0.49304  0.95252  1.0000
  H   H106      1.0  0.94036  0.38058  0.80778  1.0000
  H   H107      1.0  0.99224  0.43556  0.73894  1.0000
  H   H108      1.0  0.51374  0.64893  0.89182  1.0000
  H   H109      1.0  0.49597  0.34945  0.56242  1.0000
  H   H110      1.0  0.53569  0.72131  0.61324  1.0000
  H   H111      1.0  0.45916  0.70637  0.72717  1.0000
  H   H112      1.0  0.48089  0.66532  0.78184  1.0000
  H   H113      1.0  0.41812  0.31357  0.78041  1.0000
  H   H114      1.0  0.39717  0.26249  0.93640  1.0000
  H   H115      1.0  0.49090  0.28821  0.57512  1.0000
  H   H116      1.0  0.40718  0.18893  0.06524  1.0000
  H   H117      1.0  0.43657  0.15245  0.04945  1.0000
  H   H118      1.0  0.49512  0.20454  0.69238  1.0000
  H   H119      1.0  0.53980  0.81275  0.66150  1.0000
  H   H120      1.0  0.48409  0.84882  0.91645  1.0000
  H   H121      1.0  0.46111  0.79255  0.78807  1.0000
  H   H122      1.0  0.47446  0.13768  0.96598  1.0000
  H   H123      1.0  0.53801  0.86807  0.69213  1.0000
  H   H124      1.0  0.45248  0.08553  0.92264  1.0000
  H   H125      1.0  0.45785  0.03275  0.92593  1.0000
  H   H126      1.0  0.54412  0.07916  0.63953  1.0000
  H   H127      1.0  0.53842  0.13248  0.63395  1.0000
  H   H128      1.0  0.49691  0.92885  0.95729  1.0000
  H   H129      1.0  0.67288  0.16329  0.86150  1.0000
  H   H130      1.0  0.91940  0.35446  0.00722  1.0000
  H   H131      1.0  0.15672  0.68562  0.76103  1.0000
  H   H132      1.0  0.40321  0.87780  0.61589  1.0000
  H   H133      1.0  0.73110  0.12471  0.84348  1.0000
  H   H134      1.0  0.79573  0.15522  0.89550  1.0000
  H   H135      1.0  0.73093  0.22447  0.41699  1.0000
  H   H136      1.0  0.82468  0.31058  0.45866  1.0000
  H   H137      1.0  0.87818  0.23728  0.99877  1.0000
  H   H138      1.0  0.91103  0.30259  0.02767  1.0000
  H   H139      1.0  0.19438  0.65778  0.48447  1.0000
  H   H140      1.0  0.25626  0.69158  0.38368  1.0000
  H   H141      1.0  0.21247  0.74358  0.74184  1.0000
  H   H142      1.0  0.30549  0.83160  0.71986  1.0000
  H   H143      1.0  0.34782  0.77298  0.38311  1.0000
  H   H144      1.0  0.38877  0.83303  0.47187  1.0000
  C   C1        1.0  0.49278  0.50245  0.06682  1.0000
  C   C2        1.0  0.52585  0.53220  0.06661  1.0000
  C   C3        1.0  0.53081  0.56758  0.09068  1.0000
  C   C4        1.0  0.48721  0.46635  0.05567  1.0000
  C   C5        1.0  0.45709  0.49704  0.57748  1.0000
  C   C6        1.0  0.54874  0.58635  0.49532  1.0000
  C   C7        1.0  0.54819  0.61763  0.49937  1.0000
  C   C8        1.0  0.52918  0.62389  0.60079  1.0000
  C   C9        1.0  0.50996  0.60533  0.18624  1.0000
  C   C10       1.0  0.50992  0.57379  0.18403  1.0000
  C   C11       1.0  0.45301  0.52185  0.50657  1.0000
  C   C12       1.0  0.42034  0.51982  0.50003  1.0000
  C   C13       1.0  0.39005  0.49213  0.56264  1.0000
  C   C14       1.0  0.39665  0.47274  0.15078  1.0000
  C   C15       1.0  0.43026  0.47676  0.15366  1.0000
  C   C16       1.0  0.46599  0.39402  0.07003  1.0000
  C   C17       1.0  0.49498  0.41936  0.14000  1.0000
  C   C18       1.0  0.50531  0.45478  0.13210  1.0000
  C   C19       1.0  0.67148  0.52406  0.96948  1.0000
  C   C20       1.0  0.33423  0.46074  0.48480  1.0000
  C   C21       1.0  0.69805  0.51614  0.91407  1.0000
  C   C22       1.0  0.29759  0.45105  0.46528  1.0000
  C   C23       1.0  0.68959  0.49034  0.29610  1.0000
  C   C24       1.0  0.71218  0.47850  0.24593  1.0000
  C   C25       1.0  0.74457  0.49265  0.30316  1.0000
  C   C26       1.0  0.75402  0.51957  0.92270  1.0000
  C   C27       1.0  0.73049  0.52842  0.97924  1.0000
  C   C28       1.0  0.28059  0.46654  0.54080  1.0000
  C   C29       1.0  0.24632  0.45548  0.51078  1.0000
  C   C30       1.0  0.22876  0.43074  0.40805  1.0000
  C   C31       1.0  0.24093  0.40444  0.89276  1.0000
  C   C32       1.0  0.27972  0.42604  0.36822  1.0000
  C   C33       1.0  0.77861  0.49285  0.31021  1.0000
  C   C34       1.0  0.19413  0.42646  0.97063  1.0000
  C   C35       1.0  0.21348  0.45665  0.05093  1.0000
  C   C36       1.0  0.19794  0.47366  0.11353  1.0000
  C   C37       1.0  0.16132  0.46003  0.09077  1.0000
  C   C38       1.0  0.14272  0.43042  0.01062  1.0000
  C   C39       1.0  0.16304  0.42452  0.39502  1.0000
  C   C40       1.0  0.14249  0.47698  0.14889  1.0000
  C   C41       1.0  0.00512  0.50092  0.26648  1.0000
  C   C42       1.0  0.79899  0.47890  0.26450  1.0000
  C   C43       1.0  0.83171  0.49205  0.32438  1.0000
  C   C44       1.0  0.84288  0.51719  0.42493  1.0000
  C   C45       1.0  0.82001  0.53195  0.99114  1.0000
  C   C46       1.0  0.78914  0.52073  0.92786  1.0000
  C   C47       1.0  0.87592  0.52546  0.48255  1.0000
  C   C48       1.0  0.00487  0.53169  0.25135  1.0000
  C   C49       1.0  0.03948  0.56393  0.21786  1.0000
  C   C50       1.0  0.05732  0.56518  0.09883  1.0000
  C   C51       1.0  0.09116  0.59289  0.07033  1.0000
  C   C52       1.0  0.10837  0.62091  0.15823  1.0000
  C   C53       1.0  0.08978  0.62078  0.27470  1.0000
  C   C54       1.0  0.05585  0.59262  0.30337  1.0000
  C   C55       1.0  0.51265  0.65713  0.48912  1.0000
  C   C56       1.0  0.50639  0.68546  0.45581  1.0000
  C   C57       1.0  0.46822  0.34249  0.10758  1.0000
  C   C58       1.0  0.45321  0.30892  0.17759  1.0000
  C   C59       1.0  0.52350  0.72621  0.02325  1.0000
  C   C60       1.0  0.51271  0.74917  0.98819  1.0000
  C   C61       1.0  0.48913  0.74181  0.88330  1.0000
  C   C62       1.0  0.47579  0.70362  0.30471  1.0000
  C   C63       1.0  0.48601  0.67972  0.34550  1.0000
  C   C64       1.0  0.42620  0.30129  0.27351  1.0000
  C   C65       1.0  0.41284  0.27227  0.35897  1.0000
  C   C66       1.0  0.42757  0.25113  0.34100  1.0000
  C   C67       1.0  0.45413  0.25760  0.24058  1.0000
  C   C68       1.0  0.46794  0.28649  0.15920  1.0000
  C   C69       1.0  0.49005  0.77573  0.90683  1.0000
  C   C70       1.0  0.42977  0.22069  0.39009  1.0000
  C   C71       1.0  0.41922  0.19534  0.48572  1.0000
  C   C72       1.0  0.43508  0.17429  0.47507  1.0000
  C   C73       1.0  0.45890  0.17774  0.37147  1.0000
  C   C74       1.0  0.47005  0.20464  0.27378  1.0000
  C   C75       1.0  0.45564  0.22596  0.28792  1.0000
  C   C76       1.0  0.51380  0.78391  0.01105  1.0000
  C   C77       1.0  0.52689  0.81486  0.08005  1.0000
  C   C78       1.0  0.51496  0.83822  0.04284  1.0000
  C   C79       1.0  0.49164  0.82957  0.93952  1.0000
  C   C80       1.0  0.47844  0.79044  0.35519  1.0000
  C   C81       1.0  0.47012  0.15175  0.36763  1.0000
  C   C82       1.0  0.52621  0.87162  0.11088  1.0000
  C   C83       1.0  0.52030  0.92292  0.12646  1.0000
  C   C84       1.0  0.53645  0.93840  0.24520  1.0000
  C   C85       1.0  0.53980  0.97034  0.28483  1.0000
  C   C86       1.0  0.52652  0.98739  0.20995  1.0000
  C   C87       1.0  0.51168  0.97248  0.09009  1.0000
  C   C88       1.0  0.50836  0.94085  0.04983  1.0000
  C   C89       1.0  0.52810  0.02080  0.24966  1.0000
  C   C90       1.0  0.49725  0.02215  0.25776  1.0000
  C   C91       1.0  0.56407  0.05012  0.27102  1.0000
  C   C92       1.0  0.59261  0.05022  0.20032  1.0000
  C   C93       1.0  0.62732  0.07466  0.22564  1.0000
  C   C94       1.0  0.63536  0.10082  0.32126  1.0000
  C   C95       1.0  0.60706  0.10198  0.38881  1.0000
  C   C96       1.0  0.57215  0.07682  0.36458  1.0000
  C   C97       1.0  0.68703  0.15401  0.37910  1.0000
  C   C98       1.0  0.72482  0.17203  0.40547  1.0000
  C   C99       1.0  0.89774  0.34527  0.46203  1.0000
  C   C100      1.0  0.87287  0.30775  0.47005  1.0000
  C   C101      1.0  0.16519  0.67166  0.18709  1.0000
  C   C102      1.0  0.20050  0.69574  0.12909  1.0000
  C   C103      1.0  0.37162  0.87288  0.13864  1.0000
  C   C104      1.0  0.34578  0.83731  0.10032  1.0000
  C   C105      1.0  0.74177  0.15209  0.40993  1.0000
  C   C106      1.0  0.77825  0.16736  0.42790  1.0000
  C   C107      1.0  0.79670  0.20342  0.44151  1.0000
  C   C108      1.0  0.77895  0.22419  0.91193  1.0000
  C   C109      1.0  0.74342  0.20748  0.88704  1.0000
  C   C110      1.0  0.83074  0.29381  0.95820  1.0000
  C   C111      1.0  0.81298  0.25794  0.94375  1.0000
  C   C112      1.0  0.83182  0.23554  0.45711  1.0000
  C   C113      1.0  0.86772  0.24923  0.46516  1.0000
  C   C114      1.0  0.88799  0.28621  0.47122  1.0000
  C   C115      1.0  0.21127  0.68533  0.01300  1.0000
  C   C116      1.0  0.24441  0.70644  0.94892  1.0000
  C   C117      1.0  0.26598  0.73837  0.00713  1.0000
  C   C118      1.0  0.25571  0.74949  0.12515  1.0000
  C   C119      1.0  0.22338  0.72881  0.18888  1.0000
  C   C120      1.0  0.31287  0.81608  0.17190  1.0000
  C   C121      1.0  0.29100  0.78373  0.11893  1.0000
  C   C122      1.0  0.30062  0.77180  0.00079  1.0000
  C   C123      1.0  0.33240  0.79156  0.93262  1.0000
  C   C124      1.0  0.35486  0.82498  0.98592  1.0000
  C   C125      1.0  0.49015  0.49534  0.57083  1.0000
  C   C126      1.0  0.52384  0.52428  0.56772  1.0000
  C   C127      1.0  0.52952  0.55995  0.58988  1.0000
  C   C128      1.0  0.45889  0.50258  0.07727  1.0000
  C   C129      1.0  0.55450  0.59581  0.00871  1.0000
  C   C130      1.0  0.55442  0.62740  0.00947  1.0000
  C   C131      1.0  0.53091  0.63202  0.09442  1.0000
  C   C132      1.0  0.51348  0.59925  0.70362  1.0000
  C   C133      1.0  0.51333  0.56763  0.69692  1.0000
  C   C134      1.0  0.45280  0.52563  0.00368  1.0000
  C   C135      1.0  0.41948  0.52224  0.00168  1.0000
  C   C136      1.0  0.39061  0.49474  0.07118  1.0000
  C   C137      1.0  0.39393  0.46810  0.63858  1.0000
  C   C138      1.0  0.42681  0.47063  0.64540  1.0000
  C   C139      1.0  0.46018  0.44114  0.97758  1.0000
  C   C140      1.0  0.44961  0.40575  0.98453  1.0000
  C   C141      1.0  0.67310  0.52408  0.45147  1.0000
  C   C142      1.0  0.33382  0.45896  0.00964  1.0000
  C   C143      1.0  0.69892  0.51482  0.39895  1.0000
  C   C144      1.0  0.29682  0.44779  0.99227  1.0000
  C   C145      1.0  0.69098  0.49587  0.79909  1.0000
  C   C146      1.0  0.71484  0.48623  0.74332  1.0000
  C   C147      1.0  0.74610  0.49844  0.80718  1.0000
  C   C148      1.0  0.75484  0.51808  0.40584  1.0000
  C   C149      1.0  0.73277  0.52955  0.45601  1.0000
  C   C150      1.0  0.28132  0.46704  0.04969  1.0000
  C   C151      1.0  0.24633  0.45399  0.02625  1.0000
  C   C152      1.0  0.22642  0.42336  0.94765  1.0000
  C   C153      1.0  0.24471  0.41552  0.33523  1.0000
  C   C154      1.0  0.27698  0.41748  0.91789  1.0000
  C   C155      1.0  0.78045  0.49915  0.81267  1.0000
  C   C156      1.0  0.19664  0.43402  0.43258  1.0000
  C   C157      1.0  0.21344  0.45826  0.53657  1.0000
  C   C158      1.0  0.19689  0.47310  0.60793  1.0000
  C   C159      1.0  0.16207  0.46357  0.57021  1.0000
  C   C160      1.0  0.14623  0.44002  0.46618  1.0000
  C   C161      1.0  0.15866  0.41281  0.94849  1.0000
  C   C162      1.0  0.14234  0.47843  0.63816  1.0000
  C   C163      1.0  0.00579  0.50264  0.78166  1.0000
  C   C164      1.0  0.80231  0.48785  0.75824  1.0000
  C   C165      1.0  0.83414  0.49932  0.82270  1.0000
  C   C166      1.0  0.84318  0.52055  0.93507  1.0000
  C   C167      1.0  0.82121  0.53121  0.47234  1.0000
  C   C168      1.0  0.78959  0.51858  0.41280  1.0000
  C   C169      1.0  0.87575  0.52773  0.99384  1.0000
  C   C170      1.0  0.91593  0.54143  0.64217  1.0000
  C   C171      1.0  0.91468  0.50880  0.64645  1.0000
  C   C172      1.0  0.94257  0.50624  0.69202  1.0000
  C   C173      1.0  0.97336  0.53573  0.73731  1.0000
  C   C174      1.0  0.97345  0.56789  0.74052  1.0000
  C   C175      1.0  0.94517  0.57064  0.69656  1.0000
  C   C176      1.0  0.00536  0.53309  0.75650  1.0000
  C   C177      1.0  0.03998  0.56512  0.72025  1.0000
  C   C178      1.0  0.05796  0.56555  0.60267  1.0000
  C   C179      1.0  0.09173  0.59320  0.57271  1.0000
  C   C180      1.0  0.10868  0.62223  0.65667  1.0000
  C   C181      1.0  0.09003  0.62276  0.77218  1.0000
  C   C182      1.0  0.05622  0.59457  0.80262  1.0000
  C   C183      1.0  0.97547  0.46939  0.83450  1.0000
  C   C184      1.0  0.94863  0.46842  0.91999  1.0000
  C   C185      1.0  0.91921  0.43695  0.96159  1.0000
  C   C186      1.0  0.91553  0.40438  0.92286  1.0000
  C   C187      1.0  0.94295  0.40520  0.84261  1.0000
  C   C188      1.0  0.97214  0.43666  0.80137  1.0000
  C   C189      1.0  0.51802  0.66702  0.97369  1.0000
  C   C190      1.0  0.51060  0.69496  0.94572  1.0000
  C   C191      1.0  0.46838  0.33660  0.60077  1.0000
  C   C192      1.0  0.45470  0.30333  0.67128  1.0000
  C   C193      1.0  0.51946  0.71725  0.52991  1.0000
  C   C194      1.0  0.50982  0.74062  0.48875  1.0000
  C   C195      1.0  0.48793  0.73367  0.37860  1.0000
  C   C196      1.0  0.47655  0.71196  0.80808  1.0000
  C   C197      1.0  0.48863  0.68884  0.84037  1.0000
  C   C198      1.0  0.42818  0.29551  0.76973  1.0000
  C   C199      1.0  0.41632  0.26700  0.85671  1.0000
  C   C200      1.0  0.43200  0.24677  0.83746  1.0000
  C   C201      1.0  0.45811  0.25345  0.73501  1.0000
  C   C202      1.0  0.47046  0.28183  0.65181  1.0000
  C   C203      1.0  0.48917  0.76785  0.39805  1.0000
  C   C204      1.0  0.43545  0.21723  0.88733  1.0000
  C   C205      1.0  0.42571  0.19245  0.98448  1.0000
  C   C206      1.0  0.44241  0.17219  0.97485  1.0000
  C   C207      1.0  0.46636  0.17606  0.87118  1.0000
  C   C208      1.0  0.47633  0.20208  0.77068  1.0000
  C   C209      1.0  0.46099  0.22261  0.78350  1.0000
  C   C210      1.0  0.51117  0.77558  0.50780  1.0000
  C   C211      1.0  0.52319  0.80629  0.57745  1.0000
  C   C212      1.0  0.51201  0.82989  0.53512  1.0000
  C   C213      1.0  0.49032  0.82165  0.42675  1.0000
  C   C214      1.0  0.47858  0.79812  0.86873  1.0000
  C   C215      1.0  0.47866  0.15098  0.87127  1.0000
  C   C216      1.0  0.49592  0.11351  0.78060  1.0000
  C   C217      1.0  0.52217  0.86275  0.60504  1.0000
  C   C218      1.0  0.47330  0.08482  0.86300  1.0000
  C   C219      1.0  0.47617  0.05493  0.86435  1.0000
  C   C220      1.0  0.50152  0.05196  0.78401  1.0000
  C   C221      1.0  0.52447  0.08088  0.70311  1.0000
  C   C222      1.0  0.52148  0.11084  0.70008  1.0000
  C   C223      1.0  0.52868  0.01328  0.75609  1.0000
  C   C224      1.0  0.49953  0.01754  0.77474  1.0000
  C   C225      1.0  0.68826  0.15009  0.84110  1.0000
  C   C226      1.0  0.72638  0.17046  0.86326  1.0000
  C   C227      1.0  0.89208  0.34743  0.98718  1.0000
  C   C228      1.0  0.86744  0.30975  0.98795  1.0000
  C   C229      1.0  0.16402  0.67617  0.67122  1.0000
  C   C230      1.0  0.20012  0.69829  0.61595  1.0000
  C   C231      1.0  0.37546  0.87053  0.63766  1.0000
  C   C232      1.0  0.34930  0.83536  0.59667  1.0000
  C   C233      1.0  0.74561  0.15271  0.86410  1.0000
  C   C234      1.0  0.78165  0.16966  0.89286  1.0000
  C   C235      1.0  0.79739  0.20517  0.91855  1.0000
  C   C236      1.0  0.78002  0.22417  0.43889  1.0000
  C   C237      1.0  0.74429  0.20933  0.42134  1.0000
  C   C238      1.0  0.83534  0.29304  0.46233  1.0000
  C   C239      1.0  0.81580  0.25710  0.45538  1.0000
  C   C240      1.0  0.83028  0.23773  0.95433  1.0000
  C   C241      1.0  0.86500  0.25236  0.98788  1.0000
  C   C242      1.0  0.88315  0.28909  0.00505  1.0000
  C   C243      1.0  0.21269  0.68437  0.51609  1.0000
  C   C244      1.0  0.24724  0.70310  0.46011  1.0000
  C   C245      1.0  0.26828  0.73651  0.50835  1.0000
  C   C246      1.0  0.25579  0.75159  0.60701  1.0000
  C   C247      1.0  0.22224  0.73310  0.66401  1.0000
  C   C248      1.0  0.31341  0.81824  0.64732  1.0000
  C   C249      1.0  0.29177  0.78496  0.60151  1.0000
  C   C250      1.0  0.30391  0.76888  0.50502  1.0000
  C   C251      1.0  0.33833  0.78501  0.45554  1.0000
  C   C252      1.0  0.36108  0.81880  0.50579  1.0000
  N   N1        1.0  0.52473  0.65346  0.59787  1.0000
  N   N2        1.0  0.64278  0.51156  0.39802  1.0000
  N   N3        1.0  0.45034  0.35836  0.09938  1.0000
  N   N4        1.0  0.35640  0.48817  0.54816  1.0000
  N   N5        1.0  0.11150  0.46779  0.10808  1.0000
  N   N6        1.0  0.88738  0.54403  0.10362  1.0000
  N   N7        1.0  0.14251  0.64646  0.11584  1.0000
  N   N8        1.0  0.88958  0.36973  0.45807  1.0000
  N   N9        1.0  0.48309  0.14432  0.26355  1.0000
  N   N10       1.0  0.51353  0.89087  0.07411  1.0000
  N   N11       1.0  0.67103  0.12124  0.34741  1.0000
  N   N12       1.0  0.37018  0.88850  0.24494  1.0000
  N   N13       1.0  0.52667  0.66157  0.08683  1.0000
  N   N14       1.0  0.64387  0.51677  0.90448  1.0000
  N   N15       1.0  0.44928  0.35118  0.59268  1.0000
  N   N16       1.0  0.35633  0.48906  0.05727  1.0000
  N   N17       1.0  0.11207  0.47133  0.59543  1.0000
  N   N18       1.0  0.88840  0.54383  0.58793  1.0000
  N   N19       1.0  0.14307  0.64701  0.61350  1.0000
  N   N20       1.0  0.88556  0.37196  0.95579  1.0000
  N   N21       1.0  0.49196  0.14307  0.76942  1.0000
  N   N22       1.0  0.51135  0.88322  0.56372  1.0000
  N   N23       1.0  0.67401  0.11813  0.79970  1.0000
  N   N24       1.0  0.36817  0.89292  0.69278  1.0000
  C  Sn1       1.0  0.93855  0.50567  0.14991  1.0000
  C   C253      1.0  0.96986  0.53138  0.20445  1.0000
  C  Sn2       1.0  0.97282  0.56273  0.25083  1.0000
  C  Sn3       1.0  0.94387  0.56849  0.24261  1.0000
  C   C254      1.0  0.91257  0.54279  0.18813  1.0000
  C  Sn4       1.0  0.90959  0.51143  0.14170  1.0000
  O  Te1       1.0  0.93618  0.47453  0.10417  1.0000
  O  Te2       1.0  0.00440  0.58805  0.30490  1.0000
  O  Te3       1.0  0.94626  0.59967  0.28841  1.0000
  O  Te4       1.0  0.87804  0.48612  0.08767  1.0000
  Mg  Mg1       1.0  0.99476  0.62620  0.35389  1.0000
  Mg  Mg2       1.0  0.88764  0.44796  0.03872  1.0000
  C  Sn5       1.0  0.52572  0.09611  0.20917  1.0000
  C   C255      1.0  0.50587  0.06461  0.27866  1.0000
  C  Sn6       1.0  0.47298  0.05585  0.33718  1.0000
  C  Sn7       1.0  0.45963  0.07905  0.32594  1.0000
  C   C256      1.0  0.47947  0.11053  0.25647  1.0000
  C  Sn8       1.0  0.51237  0.11932  0.19793  1.0000
  O  Te5       1.0  0.55853  0.10434  0.15146  1.0000
  O  Te6       1.0  0.45363  0.02421  0.40619  1.0000
  O  Te7       1.0  0.42679  0.07080  0.38373  1.0000
  O  Te8       1.0  0.53171  0.15093  0.12894  1.0000
  Mg  Mg3       1.0  0.41031  0.02467  0.46750  1.0000
  Mg  Mg4       1.0  0.57502  0.15048  0.06754  1.0000
  C  Sn9       1.0  0.08276  0.49399  0.30182  1.0000
  C   C257      1.0  0.08544  0.47696  0.18891  1.0000
  C  Sn10      1.0  0.06542  0.47340  0.08085  1.0000
  C  Sn11      1.0  0.04226  0.48716  0.08572  1.0000
  C   C258      1.0  0.03960  0.50419  0.19856  1.0000
  C  Sn12      1.0  0.05960  0.50776  0.30668  1.0000
  O  Te9       1.0  0.10302  0.49726  0.40867  1.0000
  O  Te10      1.0  0.05759  0.45501  0.96908  1.0000
  O  Te11      1.0  0.01105  0.48264  0.97873  1.0000
  O  Te12      1.0  0.05649  0.52490  0.41839  1.0000
  Mg  Mg5       1.0  0.02451  0.45715  0.84864  1.0000
  Mg  Mg6       1.0  0.08958  0.52278  0.53886  1.0000
  C  Sn13      1.0  0.95247  0.42876  0.23172  1.0000
  C   C259      1.0  0.96618  0.46225  0.28592  1.0000
  C  Sn14      1.0  0.95705  0.46634  0.41511  1.0000
  C  Sn15      1.0  0.93376  0.43632  0.49176  1.0000
  C   C260      1.0  0.92007  0.40285  0.43757  1.0000
  C  Sn16      1.0  0.92917  0.39874  0.30837  1.0000
  O  Te13      1.0  0.96195  0.42529  0.10236  1.0000
  O  Te14      1.0  0.97108  0.50009  0.46713  1.0000
  O  Te15      1.0  0.92428  0.43981  0.62121  1.0000
  O  Te16      1.0  0.91516  0.36501  0.25636  1.0000
  Mg  Mg7       1.0  0.95029  0.49126  0.64812  1.0000
  Mg  Mg8       1.0  0.93595  0.37381  0.07541  1.0000
  C  Sn17      1.0  0.50772  0.44173  0.62324  1.0000
  C   C261      1.0  0.49407  0.45784  0.54724  1.0000
  C  Sn18      1.0  0.46213  0.43766  0.48526  1.0000
  C  Sn19      1.0  0.44344  0.40059  0.49960  1.0000
  C   C262      1.0  0.45709  0.38449  0.57557  1.0000
  C  Sn20      1.0  0.48903  0.40466  0.63757  1.0000
  O  Te17      1.0  0.53969  0.46243  0.68432  1.0000
  O  Te18      1.0  0.44902  0.45436  0.40975  1.0000
  O  Te19      1.0  0.41145  0.37989  0.43843  1.0000
  O  Te20      1.0  0.50214  0.38797  0.71306  1.0000
  Mg  Mg9       1.0  0.40439  0.41483  0.34590  1.0000
  Mg  Mg10      1.0  0.54676  0.42748  0.77701  1.0000
  C  Sn21      1.0  0.42496  0.98438  0.71983  1.0000
  C   C263      1.0  0.45298  0.98847  0.79325  1.0000
  C  Sn22      1.0  0.45480  0.95915  0.83133  1.0000
  C  Sn23      1.0  0.42807  0.92504  0.79520  1.0000
  C   C264      1.0  0.40007  0.92097  0.72181  1.0000
  C  Sn24      1.0  0.39823  0.95027  0.68370  1.0000
  O  Te21      1.0  0.91660  0.01406  0.68283  1.0000
  O  Te22      1.0  0.48307  0.96390  0.90475  1.0000
  O  Te23      1.0  0.42937  0.89535  0.83228  1.0000
  O  Te24      1.0  0.36999  0.94554  0.61031  1.0000
  Mg  Mg11      1.0  0.47314  0.91533  0.93170  1.0000
  Mg  Mg12      1.0  0.37990  0.99408  0.58325  1.0000
  C  Sn25      1.0  0.55537  0.96554  0.72504  1.0000
  C   C265      1.0  0.53647  0.98167  0.68906  1.0000
  C  Sn26      1.0  0.50499  0.96268  0.62320  1.0000
  C  Sn27      1.0  0.49212  0.92683  0.59275  1.0000
  C   C266      1.0  0.51102  0.91073  0.62874  1.0000
  C  Sn28      1.0  0.54251  0.92969  0.69458  1.0000
  O  Te25      1.0  0.58678  0.98503  0.79083  1.0000
  O  Te26      1.0  0.48655  0.97937  0.58820  1.0000
  O  Te27      1.0  0.46069  0.90735  0.52691  1.0000
  O  Te28      1.0  0.56093  0.91302  0.72960  1.0000
  Mg  Mg13      1.0  0.44506  0.94175  0.49986  1.0000
  Mg  Mg14      1.0  0.60242  0.95061  0.81800  1.0000
  C  Sn29      1.0  0.42895  0.93881  0.38045  1.0000
  C   C267      1.0  0.39946  0.92874  0.30513  1.0000
  C  Sn30      1.0  0.40210  0.94815  0.19432  1.0000
  C  Sn31      1.0  0.43490  0.97826  0.15798  1.0000
  C   C268      1.0  0.46437  0.98832  0.23327  1.0000
  C  Sn32      1.0  0.46175  0.96892  0.34411  1.0000
  O  Te29      1.0  0.42570  0.91901  0.49083  1.0000
  O  Te30      1.0  0.37225  0.93757  0.12059  1.0000
  O  Te31      1.0  0.43813  0.99806  0.04751  1.0000
  O  Te32      1.0  0.49158  0.97948  0.41781  1.0000
  Mg  Mg15      1.0  0.37902  0.97185  0.97853  1.0000
  Mg  Mg16      1.0  0.47390  0.94397  0.55984  1.0000
  C  Sn33      1.0  0.60031  0.55592  0.07768  1.0000
  C   C269      1.0  0.56799  0.54184  0.01676  1.0000
  C  Sn34      1.0  0.54735  0.51369  0.92509  1.0000
  C  Sn35      1.0  0.57044  0.50056  0.89371  1.0000
  C   C270      1.0  0.60274  0.51464  0.95463  1.0000
  C  Sn36      1.0  0.62340  0.54280  0.04630  1.0000
  O  Te33      1.0  0.60945  0.58280  0.16904  1.0000
  O  Te34      1.0  0.51491  0.50003  0.86544  1.0000
  O  Te35      1.0  0.56128  0.47366  0.80227  1.0000
  O  Te36      1.0  0.65582  0.55644  0.10595  1.0000
  Mg  Mg17      1.0  0.51427  0.46361  0.74738  1.0000
  Mg  Mg18      1.0  0.65647  0.59285  0.22406  1.0000
  C  Sn37      1.0  0.08038  0.51979  0.78277  1.0000
  C   C271      1.0  0.04811  0.51001  0.72705  1.0000
  C  Sn38      1.0  0.03431  0.48325  0.63403  1.0000
  C  Sn39      1.0  0.05314  0.46589  0.59595  1.0000
  C   C272      1.0  0.08538  0.47567  0.65168  1.0000
  C  Sn40      1.0  0.09921  0.50243  0.74470  1.0000
  O  Te37      1.0  0.09368  0.54661  0.87560  1.0000
  O  Te38      1.0  0.00201  0.47394  0.57966  1.0000
  O  Te39      1.0  0.03981  0.43905  0.50305  1.0000
  O  Te40      1.0  0.13148  0.51174  0.79907  1.0000
  Mg  Mg19      1.0  0.99479  0.43578  0.45706  1.0000
  Mg  Mg20      1.0  0.13872  0.54988  0.92172  1.0000
  C  Sn41      1.0  0.60141  0.04374  0.68930  1.0000
  C   C273      1.0  0.57235  0.03757  0.77091  1.0000
  C  Sn42      1.0  0.57507  0.06287  0.86146  1.0000
  C  Sn43      1.0  0.60750  0.09501  0.87059  1.0000
  C   C274      1.0  0.63653  0.10117  0.78900  1.0000
  C  Sn44      1.0  0.63384  0.07588  0.69842  1.0000
  O  Te41      1.0  0.59810  0.01809  0.59948  1.0000
  O  Te42      1.0  0.54565  0.05610  0.94204  1.0000
  O  Te43      1.0  0.61079  0.12067  0.96051  1.0000
  O  Te44      1.0  0.66323  0.08265  0.61787  1.0000
  Mg  Mg21      1.0  0.57422  0.10046  0.04885  1.0000
  Mg  Mg22      1.0  0.64563  0.03955  0.51099  1.0000
  C  Sn45      1.0  0.57810  0.50375  0.36057  1.0000
  C   C275      1.0  0.61201  0.52182  0.41004  1.0000
  C  Sn46      1.0  0.61756  0.53857  0.53128  1.0000
  C  Sn47      1.0  0.58862  0.53722  0.60466  1.0000
  C   C276      1.0  0.55474  0.51916  0.55520  1.0000
  C  Sn48      1.0  0.54916  0.50240  0.43395  1.0000
  O  Te45      1.0  0.57316  0.48719  0.23914  1.0000
  O  Te46      1.0  0.65170  0.55648  0.57868  1.0000
  O  Te47      1.0  0.59359  0.55381  0.72617  1.0000
  O  Te48      1.0  0.51504  0.48449  0.38656  1.0000
  Mg  Mg23      1.0  0.64502  0.57488  0.74919  1.0000
  Mg  Mg24      1.0  0.52169  0.46607  0.21610  1.0000
