data_image0
_chemical_formula_structural       H96C180N24C2Sn2C2HTe2HMgC2Sn2C2HTe2HMgC2Sn2C2HTe2HMgC2Sn2C2HTe2HMgC2Sn2C2HTe2HMgC2Sn2C2HTe2HMgC2Sn2C2HTe2HMgC2Sn2C2HTe2HMgC2Sn2C2HTe2HMgC2Sn2C2HTe2HMgC2Sn2C2HTe2HMgC2Sn2C2HTe2HMgC2Sn2C2HTe2HMgC2Sn2C2HTe2HMgC2Sn2C2HTe2HMgC2Sn2C2HTe2HMgC2Sn2C2HTe2HMgC2Sn2C2HTe2HMgC2Sn2C2HTe2HMgC2Sn2C2HTe2HMgC2Sn2C2HTe2HMgC2Sn2C2HTe2HMgC2Sn2C2HTe2HMgC2Sn2C2HTe2HMg
_chemical_formula_sum              "H144 C276 N24 Sn48 Te48 Mg24"
_cell_length_a       43.7647
_cell_length_b       44.0691
_cell_length_c       10.2172
_cell_angle_alpha    91.0456
_cell_angle_beta     87.4674
_cell_angle_gamma    120.237

_symmetry_space_group_name_H-M    'P1'
_space_group_IT_number       1

loop_
  _space_group_symop_operation_xyz
  'x, y, z'

loop_
  _atom_site_type_symbol
  _atom_site_label
  _atom_site_symmetry_multiplicity
  _atom_site_fract_x
  _atom_site_fract_y
  _atom_site_fract_z
  _atom_site_occupancy
  H   H1        1.0  0.67614  0.53561  0.06817  1.0000
  H   H2        1.0  0.34267  0.44326  0.43845  1.0000
  H   H3        1.0  0.66345  0.48030  0.25754  1.0000
  H   H4        1.0  0.70424  0.45946  0.16699  1.0000
  H   H5        1.0  0.73521  0.54343  0.06931  1.0000
  H   H6        1.0  0.29506  0.48561  0.61615  1.0000
  H   H7        1.0  0.22613  0.38099  0.83438  1.0000
  H   H8        1.0  0.29019  0.40379  0.87791  1.0000
  H   H9        1.0  0.21207  0.49611  0.17750  1.0000
  H   H10       1.0  0.11991  0.43430  0.44197  1.0000
  H   H11       1.0  0.15021  0.40671  0.31448  1.0000
  H   H12       1.0  0.15615  0.49719  0.22350  1.0000
  H   H13       1.0  0.79101  0.45930  0.18757  1.0000
  H   H14       1.0  0.84921  0.48219  0.29355  1.0000
  H   H15       1.0  0.82725  0.54786  0.07932  1.0000
  H   H16       1.0  0.88998  0.51354  0.43193  1.0000
  H   H17       1.0  0.50497  0.63677  0.41377  1.0000
  H   H18       1.0  0.49567  0.35415  0.06847  1.0000
  H   H19       1.0  0.54062  0.73026  0.10370  1.0000
  H   H20       1.0  0.45994  0.69843  0.21929  1.0000
  H   H21       1.0  0.47812  0.65593  0.28881  1.0000
  H   H22       1.0  0.41672  0.31982  0.28299  1.0000
  H   H23       1.0  0.39319  0.26811  0.43620  1.0000
  H   H24       1.0  0.48892  0.29267  0.08501  1.0000
  H   H25       1.0  0.40053  0.19177  0.56591  1.0000
  H   H26       1.0  0.42839  0.15408  0.54855  1.0000
  H   H27       1.0  0.48875  0.20696  0.19545  1.0000
  H   H28       1.0  0.54478  0.82151  0.16012  1.0000
  H   H29       1.0  0.48294  0.84085  0.40029  1.0000
  H   H30       1.0  0.46233  0.78516  0.27044  1.0000
  H   H31       1.0  0.46575  0.13761  0.46051  1.0000
  H   H32       1.0  0.54504  0.87864  0.18947  1.0000
  H   H33       1.0  0.67393  0.16979  0.38255  1.0000
  H   H34       1.0  0.92568  0.35222  0.45242  1.0000
  H   H35       1.0  0.15995  0.67594  0.29019  1.0000
  H   H36       1.0  0.39430  0.88661  0.06879  1.0000
  H   H37       1.0  0.72532  0.12389  0.39690  1.0000
  H   H38       1.0  0.79076  0.15143  0.42972  1.0000
  H   H39       1.0  0.72837  0.22098  0.88448  1.0000
  H   H40       1.0  0.81920  0.31036  0.94589  1.0000
  H   H41       1.0  0.88015  0.23320  0.46429  1.0000
  H   H42       1.0  0.91670  0.29897  0.47348  1.0000
  H   H43       1.0  0.19255  0.65970  0.97431  1.0000
  H   H44       1.0  0.25205  0.69778  0.85940  1.0000
  H   H45       1.0  0.21492  0.73653  0.27897  1.0000
  H   H46       1.0  0.30680  0.82616  0.26120  1.0000
  H   H47       1.0  0.33983  0.78289  0.84272  1.0000
  H   H48       1.0  0.38034  0.84230  0.93661  1.0000
  H   H49       1.0  0.68066  0.54094  0.53874  1.0000
  H   H50       1.0  0.34226  0.44034  0.97608  1.0000
  H   H51       1.0  0.66576  0.48752  0.75502  1.0000
  H   H52       1.0  0.70862  0.47022  0.65543  1.0000
  H   H53       1.0  0.73955  0.54808  0.53649  1.0000
  H   H54       1.0  0.29739  0.49003  0.10869  1.0000
  H   H55       1.0  0.23201  0.39702  0.25637  1.0000
  H   H56       1.0  0.29388  0.41496  0.31469  1.0000
  H   H57       1.0  0.20902  0.49129  0.68833  1.0000
  H   H58       1.0  0.11491  0.42154  0.99816  1.0000
  H   H59       1.0  0.14351  0.38999  0.88744  1.0000
  H   H60       1.0  0.15465  0.49531  0.72310  1.0000
  H   H61       1.0  0.79625  0.47162  0.67110  1.0000
  H   H62       1.0  0.85272  0.49137  0.78554  1.0000
  H   H63       1.0  0.83010  0.55002  0.55220  1.0000
  H   H64       1.0  0.89045  0.51710  0.93878  1.0000
  H   H65       1.0  0.51374  0.64893  0.89182  1.0000
  H   H66       1.0  0.49597  0.34945  0.56242  1.0000
  H   H67       1.0  0.53569  0.72131  0.61324  1.0000
  H   H68       1.0  0.45916  0.70637  0.72717  1.0000
  H   H69       1.0  0.48089  0.66532  0.78184  1.0000
  H   H70       1.0  0.41812  0.31357  0.78041  1.0000
  H   H71       1.0  0.39717  0.26249  0.93640  1.0000
  H   H72       1.0  0.49090  0.28821  0.57512  1.0000
  H   H73       1.0  0.40718  0.18893  0.06524  1.0000
  H   H74       1.0  0.43657  0.15245  0.04945  1.0000
  H   H75       1.0  0.49512  0.20454  0.69238  1.0000
  H   H76       1.0  0.53980  0.81275  0.66150  1.0000
  H   H77       1.0  0.48409  0.84882  0.91645  1.0000
  H   H78       1.0  0.46111  0.79255  0.78807  1.0000
  H   H79       1.0  0.47446  0.13768  0.96598  1.0000
  H   H80       1.0  0.53801  0.86807  0.69213  1.0000
  H   H81       1.0  0.67288  0.16329  0.86150  1.0000
  H   H82       1.0  0.91940  0.35446  0.00722  1.0000
  H   H83       1.0  0.15672  0.68562  0.76103  1.0000
  H   H84       1.0  0.40321  0.87780  0.61589  1.0000
  H   H85       1.0  0.73110  0.12471  0.84348  1.0000
  H   H86       1.0  0.79573  0.15522  0.89550  1.0000
  H   H87       1.0  0.73093  0.22447  0.41699  1.0000
  H   H88       1.0  0.82468  0.31058  0.45866  1.0000
  H   H89       1.0  0.87818  0.23728  0.99877  1.0000
  H   H90       1.0  0.91103  0.30259  0.02767  1.0000
  H   H91       1.0  0.19438  0.65778  0.48447  1.0000
  H   H92       1.0  0.25626  0.69158  0.38368  1.0000
  H   H93       1.0  0.21247  0.74358  0.74184  1.0000
  H   H94       1.0  0.30549  0.83160  0.71986  1.0000
  H   H95       1.0  0.34782  0.77298  0.38311  1.0000
  H   H96       1.0  0.38877  0.83303  0.47187  1.0000
  C   C1        1.0  0.49278  0.50245  0.06682  1.0000
  C   C2        1.0  0.52585  0.53220  0.06661  1.0000
  C   C3        1.0  0.67148  0.52406  0.96948  1.0000
  C   C4        1.0  0.33423  0.46074  0.48480  1.0000
  C   C5        1.0  0.69805  0.51614  0.91407  1.0000
  C   C6        1.0  0.29759  0.45105  0.46528  1.0000
  C   C7        1.0  0.68959  0.49034  0.29610  1.0000
  C   C8        1.0  0.71218  0.47850  0.24593  1.0000
  C   C9        1.0  0.74457  0.49265  0.30316  1.0000
  C   C10       1.0  0.75402  0.51957  0.92270  1.0000
  C   C11       1.0  0.73049  0.52842  0.97924  1.0000
  C   C12       1.0  0.28059  0.46654  0.54080  1.0000
  C   C13       1.0  0.24632  0.45548  0.51078  1.0000
  C   C14       1.0  0.22876  0.43074  0.40805  1.0000
  C   C15       1.0  0.24093  0.40444  0.89276  1.0000
  C   C16       1.0  0.27972  0.42604  0.36822  1.0000
  C   C17       1.0  0.77861  0.49285  0.31021  1.0000
  C   C18       1.0  0.19413  0.42646  0.97063  1.0000
  C   C19       1.0  0.21348  0.45665  0.05093  1.0000
  C   C20       1.0  0.19794  0.47366  0.11353  1.0000
  C   C21       1.0  0.16132  0.46003  0.09077  1.0000
  C   C22       1.0  0.14272  0.43042  0.01062  1.0000
  C   C23       1.0  0.16304  0.42452  0.39502  1.0000
  C   C24       1.0  0.14249  0.47698  0.14889  1.0000
  C   C25       1.0  0.00512  0.50092  0.26648  1.0000
  C   C26       1.0  0.79899  0.47890  0.26450  1.0000
  C   C27       1.0  0.83171  0.49205  0.32438  1.0000
  C   C28       1.0  0.84288  0.51719  0.42493  1.0000
  C   C29       1.0  0.82001  0.53195  0.99114  1.0000
  C   C30       1.0  0.78914  0.52073  0.92786  1.0000
  C   C31       1.0  0.87592  0.52546  0.48255  1.0000
  C   C32       1.0  0.00487  0.53169  0.25135  1.0000
  C   C33       1.0  0.51265  0.65713  0.48912  1.0000
  C   C34       1.0  0.50639  0.68546  0.45581  1.0000
  C   C35       1.0  0.46822  0.34249  0.10758  1.0000
  C   C36       1.0  0.45321  0.30892  0.17759  1.0000
  C   C37       1.0  0.52350  0.72621  0.02325  1.0000
  C   C38       1.0  0.51271  0.74917  0.98819  1.0000
  C   C39       1.0  0.48913  0.74181  0.88330  1.0000
  C   C40       1.0  0.47579  0.70362  0.30471  1.0000
  C   C41       1.0  0.48601  0.67972  0.34550  1.0000
  C   C42       1.0  0.42620  0.30129  0.27351  1.0000
  C   C43       1.0  0.41284  0.27227  0.35897  1.0000
  C   C44       1.0  0.42757  0.25113  0.34100  1.0000
  C   C45       1.0  0.45413  0.25760  0.24058  1.0000
  C   C46       1.0  0.46794  0.28649  0.15920  1.0000
  C   C47       1.0  0.49005  0.77573  0.90683  1.0000
  C   C48       1.0  0.42977  0.22069  0.39009  1.0000
  C   C49       1.0  0.41922  0.19534  0.48572  1.0000
  C   C50       1.0  0.43508  0.17429  0.47507  1.0000
  C   C51       1.0  0.45890  0.17774  0.37147  1.0000
  C   C52       1.0  0.47005  0.20464  0.27378  1.0000
  C   C53       1.0  0.45564  0.22596  0.28792  1.0000
  C   C54       1.0  0.51380  0.78391  0.01105  1.0000
  C   C55       1.0  0.52689  0.81486  0.08005  1.0000
  C   C56       1.0  0.51496  0.83822  0.04284  1.0000
  C   C57       1.0  0.49164  0.82957  0.93952  1.0000
  C   C58       1.0  0.47844  0.79044  0.35519  1.0000
  C   C59       1.0  0.47012  0.15175  0.36763  1.0000
  C   C60       1.0  0.52621  0.87162  0.11088  1.0000
  C   C61       1.0  0.52810  0.02080  0.24966  1.0000
  C   C62       1.0  0.49725  0.02215  0.25776  1.0000
  C   C63       1.0  0.68703  0.15401  0.37910  1.0000
  C   C64       1.0  0.72482  0.17203  0.40547  1.0000
  C   C65       1.0  0.89774  0.34527  0.46203  1.0000
  C   C66       1.0  0.87287  0.30775  0.47005  1.0000
  C   C67       1.0  0.16519  0.67166  0.18709  1.0000
  C   C68       1.0  0.20050  0.69574  0.12909  1.0000
  C   C69       1.0  0.37162  0.87288  0.13864  1.0000
  C   C70       1.0  0.34578  0.83731  0.10032  1.0000
  C   C71       1.0  0.74177  0.15209  0.40993  1.0000
  C   C72       1.0  0.77825  0.16736  0.42790  1.0000
  C   C73       1.0  0.79670  0.20342  0.44151  1.0000
  C   C74       1.0  0.77895  0.22419  0.91193  1.0000
  C   C75       1.0  0.74342  0.20748  0.88704  1.0000
  C   C76       1.0  0.83074  0.29381  0.95820  1.0000
  C   C77       1.0  0.81298  0.25794  0.94375  1.0000
  C   C78       1.0  0.83182  0.23554  0.45711  1.0000
  C   C79       1.0  0.86772  0.24923  0.46516  1.0000
  C   C80       1.0  0.88799  0.28621  0.47122  1.0000
  C   C81       1.0  0.21127  0.68533  0.01300  1.0000
  C   C82       1.0  0.24441  0.70644  0.94892  1.0000
  C   C83       1.0  0.26598  0.73837  0.00713  1.0000
  C   C84       1.0  0.25571  0.74949  0.12515  1.0000
  C   C85       1.0  0.22338  0.72881  0.18888  1.0000
  C   C86       1.0  0.31287  0.81608  0.17190  1.0000
  C   C87       1.0  0.29100  0.78373  0.11893  1.0000
  C   C88       1.0  0.30062  0.77180  0.00079  1.0000
  C   C89       1.0  0.33240  0.79156  0.93262  1.0000
  C   C90       1.0  0.35486  0.82498  0.98592  1.0000
  C   C91       1.0  0.49015  0.49534  0.57083  1.0000
  C   C92       1.0  0.52384  0.52428  0.56772  1.0000
  C   C93       1.0  0.67310  0.52408  0.45147  1.0000
  C   C94       1.0  0.33382  0.45896  0.00964  1.0000
  C   C95       1.0  0.69892  0.51482  0.39895  1.0000
  C   C96       1.0  0.29682  0.44779  0.99227  1.0000
  C   C97       1.0  0.69098  0.49587  0.79909  1.0000
  C   C98       1.0  0.71484  0.48623  0.74332  1.0000
  C   C99       1.0  0.74610  0.49844  0.80718  1.0000
  C   C100      1.0  0.75484  0.51808  0.40584  1.0000
  C   C101      1.0  0.73277  0.52955  0.45601  1.0000
  C   C102      1.0  0.28132  0.46704  0.04969  1.0000
  C   C103      1.0  0.24633  0.45399  0.02625  1.0000
  C   C104      1.0  0.22642  0.42336  0.94765  1.0000
  C   C105      1.0  0.24471  0.41552  0.33523  1.0000
  C   C106      1.0  0.27698  0.41748  0.91789  1.0000
  C   C107      1.0  0.78045  0.49915  0.81267  1.0000
  C   C108      1.0  0.19664  0.43402  0.43258  1.0000
  C   C109      1.0  0.21344  0.45826  0.53657  1.0000
  C   C110      1.0  0.19689  0.47310  0.60793  1.0000
  C   C111      1.0  0.16207  0.46357  0.57021  1.0000
  C   C112      1.0  0.14623  0.44002  0.46618  1.0000
  C   C113      1.0  0.15866  0.41281  0.94849  1.0000
  C   C114      1.0  0.14234  0.47843  0.63816  1.0000
  C   C115      1.0  0.00579  0.50264  0.78166  1.0000
  C   C116      1.0  0.80231  0.48785  0.75824  1.0000
  C   C117      1.0  0.83414  0.49932  0.82270  1.0000
  C   C118      1.0  0.84318  0.52055  0.93507  1.0000
  C   C119      1.0  0.82121  0.53121  0.47234  1.0000
  C   C120      1.0  0.78959  0.51858  0.41280  1.0000
  C   C121      1.0  0.87575  0.52773  0.99384  1.0000
  C   C122      1.0  0.00536  0.53309  0.75650  1.0000
  C   C123      1.0  0.51802  0.66702  0.97369  1.0000
  C   C124      1.0  0.51060  0.69496  0.94572  1.0000
  C   C125      1.0  0.46838  0.33660  0.60077  1.0000
  C   C126      1.0  0.45470  0.30333  0.67128  1.0000
  C   C127      1.0  0.51946  0.71725  0.52991  1.0000
  C   C128      1.0  0.50982  0.74062  0.48875  1.0000
  C   C129      1.0  0.48793  0.73367  0.37860  1.0000
  C   C130      1.0  0.47655  0.71196  0.80808  1.0000
  C   C131      1.0  0.48863  0.68884  0.84037  1.0000
  C   C132      1.0  0.42818  0.29551  0.76973  1.0000
  C   C133      1.0  0.41632  0.26700  0.85671  1.0000
  C   C134      1.0  0.43200  0.24677  0.83746  1.0000
  C   C135      1.0  0.45811  0.25345  0.73501  1.0000
  C   C136      1.0  0.47046  0.28183  0.65181  1.0000
  C   C137      1.0  0.48917  0.76785  0.39805  1.0000
  C   C138      1.0  0.43545  0.21723  0.88733  1.0000
  C   C139      1.0  0.42571  0.19245  0.98448  1.0000
  C   C140      1.0  0.44241  0.17219  0.97485  1.0000
  C   C141      1.0  0.46636  0.17606  0.87118  1.0000
  C   C142      1.0  0.47633  0.20208  0.77068  1.0000
  C   C143      1.0  0.46099  0.22261  0.78350  1.0000
  C   C144      1.0  0.51117  0.77558  0.50780  1.0000
  C   C145      1.0  0.52319  0.80629  0.57745  1.0000
  C   C146      1.0  0.51201  0.82989  0.53512  1.0000
  C   C147      1.0  0.49032  0.82165  0.42675  1.0000
  C   C148      1.0  0.47858  0.79812  0.86873  1.0000
  C   C149      1.0  0.47866  0.15098  0.87127  1.0000
  C   C150      1.0  0.52217  0.86275  0.60504  1.0000
  C   C151      1.0  0.52868  0.01328  0.75609  1.0000
  C   C152      1.0  0.49953  0.01754  0.77474  1.0000
  C   C153      1.0  0.68826  0.15009  0.84110  1.0000
  C   C154      1.0  0.72638  0.17046  0.86326  1.0000
  C   C155      1.0  0.89208  0.34743  0.98718  1.0000
  C   C156      1.0  0.86744  0.30975  0.98795  1.0000
  C   C157      1.0  0.16402  0.67617  0.67122  1.0000
  C   C158      1.0  0.20012  0.69829  0.61595  1.0000
  C   C159      1.0  0.37546  0.87053  0.63766  1.0000
  C   C160      1.0  0.34930  0.83536  0.59667  1.0000
  C   C161      1.0  0.74561  0.15271  0.86410  1.0000
  C   C162      1.0  0.78165  0.16966  0.89286  1.0000
  C   C163      1.0  0.79739  0.20517  0.91855  1.0000
  C   C164      1.0  0.78002  0.22417  0.43889  1.0000
  C   C165      1.0  0.74429  0.20933  0.42134  1.0000
  C   C166      1.0  0.83534  0.29304  0.46233  1.0000
  C   C167      1.0  0.81580  0.25710  0.45538  1.0000
  C   C168      1.0  0.83028  0.23773  0.95433  1.0000
  C   C169      1.0  0.86500  0.25236  0.98788  1.0000
  C   C170      1.0  0.88315  0.28909  0.00505  1.0000
  C   C171      1.0  0.21269  0.68437  0.51609  1.0000
  C   C172      1.0  0.24724  0.70310  0.46011  1.0000
  C   C173      1.0  0.26828  0.73651  0.50835  1.0000
  C   C174      1.0  0.25579  0.75159  0.60701  1.0000
  C   C175      1.0  0.22224  0.73310  0.66401  1.0000
  C   C176      1.0  0.31341  0.81824  0.64732  1.0000
  C   C177      1.0  0.29177  0.78496  0.60151  1.0000
  C   C178      1.0  0.30391  0.76888  0.50502  1.0000
  C   C179      1.0  0.33833  0.78501  0.45554  1.0000
  C   C180      1.0  0.36108  0.81880  0.50579  1.0000
  N   N1        1.0  0.52473  0.65346  0.59787  1.0000
  N   N2        1.0  0.64278  0.51156  0.39802  1.0000
  N   N3        1.0  0.45034  0.35836  0.09938  1.0000
  N   N4        1.0  0.35640  0.48817  0.54816  1.0000
  N   N5        1.0  0.11150  0.46779  0.10808  1.0000
  N   N6        1.0  0.88738  0.54403  0.10362  1.0000
  N   N7        1.0  0.14251  0.64646  0.11584  1.0000
  N   N8        1.0  0.88958  0.36973  0.45807  1.0000
  N   N9        1.0  0.48309  0.14432  0.26355  1.0000
  N   N10       1.0  0.51353  0.89087  0.07411  1.0000
  N   N11       1.0  0.67103  0.12124  0.34741  1.0000
  N   N12       1.0  0.37018  0.88850  0.24494  1.0000
  N   N13       1.0  0.52667  0.66157  0.08683  1.0000
  N   N14       1.0  0.64387  0.51677  0.90448  1.0000
  N   N15       1.0  0.44928  0.35118  0.59268  1.0000
  N   N16       1.0  0.35633  0.48906  0.05727  1.0000
  N   N17       1.0  0.11207  0.47133  0.59543  1.0000
  N   N18       1.0  0.88840  0.54383  0.58793  1.0000
  N   N19       1.0  0.14307  0.64701  0.61350  1.0000
  N   N20       1.0  0.88556  0.37196  0.95579  1.0000
  N   N21       1.0  0.49196  0.14307  0.76942  1.0000
  N   N22       1.0  0.51135  0.88322  0.56372  1.0000
  N   N23       1.0  0.67401  0.11813  0.79970  1.0000
  N   N24       1.0  0.36817  0.89292  0.69278  1.0000
  C   C181      1.0  0.55063  0.59459  0.47817  1.0000
  C   C182      1.0  0.53777  0.56765  0.57132  1.0000
  C  Sn1       1.0  0.51909  0.56876  0.68401  1.0000
  C  Sn2       1.0  0.51320  0.59741  0.70353  1.0000
  C   C183      1.0  0.52616  0.62422  0.60971  1.0000
  C   C184      1.0  0.54483  0.62285  0.49732  1.0000
  H   H97       1.0  0.56506  0.59352  0.39117  1.0000
  O  Te1       1.0  0.50643  0.54163  0.77611  1.0000
  O  Te2       1.0  0.49460  0.59917  0.81525  1.0000
  H   H98       1.0  0.55476  0.64370  0.42518  1.0000
  Mg  Mg1       1.0  0.48260  0.55586  0.91257  1.0000
  C   C185      1.0  0.50571  0.59600  0.19775  1.0000
  C   C186      1.0  0.52753  0.62689  0.12697  1.0000
  C  Sn3       1.0  0.55202  0.62800  0.03189  1.0000
  C  Sn4       1.0  0.55465  0.59758  0.00740  1.0000
  C   C187      1.0  0.53269  0.56681  0.07867  1.0000
  C   C188      1.0  0.50828  0.56599  0.17362  1.0000
  H   H99       1.0  0.48681  0.59536  0.27116  1.0000
  O  Te3       1.0  0.56267  0.65783  0.96211  1.0000
  O  Te4       1.0  0.56795  0.59672  0.91289  1.0000
  H   H100      1.0  0.49138  0.54207  0.22834  1.0000
  Mg  Mg2       1.0  0.59160  0.64531  0.84331  1.0000
  C   C189      1.0  0.59760  0.54535  0.59205  1.0000
  C   C190      1.0  0.56448  0.53003  0.53646  1.0000
  C  Sn5       1.0  0.55641  0.50621  0.43354  1.0000
  C  Sn6       1.0  0.58202  0.49761  0.38561  1.0000
  C   C191      1.0  0.61507  0.51306  0.44196  1.0000
  C   C192      1.0  0.62288  0.53687  0.54488  1.0000
  H   H101      1.0  0.60363  0.56377  0.67173  1.0000
  O  Te5       1.0  0.52319  0.49116  0.37909  1.0000
  O  Te6       1.0  0.57465  0.47387  0.28288  1.0000
  H   H102      1.0  0.64851  0.54871  0.58796  1.0000
  Mg  Mg3       1.0  0.52565  0.46027  0.24083  1.0000
  C   C193      1.0  0.61406  0.54712  0.08501  1.0000
  C   C194      1.0  0.60653  0.52574  0.98443  1.0000
  C  Sn7       1.0  0.57943  0.50797  0.89692  1.0000
  C  Sn8       1.0  0.54837  0.51048  0.91059  1.0000
  C   C195      1.0  0.55616  0.53196  0.01148  1.0000
  C   C196      1.0  0.58344  0.54961  0.09853  1.0000
  H   H103      1.0  0.63517  0.56080  0.15233  1.0000
  O  Te7       1.0  0.58327  0.48795  0.79702  1.0000
  O  Te8       1.0  0.52088  0.49300  0.82446  1.0000
  H   H104      1.0  0.58080  0.56522  0.17634  1.0000
  Mg  Mg4       1.0  0.53851  0.46897  0.70408  1.0000
  C   C197      1.0  0.41740  0.46654  0.65810  1.0000
  C   C198      1.0  0.44934  0.48922  0.59126  1.0000
  C  Sn9       1.0  0.45203  0.51602  0.51193  1.0000
  C  Sn10      1.0  0.42215  0.52012  0.49950  1.0000
  C   C199      1.0  0.39032  0.49731  0.56685  1.0000
  C   C200      1.0  0.38792  0.47057  0.64593  1.0000
  H   H105      1.0  0.41555  0.44586  0.71935  1.0000
  O  Te9       1.0  0.48414  0.53845  0.44580  1.0000
  O  Te10      1.0  0.42411  0.54669  0.42091  1.0000
  H   H106      1.0  0.36319  0.45303  0.69774  1.0000
  Mg  Mg5       1.0  0.47365  0.57066  0.35034  1.0000
  C   C201      1.0  0.40225  0.46904  0.16078  1.0000
  C   C202      1.0  0.39176  0.49028  0.09988  1.0000
  C  Sn11      1.0  0.41586  0.51832  0.02011  1.0000
  C  Sn12      1.0  0.45109  0.52516  0.00112  1.0000
  C   C203      1.0  0.46131  0.50375  0.06241  1.0000
  C   C204      1.0  0.43699  0.47576  0.14206  1.0000
  H   H107      1.0  0.38343  0.44737  0.22236  1.0000
  O  Te11      1.0  0.39399  0.53804  0.96004  1.0000
  O  Te12      1.0  0.46476  0.55177  0.92186  1.0000
  H   H108      1.0  0.44511  0.45931  0.18914  1.0000
  Mg  Mg6       1.0  0.43723  0.57290  0.86108  1.0000
  C   C205      1.0  0.44632  0.40587  0.46952  1.0000
  C   C206      1.0  0.46094  0.38952  0.53885  1.0000
  C  Sn13      1.0  0.48744  0.40870  0.62722  1.0000
  C  Sn14      1.0  0.49947  0.44490  0.64636  1.0000
  C   C207      1.0  0.48466  0.46101  0.57660  1.0000
  C   C208      1.0  0.45816  0.44158  0.48838  1.0000
  H   H109      1.0  0.42581  0.39083  0.40132  1.0000
  O  Te13      1.0  0.50177  0.39196  0.69564  1.0000
  O  Te14      1.0  0.52591  0.46469  0.73412  1.0000
  H   H110      1.0  0.44683  0.45424  0.43479  1.0000
  Mg  Mg7       1.0  0.53722  0.43007  0.80441  1.0000
  C   C209      1.0  0.50175  0.42866  0.14756  1.0000
  C   C210      1.0  0.47285  0.39980  0.09225  1.0000
  C  Sn15      1.0  0.45209  0.40484  0.00500  1.0000
  C  Sn16      1.0  0.44953  0.43820  0.97268  1.0000
  C   C211      1.0  0.48945  0.46814  0.02846  1.0000
  C   C212      1.0  0.51005  0.46280  0.11569  1.0000
  H   H111      1.0  0.51770  0.42453  0.21499  1.0000
  O  Te15      1.0  0.41236  0.37447  0.95068  1.0000
  O  Te16      1.0  0.42923  0.44399  0.88572  1.0000
  H   H112      1.0  0.53243  0.48514  0.15843  1.0000
  Mg  Mg8       1.0  0.39265  0.39585  0.83721  1.0000
  C   C213      1.0  0.08973  0.50533  0.28918  1.0000
  C   C214      1.0  0.09107  0.48523  0.18409  1.0000
  C  Sn17      1.0  0.06529  0.47292  0.09001  1.0000
  C  Sn18      1.0  0.03769  0.48094  0.10160  1.0000
  C   C215      1.0  0.03660  0.50109  0.20705  1.0000
  C   C216      1.0  0.06253  0.51326  0.30066  1.0000
  H   H113      1.0  0.10981  0.51476  0.36158  1.0000
  O  Te17      1.0  0.05606  0.45162  0.98566  1.0000
  O  Te18      1.0  0.01159  0.46899  0.00893  1.0000
  H   H114      1.0  0.06151  0.52884  0.38197  1.0000
  Mg  Mg9       1.0  0.01437  0.44132  0.88434  1.0000
  C   C217      1.0  0.95327  0.57393  0.22554  1.0000
  C   C218      1.0  0.92181  0.54875  0.17026  1.0000
  C  Sn19      1.0  0.91451  0.51420  0.15462  1.0000
  C  Sn20      1.0  0.93920  0.50475  0.19521  1.0000
  C   C219      1.0  0.97059  0.53012  0.25050  1.0000
  C   C220      1.0  0.97763  0.56462  0.26565  1.0000
  H   H115      1.0  0.95871  0.60062  0.23734  1.0000
  O  Te19      1.0  0.88295  0.48938  0.09916  1.0000
  O  Te20      1.0  0.93257  0.47040  0.18077  1.0000
  H   H116      1.0  0.00198  0.58410  0.30854  1.0000
  Mg  Mg10      1.0  0.88587  0.44596  0.09985  1.0000
  C   C221      1.0  0.08386  0.58393  0.06158  1.0000
  C   C222      1.0  0.10380  0.61484  0.13169  1.0000
  C  Sn21      1.0  0.09105  0.61983  0.25315  1.0000
  C  Sn22      1.0  0.05771  0.59333  0.30513  1.0000
  C   C223      1.0  0.03797  0.56248  0.23426  1.0000
  C   C224      1.0  0.05098  0.55777  0.11280  1.0000
  H   H117      1.0  0.08298  0.57903  0.96763  1.0000
  O  Te21      1.0  0.11132  0.65087  0.32189  1.0000
  O  Te22      1.0  0.04434  0.59762  0.42632  1.0000
  H   H118      1.0  0.03554  0.53383  0.05857  1.0000
  Mg  Mg11      1.0  0.08178  0.64452  0.48300  1.0000
  C   C225      1.0  0.95965  0.42540  0.24900  1.0000
  C   C226      1.0  0.97154  0.45957  0.29359  1.0000
  C  Sn23      1.0  0.95612  0.46536  0.40681  1.0000
  C  Sn24      1.0  0.92830  0.43634  0.47649  1.0000
  C   C227      1.0  0.91661  0.40225  0.43112  1.0000
  C   C228      1.0  0.93222  0.39676  0.31769  1.0000
  H   H119      1.0  0.97174  0.42115  0.16128  1.0000
  O  Te23      1.0  0.96830  0.49967  0.44997  1.0000
  O  Te24      1.0  0.91242  0.44137  0.58996  1.0000
  H   H120      1.0  0.92303  0.37030  0.28324  1.0000
  Mg  Mg12      1.0  0.93824  0.49308  0.60977  1.0000
  C   C229      1.0  0.46149  0.07572  0.35703  1.0000
  C   C230      1.0  0.48234  0.10826  0.29517  1.0000
  C  Sn25      1.0  0.51048  0.11385  0.20947  1.0000
  C  Sn26      1.0  0.51783  0.08630  0.18542  1.0000
  C   C231      1.0  0.49680  0.05383  0.24773  1.0000
  C   C232      1.0  0.46870  0.04853  0.33333  1.0000
  H   H121      1.0  0.43974  0.07161  0.42321  1.0000
  O  Te25      1.0  0.53106  0.14653  0.14851  1.0000
  O  Te26      1.0  0.54579  0.09117  0.10019  1.0000
  H   H122      1.0  0.45255  0.02332  0.38115  1.0000
  Mg  Mg13      1.0  0.56626  0.14038  0.04055  1.0000
  C   C233      1.0  0.54032  0.96240  0.29351  1.0000
  C   C234      1.0  0.53293  0.98501  0.22531  1.0000
  C  Sn27      1.0  0.51719  0.97516  0.10408  1.0000
  C  Sn28      1.0  0.50871  0.94203  0.05039  1.0000
  C   C235      1.0  0.51618  0.91958  0.11943  1.0000
  C   C236      1.0  0.53194  0.92971  0.24065  1.0000
  H   H123      1.0  0.55250  0.97022  0.38734  1.0000
  O  Te27      1.0  0.51001  0.99808  0.03723  1.0000
  O  Te28      1.0  0.48200  0.93027  0.92943  1.0000
  H   H124      1.0  0.53764  0.91218  0.29347  1.0000
  Mg  Mg14      1.0  0.47738  0.97067  0.87561  1.0000
  C   C237      1.0  0.43469  0.93448  0.35570  1.0000
  C   C238      1.0  0.40359  0.92504  0.29161  1.0000
  C  Sn29      1.0  0.40245  0.94829  0.20352  1.0000
  C  Sn30      1.0  0.43305  0.98159  0.17932  1.0000
  C   C239      1.0  0.46404  0.99078  0.24386  1.0000
  C   C240      1.0  0.46489  0.96732  0.33185  1.0000
  H   H125      1.0  0.43536  0.91632  0.42373  1.0000
  O  Te29      1.0  0.37115  0.93844  0.14037  1.0000
  O  Te30      1.0  0.92557  0.00533  0.09172  1.0000
  H   H126      1.0  0.48898  0.97462  0.38139  1.0000
  Mg  Mg15      1.0  0.38372  0.97986  0.02963  1.0000
  C   C241      1.0  0.60223  0.05426  0.19070  1.0000
  C   C242      1.0  0.57092  0.04884  0.25420  1.0000
  C  Sn31      1.0  0.57197  0.07159  0.35325  1.0000
  C  Sn32      1.0  0.60502  0.10028  0.38916  1.0000
  C   C243      1.0  0.63619  0.10549  0.32497  1.0000
  C   C244      1.0  0.63484  0.08256  0.22602  1.0000
  H   H127      1.0  0.60119  0.03654  0.11408  1.0000
  O  Te31      1.0  0.54044  0.06578  0.41572  1.0000
  O  Te32      1.0  0.60683  0.12342  0.48779  1.0000
  H   H128      1.0  0.65908  0.08678  0.17681  1.0000
  Mg  Mg16      1.0  0.55660  0.10454  0.54416  1.0000
  C   C245      1.0  0.03711  0.47682  0.59516  1.0000
  C   C246      1.0  0.03518  0.49370  0.70969  1.0000
  C  Sn33      1.0  0.06284  0.50728  0.79626  1.0000
  C  Sn34      1.0  0.09298  0.50385  0.76735  1.0000
  C   C247      1.0  0.09467  0.48694  0.65247  1.0000
  C   C248      1.0  0.06683  0.47344  0.56655  1.0000
  H   H129      1.0  0.01558  0.46639  0.52864  1.0000
  O  Te33      1.0  0.06047  0.52406  0.91027  1.0000
  O  Te34      1.0  0.12101  0.51719  0.85214  1.0000
  H   H130      1.0  0.06835  0.46039  0.47784  1.0000
  Mg  Mg17      1.0  0.10546  0.53789  0.99522  1.0000
  C   C249      1.0  0.91906  0.50343  0.64949  1.0000
  C   C250      1.0  0.91369  0.53213  0.65207  1.0000
  C  Sn35      1.0  0.94016  0.56488  0.69466  1.0000
  C  Sn36      1.0  0.97257  0.56889  0.73532  1.0000
  C   C251      1.0  0.97769  0.54003  0.73228  1.0000
  C   C252      1.0  0.95103  0.50737  0.68953  1.0000
  H   H131      1.0  0.89844  0.47816  0.61635  1.0000
  O  Te35      1.0  0.93435  0.59327  0.69666  1.0000
  O  Te36      1.0  0.99947  0.60134  0.77828  1.0000
  H   H132      1.0  0.95520  0.48516  0.68746  1.0000
  Mg  Mg18      1.0  0.97901  0.63219  0.76329  1.0000
  C   C253      1.0  0.08449  0.58413  0.56486  1.0000
  C   C254      1.0  0.10420  0.61572  0.63143  1.0000
  C  Sn37      1.0  0.09133  0.62161  0.75102  1.0000
  C  Sn38      1.0  0.05811  0.59532  0.80472  1.0000
  C   C255      1.0  0.03861  0.56380  0.73740  1.0000
  C   C256      1.0  0.05173  0.55818  0.61778  1.0000
  H   H133      1.0  0.09465  0.57977  0.47234  1.0000
  O  Te37      1.0  0.11136  0.65332  0.81622  1.0000
  O  Te38      1.0  0.04463  0.60051  0.92410  1.0000
  H   H134      1.0  0.03647  0.53371  0.56630  1.0000
  Mg  Mg19      1.0  0.08175  0.64809  0.97598  1.0000
  C   C257      1.0  0.95119  0.40987  0.82118  1.0000
  C   C258      1.0  0.92308  0.40394  0.90782  1.0000
  C  Sn39      1.0  0.92074  0.43221  0.96046  1.0000
  C  Sn40      1.0  0.94704  0.46705  0.92550  1.0000
  C   C259      1.0  0.97504  0.47270  0.83866  1.0000
  C   C260      1.0  0.97714  0.44422  0.78660  1.0000
  H   H135      1.0  0.95280  0.38784  0.78083  1.0000
  O  Te39      1.0  0.90344  0.42706  0.04693  1.0000
  O  Te40      1.0  0.94533  0.49578  0.97662  1.0000
  H   H136      1.0  0.99889  0.44882  0.71945  1.0000
  Mg  Mg20      1.0  0.91269  0.47486  0.09070  1.0000
  C   C261      1.0  0.47221  0.06004  0.87947  1.0000
  C   C262      1.0  0.49386  0.05160  0.80116  1.0000
  C  Sn41      1.0  0.51877  0.07611  0.71174  1.0000
  C  Sn42      1.0  0.52202  0.10967  0.70077  1.0000
  C   C263      1.0  0.50027  0.11787  0.77963  1.0000
  C   C264      1.0  0.47541  0.09314  0.86875  1.0000
  H   H137      1.0  0.45300  0.04092  0.94848  1.0000
  O  Te41      1.0  0.54018  0.06724  0.63421  1.0000
  O  Te42      1.0  0.54672  0.13466  0.61225  1.0000
  H   H138      1.0  0.45868  0.09969  0.92944  1.0000
  Mg  Mg21      1.0  0.56987  0.11020  0.52798  1.0000
  C   C265      1.0  0.49705  0.95222  0.59232  1.0000
  C   C266      1.0  0.51704  0.97348  0.69450  1.0000
  C  Sn43      1.0  0.54043  0.96619  0.75674  1.0000
  C  Sn44      1.0  0.54381  0.93705  0.71568  1.0000
  C   C267      1.0  0.52371  0.91595  0.61329  1.0000
  C   C268      1.0  0.50038  0.92349  0.55172  1.0000
  H   H139      1.0  0.47901  0.95806  0.54462  1.0000
  O  Te43      1.0  0.56019  0.98769  0.85870  1.0000
  O  Te44      1.0  0.56700  0.92917  0.77615  1.0000
  H   H140      1.0  0.48492  0.90703  0.47255  1.0000
  Mg  Mg22      1.0  0.58822  0.96624  0.91058  1.0000
  C   C269      1.0  0.42862  0.98281  0.67949  1.0000
  C   C270      1.0  0.45540  0.98833  0.76292  1.0000
  C  Sn45      1.0  0.45335  0.96020  0.83167  1.0000
  C  Sn46      1.0  0.42392  0.92595  0.81640  1.0000
  C   C271      1.0  0.39728  0.92070  0.73263  1.0000
  C   C272      1.0  0.39959  0.94903  0.66433  1.0000
  H   H141      1.0  0.92334  0.00473  0.62659  1.0000
  O  Te45      1.0  0.48033  0.96618  0.91466  1.0000
  O  Te46      1.0  0.42121  0.89736  0.88391  1.0000
  H   H142      1.0  0.37886  0.94475  0.59968  1.0000
  Mg  Mg23      1.0  0.46468  0.91881  0.98560  1.0000
  C   C273      1.0  0.62023  0.06346  0.66746  1.0000
  C   C274      1.0  0.63540  0.09037  0.75947  1.0000
  C  Sn47      1.0  0.61472  0.09234  0.86371  1.0000
  C  Sn48      1.0  0.57817  0.06685  0.87582  1.0000
  C   C275      1.0  0.56325  0.04001  0.78331  1.0000
  C   C276      1.0  0.58419  0.03829  0.67936  1.0000
  H   H143      1.0  0.63644  0.06212  0.58706  1.0000
  O  Te47      1.0  0.63030  0.11941  0.95474  1.0000
  O  Te48      1.0  0.55689  0.06819  0.97908  1.0000
  H   H144      1.0  0.57245  0.01744  0.60818  1.0000
  Mg  Mg24      1.0  0.60127  0.11134  0.07830  1.0000
