data_image0
_chemical_formula_structural       H144C252N24C2Sn2C2HTe2HMgC2Sn2C2HTe2HMgC2Sn2C2HTe2HMgC2Sn2C2HTe2HMgC2Sn2C2HTe2HMgC2Sn2C2HTe2HMgC2Sn2C2HTe2HMgC2Sn2C2HTe2HMgC2Sn2C2HTe2HMgC2Sn2C2HTe2HMgC2Sn2C2HTe2HMgC2Sn2C2HTe2HMg
_chemical_formula_sum              "H168 C300 N24 Sn24 Te24 Mg12"
_cell_length_a       43.7647
_cell_length_b       44.0691
_cell_length_c       10.2172
_cell_angle_alpha    91.0456
_cell_angle_beta     87.4674
_cell_angle_gamma    120.237

_symmetry_space_group_name_H-M    'P1'
_space_group_IT_number       1

loop_
  _space_group_symop_operation_xyz
  'x, y, z'

loop_
  _atom_site_type_symbol
  _atom_site_label
  _atom_site_symmetry_multiplicity
  _atom_site_fract_x
  _atom_site_fract_y
  _atom_site_fract_z
  _atom_site_occupancy
  H   H1        1.0  0.56238  0.58127  0.41374  1.0000
  H   H2        1.0  0.56154  0.63709  0.42186  1.0000
  H   H3        1.0  0.52887  0.48385  0.37836  1.0000
  H   H4        1.0  0.58219  0.48066  0.30348  1.0000
  H   H5        1.0  0.37464  0.45244  0.20910  1.0000
  H   H6        1.0  0.43436  0.45903  0.21342  1.0000
  H   H7        1.0  0.44540  0.44319  0.41240  1.0000
  H   H8        1.0  0.42796  0.38024  0.41761  1.0000
  H   H9        1.0  0.67614  0.53561  0.06817  1.0000
  H   H10       1.0  0.34267  0.44326  0.43845  1.0000
  H   H11       1.0  0.66345  0.48030  0.25754  1.0000
  H   H12       1.0  0.70424  0.45946  0.16699  1.0000
  H   H13       1.0  0.73521  0.54343  0.06931  1.0000
  H   H14       1.0  0.29506  0.48561  0.61615  1.0000
  H   H15       1.0  0.22613  0.38099  0.83438  1.0000
  H   H16       1.0  0.29019  0.40379  0.87791  1.0000
  H   H17       1.0  0.21207  0.49611  0.17750  1.0000
  H   H18       1.0  0.11991  0.43430  0.44197  1.0000
  H   H19       1.0  0.15021  0.40671  0.31448  1.0000
  H   H20       1.0  0.15615  0.49719  0.22350  1.0000
  H   H21       1.0  0.11455  0.50783  0.33138  1.0000
  H   H22       1.0  0.06874  0.52284  0.39276  1.0000
  H   H23       1.0  0.79101  0.45930  0.18757  1.0000
  H   H24       1.0  0.84921  0.48219  0.29355  1.0000
  H   H25       1.0  0.82725  0.54786  0.07932  1.0000
  H   H26       1.0  0.88998  0.51354  0.43193  1.0000
  H   H27       1.0  0.89022  0.48537  0.11753  1.0000
  H   H28       1.0  0.93936  0.47964  0.19100  1.0000
  H   H29       1.0  0.99651  0.58997  0.28078  1.0000
  H   H30       1.0  0.94568  0.59504  0.21556  1.0000
  H   H31       1.0  0.04421  0.54409  0.02876  1.0000
  H   H32       1.0  0.10523  0.59388  0.97875  1.0000
  H   H33       1.0  0.10196  0.64219  0.34443  1.0000
  H   H34       1.0  0.04243  0.59225  0.39604  1.0000
  H   H35       1.0  0.89904  0.43710  0.02730  1.0000
  H   H36       1.0  0.50497  0.63677  0.41377  1.0000
  H   H37       1.0  0.49567  0.35415  0.06847  1.0000
  H   H38       1.0  0.54062  0.73026  0.10370  1.0000
  H   H39       1.0  0.45994  0.69843  0.21929  1.0000
  H   H40       1.0  0.47812  0.65593  0.28881  1.0000
  H   H41       1.0  0.41672  0.31982  0.28299  1.0000
  H   H42       1.0  0.39319  0.26811  0.43620  1.0000
  H   H43       1.0  0.48892  0.29267  0.08501  1.0000
  H   H44       1.0  0.40053  0.19177  0.56591  1.0000
  H   H45       1.0  0.42839  0.15408  0.54855  1.0000
  H   H46       1.0  0.48875  0.20696  0.19545  1.0000
  H   H47       1.0  0.54478  0.82151  0.16012  1.0000
  H   H48       1.0  0.48294  0.84085  0.40029  1.0000
  H   H49       1.0  0.46233  0.78516  0.27044  1.0000
  H   H50       1.0  0.46575  0.13761  0.46051  1.0000
  H   H51       1.0  0.54504  0.87864  0.18947  1.0000
  H   H52       1.0  0.44364  0.08461  0.40708  1.0000
  H   H53       1.0  0.45116  0.03282  0.40329  1.0000
  H   H54       1.0  0.53810  0.08411  0.12144  1.0000
  H   H55       1.0  0.53006  0.13599  0.12263  1.0000
  H   H56       1.0  0.43807  0.00455  0.11687  1.0000
  H   H57       1.0  0.38343  0.94597  0.10864  1.0000
  H   H58       1.0  0.42142  0.90829  0.41057  1.0000
  H   H59       1.0  0.47781  0.96542  0.40562  1.0000
  H   H60       1.0  0.58707  0.03033  0.12604  1.0000
  H   H61       1.0  0.64924  0.07414  0.17331  1.0000
  H   H62       1.0  0.61255  0.12127  0.46578  1.0000
  H   H63       1.0  0.55052  0.07696  0.42078  1.0000
  H   H64       1.0  0.67393  0.16979  0.38255  1.0000
  H   H65       1.0  0.92568  0.35222  0.45242  1.0000
  H   H66       1.0  0.15995  0.67594  0.29019  1.0000
  H   H67       1.0  0.39430  0.88661  0.06879  1.0000
  H   H68       1.0  0.72532  0.12389  0.39690  1.0000
  H   H69       1.0  0.79076  0.15143  0.42972  1.0000
  H   H70       1.0  0.72837  0.22098  0.88448  1.0000
  H   H71       1.0  0.81920  0.31036  0.94589  1.0000
  H   H72       1.0  0.88015  0.23320  0.46429  1.0000
  H   H73       1.0  0.91670  0.29897  0.47348  1.0000
  H   H74       1.0  0.19255  0.65970  0.97431  1.0000
  H   H75       1.0  0.25205  0.69778  0.85940  1.0000
  H   H76       1.0  0.21492  0.73653  0.27897  1.0000
  H   H77       1.0  0.30680  0.82616  0.26120  1.0000
  H   H78       1.0  0.33983  0.78289  0.84272  1.0000
  H   H79       1.0  0.38034  0.84230  0.93661  1.0000
  H   H80       1.0  0.49981  0.60426  0.78499  1.0000
  H   H81       1.0  0.49937  0.54766  0.77231  1.0000
  H   H82       1.0  0.64266  0.55666  0.59565  1.0000
  H   H83       1.0  0.59040  0.56132  0.66281  1.0000
  H   H84       1.0  0.47461  0.54618  0.94583  1.0000
  H   H85       1.0  0.41489  0.53937  0.94054  1.0000
  H   H86       1.0  0.50298  0.40270  0.71586  1.0000
  H   H87       1.0  0.52050  0.46542  0.70889  1.0000
  H   H88       1.0  0.68066  0.54094  0.53874  1.0000
  H   H89       1.0  0.34226  0.44034  0.97608  1.0000
  H   H90       1.0  0.66576  0.48752  0.75502  1.0000
  H   H91       1.0  0.70862  0.47022  0.65543  1.0000
  H   H92       1.0  0.73955  0.54808  0.53649  1.0000
  H   H93       1.0  0.29739  0.49003  0.10869  1.0000
  H   H94       1.0  0.23201  0.39702  0.25637  1.0000
  H   H95       1.0  0.29388  0.41496  0.31469  1.0000
  H   H96       1.0  0.20902  0.49129  0.68833  1.0000
  H   H97       1.0  0.11491  0.42154  0.99816  1.0000
  H   H98       1.0  0.14351  0.38999  0.88744  1.0000
  H   H99       1.0  0.15465  0.49531  0.72310  1.0000
  H   H100      1.0  0.01396  0.47364  0.04208  1.0000
  H   H101      1.0  0.05932  0.45726  0.98348  1.0000
  H   H102      1.0  0.79625  0.47162  0.67110  1.0000
  H   H103      1.0  0.85272  0.49137  0.78554  1.0000
  H   H104      1.0  0.83010  0.55002  0.55220  1.0000
  H   H105      1.0  0.89045  0.51710  0.93878  1.0000
  H   H106      1.0  0.95081  0.49304  0.95252  1.0000
  H   H107      1.0  0.94036  0.38058  0.80778  1.0000
  H   H108      1.0  0.99224  0.43556  0.73894  1.0000
  H   H109      1.0  0.51374  0.64893  0.89182  1.0000
  H   H110      1.0  0.49597  0.34945  0.56242  1.0000
  H   H111      1.0  0.53569  0.72131  0.61324  1.0000
  H   H112      1.0  0.45916  0.70637  0.72717  1.0000
  H   H113      1.0  0.48089  0.66532  0.78184  1.0000
  H   H114      1.0  0.41812  0.31357  0.78041  1.0000
  H   H115      1.0  0.39717  0.26249  0.93640  1.0000
  H   H116      1.0  0.49090  0.28821  0.57512  1.0000
  H   H117      1.0  0.40718  0.18893  0.06524  1.0000
  H   H118      1.0  0.43657  0.15245  0.04945  1.0000
  H   H119      1.0  0.49512  0.20454  0.69238  1.0000
  H   H120      1.0  0.53980  0.81275  0.66150  1.0000
  H   H121      1.0  0.48409  0.84882  0.91645  1.0000
  H   H122      1.0  0.46111  0.79255  0.78807  1.0000
  H   H123      1.0  0.47446  0.13768  0.96598  1.0000
  H   H124      1.0  0.53801  0.86807  0.69213  1.0000
  H   H125      1.0  0.45248  0.08553  0.92264  1.0000
  H   H126      1.0  0.45785  0.03275  0.92593  1.0000
  H   H127      1.0  0.54412  0.07916  0.63953  1.0000
  H   H128      1.0  0.53842  0.13248  0.63395  1.0000
  H   H129      1.0  0.67288  0.16329  0.86150  1.0000
  H   H130      1.0  0.91940  0.35446  0.00722  1.0000
  H   H131      1.0  0.15672  0.68562  0.76103  1.0000
  H   H132      1.0  0.40321  0.87780  0.61589  1.0000
  H   H133      1.0  0.73110  0.12471  0.84348  1.0000
  H   H134      1.0  0.79573  0.15522  0.89550  1.0000
  H   H135      1.0  0.73093  0.22447  0.41699  1.0000
  H   H136      1.0  0.82468  0.31058  0.45866  1.0000
  H   H137      1.0  0.87818  0.23728  0.99877  1.0000
  H   H138      1.0  0.91103  0.30259  0.02767  1.0000
  H   H139      1.0  0.19438  0.65778  0.48447  1.0000
  H   H140      1.0  0.25626  0.69158  0.38368  1.0000
  H   H141      1.0  0.21247  0.74358  0.74184  1.0000
  H   H142      1.0  0.30549  0.83160  0.71986  1.0000
  H   H143      1.0  0.34782  0.77298  0.38311  1.0000
  H   H144      1.0  0.38877  0.83303  0.47187  1.0000
  C   C1        1.0  0.49278  0.50245  0.06682  1.0000
  C   C2        1.0  0.52585  0.53220  0.06661  1.0000
  C   C3        1.0  0.54874  0.58635  0.49532  1.0000
  C   C4        1.0  0.54819  0.61763  0.49937  1.0000
  C   C5        1.0  0.52918  0.62389  0.60079  1.0000
  C   C6        1.0  0.55381  0.49947  0.42570  1.0000
  C   C7        1.0  0.58325  0.49741  0.38473  1.0000
  C   C8        1.0  0.39665  0.47274  0.15078  1.0000
  C   C9        1.0  0.43026  0.47676  0.15366  1.0000
  C   C10       1.0  0.45803  0.43425  0.47885  1.0000
  C   C11       1.0  0.44818  0.39898  0.48125  1.0000
  C   C12       1.0  0.67148  0.52406  0.96948  1.0000
  C   C13       1.0  0.33423  0.46074  0.48480  1.0000
  C   C14       1.0  0.69805  0.51614  0.91407  1.0000
  C   C15       1.0  0.29759  0.45105  0.46528  1.0000
  C   C16       1.0  0.68959  0.49034  0.29610  1.0000
  C   C17       1.0  0.71218  0.47850  0.24593  1.0000
  C   C18       1.0  0.74457  0.49265  0.30316  1.0000
  C   C19       1.0  0.75402  0.51957  0.92270  1.0000
  C   C20       1.0  0.73049  0.52842  0.97924  1.0000
  C   C21       1.0  0.28059  0.46654  0.54080  1.0000
  C   C22       1.0  0.24632  0.45548  0.51078  1.0000
  C   C23       1.0  0.22876  0.43074  0.40805  1.0000
  C   C24       1.0  0.24093  0.40444  0.89276  1.0000
  C   C25       1.0  0.27972  0.42604  0.36822  1.0000
  C   C26       1.0  0.77861  0.49285  0.31021  1.0000
  C   C27       1.0  0.19413  0.42646  0.97063  1.0000
  C   C28       1.0  0.21348  0.45665  0.05093  1.0000
  C   C29       1.0  0.19794  0.47366  0.11353  1.0000
  C   C30       1.0  0.16132  0.46003  0.09077  1.0000
  C   C31       1.0  0.14272  0.43042  0.01062  1.0000
  C   C32       1.0  0.16304  0.42452  0.39502  1.0000
  C   C33       1.0  0.14249  0.47698  0.14889  1.0000
  C   C34       1.0  0.08962  0.48064  0.15298  1.0000
  C   C35       1.0  0.09268  0.50034  0.26705  1.0000
  C   C36       1.0  0.06651  0.50859  0.30239  1.0000
  C   C37       1.0  0.03679  0.49777  0.22615  1.0000
  C   C38       1.0  0.03531  0.48027  0.10786  1.0000
  C   C39       1.0  0.06074  0.47132  0.07361  1.0000
  C   C40       1.0  0.00512  0.50092  0.26648  1.0000
  C   C41       1.0  0.79899  0.47890  0.26450  1.0000
  C   C42       1.0  0.83171  0.49205  0.32438  1.0000
  C   C43       1.0  0.84288  0.51719  0.42493  1.0000
  C   C44       1.0  0.82001  0.53195  0.99114  1.0000
  C   C45       1.0  0.78914  0.52073  0.92786  1.0000
  C   C46       1.0  0.87592  0.52546  0.48255  1.0000
  C   C47       1.0  0.91493  0.54108  0.15487  1.0000
  C   C48       1.0  0.91344  0.50833  0.15469  1.0000
  C   C49       1.0  0.94121  0.50506  0.19763  1.0000
  C   C50       1.0  0.97257  0.53432  0.24054  1.0000
  C   C51       1.0  0.97298  0.56659  0.24818  1.0000
  C   C52       1.0  0.94450  0.56981  0.20982  1.0000
  C   C53       1.0  0.00487  0.53169  0.25135  1.0000
  C   C54       1.0  0.03948  0.56393  0.21786  1.0000
  C   C55       1.0  0.05732  0.56518  0.09883  1.0000
  C   C56       1.0  0.09116  0.59289  0.07033  1.0000
  C   C57       1.0  0.10837  0.62091  0.15823  1.0000
  C   C58       1.0  0.08978  0.62078  0.27470  1.0000
  C   C59       1.0  0.05585  0.59262  0.30337  1.0000
  C   C60       1.0  0.51265  0.65713  0.48912  1.0000
  C   C61       1.0  0.50639  0.68546  0.45581  1.0000
  C   C62       1.0  0.46822  0.34249  0.10758  1.0000
  C   C63       1.0  0.45321  0.30892  0.17759  1.0000
  C   C64       1.0  0.52350  0.72621  0.02325  1.0000
  C   C65       1.0  0.51271  0.74917  0.98819  1.0000
  C   C66       1.0  0.48913  0.74181  0.88330  1.0000
  C   C67       1.0  0.47579  0.70362  0.30471  1.0000
  C   C68       1.0  0.48601  0.67972  0.34550  1.0000
  C   C69       1.0  0.42620  0.30129  0.27351  1.0000
  C   C70       1.0  0.41284  0.27227  0.35897  1.0000
  C   C71       1.0  0.42757  0.25113  0.34100  1.0000
  C   C72       1.0  0.45413  0.25760  0.24058  1.0000
  C   C73       1.0  0.46794  0.28649  0.15920  1.0000
  C   C74       1.0  0.49005  0.77573  0.90683  1.0000
  C   C75       1.0  0.42977  0.22069  0.39009  1.0000
  C   C76       1.0  0.41922  0.19534  0.48572  1.0000
  C   C77       1.0  0.43508  0.17429  0.47507  1.0000
  C   C78       1.0  0.45890  0.17774  0.37147  1.0000
  C   C79       1.0  0.47005  0.20464  0.27378  1.0000
  C   C80       1.0  0.45564  0.22596  0.28792  1.0000
  C   C81       1.0  0.51380  0.78391  0.01105  1.0000
  C   C82       1.0  0.52689  0.81486  0.08005  1.0000
  C   C83       1.0  0.51496  0.83822  0.04284  1.0000
  C   C84       1.0  0.49164  0.82957  0.93952  1.0000
  C   C85       1.0  0.47844  0.79044  0.35519  1.0000
  C   C86       1.0  0.47012  0.15175  0.36763  1.0000
  C   C87       1.0  0.48745  0.11487  0.26915  1.0000
  C   C88       1.0  0.52621  0.87162  0.11088  1.0000
  C   C89       1.0  0.46506  0.08510  0.34732  1.0000
  C   C90       1.0  0.46909  0.05580  0.34439  1.0000
  C   C91       1.0  0.49568  0.05481  0.26456  1.0000
  C   C92       1.0  0.51788  0.08452  0.18608  1.0000
  C   C93       1.0  0.51357  0.11371  0.18682  1.0000
  C   C94       1.0  0.52810  0.02080  0.24966  1.0000
  C   C95       1.0  0.49725  0.02215  0.25776  1.0000
  C   C96       1.0  0.46249  0.98896  0.26034  1.0000
  C   C97       1.0  0.56407  0.05012  0.27102  1.0000
  C   C98       1.0  0.43479  0.98347  0.18046  1.0000
  C   C99       1.0  0.40388  0.95072  0.17629  1.0000
  C   C100      1.0  0.39921  0.92296  0.25656  1.0000
  C   C101      1.0  0.42530  0.92930  0.34555  1.0000
  C   C102      1.0  0.45663  0.96138  0.34379  1.0000
  C   C103      1.0  0.59261  0.05022  0.20032  1.0000
  C   C104      1.0  0.62732  0.07466  0.22564  1.0000
  C   C105      1.0  0.63536  0.10082  0.32126  1.0000
  C   C106      1.0  0.60706  0.10198  0.38881  1.0000
  C   C107      1.0  0.57215  0.07682  0.36458  1.0000
  C   C108      1.0  0.68703  0.15401  0.37910  1.0000
  C   C109      1.0  0.72482  0.17203  0.40547  1.0000
  C   C110      1.0  0.89774  0.34527  0.46203  1.0000
  C   C111      1.0  0.87287  0.30775  0.47005  1.0000
  C   C112      1.0  0.16519  0.67166  0.18709  1.0000
  C   C113      1.0  0.20050  0.69574  0.12909  1.0000
  C   C114      1.0  0.37162  0.87288  0.13864  1.0000
  C   C115      1.0  0.34578  0.83731  0.10032  1.0000
  C   C116      1.0  0.74177  0.15209  0.40993  1.0000
  C   C117      1.0  0.77825  0.16736  0.42790  1.0000
  C   C118      1.0  0.79670  0.20342  0.44151  1.0000
  C   C119      1.0  0.77895  0.22419  0.91193  1.0000
  C   C120      1.0  0.74342  0.20748  0.88704  1.0000
  C   C121      1.0  0.83074  0.29381  0.95820  1.0000
  C   C122      1.0  0.81298  0.25794  0.94375  1.0000
  C   C123      1.0  0.83182  0.23554  0.45711  1.0000
  C   C124      1.0  0.86772  0.24923  0.46516  1.0000
  C   C125      1.0  0.88799  0.28621  0.47122  1.0000
  C   C126      1.0  0.21127  0.68533  0.01300  1.0000
  C   C127      1.0  0.24441  0.70644  0.94892  1.0000
  C   C128      1.0  0.26598  0.73837  0.00713  1.0000
  C   C129      1.0  0.25571  0.74949  0.12515  1.0000
  C   C130      1.0  0.22338  0.72881  0.18888  1.0000
  C   C131      1.0  0.31287  0.81608  0.17190  1.0000
  C   C132      1.0  0.29100  0.78373  0.11893  1.0000
  C   C133      1.0  0.30062  0.77180  0.00079  1.0000
  C   C134      1.0  0.33240  0.79156  0.93262  1.0000
  C   C135      1.0  0.35486  0.82498  0.98592  1.0000
  C   C136      1.0  0.49015  0.49534  0.57083  1.0000
  C   C137      1.0  0.52384  0.52428  0.56772  1.0000
  C   C138      1.0  0.52952  0.55995  0.58988  1.0000
  C   C139      1.0  0.55541  0.52196  0.52803  1.0000
  C   C140      1.0  0.48364  0.45889  0.56282  1.0000
  C   C141      1.0  0.45889  0.50258  0.07727  1.0000
  C   C142      1.0  0.51348  0.59925  0.70362  1.0000
  C   C143      1.0  0.51333  0.56763  0.69692  1.0000
  C   C144      1.0  0.61580  0.51734  0.44604  1.0000
  C   C145      1.0  0.61794  0.54068  0.54667  1.0000
  C   C146      1.0  0.58839  0.54322  0.58524  1.0000
  C   C147      1.0  0.45280  0.52563  0.00368  1.0000
  C   C148      1.0  0.41948  0.52224  0.00168  1.0000
  C   C149      1.0  0.39061  0.49474  0.07118  1.0000
  C   C150      1.0  0.46402  0.38696  0.56800  1.0000
  C   C151      1.0  0.49127  0.41180  0.64598  1.0000
  C   C152      1.0  0.50058  0.44698  0.64378  1.0000
  C   C153      1.0  0.67310  0.52408  0.45147  1.0000
  C   C154      1.0  0.33382  0.45896  0.00964  1.0000
  C   C155      1.0  0.69892  0.51482  0.39895  1.0000
  C   C156      1.0  0.29682  0.44779  0.99227  1.0000
  C   C157      1.0  0.69098  0.49587  0.79909  1.0000
  C   C158      1.0  0.71484  0.48623  0.74332  1.0000
  C   C159      1.0  0.74610  0.49844  0.80718  1.0000
  C   C160      1.0  0.75484  0.51808  0.40584  1.0000
  C   C161      1.0  0.73277  0.52955  0.45601  1.0000
  C   C162      1.0  0.28132  0.46704  0.04969  1.0000
  C   C163      1.0  0.24633  0.45399  0.02625  1.0000
  C   C164      1.0  0.22642  0.42336  0.94765  1.0000
  C   C165      1.0  0.24471  0.41552  0.33523  1.0000
  C   C166      1.0  0.27698  0.41748  0.91789  1.0000
  C   C167      1.0  0.78045  0.49915  0.81267  1.0000
  C   C168      1.0  0.19664  0.43402  0.43258  1.0000
  C   C169      1.0  0.21344  0.45826  0.53657  1.0000
  C   C170      1.0  0.19689  0.47310  0.60793  1.0000
  C   C171      1.0  0.16207  0.46357  0.57021  1.0000
  C   C172      1.0  0.14623  0.44002  0.46618  1.0000
  C   C173      1.0  0.15866  0.41281  0.94849  1.0000
  C   C174      1.0  0.14234  0.47843  0.63816  1.0000
  C   C175      1.0  0.00579  0.50264  0.78166  1.0000
  C   C176      1.0  0.80231  0.48785  0.75824  1.0000
  C   C177      1.0  0.83414  0.49932  0.82270  1.0000
  C   C178      1.0  0.84318  0.52055  0.93507  1.0000
  C   C179      1.0  0.82121  0.53121  0.47234  1.0000
  C   C180      1.0  0.78959  0.51858  0.41280  1.0000
  C   C181      1.0  0.87575  0.52773  0.99384  1.0000
  C   C182      1.0  0.00536  0.53309  0.75650  1.0000
  C   C183      1.0  0.97547  0.46939  0.83450  1.0000
  C   C184      1.0  0.94863  0.46842  0.91999  1.0000
  C   C185      1.0  0.91921  0.43695  0.96159  1.0000
  C   C186      1.0  0.91553  0.40438  0.92286  1.0000
  C   C187      1.0  0.94295  0.40520  0.84261  1.0000
  C   C188      1.0  0.97214  0.43666  0.80137  1.0000
  C   C189      1.0  0.51802  0.66702  0.97369  1.0000
  C   C190      1.0  0.51060  0.69496  0.94572  1.0000
  C   C191      1.0  0.46838  0.33660  0.60077  1.0000
  C   C192      1.0  0.45470  0.30333  0.67128  1.0000
  C   C193      1.0  0.51946  0.71725  0.52991  1.0000
  C   C194      1.0  0.50982  0.74062  0.48875  1.0000
  C   C195      1.0  0.48793  0.73367  0.37860  1.0000
  C   C196      1.0  0.47655  0.71196  0.80808  1.0000
  C   C197      1.0  0.48863  0.68884  0.84037  1.0000
  C   C198      1.0  0.42818  0.29551  0.76973  1.0000
  C   C199      1.0  0.41632  0.26700  0.85671  1.0000
  C   C200      1.0  0.43200  0.24677  0.83746  1.0000
  C   C201      1.0  0.45811  0.25345  0.73501  1.0000
  C   C202      1.0  0.47046  0.28183  0.65181  1.0000
  C   C203      1.0  0.48917  0.76785  0.39805  1.0000
  C   C204      1.0  0.43545  0.21723  0.88733  1.0000
  C   C205      1.0  0.42571  0.19245  0.98448  1.0000
  C   C206      1.0  0.44241  0.17219  0.97485  1.0000
  C   C207      1.0  0.46636  0.17606  0.87118  1.0000
  C   C208      1.0  0.47633  0.20208  0.77068  1.0000
  C   C209      1.0  0.46099  0.22261  0.78350  1.0000
  C   C210      1.0  0.51117  0.77558  0.50780  1.0000
  C   C211      1.0  0.52319  0.80629  0.57745  1.0000
  C   C212      1.0  0.51201  0.82989  0.53512  1.0000
  C   C213      1.0  0.49032  0.82165  0.42675  1.0000
  C   C214      1.0  0.47858  0.79812  0.86873  1.0000
  C   C215      1.0  0.47866  0.15098  0.87127  1.0000
  C   C216      1.0  0.49592  0.11351  0.78060  1.0000
  C   C217      1.0  0.52217  0.86275  0.60504  1.0000
  C   C218      1.0  0.47330  0.08482  0.86300  1.0000
  C   C219      1.0  0.47617  0.05493  0.86435  1.0000
  C   C220      1.0  0.50152  0.05196  0.78401  1.0000
  C   C221      1.0  0.52447  0.08088  0.70311  1.0000
  C   C222      1.0  0.52148  0.11084  0.70008  1.0000
  C   C223      1.0  0.52868  0.01328  0.75609  1.0000
  C   C224      1.0  0.49953  0.01754  0.77474  1.0000
  C   C225      1.0  0.68826  0.15009  0.84110  1.0000
  C   C226      1.0  0.72638  0.17046  0.86326  1.0000
  C   C227      1.0  0.89208  0.34743  0.98718  1.0000
  C   C228      1.0  0.86744  0.30975  0.98795  1.0000
  C   C229      1.0  0.16402  0.67617  0.67122  1.0000
  C   C230      1.0  0.20012  0.69829  0.61595  1.0000
  C   C231      1.0  0.37546  0.87053  0.63766  1.0000
  C   C232      1.0  0.34930  0.83536  0.59667  1.0000
  C   C233      1.0  0.74561  0.15271  0.86410  1.0000
  C   C234      1.0  0.78165  0.16966  0.89286  1.0000
  C   C235      1.0  0.79739  0.20517  0.91855  1.0000
  C   C236      1.0  0.78002  0.22417  0.43889  1.0000
  C   C237      1.0  0.74429  0.20933  0.42134  1.0000
  C   C238      1.0  0.83534  0.29304  0.46233  1.0000
  C   C239      1.0  0.81580  0.25710  0.45538  1.0000
  C   C240      1.0  0.83028  0.23773  0.95433  1.0000
  C   C241      1.0  0.86500  0.25236  0.98788  1.0000
  C   C242      1.0  0.88315  0.28909  0.00505  1.0000
  C   C243      1.0  0.21269  0.68437  0.51609  1.0000
  C   C244      1.0  0.24724  0.70310  0.46011  1.0000
  C   C245      1.0  0.26828  0.73651  0.50835  1.0000
  C   C246      1.0  0.25579  0.75159  0.60701  1.0000
  C   C247      1.0  0.22224  0.73310  0.66401  1.0000
  C   C248      1.0  0.31341  0.81824  0.64732  1.0000
  C   C249      1.0  0.29177  0.78496  0.60151  1.0000
  C   C250      1.0  0.30391  0.76888  0.50502  1.0000
  C   C251      1.0  0.33833  0.78501  0.45554  1.0000
  C   C252      1.0  0.36108  0.81880  0.50579  1.0000
  N   N1        1.0  0.52473  0.65346  0.59787  1.0000
  N   N2        1.0  0.64278  0.51156  0.39802  1.0000
  N   N3        1.0  0.45034  0.35836  0.09938  1.0000
  N   N4        1.0  0.35640  0.48817  0.54816  1.0000
  N   N5        1.0  0.11150  0.46779  0.10808  1.0000
  N   N6        1.0  0.88738  0.54403  0.10362  1.0000
  N   N7        1.0  0.14251  0.64646  0.11584  1.0000
  N   N8        1.0  0.88958  0.36973  0.45807  1.0000
  N   N9        1.0  0.48309  0.14432  0.26355  1.0000
  N   N10       1.0  0.51353  0.89087  0.07411  1.0000
  N   N11       1.0  0.67103  0.12124  0.34741  1.0000
  N   N12       1.0  0.37018  0.88850  0.24494  1.0000
  N   N13       1.0  0.52667  0.66157  0.08683  1.0000
  N   N14       1.0  0.64387  0.51677  0.90448  1.0000
  N   N15       1.0  0.44928  0.35118  0.59268  1.0000
  N   N16       1.0  0.35633  0.48906  0.05727  1.0000
  N   N17       1.0  0.11207  0.47133  0.59543  1.0000
  N   N18       1.0  0.88840  0.54383  0.58793  1.0000
  N   N19       1.0  0.14307  0.64701  0.61350  1.0000
  N   N20       1.0  0.88556  0.37196  0.95579  1.0000
  N   N21       1.0  0.49196  0.14307  0.76942  1.0000
  N   N22       1.0  0.51135  0.88322  0.56372  1.0000
  N   N23       1.0  0.67401  0.11813  0.79970  1.0000
  N   N24       1.0  0.36817  0.89292  0.69278  1.0000
  C   C253      1.0  0.49358  0.93419  0.57362  1.0000
  C   C254      1.0  0.51449  0.91940  0.59836  1.0000
  C  Sn1       1.0  0.54079  0.93457  0.69031  1.0000
  C  Sn2       1.0  0.54619  0.96509  0.75863  1.0000
  C   C255      1.0  0.52512  0.97967  0.73324  1.0000
  C   C256      1.0  0.49888  0.96429  0.64100  1.0000
  H   H145      1.0  0.47327  0.92228  0.50230  1.0000
  O  Te1       1.0  0.56145  0.91946  0.71380  1.0000
  O  Te2       1.0  0.57228  0.98078  0.85108  1.0000
  H   H146      1.0  0.48268  0.97573  0.62193  1.0000
  Mg  Mg1       1.0  0.59368  0.95046  0.84889  1.0000
  C   C257      1.0  0.07680  0.51114  0.81292  1.0000
  C   C258      1.0  0.04618  0.50481  0.75192  1.0000
  C  Sn3       1.0  0.03633  0.48546  0.63606  1.0000
  C  Sn4       1.0  0.05757  0.47224  0.58050  1.0000
  C   C259      1.0  0.08814  0.47870  0.64234  1.0000
  C   C260      1.0  0.09776  0.49810  0.75821  1.0000
  H   H147      1.0  0.08424  0.52614  0.90261  1.0000
  O  Te3       1.0  0.00566  0.47938  0.57637  1.0000
  O  Te4       1.0  0.04833  0.45281  0.46482  1.0000
  H   H148      1.0  0.12146  0.50298  0.80546  1.0000
  Mg  Mg2       1.0  0.00411  0.45148  0.42001  1.0000
  C   C261      1.0  0.08184  0.61908  0.79398  1.0000
  C   C262      1.0  0.10502  0.62293  0.68864  1.0000
  C  Sn5       1.0  0.09428  0.59754  0.59038  1.0000
  C  Sn6       1.0  0.05967  0.56777  0.59796  1.0000
  C   C263      1.0  0.03667  0.56417  0.70370  1.0000
  C   C264      1.0  0.04769  0.58973  0.80151  1.0000
  H   H149      1.0  0.09035  0.63886  0.86962  1.0000
  O  Te5       1.0  0.11778  0.60180  0.48585  1.0000
  O  Te6       1.0  0.04825  0.54200  0.50108  1.0000
  H   H150      1.0  0.02973  0.58675  0.88301  1.0000
  Mg  Mg3       1.0  0.08994  0.55956  0.37798  1.0000
  C   C265      1.0  0.61406  0.54712  0.08501  1.0000
  C   C266      1.0  0.60653  0.52574  0.98443  1.0000
  C  Sn7       1.0  0.57943  0.50797  0.89692  1.0000
  C  Sn8       1.0  0.54837  0.51048  0.91059  1.0000
  C   C267      1.0  0.55616  0.53196  0.01148  1.0000
  C   C268      1.0  0.58344  0.54961  0.09853  1.0000
  H   H151      1.0  0.63517  0.56080  0.15233  1.0000
  O  Te7       1.0  0.58327  0.48795  0.79702  1.0000
  O  Te8       1.0  0.52088  0.49300  0.82446  1.0000
  H   H152      1.0  0.58080  0.56522  0.17634  1.0000
  Mg  Mg4       1.0  0.53851  0.46897  0.70408  1.0000
  C   C269      1.0  0.60086  0.05068  0.65851  1.0000
  C   C270      1.0  0.57200  0.04168  0.74556  1.0000
  C  Sn9       1.0  0.57606  0.06146  0.85866  1.0000
  C  Sn10      1.0  0.60968  0.09079  0.88482  1.0000
  C   C271      1.0  0.63839  0.09959  0.79708  1.0000
  C   C272      1.0  0.63403  0.07961  0.68422  1.0000
  H   H153      1.0  0.59749  0.03524  0.57115  1.0000
  O  Te9       1.0  0.54695  0.05210  0.94460  1.0000
  O  Te10      1.0  0.61448  0.11101  0.99710  1.0000
  H   H154      1.0  0.65637  0.08660  0.61680  1.0000
  Mg  Mg5       1.0  0.57772  0.08903  0.08454  1.0000
  C   C273      1.0  0.44746  0.94584  0.84605  1.0000
  C   C274      1.0  0.46119  0.97918  0.79045  1.0000
  C  Sn11      1.0  0.44097  0.98594  0.70640  1.0000
  C  Sn12      1.0  0.40636  0.95878  0.67768  1.0000
  C   C275      1.0  0.39286  0.92553  0.73387  1.0000
  C   C276      1.0  0.41333  0.91904  0.81782  1.0000
  H   H155      1.0  0.46329  0.94083  0.91105  1.0000
  O  Te11      1.0  0.94802  0.01939  0.65165  1.0000
  O  Te12      1.0  0.38558  0.96483  0.59404  1.0000
  H   H156      1.0  0.40268  0.89324  0.86092  1.0000
  Mg  Mg6       1.0  0.90944  0.01475  0.54347  1.0000
  C   C277      1.0  0.50602  0.94782  0.04469  1.0000
  C   C278      1.0  0.51876  0.92807  0.10247  1.0000
  C  Sn13      1.0  0.53515  0.93827  0.22244  1.0000
  C  Sn14      1.0  0.53881  0.96881  0.28552  1.0000
  C   C279      1.0  0.52595  0.98838  0.22696  1.0000
  C   C280      1.0  0.50961  0.97794  0.10687  1.0000
  H   H157      1.0  0.48241  0.93849  0.95181  1.0000
  O  Te13      1.0  0.54774  0.91825  0.27878  1.0000
  O  Te14      1.0  0.55507  0.97960  0.40550  1.0000
  H   H158      1.0  0.49973  0.99322  0.06220  1.0000
  Mg  Mg7       1.0  0.56796  0.94363  0.44323  1.0000
  C   C281      1.0  0.50175  0.42866  0.14756  1.0000
  C   C282      1.0  0.47285  0.39980  0.09225  1.0000
  C  Sn15      1.0  0.45209  0.40484  0.00500  1.0000
  C  Sn16      1.0  0.44953  0.43820  0.97268  1.0000
  C   C283      1.0  0.48945  0.46814  0.02846  1.0000
  C   C284      1.0  0.51005  0.46280  0.11569  1.0000
  H   H159      1.0  0.51770  0.42453  0.21499  1.0000
  O  Te15      1.0  0.41236  0.37447  0.95068  1.0000
  O  Te16      1.0  0.42923  0.44399  0.88572  1.0000
  H   H160      1.0  0.53243  0.48514  0.15843  1.0000
  Mg  Mg8       1.0  0.39265  0.39585  0.83721  1.0000
  C   C285      1.0  0.94350  0.40856  0.27128  1.0000
  C   C286      1.0  0.92261  0.40195  0.38637  1.0000
  C  Sn17      1.0  0.92708  0.42968  0.46730  1.0000
  C  Sn18      1.0  0.95296  0.46465  0.43208  1.0000
  C   C287      1.0  0.97371  0.47098  0.31668  1.0000
  C   C288      1.0  0.96902  0.44304  0.23643  1.0000
  H   H161      1.0  0.93987  0.38694  0.20914  1.0000
  O  Te17      1.0  0.90600  0.42262  0.58197  1.0000
  O  Te18      1.0  0.95797  0.49285  0.51115  1.0000
  H   H162      1.0  0.98519  0.44817  0.14728  1.0000
  Mg  Mg9       1.0  0.92277  0.46986  0.65767  1.0000
  C   C289      1.0  0.41740  0.46654  0.65810  1.0000
  C   C290      1.0  0.44934  0.48922  0.59126  1.0000
  C  Sn19      1.0  0.45203  0.51602  0.51193  1.0000
  C  Sn20      1.0  0.42215  0.52012  0.49950  1.0000
  C   C291      1.0  0.39032  0.49731  0.56685  1.0000
  C   C292      1.0  0.38792  0.47057  0.64593  1.0000
  H   H163      1.0  0.41555  0.44586  0.71935  1.0000
  O  Te19      1.0  0.48414  0.53845  0.44580  1.0000
  O  Te20      1.0  0.42411  0.54669  0.42091  1.0000
  H   H164      1.0  0.36319  0.45303  0.69774  1.0000
  Mg  Mg10      1.0  0.47365  0.57066  0.35034  1.0000
  C   C293      1.0  0.91906  0.50343  0.64949  1.0000
  C   C294      1.0  0.91369  0.53213  0.65207  1.0000
  C  Sn21      1.0  0.94016  0.56488  0.69466  1.0000
  C  Sn22      1.0  0.97257  0.56889  0.73532  1.0000
  C   C295      1.0  0.97769  0.54003  0.73228  1.0000
  C   C296      1.0  0.95103  0.50737  0.68953  1.0000
  H   H165      1.0  0.89844  0.47816  0.61635  1.0000
  O  Te21      1.0  0.93435  0.59327  0.69666  1.0000
  O  Te22      1.0  0.99947  0.60134  0.77828  1.0000
  H   H166      1.0  0.95520  0.48516  0.68746  1.0000
  Mg  Mg11      1.0  0.97901  0.63219  0.76329  1.0000
  C   C297      1.0  0.50696  0.57954  0.20086  1.0000
  C   C298      1.0  0.52505  0.56843  0.11479  1.0000
  C  Sn23      1.0  0.54905  0.59135  0.01929  1.0000
  C  Sn24      1.0  0.55499  0.62602  0.01005  1.0000
  C   C299      1.0  0.53678  0.63688  0.09668  1.0000
  C   C300      1.0  0.51282  0.61374  0.19185  1.0000
  H   H167      1.0  0.48843  0.56164  0.27454  1.0000
  O  Te23      1.0  0.55594  0.57857  0.93405  1.0000
  O  Te24      1.0  0.56789  0.64822  0.91556  1.0000
  H   H168      1.0  0.49884  0.62235  0.25853  1.0000
  Mg  Mg12      1.0  0.58581  0.62023  0.82172  1.0000
