data_image0
_chemical_formula_structural       H72C126N12SnCSn2CSnTe4Mg2SnCSn2CSnTe4Mg2SnCSn2CSnTe4Mg2SnCSn2CSnTe4Mg2SnCSn2CSnTe4Mg2SnCSn2CSnTe4Mg2SnCSn2CSnTe4Mg2SnCSn2CSnTe4Mg2SnCSn2CSnTe4Mg2
_chemical_formula_sum              "H72 C144 N12 Sn36 Te36 Mg18"
_cell_length_a       29.6098
_cell_length_b       29.052
_cell_length_c       8.46911
_cell_angle_alpha    99.6792
_cell_angle_beta     89.8738
_cell_angle_gamma    59.2238

_symmetry_space_group_name_H-M    'P1'
_space_group_IT_number       1

loop_
  _space_group_symop_operation_xyz
  'x, y, z'

loop_
  _atom_site_type_symbol
  _atom_site_label
  _atom_site_symmetry_multiplicity
  _atom_site_fract_x
  _atom_site_fract_y
  _atom_site_fract_z
  _atom_site_occupancy
  H   H1        1.0  0.83623  0.00210  0.94304  1.0000
  H   H2        1.0  0.47409  0.21471  0.90413  1.0000
  H   H3        1.0  0.64498  0.20656  0.93683  1.0000
  H   H4        1.0  0.46382  0.02862  0.01802  1.0000
  H   H5        1.0  0.82400  0.84559  0.04249  1.0000
  H   H6        1.0  0.62883  0.84879  0.98055  1.0000
  H   H7        1.0  0.98706  0.84016  0.95920  1.0000
  H   H8        1.0  0.88492  0.01478  0.08143  1.0000
  H   H9        1.0  0.06346  0.85022  0.94220  1.0000
  H   H10       1.0  0.96127  0.02506  0.05906  1.0000
  H   H11       1.0  0.50827  0.36852  0.10070  1.0000
  H   H12       1.0  0.63608  0.25421  0.73731  1.0000
  H   H13       1.0  0.52617  0.44012  0.06762  1.0000
  H   H14       1.0  0.65457  0.32569  0.70489  1.0000
  H   H15       1.0  0.10284  0.90173  0.95745  1.0000
  H   H16       1.0  0.03355  0.02260  0.93681  1.0000
  H   H17       1.0  0.30150  0.93317  0.86490  1.0000
  H   H18       1.0  0.25280  0.02177  0.65945  1.0000
  H   H19       1.0  0.51900  0.49448  0.87145  1.0000
  H   H20       1.0  0.49122  0.56929  0.71805  1.0000
  H   H21       1.0  0.64265  0.49903  0.90432  1.0000
  H   H22       1.0  0.50172  0.64249  0.65140  1.0000
  H   H23       1.0  0.65292  0.57332  0.84057  1.0000
  H   H24       1.0  0.61703  0.66022  0.75840  1.0000
  H   H25       1.0  0.52661  0.68595  0.54434  1.0000
  H   H26       1.0  0.26033  0.42382  0.85865  1.0000
  H   H27       1.0  0.07880  0.69678  0.84616  1.0000
  H   H28       1.0  0.04993  0.63407  0.57781  1.0000
  H   H29       1.0  0.63945  0.42000  0.80998  1.0000
  H   H30       1.0  0.31168  0.49321  0.89007  1.0000
  H   H31       1.0  0.83454  0.00731  0.48027  1.0000
  H   H32       1.0  0.47053  0.21721  0.44999  1.0000
  H   H33       1.0  0.64011  0.21266  0.46651  1.0000
  H   H34       1.0  0.46321  0.03077  0.55284  1.0000
  H   H35       1.0  0.82567  0.84839  0.57512  1.0000
  H   H36       1.0  0.62891  0.85107  0.50244  1.0000
  H   H37       1.0  0.98499  0.84277  0.44359  1.0000
  H   H38       1.0  0.88828  0.01634  0.61099  1.0000
  H   H39       1.0  0.06213  0.85089  0.40804  1.0000
  H   H40       1.0  0.96517  0.02500  0.56932  1.0000
  H   H41       1.0  0.95228  0.85724  0.23301  1.0000
  H   H42       1.0  0.89817  0.77436  0.89138  1.0000
  H   H43       1.0  0.02321  0.76927  0.28576  1.0000
  H   H44       1.0  0.96786  0.68583  0.94760  1.0000
  H   H45       1.0  0.48804  0.34048  0.26209  1.0000
  H   H46       1.0  0.40942  0.29804  0.58465  1.0000
  H   H47       1.0  0.40310  0.42260  0.23932  1.0000
  H   H48       1.0  0.32374  0.37669  0.54874  1.0000
  H   H49       1.0  0.48060  0.85063  0.89824  1.0000
  H   H50       1.0  0.61293  0.81448  0.17265  1.0000
  H   H51       1.0  0.48729  0.76545  0.93405  1.0000
  H   H52       1.0  0.61956  0.72951  0.20948  1.0000
  H   H53       1.0  0.10361  0.89997  0.43022  1.0000
  H   H54       1.0  0.03664  0.02391  0.45121  1.0000
  H   H55       1.0  0.08897  0.05633  0.33375  1.0000
  H   H56       1.0  0.16931  0.90510  0.50554  1.0000
  H   H57       1.0  0.17434  0.04887  0.27506  1.0000
  H   H58       1.0  0.25451  0.89752  0.44568  1.0000
  H   H59       1.0  0.30508  0.93043  0.36291  1.0000
  H   H60       1.0  0.25444  0.02101  0.16439  1.0000
  H   H61       1.0  0.51405  0.49592  0.36033  1.0000
  H   H62       1.0  0.61359  0.66038  0.25175  1.0000
  H   H63       1.0  0.51930  0.69067  0.05205  1.0000
  H   H64       1.0  0.25602  0.42395  0.36435  1.0000
  H   H65       1.0  0.18019  0.46878  0.18959  1.0000
  H   H66       1.0  0.22874  0.56391  0.50571  1.0000
  H   H67       1.0  0.10316  0.55295  0.13539  1.0000
  H   H68       1.0  0.15077  0.64879  0.45454  1.0000
  H   H69       1.0  0.07640  0.69516  0.33040  1.0000
  H   H70       1.0  0.04367  0.63181  0.07679  1.0000
  H   H71       1.0  0.63475  0.42479  0.34616  1.0000
  H   H72       1.0  0.31048  0.48912  0.35564  1.0000
  C   C1        1.0  0.64803  0.07046  0.93263  1.0000
  C   C2        1.0  0.59800  0.07320  0.93129  1.0000
  C   C3        1.0  0.59558  0.02457  0.94518  1.0000
  C   C4        1.0  0.64335  0.97413  0.95478  1.0000
  C   C5        1.0  0.69396  0.97201  0.95975  1.0000
  C   C6        1.0  0.69673  0.01899  0.94275  1.0000
  C   C7        1.0  0.55654  0.16409  0.92188  1.0000
  C   C8        1.0  0.60605  0.16153  0.92763  1.0000
  C   C9        1.0  0.54765  0.98434  0.97510  1.0000
  C   C10       1.0  0.78205  0.92576  0.99021  1.0000
  C   C11       1.0  0.59543  0.93335  0.97437  1.0000
  C   C12       1.0  0.78553  0.97134  0.96515  1.0000
  C   C13       1.0  0.83501  0.96751  0.97030  1.0000
  C   C14       1.0  0.51061  0.21471  0.91605  1.0000
  C   C15       1.0  0.60679  0.20986  0.93012  1.0000
  C   C16       1.0  0.49886  0.98814  0.00565  1.0000
  C   C17       1.0  0.82804  0.87918  0.02045  1.0000
  C   C18       1.0  0.59183  0.88762  0.99028  1.0000
  C   C19       1.0  0.87653  0.87569  0.02825  1.0000
  C   C20       1.0  0.88033  0.92248  0.00658  1.0000
  C   C21       1.0  0.51106  0.26258  0.91999  1.0000
  C   C22       1.0  0.56152  0.25984  0.92645  1.0000
  C   C23       1.0  0.49519  0.94415  0.03242  1.0000
  C   C24       1.0  0.54374  0.89115  0.01800  1.0000
  C   C25       1.0  0.92858  0.92638  0.01342  1.0000
  C   C26       1.0  0.98053  0.88094  0.98079  1.0000
  C   C27       1.0  0.92377  0.97828  0.04563  1.0000
  C   C28       1.0  0.02414  0.88665  0.97089  1.0000
  C   C29       1.0  0.96725  0.98423  0.03367  1.0000
  C   C30       1.0  0.01881  0.93837  0.99083  1.0000
  C   C31       1.0  0.57042  0.30549  0.91969  1.0000
  C   C32       1.0  0.54028  0.35862  0.01317  1.0000
  C   C33       1.0  0.61261  0.29470  0.81242  1.0000
  C   C34       1.0  0.54985  0.39954  0.99293  1.0000
  C   C35       1.0  0.62302  0.33518  0.79421  1.0000
  C   C36       1.0  0.59079  0.38909  0.88083  1.0000
  C   C37       1.0  0.06599  0.94078  0.96574  1.0000
  C   C38       1.0  0.06949  0.98409  0.94307  1.0000
  C   C39       1.0  0.27011  0.96465  0.81018  1.0000
  C   C40       1.0  0.28355  0.98993  0.71472  1.0000
  C   C41       1.0  0.59904  0.43215  0.84823  1.0000
  C   C42       1.0  0.55972  0.48417  0.84862  1.0000
  C   C43       1.0  0.56688  0.52742  0.81191  1.0000
  C   C44       1.0  0.52705  0.56968  0.74369  1.0000
  C   C45       1.0  0.61244  0.52967  0.84482  1.0000
  C   C46       1.0  0.53307  0.61102  0.70563  1.0000
  C   C47       1.0  0.61798  0.57174  0.80980  1.0000
  C   C48       1.0  0.57890  0.61310  0.73682  1.0000
  C   C49       1.0  0.58578  0.65653  0.70108  1.0000
  C   C50       1.0  0.55606  0.69199  0.60552  1.0000
  C   C51       1.0  0.30939  0.45702  0.89233  1.0000
  C   C52       1.0  0.26226  0.46077  0.87264  1.0000
  C   C53       1.0  0.08222  0.66101  0.76830  1.0000
  C   C54       1.0  0.04767  0.66924  0.65559  1.0000
  C   C55       1.0  0.64582  0.07619  0.48786  1.0000
  C   C56       1.0  0.59617  0.07822  0.48860  1.0000
  C   C57       1.0  0.59434  0.02932  0.50128  1.0000
  C   C58       1.0  0.64242  0.97871  0.50653  1.0000
  C   C59       1.0  0.69290  0.97698  0.51126  1.0000
  C   C60       1.0  0.69496  0.02463  0.49665  1.0000
  C   C61       1.0  0.55338  0.16835  0.46943  1.0000
  C   C62       1.0  0.60256  0.16664  0.47116  1.0000
  C   C63       1.0  0.54704  0.98776  0.51778  1.0000
  C   C64       1.0  0.78186  0.92986  0.53125  1.0000
  C   C65       1.0  0.59511  0.93664  0.51211  1.0000
  C   C66       1.0  0.78442  0.97617  0.50832  1.0000
  C   C67       1.0  0.83401  0.97218  0.50587  1.0000
  C   C68       1.0  0.50691  0.21778  0.45668  1.0000
  C   C69       1.0  0.60242  0.21479  0.46146  1.0000
  C   C70       1.0  0.49843  0.99035  0.53865  1.0000
  C   C71       1.0  0.82887  0.88254  0.55374  1.0000
  C   C72       1.0  0.59184  0.88996  0.51533  1.0000
  C   C73       1.0  0.87763  0.87879  0.55325  1.0000
  C   C74       1.0  0.88047  0.92603  0.53060  1.0000
  C   C75       1.0  0.50692  0.26497  0.44570  1.0000
  C   C76       1.0  0.55681  0.26341  0.44775  1.0000
  C   C77       1.0  0.49492  0.94514  0.55189  1.0000
  C   C78       1.0  0.54399  0.89236  0.53535  1.0000
  C   C79       1.0  0.92920  0.92885  0.52320  1.0000
  C   C80       1.0  0.97985  0.88294  0.47001  1.0000
  C   C81       1.0  0.92595  0.97990  0.56125  1.0000
  C   C82       1.0  0.02376  0.88758  0.45014  1.0000
  C   C83       1.0  0.96965  0.98488  0.53869  1.0000
  C   C84       1.0  0.01989  0.93870  0.48003  1.0000
  C   C85       1.0  0.91989  0.82280  0.05919  1.0000
  C   C86       1.0  0.95591  0.81957  0.17040  1.0000
  C   C87       1.0  0.92477  0.77342  0.98093  1.0000
  C   C88       1.0  0.99581  0.76980  0.19974  1.0000
  C   C89       1.0  0.96437  0.72341  0.01198  1.0000
  C   C90       1.0  0.00118  0.72008  0.12186  1.0000
  C   C91       1.0  0.45574  0.31320  0.42603  1.0000
  C   C92       1.0  0.45232  0.34917  0.32828  1.0000
  C   C93       1.0  0.40811  0.32386  0.50325  1.0000
  C   C94       1.0  0.40439  0.39534  0.31543  1.0000
  C   C95       1.0  0.35966  0.36857  0.48406  1.0000
  C   C96       1.0  0.35681  0.40588  0.39189  1.0000
  C   C97       1.0  0.54615  0.83985  0.03361  1.0000
  C   C98       1.0  0.51125  0.82450  0.96627  1.0000
  C   C99       1.0  0.58597  0.80327  0.11697  1.0000
  C   C100      1.0  0.51479  0.77640  0.98699  1.0000
  C   C101      1.0  0.58970  0.75504  0.13775  1.0000
  C   C102      1.0  0.55326  0.74091  0.07597  1.0000
  C   C103      1.0  0.06746  0.94009  0.45190  1.0000
  C   C104      1.0  0.07211  0.98375  0.44342  1.0000
  C   C105      1.0  0.12256  0.98002  0.41681  1.0000
  C   C106      1.0  0.12535  0.02120  0.35719  1.0000
  C   C107      1.0  0.17031  0.93575  0.44993  1.0000
  C   C108      1.0  0.17348  0.01692  0.32360  1.0000
  C   C109      1.0  0.21823  0.93180  0.41810  1.0000
  C   C110      1.0  0.22139  0.97147  0.35054  1.0000
  C   C111      1.0  0.27328  0.96287  0.31223  1.0000
  C   C112      1.0  0.28576  0.98925  0.21855  1.0000
  C   C113      1.0  0.59364  0.43637  0.36912  1.0000
  C   C114      1.0  0.55471  0.48689  0.35293  1.0000
  C   C115      1.0  0.58132  0.65790  0.19783  1.0000
  C   C116      1.0  0.55081  0.69455  0.10640  1.0000
  C   C117      1.0  0.30734  0.45447  0.37283  1.0000
  C   C118      1.0  0.25929  0.45968  0.36526  1.0000
  C   C119      1.0  0.21158  0.51001  0.34544  1.0000
  C   C120      1.0  0.17377  0.50837  0.24732  1.0000
  C   C121      1.0  0.20211  0.56167  0.42065  1.0000
  C   C122      1.0  0.13020  0.55591  0.21741  1.0000
  C   C123      1.0  0.15805  0.60922  0.39306  1.0000
  C   C124      1.0  0.12159  0.60774  0.28813  1.0000
  C   C125      1.0  0.07843  0.65924  0.25815  1.0000
  C   C126      1.0  0.04240  0.66713  0.15043  1.0000
  N   N1        1.0  0.55310  0.11939  0.92361  1.0000
  N   N2        1.0  0.65166  0.11426  0.93153  1.0000
  N   N3        1.0  0.54840  0.02935  0.95590  1.0000
  N   N4        1.0  0.73618  0.92623  0.98483  1.0000
  N   N5        1.0  0.64319  0.92885  0.96427  1.0000
  N   N6        1.0  0.74228  0.01799  0.94114  1.0000
  N   N7        1.0  0.55085  0.12364  0.47849  1.0000
  N   N8        1.0  0.64857  0.12022  0.48070  1.0000
  N   N9        1.0  0.54734  0.03367  0.50849  1.0000
  N   N10       1.0  0.73577  0.93062  0.53051  1.0000
  N   N11       1.0  0.64270  0.93271  0.50767  1.0000
  N   N12       1.0  0.74053  0.02349  0.49146  1.0000
  C  Sn1       1.0  0.60181  0.78474  0.59725  1.0000
  C   C127      1.0  0.56498  0.82464  0.51810  1.0000
  C  Sn2       1.0  0.51982  0.82418  0.47325  1.0000
  C  Sn3       1.0  0.51127  0.78301  0.50834  1.0000
  C   C128      1.0  0.54809  0.74316  0.58747  1.0000
  C  Sn4       1.0  0.59327  0.74357  0.63234  1.0000
  O  Te1       1.0  0.64668  0.78599  0.64098  1.0000
  O  Te2       1.0  0.48357  0.86448  0.39418  1.0000
  O  Te3       1.0  0.46636  0.78179  0.46453  1.0000
  O  Te4       1.0  0.62950  0.70331  0.71139  1.0000
  Mg  Mg1       1.0  0.42848  0.84551  0.35909  1.0000
  Mg  Mg2       1.0  0.68459  0.72226  0.74661  1.0000
  C  Sn5       1.0  0.39894  0.31956  0.93658  1.0000
  C   C129      1.0  0.44914  0.30801  0.88467  1.0000
  C  Sn6       1.0  0.45618  0.34929  0.84890  1.0000
  C  Sn7       1.0  0.41212  0.40326  0.86546  1.0000
  C   C130      1.0  0.36195  0.41478  0.91738  1.0000
  C  Sn8       1.0  0.35488  0.37352  0.95314  1.0000
  O  Te5       1.0  0.39282  0.27765  0.97168  1.0000
  O  Te6       1.0  0.50675  0.33675  0.79715  1.0000
  O  Te7       1.0  0.41827  0.44517  0.83031  1.0000
  O  Te8       1.0  0.33853  0.31920  0.00489  1.0000
  Mg  Mg3       1.0  0.49497  0.40781  0.76406  1.0000
  Mg  Mg4       1.0  0.35027  0.24818  0.03810  1.0000
  C  Sn9       1.0  0.85359  0.00154  0.53578  1.0000
  C   C131      1.0  0.83854  0.97534  0.62926  1.0000
  C  Sn10      1.0  0.87430  0.94014  0.72211  1.0000
  C  Sn11      1.0  0.92619  0.93097  0.72162  1.0000
  C   C132      1.0  0.94121  0.95717  0.62822  1.0000
  C  Sn12      1.0  0.90547  0.99237  0.53529  1.0000
  O  Te9       1.0  0.31923  0.03656  0.44389  1.0000
  O  Te10      1.0  0.85835  0.91440  0.81455  1.0000
  O  Te11      1.0  0.96259  0.89592  0.81362  1.0000
  O  Te12      1.0  0.92140  0.01811  0.44292  1.0000
  Mg  Mg5       1.0  0.92220  0.87036  0.91974  1.0000
  Mg  Mg6       1.0  0.35963  0.06217  0.33776  1.0000
  C  Sn13      1.0  0.54222  0.39643  0.54237  1.0000
  C   C133      1.0  0.58392  0.39199  0.44991  1.0000
  C  Sn14      1.0  0.61515  0.34556  0.33101  1.0000
  C  Sn15      1.0  0.60447  0.30268  0.30389  1.0000
  C   C134      1.0  0.56279  0.30714  0.39629  1.0000
  C  Sn16      1.0  0.53154  0.35355  0.51524  1.0000
  O  Te13      1.0  0.51150  0.44322  0.66057  1.0000
  O  Te14      1.0  0.65663  0.34204  0.24015  1.0000
  O  Te15      1.0  0.63523  0.25587  0.18557  1.0000
  O  Te16      1.0  0.49007  0.35708  0.60605  1.0000
  Mg  Mg7       1.0  0.68727  0.27013  0.09303  1.0000
  Mg  Mg8       1.0  0.45939  0.42898  0.75313  1.0000
  C  Sn17      1.0  0.13320  0.54558  0.75855  1.0000
  C   C135      1.0  0.11907  0.59947  0.82033  1.0000
  C  Sn18      1.0  0.15524  0.61066  0.89589  1.0000
  C  Sn19      1.0  0.20662  0.56707  0.90991  1.0000
  C   C136      1.0  0.22072  0.51323  0.84813  1.0000
  C  Sn20      1.0  0.18457  0.50200  0.77257  1.0000
  O  Te17      1.0  0.09640  0.53536  0.68348  1.0000
  O  Te18      1.0  0.14020  0.66486  0.95675  1.0000
  O  Te19      1.0  0.24342  0.57735  0.98506  1.0000
  O  Te20      1.0  0.19959  0.44784  0.71171  1.0000
  Mg  Mg9       1.0  0.23848  0.59116  0.04872  1.0000
  Mg  Mg10      1.0  0.13554  0.45465  0.61965  1.0000
  C  Sn21      1.0  0.42679  0.91425  0.16057  1.0000
  C   C137      1.0  0.44047  0.94204  0.06956  1.0000
  C  Sn22      1.0  0.40189  0.99286  0.03948  1.0000
  C  Sn23      1.0  0.85057  0.01641  0.10175  1.0000
  C   C138      1.0  0.33487  0.98862  0.19273  1.0000
  C  Sn24      1.0  0.37343  0.93779  0.22284  1.0000
  O  Te21      1.0  0.46601  0.86349  0.18914  1.0000
  O  Te22      1.0  0.88438  0.08671  0.94812  1.0000
  O  Te23      1.0  0.81135  0.06721  0.07310  1.0000
  O  Te24      1.0  0.35882  0.91080  0.31416  1.0000
  Mg  Mg11      1.0  0.81667  0.15494  0.94199  1.0000
  Mg  Mg12      1.0  0.42650  0.84258  0.32044  1.0000
  C  Sn25      1.0  0.98743  0.78498  0.73824  1.0000
  C   C139      1.0  0.99774  0.73275  0.67126  1.0000
  C  Sn26      1.0  0.97244  0.72498  0.53941  1.0000
  C  Sn27      1.0  0.93609  0.77035  0.47304  1.0000
  C   C140      1.0  0.92580  0.82254  0.53999  1.0000
  C  Sn28      1.0  0.95108  0.83035  0.67187  1.0000
  O  Te25      1.0  0.01318  0.79180  0.87004  1.0000
  O  Te26      1.0  0.98338  0.67238  0.47456  1.0000
  O  Te27      1.0  0.91034  0.76349  0.34115  1.0000
  O  Te28      1.0  0.94017  0.88291  0.73670  1.0000
  Mg  Mg13      1.0  0.93838  0.68391  0.29513  1.0000
  Mg  Mg14      1.0  0.98516  0.87142  0.91606  1.0000
  C  Sn29      1.0  0.65422  0.02956  0.85119  1.0000
  C   C141      1.0  0.70446  0.99055  0.88356  1.0000
  C  Sn30      1.0  0.71327  0.94221  0.92470  1.0000
  C  Sn31      1.0  0.67101  0.93265  0.93356  1.0000
  C   C142      1.0  0.62081  0.97164  0.90118  1.0000
  C  Sn32      1.0  0.61196  0.01999  0.86006  1.0000
  O  Te29      1.0  0.14836  0.07759  0.81029  1.0000
  O  Te30      1.0  0.76383  0.90383  0.95659  1.0000
  O  Te31      1.0  0.67896  0.88457  0.97450  1.0000
  O  Te32      1.0  0.06349  0.05835  0.82815  1.0000
  Mg  Mg15      1.0  0.78907  0.77784  0.00718  1.0000
  Mg  Mg16      1.0  0.07240  0.11750  0.77747  1.0000
  C  Sn33      1.0  0.52998  0.56989  0.18022  1.0000
  C   C143      1.0  0.56252  0.52954  0.26531  1.0000
  C  Sn34      1.0  0.60029  0.53419  0.35351  1.0000
  C  Sn35      1.0  0.60562  0.58015  0.35683  1.0000
  C   C144      1.0  0.57309  0.62047  0.27180  1.0000
  C  Sn36      1.0  0.53531  0.61585  0.18353  1.0000
  O  Te33      1.0  0.49249  0.56440  0.09285  1.0000
  O  Te34      1.0  0.63238  0.49332  0.43757  1.0000
  O  Te35      1.0  0.64315  0.58561  0.44429  1.0000
  O  Te36      1.0  0.50323  0.65669  0.09953  1.0000
  Mg  Mg17      1.0  0.67761  0.51923  0.53919  1.0000
  Mg  Mg18      1.0  0.42378  0.69768  0.99795  1.0000
