data_image0
_chemical_formula_structural       H36C72N12C2Sn2C2HTe2HMgC2Sn2C2HTe2HMgC2Sn2C2HTe2HMgC2Sn2C2HTe2HMgC2Sn2C2HTe2HMgC2Sn2C2HTe2HMgC2Sn2C2HTe2HMgC2Sn2C2HTe2HMgC2Sn2C2HTe2HMgC2Sn2C2HTe2HMgC2Sn2C2HTe2HMgC2Sn2C2HTe2HMgC2Sn2C2HTe2HMgC2Sn2C2HTe2HMgC2Sn2C2HTe2HMgC2Sn2C2HTe2HMgC2Sn2C2HTe2HMgC2Sn2C2HTe2HMgC2Sn2C2HTe2HMgC2Sn2C2HTe2HMgC2Sn2C2HTe2HMgC2Sn2C2HTe2HMgC2Sn2C2HTe2HMgC2Sn2C2HTe2HMg
_chemical_formula_sum              "H84 C168 N12 Sn48 Te48 Mg24"
_cell_length_a       32.2729
_cell_length_b       31.9748
_cell_length_c       8.21813
_cell_angle_alpha    92.9697
_cell_angle_beta     91.8528
_cell_angle_gamma    61.1165

_symmetry_space_group_name_H-M    'P1'
_space_group_IT_number       1

loop_
  _space_group_symop_operation_xyz
  'x, y, z'

loop_
  _atom_site_type_symbol
  _atom_site_label
  _atom_site_symmetry_multiplicity
  _atom_site_fract_x
  _atom_site_fract_y
  _atom_site_fract_z
  _atom_site_occupancy
  H   H1        1.0  0.00732  0.53555  0.94813  1.0000
  H   H2        1.0  0.69188  0.76943  0.93948  1.0000
  H   H3        1.0  0.85904  0.73405  0.00023  1.0000
  H   H4        1.0  0.64342  0.61629  0.78998  1.0000
  H   H5        1.0  0.95985  0.40924  0.90159  1.0000
  H   H6        1.0  0.77749  0.45248  0.83645  1.0000
  H   H7        1.0  0.22942  0.44763  0.93174  1.0000
  H   H8        1.0  0.16169  0.55214  0.03625  1.0000
  H   H9        1.0  0.46326  0.54691  0.40997  1.0000
  H   H10       1.0  0.43763  0.64360  0.58289  1.0000
  H   H11       1.0  0.75233  0.99980  0.23219  1.0000
  H   H12       1.0  0.74973  0.31178  0.70935  1.0000
  H   H13       1.0  0.65186  0.33221  0.57809  1.0000
  H   H14       1.0  0.51233  0.93337  0.08553  1.0000
  H   H15       1.0  0.20158  0.24729  0.58198  1.0000
  H   H16       1.0  0.14375  0.19528  0.61391  1.0000
  H   H17       1.0  0.55248  0.99180  0.93147  1.0000
  H   H18       1.0  0.84471  0.95015  0.03832  1.0000
  H   H19       1.0  0.00240  0.53127  0.45068  1.0000
  H   H20       1.0  0.69086  0.76729  0.45297  1.0000
  H   H21       1.0  0.85938  0.72740  0.49521  1.0000
  H   H22       1.0  0.63739  0.62406  0.30630  1.0000
  H   H23       1.0  0.95779  0.40297  0.40068  1.0000
  H   H24       1.0  0.76052  0.45514  0.35086  1.0000
  H   H25       1.0  0.23615  0.42084  0.40445  1.0000
  H   H26       1.0  0.18393  0.52633  0.52165  1.0000
  H   H27       1.0  0.48424  0.50618  0.83066  1.0000
  H   H28       1.0  0.45295  0.60359  0.00808  1.0000
  H   H29       1.0  0.77710  0.98660  0.70848  1.0000
  H   H30       1.0  0.78886  0.30176  0.25991  1.0000
  H   H31       1.0  0.69313  0.31643  0.12413  1.0000
  H   H32       1.0  0.51406  0.93421  0.58672  1.0000
  H   H33       1.0  0.20788  0.24633  0.05613  1.0000
  H   H34       1.0  0.14635  0.20106  0.13242  1.0000
  H   H35       1.0  0.55585  0.99179  0.43741  1.0000
  H   H36       1.0  0.86491  0.92993  0.49483  1.0000
  C   C1        1.0  0.83589  0.62677  0.86366  1.0000
  C   C2        1.0  0.78691  0.63786  0.84425  1.0000
  C   C3        1.0  0.77437  0.59946  0.81174  1.0000
  C   C4        1.0  0.81176  0.55069  0.80411  1.0000
  C   C5        1.0  0.86151  0.53909  0.82477  1.0000
  C   C6        1.0  0.87373  0.57659  0.85156  1.0000
  C   C7        1.0  0.76412  0.71598  0.91678  1.0000
  C   C8        1.0  0.81244  0.70548  0.93381  1.0000
  C   C9        1.0  0.71938  0.57327  0.80072  1.0000
  C   C10       1.0  0.93814  0.48289  0.87468  1.0000
  C   C11       1.0  0.75706  0.52500  0.80185  1.0000
  C   C12       1.0  0.95063  0.52012  0.89517  1.0000
  C   C13       1.0  0.99764  0.50733  0.94019  1.0000
  C   C14       1.0  0.72811  0.76272  0.95545  1.0000
  C   C15       1.0  0.82205  0.74307  0.98507  1.0000
  C   C16       1.0  0.67246  0.58022  0.80425  1.0000
  C   C17       1.0  0.97223  0.43544  0.90875  1.0000
  C   C18       1.0  0.74695  0.48783  0.82889  1.0000
  C   C19       1.0  0.01790  0.42320  0.96196  1.0000
  C   C20       1.0  0.03117  0.46079  0.97389  1.0000
  C   C21       1.0  0.73736  0.79933  0.00864  1.0000
  C   C22       1.0  0.78626  0.78949  0.02078  1.0000
  C   C23       1.0  0.66260  0.54313  0.83008  1.0000
  C   C24       1.0  0.70160  0.49561  0.86078  1.0000
  C   C25       1.0  0.19811  0.47749  0.98642  1.0000
  C   C26       1.0  0.19401  0.52183  0.98888  1.0000
  C   C27       1.0  0.44106  0.57912  0.48329  1.0000
  C   C28       1.0  0.45670  0.61155  0.50500  1.0000
  C   C29       1.0  0.81553  0.95294  0.10981  1.0000
  C   C30       1.0  0.78204  0.99700  0.16396  1.0000
  C   C31       1.0  0.71912  0.30607  0.69513  1.0000
  C   C32       1.0  0.68219  0.33774  0.60544  1.0000
  C   C33       1.0  0.55358  0.96272  0.99837  1.0000
  C   C34       1.0  0.51218  0.96244  0.02117  1.0000
  C   C35       1.0  0.19688  0.21699  0.61203  1.0000
  C   C36       1.0  0.15175  0.22448  0.60301  1.0000
  C   C37       1.0  0.83247  0.62197  0.38421  1.0000
  C   C38       1.0  0.78344  0.63434  0.36510  1.0000
  C   C39       1.0  0.76991  0.59687  0.33295  1.0000
  C   C40       1.0  0.80567  0.54725  0.33255  1.0000
  C   C41       1.0  0.85600  0.53433  0.35125  1.0000
  C   C42       1.0  0.86906  0.57144  0.37459  1.0000
  C   C43       1.0  0.76235  0.71232  0.43008  1.0000
  C   C44       1.0  0.81108  0.70045  0.44353  1.0000
  C   C45       1.0  0.71190  0.57524  0.31343  1.0000
  C   C46       1.0  0.93354  0.47781  0.38648  1.0000
  C   C47       1.0  0.74728  0.52620  0.32242  1.0000
  C   C48       1.0  0.94638  0.51477  0.40764  1.0000
  C   C49       1.0  0.99391  0.50223  0.44424  1.0000
  C   C50       1.0  0.72741  0.75978  0.46626  1.0000
  C   C51       1.0  0.82207  0.73743  0.48565  1.0000
  C   C52       1.0  0.66373  0.58660  0.31478  1.0000
  C   C53       1.0  0.96895  0.43012  0.40934  1.0000
  C   C54       1.0  0.73268  0.49182  0.34060  1.0000
  C   C55       1.0  0.01507  0.41817  0.45553  1.0000
  C   C56       1.0  0.02871  0.45558  0.47078  1.0000
  C   C57       1.0  0.73798  0.79598  0.51396  1.0000
  C   C58       1.0  0.78752  0.78454  0.51881  1.0000
  C   C59       1.0  0.64952  0.55266  0.33927  1.0000
  C   C60       1.0  0.68549  0.50316  0.35730  1.0000
  C   C61       1.0  0.20785  0.45328  0.46107  1.0000
  C   C62       1.0  0.21262  0.49332  0.46974  1.0000
  C   C63       1.0  0.46194  0.53760  0.90743  1.0000
  C   C64       1.0  0.47467  0.57234  0.92973  1.0000
  C   C65       1.0  0.83562  0.93619  0.57293  1.0000
  C   C66       1.0  0.80647  0.98124  0.63244  1.0000
  C   C67       1.0  0.75968  0.29399  0.23898  1.0000
  C   C68       1.0  0.72162  0.32484  0.15179  1.0000
  C   C69       1.0  0.55615  0.96266  0.50167  1.0000
  C   C70       1.0  0.51432  0.96306  0.52259  1.0000
  C   C71       1.0  0.20179  0.21801  0.09880  1.0000
  C   C72       1.0  0.15581  0.22840  0.10563  1.0000
  N   N1        1.0  0.75184  0.68228  0.86874  1.0000
  N   N2        1.0  0.84808  0.66032  0.90559  1.0000
  N   N3        1.0  0.72872  0.61042  0.80358  1.0000
  N   N4        1.0  0.89344  0.49303  0.83385  1.0000
  N   N5        1.0  0.80294  0.51412  0.79553  1.0000
  N   N6        1.0  0.91835  0.56677  0.88048  1.0000
  N   N7        1.0  0.74893  0.67918  0.38741  1.0000
  N   N8        1.0  0.84601  0.65476  0.42022  1.0000
  N   N9        1.0  0.72393  0.61038  0.31668  1.0000
  N   N10       1.0  0.88817  0.48816  0.35470  1.0000
  N   N11       1.0  0.79420  0.51241  0.32514  1.0000
  N   N12       1.0  0.91386  0.56143  0.39843  1.0000
  C   C73       1.0  0.08839  0.49602  0.13829  1.0000
  C   C74       1.0  0.07824  0.46536  0.03825  1.0000
  C  Sn1       1.0  0.11509  0.44352  0.93366  1.0000
  C  Sn2       1.0  0.16048  0.44026  0.92945  1.0000
  C   C75       1.0  0.16786  0.45894  0.03010  1.0000
  C   C76       1.0  0.13315  0.49281  0.13426  1.0000
  H   H37       1.0  0.06154  0.52221  0.21895  1.0000
  O  Te1       1.0  0.10436  0.41319  0.83448  1.0000
  O  Te2       1.0  0.19555  0.40662  0.82612  1.0000
  H   H38       1.0  0.14103  0.51652  0.21178  1.0000
  Mg  Mg1       1.0  0.16391  0.37323  0.71414  1.0000
  C   C77       1.0  0.77015  0.89933  0.20839  1.0000
  C   C78       1.0  0.80608  0.90702  0.15066  1.0000
  C  Sn3       1.0  0.83924  0.87404  0.04037  1.0000
  C  Sn4       1.0  0.83870  0.84477  0.98708  1.0000
  C   C79       1.0  0.80018  0.82529  0.04546  1.0000
  C   C80       1.0  0.76719  0.85851  0.15583  1.0000
  H   H39       1.0  0.74461  0.92504  0.29371  1.0000
  O  Te3       1.0  0.87734  0.89440  0.98396  1.0000
  O  Te4       1.0  0.87137  0.81124  0.87687  1.0000
  H   H40       1.0  0.73936  0.85256  0.20042  1.0000
  Mg  Mg2       1.0  0.91355  0.83831  0.83490  1.0000
  C   C81       1.0  0.64373  0.85136  0.13614  1.0000
  C   C82       1.0  0.68445  0.84433  0.05724  1.0000
  C  Sn5       1.0  0.68650  0.89335  0.97209  1.0000
  C  Sn6       1.0  0.64453  0.93806  0.96608  1.0000
  C   C83       1.0  0.60156  0.93261  0.04552  1.0000
  C   C84       1.0  0.60232  0.89545  0.13033  1.0000
  H   H41       1.0  0.64432  0.82262  0.20184  1.0000
  O  Te5       1.0  0.72749  0.88572  0.89389  1.0000
  O  Te6       1.0  0.64318  0.97554  0.88190  1.0000
  H   H42       1.0  0.57080  0.90091  0.19150  1.0000
  Mg  Mg3       1.0  0.70806  0.94775  0.79474  1.0000
  C   C85       1.0  0.22196  0.58997  0.89919  1.0000
  C   C86       1.0  0.22357  0.54572  0.90941  1.0000
  C  Sn7       1.0  0.26279  0.50398  0.85138  1.0000
  C  Sn8       1.0  0.30106  0.50670  0.78194  1.0000
  C   C87       1.0  0.29912  0.55114  0.77239  1.0000
  C   C88       1.0  0.25970  0.59269  0.83078  1.0000
  H   H43       1.0  0.19147  0.62212  0.94445  1.0000
  O  Te7       1.0  0.26382  0.46006  0.86248  1.0000
  O  Te8       1.0  0.34070  0.46554  0.72306  1.0000
  H   H44       1.0  0.25847  0.62695  0.82295  1.0000
  Mg  Mg4       1.0  0.32557  0.41402  0.76533  1.0000
  C   C89       1.0  0.81123  0.08035  0.99567  1.0000
  C   C90       1.0  0.76658  0.11155  0.00205  1.0000
  C  Sn9       1.0  0.72753  0.11549  0.08414  1.0000
  C  Sn10      1.0  0.73093  0.07524  0.16120  1.0000
  C   C91       1.0  0.77334  0.03205  0.15421  1.0000
  C   C92       1.0  0.81219  0.02850  0.07169  1.0000
  H   H45       1.0  0.84130  0.07760  0.93190  1.0000
  O  Te9       1.0  0.68560  0.15906  0.08928  1.0000
  O  Te10      1.0  0.69245  0.07819  0.24413  1.0000
  H   H46       1.0  0.36632  0.99495  0.06686  1.0000
  Mg  Mg5       1.0  0.64292  0.14529  0.21717  1.0000
  C   C93       1.0  0.38990  0.01226  0.92884  1.0000
  C   C94       1.0  0.37630  0.05527  0.85367  1.0000
  C  Sn11      1.0  0.40986  0.06946  0.82188  1.0000
  C  Sn12      1.0  0.45790  0.03995  0.86627  1.0000
  C   C95       1.0  0.99259  0.99697  0.94131  1.0000
  C   C96       1.0  0.95872  0.98313  0.97260  1.0000
  H   H47       1.0  0.88513  0.00153  0.95297  1.0000
  O  Te11      1.0  0.39566  0.11255  0.74675  1.0000
  O  Te12      1.0  0.49217  0.05326  0.83586  1.0000
  H   H48       1.0  0.96684  0.93768  0.03071  1.0000
  Mg  Mg6       1.0  0.45542  0.11525  0.73083  1.0000
  C   C97       1.0  0.29696  0.16795  0.61802  1.0000
  C   C98       1.0  0.25138  0.17453  0.63950  1.0000
  C  Sn13      1.0  0.24444  0.14287  0.73120  1.0000
  C  Sn14      1.0  0.28394  0.10393  0.80261  1.0000
  C   C99       1.0  0.32939  0.09768  0.78050  1.0000
  C   C100      1.0  0.33593  0.12957  0.68847  1.0000
  H   H49       1.0  0.30202  0.19264  0.54689  1.0000
  O  Te13      1.0  0.19867  0.14995  0.75139  1.0000
  O  Te14      1.0  0.27801  0.07176  0.89490  1.0000
  H   H50       1.0  0.37122  0.12449  0.67195  1.0000
  Mg  Mg7       1.0  0.20870  0.09646  0.88761  1.0000
  C   C101      1.0  0.78641  0.19895  0.89257  1.0000
  C   C102      1.0  0.75547  0.18345  0.94467  1.0000
  C  Sn15      1.0  0.70736  0.20850  0.90496  1.0000
  C  Sn16      1.0  0.69000  0.24981  0.81131  1.0000
  C   C103      1.0  0.72124  0.26500  0.75967  1.0000
  C   C104      1.0  0.76932  0.23967  0.80014  1.0000
  H   H51       1.0  0.82361  0.17934  0.92380  1.0000
  O  Te15      1.0  0.67694  0.19254  0.95805  1.0000
  O  Te16      1.0  0.64208  0.27550  0.76985  1.0000
  H   H52       1.0  0.79327  0.25166  0.75969  1.0000
  Mg  Mg8       1.0  0.61458  0.23961  0.87065  1.0000
  C   C105      1.0  0.35630  0.61845  0.68379  1.0000
  C   C106      1.0  0.39380  0.58700  0.58388  1.0000
  C  Sn17      1.0  0.39717  0.54350  0.52732  1.0000
  C  Sn18      1.0  0.36230  0.53137  0.57176  1.0000
  C   C107      1.0  0.32490  0.56310  0.67167  1.0000
  C   C108      1.0  0.32188  0.60652  0.72763  1.0000
  H   H53       1.0  0.35394  0.65206  0.72702  1.0000
  O  Te17      1.0  0.43488  0.51249  0.42765  1.0000
  O  Te18      1.0  0.36481  0.48814  0.51689  1.0000
  H   H54       1.0  0.29282  0.63088  0.80489  1.0000
  Mg  Mg9       1.0  0.42290  0.45773  0.38369  1.0000
  C   C109      1.0  0.09014  0.49223  0.59463  1.0000
  C   C110      1.0  0.07790  0.45935  0.52035  1.0000
  C  Sn19      1.0  0.11209  0.41813  0.43910  1.0000
  C  Sn20      1.0  0.15938  0.40977  0.43232  1.0000
  C   C111      1.0  0.17127  0.44287  0.50711  1.0000
  C   C112      1.0  0.13677  0.48400  0.58806  1.0000
  H   H55       1.0  0.06346  0.52405  0.65734  1.0000
  O  Te19      1.0  0.09926  0.38566  0.36549  1.0000
  O  Te20      1.0  0.19425  0.36886  0.35196  1.0000
  H   H56       1.0  0.14626  0.50944  0.64565  1.0000
  Mg  Mg10      1.0  0.15940  0.33518  0.27041  1.0000
  C   C113      1.0  0.77698  0.87189  0.68154  1.0000
  C   C114      1.0  0.79639  0.83071  0.57947  1.0000
  C  Sn21      1.0  0.83569  0.81970  0.48403  1.0000
  C  Sn22      1.0  0.85586  0.85057  0.49121  1.0000
  C   C115      1.0  0.83620  0.89167  0.59380  1.0000
  C   C116      1.0  0.79687  0.90235  0.68874  1.0000
  H   H57       1.0  0.74657  0.88015  0.75507  1.0000
  O  Te21      1.0  0.85463  0.77842  0.38267  1.0000
  O  Te22      1.0  0.89515  0.84042  0.39717  1.0000
  H   H58       1.0  0.78187  0.93422  0.76784  1.0000
  Mg  Mg11      1.0  0.90827  0.77993  0.27784  1.0000
  C   C117      1.0  0.64374  0.84962  0.63632  1.0000
  C   C118      1.0  0.68545  0.84219  0.56369  1.0000
  C  Sn23      1.0  0.68671  0.87919  0.48457  1.0000
  C  Sn24      1.0  0.64539  0.92443  0.47829  1.0000
  C   C119      1.0  0.60385  0.93151  0.55144  1.0000
  C   C120      1.0  0.60298  0.89424  0.63024  1.0000
  H   H59       1.0  0.64306  0.82079  0.69738  1.0000
  O  Te23      1.0  0.72867  0.87114  0.41259  1.0000
  O  Te24      1.0  0.64568  0.96204  0.40007  1.0000
  H   H60       1.0  0.57069  0.90001  0.68656  1.0000
  Mg  Mg12      1.0  0.71139  0.93354  0.32016  1.0000
  C   C121      1.0  0.26354  0.55730  0.30585  1.0000
  C   C122      1.0  0.30867  0.52416  0.25050  1.0000
  C  Sn25      1.0  0.32562  0.47527  0.26695  1.0000
  C  Sn26      1.0  0.29676  0.45937  0.34019  1.0000
  C   C123      1.0  0.25165  0.49281  0.39506  1.0000
  C   C124      1.0  0.23505  0.54165  0.37804  1.0000
  H   H61       1.0  0.25069  0.59508  0.29260  1.0000
  O  Te25      1.0  0.37080  0.44265  0.21104  1.0000
  O  Te26      1.0  0.31281  0.41072  0.35810  1.0000
  H   H62       1.0  0.20010  0.56729  0.42081  1.0000
  Mg  Mg13      1.0  0.37692  0.38008  0.26282  1.0000
  C   C125      1.0  0.75985  0.08239  0.64834  1.0000
  C   C126      1.0  0.79475  0.03613  0.60357  1.0000
  C  Sn27      1.0  0.83272  0.02910  0.50762  1.0000
  C  Sn28      1.0  0.83571  0.06919  0.45575  1.0000
  C   C127      1.0  0.80063  0.11533  0.50128  1.0000
  C   C128      1.0  0.76278  0.12195  0.59729  1.0000
  H   H63       1.0  0.73057  0.08752  0.72270  1.0000
  O  Te27      1.0  0.38872  0.98264  0.46394  1.0000
  O  Te28      1.0  0.87329  0.06319  0.35982  1.0000
  H   H64       1.0  0.73577  0.15777  0.63202  1.0000
  Mg  Mg14      1.0  0.43308  0.99284  0.33179  1.0000
  C   C129      1.0  0.39116  0.01576  0.44251  1.0000
  C   C130      1.0  0.37882  0.05615  0.35278  1.0000
  C  Sn29      1.0  0.41354  0.06724  0.30644  1.0000
  C  Sn30      1.0  0.46148  0.03726  0.35091  1.0000
  C   C131      1.0  0.99490  0.99692  0.44059  1.0000
  C   C132      1.0  0.95987  0.98617  0.48636  1.0000
  H   H65       1.0  0.36406  0.00742  0.47786  1.0000
  O  Te29      1.0  0.40059  0.10774  0.21687  1.0000
  O  Te30      1.0  0.49690  0.04751  0.30614  1.0000
  H   H66       1.0  0.96945  0.95487  0.55575  1.0000
  Mg  Mg15      1.0  0.46163  0.10672  0.18450  1.0000
  C   C133      1.0  0.27655  0.10793  0.28902  1.0000
  C   C134      1.0  0.32271  0.09723  0.25241  1.0000
  C  Sn31      1.0  0.33070  0.12788  0.15894  1.0000
  C  Sn32      1.0  0.29169  0.17000  0.10125  1.0000
  C   C135      1.0  0.24564  0.18039  0.13863  1.0000
  C   C136      1.0  0.23805  0.14947  0.23222  1.0000
  H   H67       1.0  0.27067  0.08402  0.36150  1.0000
  O  Te31      1.0  0.37705  0.11665  0.12344  1.0000
  O  Te32      1.0  0.29866  0.20126  0.00764  1.0000
  H   H68       1.0  0.20231  0.15777  0.26063  1.0000
  Mg  Mg16      1.0  0.37086  0.18257  0.99147  1.0000
  C   C137      1.0  0.73038  0.20888  0.38749  1.0000
  C   C138      1.0  0.77376  0.16916  0.42305  1.0000
  C  Sn33      1.0  0.81592  0.17077  0.40671  1.0000
  C  Sn34      1.0  0.81450  0.21298  0.35381  1.0000
  C   C139      1.0  0.77092  0.25254  0.31865  1.0000
  C   C140      1.0  0.72895  0.25054  0.33537  1.0000
  H   H69       1.0  0.69790  0.20734  0.40051  1.0000
  O  Te33      1.0  0.85896  0.13075  0.44269  1.0000
  O  Te34      1.0  0.85610  0.21557  0.33649  1.0000
  H   H70       1.0  0.69536  0.28131  0.30793  1.0000
  Mg  Mg17      1.0  0.90606  0.15169  0.40025  1.0000
  C   C141      1.0  0.37812  0.57616  0.11185  1.0000
  C   C142      1.0  0.41586  0.54411  0.01399  1.0000
  C  Sn35      1.0  0.42382  0.51098  0.97102  1.0000
  C  Sn36      1.0  0.38845  0.48555  0.02721  1.0000
  C   C143      1.0  0.35079  0.51788  0.12496  1.0000
  C   C144      1.0  0.34560  0.56307  0.16727  1.0000
  H   H71       1.0  0.37408  0.61113  0.14452  1.0000
  O  Te35      1.0  0.46174  0.47939  0.87321  1.0000
  O  Te36      1.0  0.39556  0.45268  0.98604  1.0000
  H   H72       1.0  0.31636  0.58789  0.24295  1.0000
  Mg  Mg18      1.0  0.45308  0.42212  0.84997  1.0000
  C   C145      1.0  0.66479  0.42825  0.91998  1.0000
  C   C146      1.0  0.69008  0.45336  0.94227  1.0000
  C  Sn37      1.0  0.72899  0.42269  0.03688  1.0000
  C  Sn38      1.0  0.74522  0.37818  0.11033  1.0000
  C   C147      1.0  0.71967  0.35332  0.08719  1.0000
  C   C148      1.0  0.68078  0.38433  0.99233  1.0000
  H   H73       1.0  0.63283  0.44285  0.84651  1.0000
  O  Te37      1.0  0.75382  0.44826  0.05795  1.0000
  O  Te38      1.0  0.78642  0.35882  0.20543  1.0000
  H   H74       1.0  0.66122  0.36487  0.97500  1.0000
  Mg  Mg19      1.0  0.80798  0.40710  0.19835  1.0000
  C   C149      1.0  0.64086  0.44041  0.36447  1.0000
  C   C150      1.0  0.66844  0.46210  0.40821  1.0000
  C  Sn39      1.0  0.70553  0.44114  0.52055  1.0000
  C  Sn40      1.0  0.71510  0.39764  0.59015  1.0000
  C   C151      1.0  0.68732  0.37620  0.54551  1.0000
  C   C152      1.0  0.65029  0.39749  0.43301  1.0000
  H   H75       1.0  0.61222  0.45687  0.27736  1.0000
  O  Te39      1.0  0.73273  0.46330  0.56294  1.0000
  O  Te40      1.0  0.75197  0.37590  0.70269  1.0000
  H   H76       1.0  0.62896  0.38067  0.39909  1.0000
  Mg  Mg20      1.0  0.77907  0.41985  0.72168  1.0000
  C   C153      1.0  0.56139  0.52752  0.74079  1.0000
  C   C154      1.0  0.52631  0.55941  0.84793  1.0000
  C  Sn41      1.0  0.53324  0.59312  0.94263  1.0000
  C  Sn42      1.0  0.57611  0.59485  0.92953  1.0000
  C   C155      1.0  0.61097  0.56281  0.82190  1.0000
  C   C156      1.0  0.60368  0.52921  0.72775  1.0000
  H   H77       1.0  0.55574  0.50154  0.66786  1.0000
  O  Te41      1.0  0.49541  0.61257  0.04910  1.0000
  O  Te42      1.0  0.58153  0.61606  0.02271  1.0000
  H   H78       1.0  0.63083  0.50454  0.64473  1.0000
  Mg  Mg21      1.0  0.52267  0.65154  0.15042  1.0000
  C   C157      1.0  0.53772  0.62531  0.52474  1.0000
  C   C158      1.0  0.50562  0.61307  0.44747  1.0000
  C  Sn43      1.0  0.52055  0.57806  0.32124  1.0000
  C  Sn44      1.0  0.56853  0.55494  0.27175  1.0000
  C   C159      1.0  0.60037  0.56742  0.34991  1.0000
  C   C160      1.0  0.58505  0.60251  0.47605  1.0000
  H   H79       1.0  0.52587  0.65244  0.62240  1.0000
  O  Te43      1.0  0.48802  0.56628  0.24531  1.0000
  O  Te44      1.0  0.58440  0.51982  0.14598  1.0000
  H   H80       1.0  0.60991  0.61196  0.53593  1.0000
  Mg  Mg22      1.0  0.52666  0.51616  0.07995  1.0000
  C   C161      1.0  0.04828  0.32127  0.94351  1.0000
  C   C162      1.0  0.04382  0.35203  0.00052  1.0000
  C  Sn45      1.0  0.07961  0.35153  0.10211  1.0000
  C  Sn46      1.0  0.11811  0.30720  0.14720  1.0000
  C   C163      1.0  0.11983  0.26449  0.08942  1.0000
  C   C164      1.0  0.08625  0.27754  0.98788  1.0000
  H   H81       1.0  0.02044  0.32198  0.86487  1.0000
  O  Te45      1.0  0.07701  0.39471  0.15802  1.0000
  O  Te46      1.0  0.15436  0.30566  0.24853  1.0000
  H   H82       1.0  0.08786  0.24433  0.94367  1.0000
  Mg  Mg23      1.0  0.13498  0.37406  0.29348  1.0000
  C   C165      1.0  0.09023  0.35021  0.65094  1.0000
  C   C166      1.0  0.05519  0.36653  0.52982  1.0000
  C  Sn47      1.0  0.04712  0.33406  0.43211  1.0000
  C  Sn48      1.0  0.07468  0.28435  0.45643  1.0000
  C   C167      1.0  0.10963  0.26838  0.57800  1.0000
  C   C168      1.0  0.11743  0.30118  0.67504  1.0000
  H   H83       1.0  0.09625  0.37558  0.72609  1.0000
  O  Te47      1.0  0.01198  0.35097  0.31162  1.0000
  O  Te48      1.0  0.06734  0.25112  0.36055  1.0000
  H   H84       1.0  0.14454  0.28854  0.76888  1.0000
  Mg  Mg24      1.0  0.01531  0.29169  0.21199  1.0000
