data_image0
_chemical_formula_structural       H72C126N12C2Sn2C2HTe2HMgC2Sn2C2HTe2HMgC2Sn2C2HTe2HMgC2Sn2C2HTe2HMgC2Sn2C2HTe2HMgC2Sn2C2HTe2HMgC2Sn2C2HTe2HMgC2Sn2C2HTe2HMgC2Sn2C2HTe2HMg
_chemical_formula_sum              "H90 C162 N12 Sn18 Te18 Mg9"
_cell_length_a       29.6098
_cell_length_b       29.052
_cell_length_c       8.46911
_cell_angle_alpha    99.6792
_cell_angle_beta     89.8738
_cell_angle_gamma    59.2238

_symmetry_space_group_name_H-M    'P1'
_space_group_IT_number       1

loop_
  _space_group_symop_operation_xyz
  'x, y, z'

loop_
  _atom_site_type_symbol
  _atom_site_label
  _atom_site_symmetry_multiplicity
  _atom_site_fract_x
  _atom_site_fract_y
  _atom_site_fract_z
  _atom_site_occupancy
  H   H1        1.0  0.83623  0.00210  0.94304  1.0000
  H   H2        1.0  0.47409  0.21471  0.90413  1.0000
  H   H3        1.0  0.64498  0.20656  0.93683  1.0000
  H   H4        1.0  0.46382  0.02862  0.01802  1.0000
  H   H5        1.0  0.82400  0.84559  0.04249  1.0000
  H   H6        1.0  0.62883  0.84879  0.98055  1.0000
  H   H7        1.0  0.50827  0.36852  0.10070  1.0000
  H   H8        1.0  0.63608  0.25421  0.73731  1.0000
  H   H9        1.0  0.52617  0.44012  0.06762  1.0000
  H   H10       1.0  0.65457  0.32569  0.70489  1.0000
  H   H11       1.0  0.49061  0.35067  0.78765  1.0000
  H   H12       1.0  0.41381  0.28819  0.03835  1.0000
  H   H13       1.0  0.40476  0.43393  0.78519  1.0000
  H   H14       1.0  0.32764  0.36927  0.02409  1.0000
  H   H15       1.0  0.48524  0.84853  0.39712  1.0000
  H   H16       1.0  0.61306  0.81589  0.68886  1.0000
  H   H17       1.0  0.49338  0.76215  0.42790  1.0000
  H   H18       1.0  0.62234  0.72899  0.71638  1.0000
  H   H19       1.0  0.10284  0.90173  0.95745  1.0000
  H   H20       1.0  0.03355  0.02260  0.93681  1.0000
  H   H21       1.0  0.30150  0.93317  0.86490  1.0000
  H   H22       1.0  0.25280  0.02177  0.65945  1.0000
  H   H23       1.0  0.51900  0.49448  0.87145  1.0000
  H   H24       1.0  0.61703  0.66022  0.75840  1.0000
  H   H25       1.0  0.52661  0.68595  0.54434  1.0000
  H   H26       1.0  0.26033  0.42382  0.85865  1.0000
  H   H27       1.0  0.07880  0.69678  0.84616  1.0000
  H   H28       1.0  0.04993  0.63407  0.57781  1.0000
  H   H29       1.0  0.63945  0.42000  0.80998  1.0000
  H   H30       1.0  0.31168  0.49321  0.89007  1.0000
  H   H31       1.0  0.83454  0.00731  0.48027  1.0000
  H   H32       1.0  0.47053  0.21721  0.44999  1.0000
  H   H33       1.0  0.64011  0.21266  0.46651  1.0000
  H   H34       1.0  0.46321  0.03077  0.55284  1.0000
  H   H35       1.0  0.82567  0.84839  0.57512  1.0000
  H   H36       1.0  0.62891  0.85107  0.50244  1.0000
  H   H37       1.0  0.98499  0.84277  0.44359  1.0000
  H   H38       1.0  0.88828  0.01634  0.61099  1.0000
  H   H39       1.0  0.06213  0.85089  0.40804  1.0000
  H   H40       1.0  0.96517  0.02500  0.56932  1.0000
  H   H41       1.0  0.95228  0.85724  0.23301  1.0000
  H   H42       1.0  0.89817  0.77436  0.89138  1.0000
  H   H43       1.0  0.02321  0.76927  0.28576  1.0000
  H   H44       1.0  0.96786  0.68583  0.94760  1.0000
  H   H45       1.0  0.49422  0.37508  0.58517  1.0000
  H   H46       1.0  0.63633  0.25649  0.27619  1.0000
  H   H47       1.0  0.51208  0.44704  0.55556  1.0000
  H   H48       1.0  0.65548  0.32828  0.25323  1.0000
  H   H49       1.0  0.48804  0.34048  0.26209  1.0000
  H   H50       1.0  0.40942  0.29804  0.58465  1.0000
  H   H51       1.0  0.40310  0.42260  0.23932  1.0000
  H   H52       1.0  0.32374  0.37669  0.54874  1.0000
  H   H53       1.0  0.48060  0.85063  0.89824  1.0000
  H   H54       1.0  0.61293  0.81448  0.17265  1.0000
  H   H55       1.0  0.48729  0.76545  0.93405  1.0000
  H   H56       1.0  0.61956  0.72951  0.20948  1.0000
  H   H57       1.0  0.10361  0.89997  0.43022  1.0000
  H   H58       1.0  0.03664  0.02391  0.45121  1.0000
  H   H59       1.0  0.30508  0.93043  0.36291  1.0000
  H   H60       1.0  0.25444  0.02101  0.16439  1.0000
  H   H61       1.0  0.51405  0.49592  0.36033  1.0000
  H   H62       1.0  0.48917  0.56749  0.20486  1.0000
  H   H63       1.0  0.63446  0.50618  0.42656  1.0000
  H   H64       1.0  0.49951  0.64028  0.13387  1.0000
  H   H65       1.0  0.64499  0.57943  0.35515  1.0000
  H   H66       1.0  0.61359  0.66038  0.25175  1.0000
  H   H67       1.0  0.51930  0.69067  0.05205  1.0000
  H   H68       1.0  0.25602  0.42395  0.36435  1.0000
  H   H69       1.0  0.07640  0.69516  0.33040  1.0000
  H   H70       1.0  0.04367  0.63181  0.07679  1.0000
  H   H71       1.0  0.63475  0.42479  0.34616  1.0000
  H   H72       1.0  0.31048  0.48912  0.35564  1.0000
  C   C1        1.0  0.64803  0.07046  0.93263  1.0000
  C   C2        1.0  0.59800  0.07320  0.93129  1.0000
  C   C3        1.0  0.59558  0.02457  0.94518  1.0000
  C   C4        1.0  0.64335  0.97413  0.95478  1.0000
  C   C5        1.0  0.69396  0.97201  0.95975  1.0000
  C   C6        1.0  0.69673  0.01899  0.94275  1.0000
  C   C7        1.0  0.55654  0.16409  0.92188  1.0000
  C   C8        1.0  0.60605  0.16153  0.92763  1.0000
  C   C9        1.0  0.54765  0.98434  0.97510  1.0000
  C   C10       1.0  0.78205  0.92576  0.99021  1.0000
  C   C11       1.0  0.59543  0.93335  0.97437  1.0000
  C   C12       1.0  0.78553  0.97134  0.96515  1.0000
  C   C13       1.0  0.83501  0.96751  0.97030  1.0000
  C   C14       1.0  0.51061  0.21471  0.91605  1.0000
  C   C15       1.0  0.60679  0.20986  0.93012  1.0000
  C   C16       1.0  0.49886  0.98814  0.00565  1.0000
  C   C17       1.0  0.82804  0.87918  0.02045  1.0000
  C   C18       1.0  0.59183  0.88762  0.99028  1.0000
  C   C19       1.0  0.87653  0.87569  0.02825  1.0000
  C   C20       1.0  0.88033  0.92248  0.00658  1.0000
  C   C21       1.0  0.51106  0.26258  0.91999  1.0000
  C   C22       1.0  0.56152  0.25984  0.92645  1.0000
  C   C23       1.0  0.49519  0.94415  0.03242  1.0000
  C   C24       1.0  0.54374  0.89115  0.01800  1.0000
  C   C25       1.0  0.57042  0.30549  0.91969  1.0000
  C   C26       1.0  0.54028  0.35862  0.01317  1.0000
  C   C27       1.0  0.61261  0.29470  0.81242  1.0000
  C   C28       1.0  0.54985  0.39954  0.99293  1.0000
  C   C29       1.0  0.62302  0.33518  0.79421  1.0000
  C   C30       1.0  0.59079  0.38909  0.88083  1.0000
  C   C31       1.0  0.45963  0.31250  0.91262  1.0000
  C   C32       1.0  0.45527  0.35489  0.84223  1.0000
  C   C33       1.0  0.41214  0.31882  0.97625  1.0000
  C   C34       1.0  0.40669  0.40186  0.84071  1.0000
  C   C35       1.0  0.36325  0.36479  0.96892  1.0000
  C   C36       1.0  0.35938  0.40779  0.90231  1.0000
  C   C37       1.0  0.54791  0.83983  0.54331  1.0000
  C   C38       1.0  0.51508  0.82290  0.46823  1.0000
  C   C39       1.0  0.58754  0.80357  0.62799  1.0000
  C   C40       1.0  0.51963  0.77405  0.48572  1.0000
  C   C41       1.0  0.59261  0.75442  0.64417  1.0000
  C   C42       1.0  0.55749  0.73914  0.57735  1.0000
  C   C43       1.0  0.06599  0.94078  0.96574  1.0000
  C   C44       1.0  0.06949  0.98409  0.94307  1.0000
  C   C45       1.0  0.27011  0.96465  0.81018  1.0000
  C   C46       1.0  0.28355  0.98993  0.71472  1.0000
  C   C47       1.0  0.59904  0.43215  0.84823  1.0000
  C   C48       1.0  0.55972  0.48417  0.84862  1.0000
  C   C49       1.0  0.58578  0.65653  0.70108  1.0000
  C   C50       1.0  0.55606  0.69199  0.60552  1.0000
  C   C51       1.0  0.30939  0.45702  0.89233  1.0000
  C   C52       1.0  0.26226  0.46077  0.87264  1.0000
  C   C53       1.0  0.08222  0.66101  0.76830  1.0000
  C   C54       1.0  0.04767  0.66924  0.65559  1.0000
  C   C55       1.0  0.64582  0.07619  0.48786  1.0000
  C   C56       1.0  0.59617  0.07822  0.48860  1.0000
  C   C57       1.0  0.59434  0.02932  0.50128  1.0000
  C   C58       1.0  0.64242  0.97871  0.50653  1.0000
  C   C59       1.0  0.69290  0.97698  0.51126  1.0000
  C   C60       1.0  0.69496  0.02463  0.49665  1.0000
  C   C61       1.0  0.55338  0.16835  0.46943  1.0000
  C   C62       1.0  0.60256  0.16664  0.47116  1.0000
  C   C63       1.0  0.54704  0.98776  0.51778  1.0000
  C   C64       1.0  0.78186  0.92986  0.53125  1.0000
  C   C65       1.0  0.59511  0.93664  0.51211  1.0000
  C   C66       1.0  0.78442  0.97617  0.50832  1.0000
  C   C67       1.0  0.83401  0.97218  0.50587  1.0000
  C   C68       1.0  0.50691  0.21778  0.45668  1.0000
  C   C69       1.0  0.60242  0.21479  0.46146  1.0000
  C   C70       1.0  0.49843  0.99035  0.53865  1.0000
  C   C71       1.0  0.82887  0.88254  0.55374  1.0000
  C   C72       1.0  0.59184  0.88996  0.51533  1.0000
  C   C73       1.0  0.87763  0.87879  0.55325  1.0000
  C   C74       1.0  0.88047  0.92603  0.53060  1.0000
  C   C75       1.0  0.50692  0.26497  0.44570  1.0000
  C   C76       1.0  0.55681  0.26341  0.44775  1.0000
  C   C77       1.0  0.49492  0.94514  0.55189  1.0000
  C   C78       1.0  0.54399  0.89236  0.53535  1.0000
  C   C79       1.0  0.92920  0.92885  0.52320  1.0000
  C   C80       1.0  0.97985  0.88294  0.47001  1.0000
  C   C81       1.0  0.92595  0.97990  0.56125  1.0000
  C   C82       1.0  0.02376  0.88758  0.45014  1.0000
  C   C83       1.0  0.96965  0.98488  0.53869  1.0000
  C   C84       1.0  0.01989  0.93870  0.48003  1.0000
  C   C85       1.0  0.91989  0.82280  0.05919  1.0000
  C   C86       1.0  0.95591  0.81957  0.17040  1.0000
  C   C87       1.0  0.92477  0.77342  0.98093  1.0000
  C   C88       1.0  0.99581  0.76980  0.19974  1.0000
  C   C89       1.0  0.96437  0.72341  0.01198  1.0000
  C   C90       1.0  0.00118  0.72008  0.12186  1.0000
  C   C91       1.0  0.56406  0.30958  0.43353  1.0000
  C   C92       1.0  0.52946  0.36431  0.51105  1.0000
  C   C93       1.0  0.60967  0.29802  0.34152  1.0000
  C   C94       1.0  0.53921  0.40526  0.49310  1.0000
  C   C95       1.0  0.62031  0.33868  0.32767  1.0000
  C   C96       1.0  0.58457  0.39365  0.39978  1.0000
  C   C97       1.0  0.45574  0.31320  0.42603  1.0000
  C   C98       1.0  0.45232  0.34917  0.32828  1.0000
  C   C99       1.0  0.40811  0.32386  0.50325  1.0000
  C   C100      1.0  0.40439  0.39534  0.31543  1.0000
  C   C101      1.0  0.35966  0.36857  0.48406  1.0000
  C   C102      1.0  0.35681  0.40588  0.39189  1.0000
  C   C103      1.0  0.54615  0.83985  0.03361  1.0000
  C   C104      1.0  0.51125  0.82450  0.96627  1.0000
  C   C105      1.0  0.58597  0.80327  0.11697  1.0000
  C   C106      1.0  0.51479  0.77640  0.98699  1.0000
  C   C107      1.0  0.58970  0.75504  0.13775  1.0000
  C   C108      1.0  0.55326  0.74091  0.07597  1.0000
  C   C109      1.0  0.06746  0.94009  0.45190  1.0000
  C   C110      1.0  0.07211  0.98375  0.44342  1.0000
  C   C111      1.0  0.27328  0.96287  0.31223  1.0000
  C   C112      1.0  0.28576  0.98925  0.21855  1.0000
  C   C113      1.0  0.59364  0.43637  0.36912  1.0000
  C   C114      1.0  0.55471  0.48689  0.35293  1.0000
  C   C115      1.0  0.56208  0.52983  0.31536  1.0000
  C   C116      1.0  0.52380  0.56963  0.23621  1.0000
  C   C117      1.0  0.60599  0.53424  0.35676  1.0000
  C   C118      1.0  0.52972  0.61075  0.19600  1.0000
  C   C119      1.0  0.61159  0.57583  0.31789  1.0000
  C   C120      1.0  0.57408  0.61483  0.23477  1.0000
  C   C121      1.0  0.58132  0.65790  0.19783  1.0000
  C   C122      1.0  0.55081  0.69455  0.10640  1.0000
  C   C123      1.0  0.30734  0.45447  0.37283  1.0000
  C   C124      1.0  0.25929  0.45968  0.36526  1.0000
  C   C125      1.0  0.07843  0.65924  0.25815  1.0000
  C   C126      1.0  0.04240  0.66713  0.15043  1.0000
  N   N1        1.0  0.55310  0.11939  0.92361  1.0000
  N   N2        1.0  0.65166  0.11426  0.93153  1.0000
  N   N3        1.0  0.54840  0.02935  0.95590  1.0000
  N   N4        1.0  0.73618  0.92623  0.98483  1.0000
  N   N5        1.0  0.64319  0.92885  0.96427  1.0000
  N   N6        1.0  0.74228  0.01799  0.94114  1.0000
  N   N7        1.0  0.55085  0.12364  0.47849  1.0000
  N   N8        1.0  0.64857  0.12022  0.48070  1.0000
  N   N9        1.0  0.54734  0.03367  0.50849  1.0000
  N   N10       1.0  0.73577  0.93062  0.53051  1.0000
  N   N11       1.0  0.64270  0.93271  0.50767  1.0000
  N   N12       1.0  0.74053  0.02349  0.49146  1.0000
  C   C127      1.0  0.42575  0.92323  0.21082  1.0000
  C   C128      1.0  0.44098  0.94659  0.10675  1.0000
  C  Sn1       1.0  0.40287  0.98913  0.03843  1.0000
  C  Sn2       1.0  0.85058  0.00858  0.07523  1.0000
  C   C129      1.0  0.33370  0.98497  0.17957  1.0000
  C   C130      1.0  0.37217  0.94240  0.24723  1.0000
  H   H73       1.0  0.45551  0.89032  0.26324  1.0000
  O  Te1       1.0  0.88663  0.07884  0.93466  1.0000
  O  Te2       1.0  0.81166  0.05106  0.00867  1.0000
  H   H74       1.0  0.36036  0.92435  0.32788  1.0000
  Mg  Mg1       1.0  0.81885  0.13583  0.87396  1.0000
  C   C131      1.0  0.99768  0.78667  0.70276  1.0000
  C   C132      1.0  0.00585  0.73445  0.65078  1.0000
  C  Sn3       1.0  0.97187  0.72693  0.55019  1.0000
  C  Sn4       1.0  0.92895  0.77261  0.50089  1.0000
  C   C133      1.0  0.92114  0.82468  0.55346  1.0000
  C   C134      1.0  0.95537  0.83174  0.65414  1.0000
  H   H75       1.0  0.02418  0.79213  0.78059  1.0000
  O  Te3       1.0  0.98059  0.67449  0.49943  1.0000
  O  Te4       1.0  0.89440  0.76626  0.40035  1.0000
  H   H76       1.0  0.94905  0.87217  0.69427  1.0000
  Mg  Mg2       1.0  0.92267  0.68666  0.36316  1.0000
  C   C135      1.0  0.15897  0.02398  0.31946  1.0000
  C   C136      1.0  0.70729  0.98560  0.35281  1.0000
  C  Sn5       1.0  0.71496  0.94130  0.41790  1.0000
  C  Sn6       1.0  0.67132  0.93541  0.45003  1.0000
  C   C137      1.0  0.62110  0.97400  0.41614  1.0000
  C   C138      1.0  0.61387  0.01818  0.35106  1.0000
  H   H77       1.0  0.15337  0.05815  0.26902  1.0000
  O  Te5       1.0  0.76554  0.90335  0.45055  1.0000
  O  Te6       1.0  0.67788  0.89151  0.51502  1.0000
  H   H78       1.0  0.07692  0.04787  0.32515  1.0000
  Mg  Mg3       1.0  0.75447  0.85050  0.53881  1.0000
  C   C139      1.0  0.39700  0.92394  0.71780  1.0000
  C   C140      1.0  0.34791  0.96659  0.69094  1.0000
  C  Sn7       1.0  0.34501  0.00484  0.60466  1.0000
  C  Sn8       1.0  0.39220  0.00020  0.54426  1.0000
  C   C141      1.0  0.44112  0.95736  0.57167  1.0000
  C   C142      1.0  0.44357  0.91932  0.65821  1.0000
  H   H79       1.0  0.39890  0.89449  0.78467  1.0000
  O  Te7       1.0  0.79768  0.04721  0.57897  1.0000
  O  Te8       1.0  0.89249  0.03785  0.45759  1.0000
  H   H80       1.0  0.48158  0.88628  0.67889  1.0000
  Mg  Mg4       1.0  0.81577  0.08842  0.45388  1.0000
  C   C143      1.0  0.18153  0.93224  0.96178  1.0000
  C   C144      1.0  0.13058  0.97266  0.93952  1.0000
  C  Sn9       1.0  0.12315  0.01416  0.86039  1.0000
  C  Sn10      1.0  0.16763  0.01510  0.80256  1.0000
  C   C145      1.0  0.21844  0.97445  0.82534  1.0000
  C   C146      1.0  0.22542  0.93312  0.90473  1.0000
  H   H81       1.0  0.22113  0.83340  0.02313  1.0000
  O  Te9       1.0  0.07198  0.05423  0.83922  1.0000
  O  Te10      1.0  0.66338  0.05609  0.72301  1.0000
  H   H82       1.0  0.26487  0.90182  0.92186  1.0000
  Mg  Mg5       1.0  0.58575  0.10165  0.72339  1.0000
  C   C147      1.0  0.16452  0.51653  0.73415  1.0000
  C   C148      1.0  0.20558  0.50966  0.82757  1.0000
  C  Sn11      1.0  0.20474  0.55513  0.91740  1.0000
  C  Sn12      1.0  0.16193  0.60840  0.91340  1.0000
  C   C149      1.0  0.12103  0.61483  0.81965  1.0000
  C   C150      1.0  0.12228  0.56906  0.73019  1.0000
  H   H83       1.0  0.16547  0.48112  0.66500  1.0000
  O  Te11      1.0  0.28028  0.48069  0.01005  1.0000
  O  Te12      1.0  0.19428  0.58770  0.00206  1.0000
  H   H84       1.0  0.09047  0.57439  0.65794  1.0000
  Mg  Mg6       1.0  0.25993  0.55630  0.10999  1.0000
  C   C151      1.0  0.13871  0.54066  0.20668  1.0000
  C   C152      1.0  0.12098  0.59499  0.27632  1.0000
  C  Sn13      1.0  0.15056  0.60749  0.38424  1.0000
  C  Sn14      1.0  0.19878  0.56471  0.42289  1.0000
  C   C153      1.0  0.21619  0.51049  0.35249  1.0000
  C   C154      1.0  0.18627  0.49844  0.24469  1.0000
  H   H85       1.0  0.11557  0.53133  0.12321  1.0000
  O  Te13      1.0  0.13227  0.66200  0.45276  1.0000
  O  Te14      1.0  0.22914  0.57605  0.53032  1.0000
  H   H86       1.0  0.20002  0.45637  0.19071  1.0000
  Mg  Mg7       1.0  0.18761  0.65678  0.59248  1.0000
  C   C155      1.0  0.92932  0.98741  0.05209  1.0000
  C   C156      1.0  0.92653  0.94021  0.01910  1.0000
  C  Sn15      1.0  0.93848  0.95569  0.97762  1.0000
  C  Sn16      1.0  0.98829  0.95164  0.96917  1.0000
  C   C157      1.0  0.02486  0.93226  0.00251  1.0000
  C   C158      1.0  0.97843  0.98345  0.04384  1.0000
  H   H87       1.0  0.39546  0.02702  0.08416  1.0000
  O  Te15      1.0  0.93498  0.90894  0.94497  1.0000
  O  Te16      1.0  0.03503  0.90082  0.92807  1.0000
  H   H88       1.0  0.48266  0.01999  0.06948  1.0000
  Mg  Mg8       1.0  0.00980  0.84894  0.89419  1.0000
  C   C159      1.0  0.62287  0.55981  0.83030  1.0000
  C   C160      1.0  0.59046  0.60164  0.74963  1.0000
  C  Sn17      1.0  0.54251  0.60817  0.70411  1.0000
  C  Sn18      1.0  0.52681  0.57210  0.74021  1.0000
  C   C161      1.0  0.55950  0.53041  0.82106  1.0000
  C   C162      1.0  0.60741  0.52423  0.86601  1.0000
  H   H89       1.0  0.65993  0.55505  0.86517  1.0000
  O  Te17      1.0  0.51061  0.65016  0.62354  1.0000
  O  Te18      1.0  0.47908  0.57771  0.69615  1.0000
  H   H90       1.0  0.63248  0.49186  0.92856  1.0000
  Mg  Mg9       1.0  0.44919  0.64123  0.58835  1.0000
