data_image0
_chemical_formula_structural       H84C144N12C2Sn2C2HTe2HMgC2Sn2C2HTe2HMgC2Sn2C2HTe2HMgC2Sn2C2HTe2HMgC2Sn2C2HTe2HMgC2Sn2C2HTe2HMgC2Sn2C2HTe2HMgC2Sn2C2HTe2HMgC2Sn2C2HTe2HMgC2Sn2C2HTe2HMgC2Sn2C2HTe2HMgC2Sn2C2HTe2HMg
_chemical_formula_sum              "H108 C192 N12 Sn24 Te24 Mg12"
_cell_length_a       32.2729
_cell_length_b       31.9748
_cell_length_c       8.21813
_cell_angle_alpha    92.9697
_cell_angle_beta     91.8528
_cell_angle_gamma    61.1165

_symmetry_space_group_name_H-M    'P1'
_space_group_IT_number       1

loop_
  _space_group_symop_operation_xyz
  'x, y, z'

loop_
  _atom_site_type_symbol
  _atom_site_label
  _atom_site_symmetry_multiplicity
  _atom_site_fract_x
  _atom_site_fract_y
  _atom_site_fract_z
  _atom_site_occupancy
  H   H1        1.0  0.00732  0.53555  0.94813  1.0000
  H   H2        1.0  0.69188  0.76943  0.93948  1.0000
  H   H3        1.0  0.85904  0.73405  0.00023  1.0000
  H   H4        1.0  0.64342  0.61629  0.78998  1.0000
  H   H5        1.0  0.95985  0.40924  0.90159  1.0000
  H   H6        1.0  0.77749  0.45248  0.83645  1.0000
  H   H7        1.0  0.11951  0.39468  0.84915  1.0000
  H   H8        1.0  0.05143  0.51350  0.19356  1.0000
  H   H9        1.0  0.19008  0.40464  0.85835  1.0000
  H   H10       1.0  0.12306  0.52315  0.20526  1.0000
  H   H11       1.0  0.71378  0.89142  0.91576  1.0000
  H   H12       1.0  0.66280  0.81335  0.18154  1.0000
  H   H13       1.0  0.63343  0.95926  0.90628  1.0000
  H   H14       1.0  0.58251  0.88240  0.18122  1.0000
  H   H15       1.0  0.22942  0.44763  0.93174  1.0000
  H   H16       1.0  0.16169  0.55214  0.03625  1.0000
  H   H17       1.0  0.46326  0.54691  0.40997  1.0000
  H   H18       1.0  0.43763  0.64360  0.58289  1.0000
  H   H19       1.0  0.75233  0.99980  0.23219  1.0000
  H   H20       1.0  0.74973  0.31178  0.70935  1.0000
  H   H21       1.0  0.65186  0.33221  0.57809  1.0000
  H   H22       1.0  0.51233  0.93337  0.08553  1.0000
  H   H23       1.0  0.20158  0.24729  0.58198  1.0000
  H   H24       1.0  0.14375  0.19528  0.61391  1.0000
  H   H25       1.0  0.28741  0.07462  0.87666  1.0000
  H   H26       1.0  0.35914  0.13594  0.62545  1.0000
  H   H27       1.0  0.21114  0.13820  0.78226  1.0000
  H   H28       1.0  0.28292  0.20102  0.54206  1.0000
  H   H29       1.0  0.67152  0.20342  0.91144  1.0000
  H   H30       1.0  0.81765  0.16905  0.95684  1.0000
  H   H31       1.0  0.65340  0.27655  0.77091  1.0000
  H   H32       1.0  0.79972  0.24168  0.81320  1.0000
  H   H33       1.0  0.35799  0.49924  0.54580  1.0000
  H   H34       1.0  0.30729  0.63429  0.81210  1.0000
  H   H35       1.0  0.42125  0.50958  0.43073  1.0000
  H   H36       1.0  0.37010  0.64525  0.69260  1.0000
  H   H37       1.0  0.55248  0.99180  0.93147  1.0000
  H   H38       1.0  0.84471  0.95015  0.03832  1.0000
  H   H39       1.0  0.00240  0.53127  0.45068  1.0000
  H   H40       1.0  0.69086  0.76729  0.45297  1.0000
  H   H41       1.0  0.85938  0.72740  0.49521  1.0000
  H   H42       1.0  0.63739  0.62406  0.30630  1.0000
  H   H43       1.0  0.95779  0.40297  0.40068  1.0000
  H   H44       1.0  0.76052  0.45514  0.35086  1.0000
  H   H45       1.0  0.11720  0.37878  0.38690  1.0000
  H   H46       1.0  0.05287  0.51567  0.64223  1.0000
  H   H47       1.0  0.19194  0.38056  0.37894  1.0000
  H   H48       1.0  0.12782  0.51726  0.63878  1.0000
  H   H49       1.0  0.74951  0.86307  0.72809  1.0000
  H   H50       1.0  0.86507  0.78547  0.39910  1.0000
  H   H51       1.0  0.76954  0.92761  0.75843  1.0000
  H   H52       1.0  0.88618  0.84937  0.42999  1.0000
  H   H53       1.0  0.71720  0.88910  0.43668  1.0000
  H   H54       1.0  0.66169  0.81168  0.68134  1.0000
  H   H55       1.0  0.63795  0.95820  0.42509  1.0000
  H   H56       1.0  0.58243  0.88159  0.67795  1.0000
  H   H57       1.0  0.23615  0.42084  0.40445  1.0000
  H   H58       1.0  0.18393  0.52633  0.52165  1.0000
  H   H59       1.0  0.48424  0.50618  0.83066  1.0000
  H   H60       1.0  0.45295  0.60359  0.00808  1.0000
  H   H61       1.0  0.77710  0.98660  0.70848  1.0000
  H   H62       1.0  0.74010  0.06817  0.72072  1.0000
  H   H63       1.0  0.87189  0.99535  0.46239  1.0000
  H   H64       1.0  0.72972  0.14560  0.63761  1.0000
  H   H65       1.0  0.86165  0.07269  0.38037  1.0000
  H   H66       1.0  0.78886  0.30176  0.25991  1.0000
  H   H67       1.0  0.69313  0.31643  0.12413  1.0000
  H   H68       1.0  0.51406  0.93421  0.58672  1.0000
  H   H69       1.0  0.20788  0.24633  0.05613  1.0000
  H   H70       1.0  0.14635  0.20106  0.13242  1.0000
  H   H71       1.0  0.38570  0.45211  0.01453  1.0000
  H   H72       1.0  0.33049  0.59217  0.24610  1.0000
  H   H73       1.0  0.44576  0.46402  0.87936  1.0000
  H   H74       1.0  0.38970  0.60445  0.11051  1.0000
  H   H75       1.0  0.55585  0.99179  0.43741  1.0000
  H   H76       1.0  0.86491  0.92993  0.49483  1.0000
  H   H77       1.0  0.77823  0.36818  0.19102  1.0000
  H   H78       1.0  0.65026  0.38307  0.96251  1.0000
  H   H79       1.0  0.76480  0.44150  0.07099  1.0000
  H   H80       1.0  0.63732  0.45598  0.84079  1.0000
  H   H81       1.0  0.13891  0.30555  0.75752  1.0000
  H   H82       1.0  0.07351  0.25282  0.39905  1.0000
  H   H83       1.0  0.08006  0.38840  0.69312  1.0000
  H   H84       1.0  0.01866  0.33526  0.32395  1.0000
  C   C1        1.0  0.83589  0.62677  0.86366  1.0000
  C   C2        1.0  0.78691  0.63786  0.84425  1.0000
  C   C3        1.0  0.77437  0.59946  0.81174  1.0000
  C   C4        1.0  0.81176  0.55069  0.80411  1.0000
  C   C5        1.0  0.86151  0.53909  0.82477  1.0000
  C   C6        1.0  0.87373  0.57659  0.85156  1.0000
  C   C7        1.0  0.76412  0.71598  0.91678  1.0000
  C   C8        1.0  0.81244  0.70548  0.93381  1.0000
  C   C9        1.0  0.71938  0.57327  0.80072  1.0000
  C   C10       1.0  0.93814  0.48289  0.87468  1.0000
  C   C11       1.0  0.75706  0.52500  0.80185  1.0000
  C   C12       1.0  0.95063  0.52012  0.89517  1.0000
  C   C13       1.0  0.99764  0.50733  0.94019  1.0000
  C   C14       1.0  0.72811  0.76272  0.95545  1.0000
  C   C15       1.0  0.82205  0.74307  0.98507  1.0000
  C   C16       1.0  0.67246  0.58022  0.80425  1.0000
  C   C17       1.0  0.97223  0.43544  0.90875  1.0000
  C   C18       1.0  0.74695  0.48783  0.82889  1.0000
  C   C19       1.0  0.01790  0.42320  0.96196  1.0000
  C   C20       1.0  0.03117  0.46079  0.97389  1.0000
  C   C21       1.0  0.73736  0.79933  0.00864  1.0000
  C   C22       1.0  0.78626  0.78949  0.02078  1.0000
  C   C23       1.0  0.66260  0.54313  0.83008  1.0000
  C   C24       1.0  0.70160  0.49561  0.86078  1.0000
  C   C25       1.0  0.07864  0.45575  0.01174  1.0000
  C   C26       1.0  0.11960  0.42305  0.92719  1.0000
  C   C27       1.0  0.08174  0.49027  0.11799  1.0000
  C   C28       1.0  0.15992  0.42822  0.93405  1.0000
  C   C29       1.0  0.12185  0.49586  0.12365  1.0000
  C   C30       1.0  0.16064  0.46679  0.02267  1.0000
  C   C31       1.0  0.69388  0.84577  0.03916  1.0000
  C   C32       1.0  0.68522  0.88879  0.97193  1.0000
  C   C33       1.0  0.65610  0.84541  0.12023  1.0000
  C   C34       1.0  0.63978  0.92755  0.96930  1.0000
  C   C35       1.0  0.61084  0.88428  0.11950  1.0000
  C   C36       1.0  0.60104  0.92536  0.03503  1.0000
  C   C37       1.0  0.19811  0.47749  0.98642  1.0000
  C   C38       1.0  0.19401  0.52183  0.98888  1.0000
  C   C39       1.0  0.44106  0.57912  0.48329  1.0000
  C   C40       1.0  0.45670  0.61155  0.50500  1.0000
  C   C41       1.0  0.81553  0.95294  0.10981  1.0000
  C   C42       1.0  0.78204  0.99700  0.16396  1.0000
  C   C43       1.0  0.71912  0.30607  0.69513  1.0000
  C   C44       1.0  0.68219  0.33774  0.60544  1.0000
  C   C45       1.0  0.55358  0.96272  0.99837  1.0000
  C   C46       1.0  0.51218  0.96244  0.02117  1.0000
  C   C47       1.0  0.19688  0.21699  0.61203  1.0000
  C   C48       1.0  0.15175  0.22448  0.60301  1.0000
  C   C49       1.0  0.33013  0.09987  0.76131  1.0000
  C   C50       1.0  0.28707  0.10112  0.79807  1.0000
  C   C51       1.0  0.32709  0.13629  0.66385  1.0000
  C   C52       1.0  0.24362  0.13740  0.74549  1.0000
  C   C53       1.0  0.28381  0.17306  0.61469  1.0000
  C   C54       1.0  0.24076  0.17502  0.65545  1.0000
  C   C55       1.0  0.74632  0.17965  0.94190  1.0000
  C   C56       1.0  0.69981  0.21174  0.89052  1.0000
  C   C57       1.0  0.78185  0.19180  0.91302  1.0000
  C   C58       1.0  0.68964  0.25276  0.80895  1.0000
  C   C59       1.0  0.77168  0.23291  0.83339  1.0000
  C   C60       1.0  0.72567  0.26410  0.77638  1.0000
  C   C61       1.0  0.32785  0.56541  0.69093  1.0000
  C   C62       1.0  0.36094  0.53082  0.58208  1.0000
  C   C63       1.0  0.33179  0.60704  0.72678  1.0000
  C   C64       1.0  0.39641  0.53689  0.51521  1.0000
  C   C65       1.0  0.36747  0.61321  0.65967  1.0000
  C   C66       1.0  0.40106  0.57796  0.55328  1.0000
  C   C67       1.0  0.83247  0.62197  0.38421  1.0000
  C   C68       1.0  0.78344  0.63434  0.36510  1.0000
  C   C69       1.0  0.76991  0.59687  0.33295  1.0000
  C   C70       1.0  0.80567  0.54725  0.33255  1.0000
  C   C71       1.0  0.85600  0.53433  0.35125  1.0000
  C   C72       1.0  0.86906  0.57144  0.37459  1.0000
  C   C73       1.0  0.76235  0.71232  0.43008  1.0000
  C   C74       1.0  0.81108  0.70045  0.44353  1.0000
  C   C75       1.0  0.71190  0.57524  0.31343  1.0000
  C   C76       1.0  0.93354  0.47781  0.38648  1.0000
  C   C77       1.0  0.74728  0.52620  0.32242  1.0000
  C   C78       1.0  0.94638  0.51477  0.40764  1.0000
  C   C79       1.0  0.99391  0.50223  0.44424  1.0000
  C   C80       1.0  0.72741  0.75978  0.46626  1.0000
  C   C81       1.0  0.82207  0.73743  0.48565  1.0000
  C   C82       1.0  0.66373  0.58660  0.31478  1.0000
  C   C83       1.0  0.96895  0.43012  0.40934  1.0000
  C   C84       1.0  0.73268  0.49182  0.34060  1.0000
  C   C85       1.0  0.01507  0.41817  0.45553  1.0000
  C   C86       1.0  0.02871  0.45558  0.47078  1.0000
  C   C87       1.0  0.73798  0.79598  0.51396  1.0000
  C   C88       1.0  0.78752  0.78454  0.51881  1.0000
  C   C89       1.0  0.64952  0.55266  0.33927  1.0000
  C   C90       1.0  0.68549  0.50316  0.35730  1.0000
  C   C91       1.0  0.07724  0.44911  0.50123  1.0000
  C   C92       1.0  0.11866  0.40983  0.43895  1.0000
  C   C93       1.0  0.08290  0.48651  0.57972  1.0000
  C   C94       1.0  0.16142  0.41052  0.43697  1.0000
  C   C95       1.0  0.12551  0.48741  0.57778  1.0000
  C   C96       1.0  0.16544  0.45051  0.49766  1.0000
  C   C97       1.0  0.80350  0.82037  0.55437  1.0000
  C   C98       1.0  0.77878  0.86058  0.65968  1.0000
  C   C99       1.0  0.84410  0.81622  0.47943  1.0000
  C   C100      1.0  0.79015  0.89722  0.67572  1.0000
  C   C101      1.0  0.85607  0.85258  0.49644  1.0000
  C   C102      1.0  0.82776  0.89537  0.58701  1.0000
  C   C103      1.0  0.69524  0.84309  0.54606  1.0000
  C   C104      1.0  0.68781  0.88650  0.48545  1.0000
  C   C105      1.0  0.65625  0.84354  0.62169  1.0000
  C   C106      1.0  0.64287  0.92606  0.48177  1.0000
  C   C107      1.0  0.61144  0.88298  0.61917  1.0000
  C   C108      1.0  0.60303  0.92442  0.53959  1.0000
  C   C109      1.0  0.20785  0.45328  0.46107  1.0000
  C   C110      1.0  0.21262  0.49332  0.46974  1.0000
  C   C111      1.0  0.46194  0.53760  0.90743  1.0000
  C   C112      1.0  0.47467  0.57234  0.92973  1.0000
  C   C113      1.0  0.83562  0.93619  0.57293  1.0000
  C   C114      1.0  0.80647  0.98124  0.63244  1.0000
  C   C115      1.0  0.80605  0.02537  0.59450  1.0000
  C   C116      1.0  0.76651  0.06903  0.64392  1.0000
  C   C117      1.0  0.84072  0.02809  0.50207  1.0000
  C   C118      1.0  0.76038  0.11269  0.59570  1.0000
  C   C119      1.0  0.83503  0.07184  0.45594  1.0000
  C   C120      1.0  0.79414  0.11518  0.49817  1.0000
  C   C121      1.0  0.75968  0.29399  0.23898  1.0000
  C   C122      1.0  0.72162  0.32484  0.15179  1.0000
  C   C123      1.0  0.55615  0.96266  0.50167  1.0000
  C   C124      1.0  0.51432  0.96306  0.52259  1.0000
  C   C125      1.0  0.20179  0.21801  0.09880  1.0000
  C   C126      1.0  0.15581  0.22840  0.10563  1.0000
  C   C127      1.0  0.35299  0.52115  0.14188  1.0000
  C   C128      1.0  0.38661  0.48545  0.03732  1.0000
  C   C129      1.0  0.35512  0.56419  0.16332  1.0000
  C   C130      1.0  0.42038  0.49230  0.95982  1.0000
  C   C131      1.0  0.38915  0.57093  0.08698  1.0000
  C   C132      1.0  0.42327  0.53489  0.98377  1.0000
  C   C133      1.0  0.71548  0.36870  0.08476  1.0000
  C   C134      1.0  0.74748  0.38658  0.11243  1.0000
  C   C135      1.0  0.67551  0.39599  0.98763  1.0000
  C   C136      1.0  0.74005  0.42823  0.04290  1.0000
  C   C137      1.0  0.66818  0.43787  0.91769  1.0000
  C   C138      1.0  0.70081  0.45510  0.94006  1.0000
  C   C139      1.0  0.11287  0.27271  0.57519  1.0000
  C   C140      1.0  0.11344  0.31201  0.65908  1.0000
  C   C141      1.0  0.07571  0.28236  0.46304  1.0000
  C   C142      1.0  0.08052  0.35846  0.62357  1.0000
  C   C143      1.0  0.04420  0.32913  0.42194  1.0000
  C   C144      1.0  0.04704  0.36823  0.49826  1.0000
  N   N1        1.0  0.75184  0.68228  0.86874  1.0000
  N   N2        1.0  0.84808  0.66032  0.90559  1.0000
  N   N3        1.0  0.72872  0.61042  0.80358  1.0000
  N   N4        1.0  0.89344  0.49303  0.83385  1.0000
  N   N5        1.0  0.80294  0.51412  0.79553  1.0000
  N   N6        1.0  0.91835  0.56677  0.88048  1.0000
  N   N7        1.0  0.74893  0.67918  0.38741  1.0000
  N   N8        1.0  0.84601  0.65476  0.42022  1.0000
  N   N9        1.0  0.72393  0.61038  0.31668  1.0000
  N   N10       1.0  0.88817  0.48816  0.35470  1.0000
  N   N11       1.0  0.79420  0.51241  0.32514  1.0000
  N   N12       1.0  0.91386  0.56143  0.39843  1.0000
  C   C145      1.0  0.84270  0.83594  0.98015  1.0000
  C   C146      1.0  0.80929  0.81255  0.05810  1.0000
  C  Sn1       1.0  0.77673  0.84509  0.17081  1.0000
  C  Sn2       1.0  0.77523  0.88972  0.20586  1.0000
  C   C147      1.0  0.80635  0.90067  0.12714  1.0000
  C   C148      1.0  0.83880  0.86783  0.01460  1.0000
  H   H85       1.0  0.86779  0.81055  0.89301  1.0000
  O  Te1       1.0  0.74604  0.83326  0.24763  1.0000
  O  Te2       1.0  0.74302  0.92292  0.31794  1.0000
  H   H86       1.0  0.86519  0.88871  0.95419  1.0000
  Mg  Mg1       1.0  0.70848  0.89034  0.39114  1.0000
  C   C149      1.0  0.64086  0.44041  0.36447  1.0000
  C   C150      1.0  0.66844  0.46210  0.40821  1.0000
  C  Sn3       1.0  0.70553  0.44114  0.52055  1.0000
  C  Sn4       1.0  0.71510  0.39764  0.59015  1.0000
  C   C151      1.0  0.68732  0.37620  0.54551  1.0000
  C   C152      1.0  0.65029  0.39749  0.43301  1.0000
  H   H87       1.0  0.61222  0.45687  0.27736  1.0000
  O  Te3       1.0  0.73273  0.46330  0.56294  1.0000
  O  Te4       1.0  0.75197  0.37590  0.70269  1.0000
  H   H88       1.0  0.62896  0.38067  0.39909  1.0000
  Mg  Mg2       1.0  0.77907  0.41985  0.72168  1.0000
  C   C153      1.0  0.45698  0.04502  0.33234  1.0000
  C   C154      1.0  0.46815  0.00861  0.44028  1.0000
  C  Sn5       1.0  0.95473  0.99795  0.48859  1.0000
  C  Sn6       1.0  0.38644  0.02428  0.42746  1.0000
  C   C155      1.0  0.37563  0.06061  0.31944  1.0000
  C   C156      1.0  0.41077  0.07099  0.27194  1.0000
  H   H89       1.0  0.48418  0.05303  0.29551  1.0000
  O  Te5       1.0  0.96649  0.96147  0.59656  1.0000
  O  Te6       1.0  0.35093  0.01436  0.47369  1.0000
  H   H90       1.0  0.40213  0.09916  0.18829  1.0000
  Mg  Mg3       1.0  0.90580  0.96132  0.62358  1.0000
  C   C157      1.0  0.41318  0.99597  0.97012  1.0000
  C   C158      1.0  0.45717  0.99397  0.95685  1.0000
  C  Sn7       1.0  0.93942  0.03003  0.88028  1.0000
  C  Sn8       1.0  0.89823  0.06878  0.81595  1.0000
  C   C159      1.0  0.85438  0.07048  0.82995  1.0000
  C   C160      1.0  0.85110  0.03419  0.90676  1.0000
  H   H91       1.0  0.40821  0.95579  0.02963  1.0000
  O  Te7       1.0  0.98365  0.02745  0.86801  1.0000
  O  Te8       1.0  0.90089  0.10531  0.73887  1.0000
  H   H92       1.0  0.81703  0.03578  0.91711  1.0000
  Mg  Mg4       1.0  0.96916  0.08585  0.75217  1.0000
  C   C161      1.0  0.81562  0.05572  0.01670  1.0000
  C   C162      1.0  0.78856  0.04408  0.11561  1.0000
  C  Sn9       1.0  0.74306  0.07883  0.16200  1.0000
  C  Sn10      1.0  0.72440  0.12606  0.10815  1.0000
  C   C163      1.0  0.75173  0.13734  0.00914  1.0000
  C   C164      1.0  0.79965  0.11444  0.96348  1.0000
  H   H93       1.0  0.85323  0.04074  0.98130  1.0000
  O  Te9       1.0  0.71652  0.06659  0.26091  1.0000
  O  Te10      1.0  0.67902  0.16148  0.15265  1.0000
  H   H94       1.0  0.82058  0.12345  0.88682  1.0000
  Mg  Mg5       1.0  0.65653  0.12733  0.28905  1.0000
  C   C165      1.0  0.10019  0.35441  0.13357  1.0000
  C   C166      1.0  0.06052  0.37126  0.03085  1.0000
  C  Sn11      1.0  0.04975  0.35155  0.95400  1.0000
  C  Sn12      1.0  0.07683  0.30194  0.98076  1.0000
  C   C167      1.0  0.11401  0.27330  0.08383  1.0000
  C   C168      1.0  0.12691  0.30548  0.16007  1.0000
  H   H95       1.0  0.11016  0.37930  0.19264  1.0000
  O  Te11      1.0  0.01002  0.36899  0.85171  1.0000
  O  Te12      1.0  0.06442  0.26933  0.90554  1.0000
  H   H96       1.0  0.15761  0.29242  0.23968  1.0000
  Mg  Mg6       1.0  0.00733  0.31046  0.77681  1.0000
  C   C169      1.0  0.22196  0.58997  0.89919  1.0000
  C   C170      1.0  0.22357  0.54572  0.90941  1.0000
  C  Sn13      1.0  0.26279  0.50398  0.85138  1.0000
  C  Sn14      1.0  0.30106  0.50670  0.78194  1.0000
  C   C171      1.0  0.29912  0.55114  0.77239  1.0000
  C   C172      1.0  0.25970  0.59269  0.83078  1.0000
  H   H97       1.0  0.19147  0.62212  0.94445  1.0000
  O  Te13      1.0  0.26382  0.46006  0.86248  1.0000
  O  Te14      1.0  0.34070  0.46554  0.72306  1.0000
  H   H98       1.0  0.25847  0.62695  0.82295  1.0000
  Mg  Mg7       1.0  0.32557  0.41402  0.76533  1.0000
  C   C173      1.0  0.27655  0.10793  0.28902  1.0000
  C   C174      1.0  0.32271  0.09723  0.25241  1.0000
  C  Sn15      1.0  0.33070  0.12788  0.15894  1.0000
  C  Sn16      1.0  0.29169  0.17000  0.10125  1.0000
  C   C175      1.0  0.24564  0.18039  0.13863  1.0000
  C   C176      1.0  0.23805  0.14947  0.23222  1.0000
  H   H99       1.0  0.27067  0.08402  0.36150  1.0000
  O  Te15      1.0  0.37705  0.11665  0.12344  1.0000
  O  Te16      1.0  0.29866  0.20126  0.00764  1.0000
  H   H100      1.0  0.20231  0.15777  0.26063  1.0000
  Mg  Mg8       1.0  0.37086  0.18257  0.99147  1.0000
  C   C177      1.0  0.56136  0.55085  0.27154  1.0000
  C   C178      1.0  0.59086  0.56918  0.32883  1.0000
  C  Sn17      1.0  0.57560  0.60494  0.45256  1.0000
  C  Sn18      1.0  0.52995  0.62261  0.51998  1.0000
  C   C179      1.0  0.50071  0.60401  0.46191  1.0000
  C   C180      1.0  0.51633  0.56824  0.33802  1.0000
  H   H101      1.0  0.57344  0.52316  0.17575  1.0000
  O  Te17      1.0  0.60553  0.62286  0.50833  1.0000
  O  Te18      1.0  0.51382  0.65833  0.64379  1.0000
  H   H102      1.0  0.49349  0.55404  0.29376  1.0000
  Mg  Mg9       1.0  0.56758  0.67136  0.67901  1.0000
  C   C181      1.0  0.72569  0.23094  0.34365  1.0000
  C   C182      1.0  0.75677  0.24882  0.31916  1.0000
  C  Sn19      1.0  0.80519  0.22064  0.34897  1.0000
  C  Sn20      1.0  0.82272  0.17370  0.40427  1.0000
  C   C183      1.0  0.79134  0.15613  0.42829  1.0000
  C   C184      1.0  0.74295  0.18463  0.39813  1.0000
  H   H103      1.0  0.68825  0.25298  0.32024  1.0000
  O  Te19      1.0  0.83576  0.23907  0.32394  1.0000
  O  Te20      1.0  0.87096  0.14476  0.43495  1.0000
  H   H104      1.0  0.71889  0.17077  0.41700  1.0000
  Mg  Mg10      1.0  0.89854  0.18590  0.38272  1.0000
  C   C185      1.0  0.56139  0.52752  0.74079  1.0000
  C   C186      1.0  0.52631  0.55941  0.84793  1.0000
  C  Sn21      1.0  0.53324  0.59312  0.94263  1.0000
  C  Sn22      1.0  0.57611  0.59485  0.92953  1.0000
  C   C187      1.0  0.61097  0.56281  0.82190  1.0000
  C   C188      1.0  0.60368  0.52921  0.72775  1.0000
  H   H105      1.0  0.55574  0.50154  0.66786  1.0000
  O  Te21      1.0  0.49541  0.61257  0.04910  1.0000
  O  Te22      1.0  0.58153  0.61606  0.02271  1.0000
  H   H106      1.0  0.63083  0.50454  0.64473  1.0000
  Mg  Mg11      1.0  0.52267  0.65154  0.15042  1.0000
  C   C189      1.0  0.24695  0.55339  0.35785  1.0000
  C   C190      1.0  0.24786  0.51057  0.39173  1.0000
  C  Sn23      1.0  0.28710  0.46678  0.34909  1.0000
  C  Sn24      1.0  0.32610  0.46595  0.27114  1.0000
  C   C191      1.0  0.32485  0.50899  0.23788  1.0000
  C   C192      1.0  0.28540  0.55261  0.28102  1.0000
  H   H107      1.0  0.21644  0.58715  0.39131  1.0000
  O  Te23      1.0  0.28743  0.42433  0.38378  1.0000
  O  Te24      1.0  0.36577  0.42268  0.22725  1.0000
  H   H108      1.0  0.28472  0.58576  0.25487  1.0000
  Mg  Mg12      1.0  0.34953  0.37435  0.30021  1.0000
