data_image0
_chemical_formula_structural       H36C72N12SnCSn2CSnTe4Mg2SnCSn2CSnTe4Mg2SnCSn2CSnTe4Mg2SnCSn2CSnTe4Mg2SnCSn2CSnTe4Mg2SnCSn2CSnTe4Mg2SnCSn2CSnTe4Mg2SnCSn2CSnTe4Mg2SnCSn2CSnTe4Mg2SnCSn2CSnTe4Mg2SnCSn2CSnTe4Mg2SnCSn2CSnTe4Mg2SnCSn2CSnTe4Mg2SnCSn2CSnTe4Mg2SnCSn2CSnTe4Mg2SnCSn2CSnTe4Mg2SnCSn2CSnTe4Mg2SnCSn2CSnTe4Mg2SnCSn2CSnTe4Mg2SnCSn2CSnTe4Mg2SnCSn2CSnTe4Mg2SnCSn2CSnTe4Mg2SnCSn2CSnTe4Mg2SnCSn2CSnTe4Mg2
_chemical_formula_sum              "H36 C120 N12 Sn96 Te96 Mg48"
_cell_length_a       32.2729
_cell_length_b       31.9748
_cell_length_c       8.21813
_cell_angle_alpha    92.9697
_cell_angle_beta     91.8528
_cell_angle_gamma    61.1165

_symmetry_space_group_name_H-M    'P1'
_space_group_IT_number       1

loop_
  _space_group_symop_operation_xyz
  'x, y, z'

loop_
  _atom_site_type_symbol
  _atom_site_label
  _atom_site_symmetry_multiplicity
  _atom_site_fract_x
  _atom_site_fract_y
  _atom_site_fract_z
  _atom_site_occupancy
  H   H1        1.0  0.00732  0.53555  0.94813  1.0000
  H   H2        1.0  0.69188  0.76943  0.93948  1.0000
  H   H3        1.0  0.85904  0.73405  0.00023  1.0000
  H   H4        1.0  0.64342  0.61629  0.78998  1.0000
  H   H5        1.0  0.95985  0.40924  0.90159  1.0000
  H   H6        1.0  0.77749  0.45248  0.83645  1.0000
  H   H7        1.0  0.22942  0.44763  0.93174  1.0000
  H   H8        1.0  0.16169  0.55214  0.03625  1.0000
  H   H9        1.0  0.46326  0.54691  0.40997  1.0000
  H   H10       1.0  0.43763  0.64360  0.58289  1.0000
  H   H11       1.0  0.75233  0.99980  0.23219  1.0000
  H   H12       1.0  0.74973  0.31178  0.70935  1.0000
  H   H13       1.0  0.65186  0.33221  0.57809  1.0000
  H   H14       1.0  0.51233  0.93337  0.08553  1.0000
  H   H15       1.0  0.20158  0.24729  0.58198  1.0000
  H   H16       1.0  0.14375  0.19528  0.61391  1.0000
  H   H17       1.0  0.55248  0.99180  0.93147  1.0000
  H   H18       1.0  0.84471  0.95015  0.03832  1.0000
  H   H19       1.0  0.00240  0.53127  0.45068  1.0000
  H   H20       1.0  0.69086  0.76729  0.45297  1.0000
  H   H21       1.0  0.85938  0.72740  0.49521  1.0000
  H   H22       1.0  0.63739  0.62406  0.30630  1.0000
  H   H23       1.0  0.95779  0.40297  0.40068  1.0000
  H   H24       1.0  0.76052  0.45514  0.35086  1.0000
  H   H25       1.0  0.23615  0.42084  0.40445  1.0000
  H   H26       1.0  0.18393  0.52633  0.52165  1.0000
  H   H27       1.0  0.48424  0.50618  0.83066  1.0000
  H   H28       1.0  0.45295  0.60359  0.00808  1.0000
  H   H29       1.0  0.77710  0.98660  0.70848  1.0000
  H   H30       1.0  0.78886  0.30176  0.25991  1.0000
  H   H31       1.0  0.69313  0.31643  0.12413  1.0000
  H   H32       1.0  0.51406  0.93421  0.58672  1.0000
  H   H33       1.0  0.20788  0.24633  0.05613  1.0000
  H   H34       1.0  0.14635  0.20106  0.13242  1.0000
  H   H35       1.0  0.55585  0.99179  0.43741  1.0000
  H   H36       1.0  0.86491  0.92993  0.49483  1.0000
  C   C1        1.0  0.83589  0.62677  0.86366  1.0000
  C   C2        1.0  0.78691  0.63786  0.84425  1.0000
  C   C3        1.0  0.77437  0.59946  0.81174  1.0000
  C   C4        1.0  0.81176  0.55069  0.80411  1.0000
  C   C5        1.0  0.86151  0.53909  0.82477  1.0000
  C   C6        1.0  0.87373  0.57659  0.85156  1.0000
  C   C7        1.0  0.76412  0.71598  0.91678  1.0000
  C   C8        1.0  0.81244  0.70548  0.93381  1.0000
  C   C9        1.0  0.71938  0.57327  0.80072  1.0000
  C   C10       1.0  0.93814  0.48289  0.87468  1.0000
  C   C11       1.0  0.75706  0.52500  0.80185  1.0000
  C   C12       1.0  0.95063  0.52012  0.89517  1.0000
  C   C13       1.0  0.99764  0.50733  0.94019  1.0000
  C   C14       1.0  0.72811  0.76272  0.95545  1.0000
  C   C15       1.0  0.82205  0.74307  0.98507  1.0000
  C   C16       1.0  0.67246  0.58022  0.80425  1.0000
  C   C17       1.0  0.97223  0.43544  0.90875  1.0000
  C   C18       1.0  0.74695  0.48783  0.82889  1.0000
  C   C19       1.0  0.01790  0.42320  0.96196  1.0000
  C   C20       1.0  0.03117  0.46079  0.97389  1.0000
  C   C21       1.0  0.73736  0.79933  0.00864  1.0000
  C   C22       1.0  0.78626  0.78949  0.02078  1.0000
  C   C23       1.0  0.66260  0.54313  0.83008  1.0000
  C   C24       1.0  0.70160  0.49561  0.86078  1.0000
  C   C25       1.0  0.19811  0.47749  0.98642  1.0000
  C   C26       1.0  0.19401  0.52183  0.98888  1.0000
  C   C27       1.0  0.44106  0.57912  0.48329  1.0000
  C   C28       1.0  0.45670  0.61155  0.50500  1.0000
  C   C29       1.0  0.81553  0.95294  0.10981  1.0000
  C   C30       1.0  0.78204  0.99700  0.16396  1.0000
  C   C31       1.0  0.71912  0.30607  0.69513  1.0000
  C   C32       1.0  0.68219  0.33774  0.60544  1.0000
  C   C33       1.0  0.55358  0.96272  0.99837  1.0000
  C   C34       1.0  0.51218  0.96244  0.02117  1.0000
  C   C35       1.0  0.19688  0.21699  0.61203  1.0000
  C   C36       1.0  0.15175  0.22448  0.60301  1.0000
  C   C37       1.0  0.83247  0.62197  0.38421  1.0000
  C   C38       1.0  0.78344  0.63434  0.36510  1.0000
  C   C39       1.0  0.76991  0.59687  0.33295  1.0000
  C   C40       1.0  0.80567  0.54725  0.33255  1.0000
  C   C41       1.0  0.85600  0.53433  0.35125  1.0000
  C   C42       1.0  0.86906  0.57144  0.37459  1.0000
  C   C43       1.0  0.76235  0.71232  0.43008  1.0000
  C   C44       1.0  0.81108  0.70045  0.44353  1.0000
  C   C45       1.0  0.71190  0.57524  0.31343  1.0000
  C   C46       1.0  0.93354  0.47781  0.38648  1.0000
  C   C47       1.0  0.74728  0.52620  0.32242  1.0000
  C   C48       1.0  0.94638  0.51477  0.40764  1.0000
  C   C49       1.0  0.99391  0.50223  0.44424  1.0000
  C   C50       1.0  0.72741  0.75978  0.46626  1.0000
  C   C51       1.0  0.82207  0.73743  0.48565  1.0000
  C   C52       1.0  0.66373  0.58660  0.31478  1.0000
  C   C53       1.0  0.96895  0.43012  0.40934  1.0000
  C   C54       1.0  0.73268  0.49182  0.34060  1.0000
  C   C55       1.0  0.01507  0.41817  0.45553  1.0000
  C   C56       1.0  0.02871  0.45558  0.47078  1.0000
  C   C57       1.0  0.73798  0.79598  0.51396  1.0000
  C   C58       1.0  0.78752  0.78454  0.51881  1.0000
  C   C59       1.0  0.64952  0.55266  0.33927  1.0000
  C   C60       1.0  0.68549  0.50316  0.35730  1.0000
  C   C61       1.0  0.20785  0.45328  0.46107  1.0000
  C   C62       1.0  0.21262  0.49332  0.46974  1.0000
  C   C63       1.0  0.46194  0.53760  0.90743  1.0000
  C   C64       1.0  0.47467  0.57234  0.92973  1.0000
  C   C65       1.0  0.83562  0.93619  0.57293  1.0000
  C   C66       1.0  0.80647  0.98124  0.63244  1.0000
  C   C67       1.0  0.75968  0.29399  0.23898  1.0000
  C   C68       1.0  0.72162  0.32484  0.15179  1.0000
  C   C69       1.0  0.55615  0.96266  0.50167  1.0000
  C   C70       1.0  0.51432  0.96306  0.52259  1.0000
  C   C71       1.0  0.20179  0.21801  0.09880  1.0000
  C   C72       1.0  0.15581  0.22840  0.10563  1.0000
  N   N1        1.0  0.75184  0.68228  0.86874  1.0000
  N   N2        1.0  0.84808  0.66032  0.90559  1.0000
  N   N3        1.0  0.72872  0.61042  0.80358  1.0000
  N   N4        1.0  0.89344  0.49303  0.83385  1.0000
  N   N5        1.0  0.80294  0.51412  0.79553  1.0000
  N   N6        1.0  0.91835  0.56677  0.88048  1.0000
  N   N7        1.0  0.74893  0.67918  0.38741  1.0000
  N   N8        1.0  0.84601  0.65476  0.42022  1.0000
  N   N9        1.0  0.72393  0.61038  0.31668  1.0000
  N   N10       1.0  0.88817  0.48816  0.35470  1.0000
  N   N11       1.0  0.79420  0.51241  0.32514  1.0000
  N   N12       1.0  0.91386  0.56143  0.39843  1.0000
  C  Sn1       1.0  0.08361  0.50314  0.09001  1.0000
  C   C73       1.0  0.07610  0.46889  0.00118  1.0000
  C  Sn2       1.0  0.11667  0.44011  0.93325  1.0000
  C  Sn3       1.0  0.16329  0.43327  0.95464  1.0000
  C   C74       1.0  0.16835  0.45537  0.04345  1.0000
  C  Sn4       1.0  0.13023  0.49630  0.11140  1.0000
  O  Te1       1.0  0.04495  0.54377  0.15684  1.0000
  O  Te2       1.0  0.10828  0.40638  0.84489  1.0000
  O  Te3       1.0  0.20196  0.39260  0.88772  1.0000
  O  Te4       1.0  0.13860  0.53002  0.19974  1.0000
  Mg  Mg1       1.0  0.17248  0.35688  0.77747  1.0000
  Mg  Mg2       1.0  0.07444  0.57952  0.26728  1.0000
  C  Sn5       1.0  0.78275  0.89136  0.24157  1.0000
  C   C75       1.0  0.81601  0.90050  0.16921  1.0000
  C  Sn6       1.0  0.83992  0.87430  0.02936  1.0000
  C  Sn7       1.0  0.83280  0.85035  0.96033  1.0000
  C   C76       1.0  0.79713  0.82910  0.03266  1.0000
  C  Sn8       1.0  0.77321  0.85529  0.17254  1.0000
  O  Te5       1.0  0.75927  0.91800  0.38133  1.0000
  O  Te6       1.0  0.87545  0.89620  0.95923  1.0000
  O  Te7       1.0  0.85631  0.82371  0.82046  1.0000
  O  Te8       1.0  0.74011  0.84554  0.24263  1.0000
  Mg  Mg3       1.0  0.89828  0.85030  0.76955  1.0000
  Mg  Mg4       1.0  0.71725  0.89144  0.43226  1.0000
  C  Sn9       1.0  0.67680  0.89214  0.00672  1.0000
  C   C77       1.0  0.69216  0.84801  0.07626  1.0000
  C  Sn10      1.0  0.65953  0.83363  0.11889  1.0000
  C  Sn11      1.0  0.61051  0.86399  0.09135  1.0000
  C   C78       1.0  0.59518  0.90809  0.02183  1.0000
  C  Sn12      1.0  0.63022  0.93463  0.97919  1.0000
  O  Te9       1.0  0.71248  0.91791  0.96505  1.0000
  O  Te10      1.0  0.67573  0.78936  0.18829  1.0000
  O  Te11      1.0  0.57726  0.85032  0.13310  1.0000
  O  Te12      1.0  0.61403  0.97887  0.90980  1.0000
  Mg  Mg5       1.0  0.61672  0.78666  0.22426  1.0000
  Mg  Mg6       1.0  0.67302  0.98159  0.87371  1.0000
  C  Sn13      1.0  0.29028  0.50362  0.74461  1.0000
  C   C79       1.0  0.28676  0.54854  0.72896  1.0000
  C  Sn14      1.0  0.25423  0.58805  0.82184  1.0000
  C  Sn15      1.0  0.22460  0.58254  0.93276  1.0000
  C   C80       1.0  0.22813  0.53764  0.94839  1.0000
  C  Sn16      1.0  0.26066  0.49811  0.85553  1.0000
  O  Te13      1.0  0.32306  0.46463  0.65054  1.0000
  O  Te14      1.0  0.25135  0.63260  0.80404  1.0000
  O  Te15      1.0  0.18938  0.60945  0.02686  1.0000
  O  Te16      1.0  0.26355  0.45358  0.87332  1.0000
  Mg  Mg7       1.0  0.20115  0.67495  0.95923  1.0000
  Mg  Mg8       1.0  0.31374  0.41121  0.71826  1.0000
  C  Sn17      1.0  0.72843  0.12345  0.16168  1.0000
  C   C81       1.0  0.75717  0.13471  0.07003  1.0000
  C  Sn18      1.0  0.79928  0.11067  0.99031  1.0000
  C  Sn19      1.0  0.80802  0.05012  0.00236  1.0000
  C   C82       1.0  0.77929  0.03888  0.09394  1.0000
  C  Sn20      1.0  0.73960  0.07502  0.17373  1.0000
  O  Te17      1.0  0.68894  0.16018  0.24035  1.0000
  O  Te18      1.0  0.82749  0.12281  0.89944  1.0000
  O  Te19      1.0  0.84998  0.02551  0.92360  1.0000
  O  Te20      1.0  0.71140  0.06291  0.26453  1.0000
  Mg  Mg9       1.0  0.87751  0.06005  0.81434  1.0000
  Mg  Mg10      1.0  0.66136  0.12563  0.34961  1.0000
  C  Sn21      1.0  0.38711  0.02327  0.96982  1.0000
  C   C83       1.0  0.37547  0.06351  0.88012  1.0000
  C  Sn22      1.0  0.41098  0.06994  0.81193  1.0000
  C  Sn23      1.0  0.45915  0.03542  0.83376  1.0000
  C   C84       1.0  0.99221  0.99521  0.92338  1.0000
  C  Sn24      1.0  0.95671  0.98875  0.99164  1.0000
  O  Te21      1.0  0.34860  0.00544  0.03688  1.0000
  O  Te22      1.0  0.39847  0.11047  0.72280  1.0000
  O  Te23      1.0  0.49524  0.04116  0.76660  1.0000
  O  Te24      1.0  0.96678  0.93612  0.08070  1.0000
  Mg  Mg11      1.0  0.46037  0.10227  0.65517  1.0000
  Mg  Mg12      1.0  0.90491  0.94427  0.14831  1.0000
  C  Sn25      1.0  0.25047  0.13652  0.80286  1.0000
  C   C85       1.0  0.24164  0.17390  0.70212  1.0000
  C  Sn26      1.0  0.27812  0.17265  0.61144  1.0000
  C  Sn27      1.0  0.32440  0.13319  0.62156  1.0000
  C   C86       1.0  0.33321  0.09584  0.72223  1.0000
  C  Sn28      1.0  0.29675  0.09707  0.81299  1.0000
  O  Te25      1.0  0.21346  0.13853  0.89242  1.0000
  O  Te26      1.0  0.26843  0.21044  0.51162  1.0000
  O  Te27      1.0  0.36141  0.13122  0.53190  1.0000
  O  Te28      1.0  0.30642  0.05930  0.91273  1.0000
  Mg  Mg13      1.0  0.33058  0.19131  0.41322  1.0000
  Mg  Mg14      1.0  0.24187  0.06625  0.01111  1.0000
  C  Sn29      1.0  0.78027  0.20725  0.93992  1.0000
  C   C87       1.0  0.74947  0.18989  0.97591  1.0000
  C  Sn30      1.0  0.70537  0.20762  0.89850  1.0000
  C  Sn31      1.0  0.69178  0.24344  0.78261  1.0000
  C   C88       1.0  0.72257  0.26077  0.74665  1.0000
  C  Sn32      1.0  0.76668  0.24307  0.82404  1.0000
  O  Te29      1.0  0.82177  0.17687  0.01879  1.0000
  O  Te30      1.0  0.67517  0.18972  0.93653  1.0000
  O  Te31      1.0  0.64782  0.26168  0.70374  1.0000
  O  Te32      1.0  0.79687  0.26094  0.78604  1.0000
  Mg  Mg15      1.0  0.61904  0.22590  0.79665  1.0000
  Mg  Mg16      1.0  0.85302  0.22478  0.92577  1.0000
  C  Sn33      1.0  0.37823  0.52244  0.60063  1.0000
  C   C89       1.0  0.34194  0.55386  0.70482  1.0000
  C  Sn34      1.0  0.33172  0.60150  0.72664  1.0000
  C  Sn35      1.0  0.35830  0.61809  0.64250  1.0000
  C   C90       1.0  0.39456  0.58668  0.53837  1.0000
  C  Sn36      1.0  0.40481  0.53903  0.51650  1.0000
  O  Te33      1.0  0.38783  0.47497  0.58065  1.0000
  O  Te34      1.0  0.29528  0.63224  0.83148  1.0000
  O  Te35      1.0  0.34867  0.66561  0.66258  1.0000
  O  Te36      1.0  0.44122  0.50831  0.41171  1.0000
  Mg  Mg17      1.0  0.29560  0.69374  0.81845  1.0000
  Mg  Mg18      1.0  0.44091  0.44681  0.42459  1.0000
  C  Sn37      1.0  0.11874  0.48374  0.62700  1.0000
  C   C91       1.0  0.16151  0.44992  0.55672  1.0000
  C  Sn38      1.0  0.16279  0.41490  0.44486  1.0000
  C  Sn39      1.0  0.12043  0.41368  0.40226  1.0000
  C   C92       1.0  0.07770  0.44750  0.47250  1.0000
  C  Sn40      1.0  0.07638  0.48252  0.58441  1.0000
  O  Te37      1.0  0.11829  0.51842  0.73855  1.0000
  O  Te38      1.0  0.20597  0.38146  0.37625  1.0000
  O  Te39      1.0  0.12091  0.37896  0.29063  1.0000
  O  Te40      1.0  0.03323  0.51595  0.65297  1.0000
  Mg  Mg19      1.0  0.18842  0.34120  0.23017  1.0000
  Mg  Mg20      1.0  0.05074  0.55624  0.79899  1.0000
  C  Sn41      1.0  0.77011  0.87658  0.63218  1.0000
  C   C93       1.0  0.79315  0.83330  0.54196  1.0000
  C  Sn42      1.0  0.83884  0.81710  0.48404  1.0000
  C  Sn43      1.0  0.86200  0.84472  0.51706  1.0000
  C   C94       1.0  0.83896  0.88796  0.60725  1.0000
  C  Sn44      1.0  0.79326  0.90420  0.66520  1.0000
  O  Te41      1.0  0.72443  0.89208  0.68888  1.0000
  O  Te42      1.0  0.86116  0.77372  0.39406  1.0000
  O  Te43      1.0  0.90771  0.82918  0.46026  1.0000
  O  Te44      1.0  0.77096  0.94754  0.75515  1.0000
  Mg  Mg21      1.0  0.92340  0.76772  0.34321  1.0000
  Mg  Mg22      1.0  0.70873  0.95356  0.80613  1.0000
  C  Sn45      1.0  0.62245  0.87754  0.66873  1.0000
  C   C95       1.0  0.60836  0.92168  0.60103  1.0000
  C  Sn46      1.0  0.63768  0.92691  0.49187  1.0000
  C  Sn47      1.0  0.68199  0.88719  0.44939  1.0000
  C   C96       1.0  0.69605  0.84309  0.51704  1.0000
  C  Sn48      1.0  0.66676  0.83783  0.62625  1.0000
  O  Te45      1.0  0.59257  0.87313  0.77759  1.0000
  O  Te46      1.0  0.62283  0.97140  0.42582  1.0000
  O  Te47      1.0  0.71187  0.89164  0.34043  1.0000
  O  Te48      1.0  0.68158  0.79337  0.69225  1.0000
  Mg  Mg23      1.0  0.67597  0.95951  0.28285  1.0000
  Mg  Mg24      1.0  0.62847  0.80521  0.83516  1.0000
  C  Sn49      1.0  0.31525  0.46187  0.23499  1.0000
  C   C97       1.0  0.31311  0.50520  0.20024  1.0000
  C  Sn50      1.0  0.28035  0.54778  0.27886  1.0000
  C  Sn51      1.0  0.24911  0.54704  0.39472  1.0000
  C   C98       1.0  0.25126  0.50373  0.42945  1.0000
  C  Sn52      1.0  0.28400  0.46113  0.35086  1.0000
  O  Te49      1.0  0.34827  0.41973  0.15494  1.0000
  O  Te50      1.0  0.27887  0.59066  0.24205  1.0000
  O  Te51      1.0  0.21607  0.58923  0.47478  1.0000
  O  Te52      1.0  0.28550  0.41827  0.38764  1.0000
  Mg  Mg25      1.0  0.22770  0.63864  0.38328  1.0000
  Mg  Mg26      1.0  0.33667  0.37026  0.24655  1.0000
  C  Sn53      1.0  0.84941  0.03663  0.52730  1.0000
  C   C99       1.0  0.81877  0.02784  0.61821  1.0000
  C  Sn54      1.0  0.77198  0.06342  0.64274  1.0000
  C  Sn55      1.0  0.75546  0.10873  0.57491  1.0000
  C   C100      1.0  0.78609  0.11749  0.48405  1.0000
  C  Sn56      1.0  0.83289  0.08194  0.45947  1.0000
  O  Te53      1.0  0.41747  0.00054  0.50432  1.0000
  O  Te54      1.0  0.74201  0.05380  0.73411  1.0000
  O  Te55      1.0  0.70879  0.14483  0.59797  1.0000
  O  Te56      1.0  0.86284  0.09154  0.36814  1.0000
  Mg  Mg27      1.0  0.68151  0.11449  0.73147  1.0000
  Mg  Mg28      1.0  0.92334  0.03087  0.37063  1.0000
  C  Sn57      1.0  0.41958  0.99136  0.43706  1.0000
  C   C101      1.0  0.46313  0.99041  0.42488  1.0000
  C  Sn58      1.0  0.94384  0.02998  0.37037  1.0000
  C  Sn59      1.0  0.90157  0.07138  0.32722  1.0000
  C   C102      1.0  0.85806  0.07232  0.33944  1.0000
  C  Sn60      1.0  0.85589  0.03277  0.39391  1.0000
  O  Te57      1.0  0.41828  0.95140  0.49186  1.0000
  O  Te58      1.0  0.98778  0.02817  0.35916  1.0000
  O  Te59      1.0  0.90291  0.11136  0.27239  1.0000
  O  Te60      1.0  0.81197  0.03456  0.40516  1.0000
  Mg  Mg29      1.0  0.97125  0.09164  0.27801  1.0000
  Mg  Mg30      1.0  0.34989  0.97112  0.48636  1.0000
  C  Sn61      1.0  0.27973  0.10004  0.23985  1.0000
  C   C103      1.0  0.32541  0.09284  0.21547  1.0000
  C  Sn62      1.0  0.33223  0.12976  0.16141  1.0000
  C  Sn63      1.0  0.29256  0.17483  0.13118  1.0000
  C   C104      1.0  0.24692  0.18202  0.15558  1.0000
  C  Sn64      1.0  0.24007  0.14511  0.20962  1.0000
  O  Te61      1.0  0.27375  0.06262  0.29395  1.0000
  O  Te62      1.0  0.37824  0.12170  0.13786  1.0000
  O  Te63      1.0  0.29858  0.21226  0.07703  1.0000
  O  Te64      1.0  0.19409  0.15315  0.23319  1.0000
  Mg  Mg31      1.0  0.36818  0.18382  0.06302  1.0000
  Mg  Mg32      1.0  0.20411  0.09106  0.30810  1.0000
  C  Sn65      1.0  0.82015  0.19896  0.31590  1.0000
  C   C105      1.0  0.77641  0.23765  0.27649  1.0000
  C  Sn66      1.0  0.73451  0.24069  0.33158  1.0000
  C  Sn67      1.0  0.73636  0.20432  0.42816  1.0000
  C   C106      1.0  0.78008  0.16566  0.46754  1.0000
  C  Sn68      1.0  0.82201  0.16258  0.41248  1.0000
  O  Te65      1.0  0.86160  0.19665  0.25951  1.0000
  O  Te66      1.0  0.69120  0.27971  0.29056  1.0000
  O  Te67      1.0  0.69487  0.20665  0.48454  1.0000
  O  Te68      1.0  0.86530  0.12360  0.45348  1.0000
  Mg  Mg33      1.0  0.64448  0.26685  0.39644  1.0000
  Mg  Mg34      1.0  0.91203  0.13643  0.34773  1.0000
  C  Sn69      1.0  0.40543  0.49343  0.93274  1.0000
  C   C107      1.0  0.41338  0.53273  0.94732  1.0000
  C  Sn70      1.0  0.39077  0.55471  0.07482  1.0000
  C  Sn71      1.0  0.36206  0.54942  0.19025  1.0000
  C   C108      1.0  0.35413  0.51013  0.17566  1.0000
  C  Sn72      1.0  0.37430  0.47601  0.04817  1.0000
  O  Te69      1.0  0.42597  0.45977  0.80431  1.0000
  O  Te70      1.0  0.39921  0.59370  0.08682  1.0000
  O  Te71      1.0  0.34152  0.58312  0.31874  1.0000
  O  Te72      1.0  0.36587  0.43703  0.03616  1.0000
  Mg  Mg35      1.0  0.36345  0.63002  0.28332  1.0000
  Mg  Mg36      1.0  0.40406  0.41281  0.83977  1.0000
  C  Sn73      1.0  0.65945  0.43703  0.96707  1.0000
  C   C109      1.0  0.68799  0.45886  0.97776  1.0000
  C  Sn74      1.0  0.73221  0.42166  0.03423  1.0000
  C  Sn75      1.0  0.75072  0.37376  0.08089  1.0000
  C   C110      1.0  0.72218  0.35196  0.07016  1.0000
  C  Sn76      1.0  0.67553  0.37700  0.01373  1.0000
  O  Te73      1.0  0.61293  0.46277  0.91026  1.0000
  O  Te74      1.0  0.76006  0.44425  0.04389  1.0000
  O  Te75      1.0  0.79728  0.34803  0.13773  1.0000
  O  Te76      1.0  0.64769  0.35444  0.00404  1.0000
  Mg  Mg37      1.0  0.82129  0.39431  0.12883  1.0000
  Mg  Mg38      1.0  0.58890  0.41646  0.91903  1.0000
  C  Sn77      1.0  0.72543  0.41650  0.51106  1.0000
  C   C111      1.0  0.69341  0.44866  0.40097  1.0000
  C  Sn78      1.0  0.65036  0.44954  0.36594  1.0000
  C  Sn79      1.0  0.63905  0.41764  0.44262  1.0000
  C   C112      1.0  0.67105  0.38552  0.55265  1.0000
  C  Sn80      1.0  0.71412  0.38460  0.58774  1.0000
  O  Te77      1.0  0.76826  0.41624  0.54426  1.0000
  O  Te78      1.0  0.61893  0.48200  0.25541  1.0000
  O  Te79      1.0  0.59618  0.41792  0.40932  1.0000
  O  Te80      1.0  0.74554  0.35217  0.69821  1.0000
  Mg  Mg39      1.0  0.56499  0.46871  0.25011  1.0000
  Mg  Mg40      1.0  0.79947  0.36545  0.70367  1.0000
  C  Sn81      1.0  0.53746  0.61185  0.90876  1.0000
  C   C113      1.0  0.51688  0.58531  0.83974  1.0000
  C  Sn82      1.0  0.54510  0.54000  0.76761  1.0000
  C  Sn83      1.0  0.59494  0.52079  0.76449  1.0000
  C   C114      1.0  0.61549  0.54731  0.83351  1.0000
  C  Sn84      1.0  0.58730  0.59264  0.90565  1.0000
  O  Te81      1.0  0.50856  0.65707  0.98023  1.0000
  O  Te82      1.0  0.52371  0.51415  0.69934  1.0000
  O  Te83      1.0  0.62383  0.47553  0.69294  1.0000
  O  Te84      1.0  0.60866  0.61847  0.97391  1.0000
  Mg  Mg41      1.0  0.57809  0.45411  0.61616  1.0000
  Mg  Mg42      1.0  0.55189  0.66637  0.05719  1.0000
  C  Sn85      1.0  0.55730  0.56397  0.24267  1.0000
  C   C115      1.0  0.58774  0.57945  0.31368  1.0000
  C  Sn86      1.0  0.57673  0.60499  0.46341  1.0000
  C  Sn87      1.0  0.53444  0.61525  0.54391  1.0000
  C   C116      1.0  0.50404  0.59977  0.47293  1.0000
  C  Sn88      1.0  0.51501  0.57423  0.32317  1.0000
  O  Te85      1.0  0.56902  0.53848  0.09290  1.0000
  O  Te86      1.0  0.60771  0.62011  0.53197  1.0000
  O  Te87      1.0  0.52275  0.64076  0.69379  1.0000
  O  Te88      1.0  0.48407  0.55911  0.25464  1.0000
  Mg  Mg43      1.0  0.57626  0.65368  0.73801  1.0000
  Mg  Mg44      1.0  0.51550  0.52552  0.04865  1.0000
  C  Sn89      1.0  0.04127  0.32464  0.99276  1.0000
  C   C117      1.0  0.04024  0.35455  0.03792  1.0000
  C  Sn90      1.0  0.08186  0.35260  0.10067  1.0000
  C  Sn91      1.0  0.12294  0.30769  0.11858  1.0000
  C   C118      1.0  0.12153  0.26568  0.07342  1.0000
  C  Sn92      1.0  0.07992  0.26760  0.01067  1.0000
  O  Te89      1.0  0.99928  0.32744  0.93029  1.0000
  O  Te90      1.0  0.08240  0.39511  0.14502  1.0000
  O  Te91      1.0  0.16495  0.30492  0.18112  1.0000
  O  Te92      1.0  0.08180  0.23725  0.96632  1.0000
  Mg  Mg45      1.0  0.14805  0.37275  0.22420  1.0000
  Mg  Mg46      1.0  0.01618  0.25957  0.88705  1.0000
  C  Sn93      1.0  0.09891  0.32296  0.69316  1.0000
  C   C119      1.0  0.10444  0.28041  0.61770  1.0000
  C  Sn94      1.0  0.08264  0.28092  0.46761  1.0000
  C  Sn95      1.0  0.05477  0.32487  0.39128  1.0000
  C   C120      1.0  0.04926  0.36739  0.46671  1.0000
  C  Sn96      1.0  0.07103  0.36692  0.61683  1.0000
  O  Te93      1.0  0.12102  0.32161  0.84319  1.0000
  O  Te94      1.0  0.08867  0.23792  0.39457  1.0000
  O  Te95      1.0  0.03265  0.32620  0.24113  1.0000
  O  Te96      1.0  0.06502  0.40988  0.68984  1.0000
  Mg  Mg47      1.0  0.05145  0.25821  0.18999  1.0000
  Mg  Mg48      1.0  0.10224  0.38963  0.89436  1.0000
