data_image0
_chemical_formula_structural       H36C72N12SnCSn2CSnTe4Mg2SnCSn2CSnTe4Mg2SnCSn2CSnTe4Mg2SnCSn2CSnTe4Mg2SnCSn2CSnTe4Mg2SnCSn2CSnTe4Mg2SnCSn2CSnTe4Mg2SnCSn2CSnTe4Mg2SnCSn2CSnTe4Mg2SnCSn2CSnTe4Mg2SnCSn2CSnTe4Mg2SnCSn2CSnTe4Mg2SnCSn2CSnTe4Mg2SnCSn2CSnTe4Mg2SnCSn2CSnTe4Mg2SnCSn2CSnTe4Mg2SnCSn2CSnTe4Mg2SnCSn2CSnTe4Mg2
_chemical_formula_sum              "H36 C108 N12 Sn72 Te72 Mg36"
_cell_length_a       29.6098
_cell_length_b       29.052
_cell_length_c       8.46911
_cell_angle_alpha    99.6792
_cell_angle_beta     89.8738
_cell_angle_gamma    59.2238

_symmetry_space_group_name_H-M    'P1'
_space_group_IT_number       1

loop_
  _space_group_symop_operation_xyz
  'x, y, z'

loop_
  _atom_site_type_symbol
  _atom_site_label
  _atom_site_symmetry_multiplicity
  _atom_site_fract_x
  _atom_site_fract_y
  _atom_site_fract_z
  _atom_site_occupancy
  H   H1        1.0  0.83623  0.00210  0.94304  1.0000
  H   H2        1.0  0.47409  0.21471  0.90413  1.0000
  H   H3        1.0  0.64498  0.20656  0.93683  1.0000
  H   H4        1.0  0.46382  0.02862  0.01802  1.0000
  H   H5        1.0  0.82400  0.84559  0.04249  1.0000
  H   H6        1.0  0.62883  0.84879  0.98055  1.0000
  H   H7        1.0  0.10284  0.90173  0.95745  1.0000
  H   H8        1.0  0.03355  0.02260  0.93681  1.0000
  H   H9        1.0  0.30150  0.93317  0.86490  1.0000
  H   H10       1.0  0.25280  0.02177  0.65945  1.0000
  H   H11       1.0  0.51900  0.49448  0.87145  1.0000
  H   H12       1.0  0.61703  0.66022  0.75840  1.0000
  H   H13       1.0  0.52661  0.68595  0.54434  1.0000
  H   H14       1.0  0.26033  0.42382  0.85865  1.0000
  H   H15       1.0  0.07880  0.69678  0.84616  1.0000
  H   H16       1.0  0.04993  0.63407  0.57781  1.0000
  H   H17       1.0  0.63945  0.42000  0.80998  1.0000
  H   H18       1.0  0.31168  0.49321  0.89007  1.0000
  H   H19       1.0  0.83454  0.00731  0.48027  1.0000
  H   H20       1.0  0.47053  0.21721  0.44999  1.0000
  H   H21       1.0  0.64011  0.21266  0.46651  1.0000
  H   H22       1.0  0.46321  0.03077  0.55284  1.0000
  H   H23       1.0  0.82567  0.84839  0.57512  1.0000
  H   H24       1.0  0.62891  0.85107  0.50244  1.0000
  H   H25       1.0  0.10361  0.89997  0.43022  1.0000
  H   H26       1.0  0.03664  0.02391  0.45121  1.0000
  H   H27       1.0  0.30508  0.93043  0.36291  1.0000
  H   H28       1.0  0.25444  0.02101  0.16439  1.0000
  H   H29       1.0  0.51405  0.49592  0.36033  1.0000
  H   H30       1.0  0.61359  0.66038  0.25175  1.0000
  H   H31       1.0  0.51930  0.69067  0.05205  1.0000
  H   H32       1.0  0.25602  0.42395  0.36435  1.0000
  H   H33       1.0  0.07640  0.69516  0.33040  1.0000
  H   H34       1.0  0.04367  0.63181  0.07679  1.0000
  H   H35       1.0  0.63475  0.42479  0.34616  1.0000
  H   H36       1.0  0.31048  0.48912  0.35564  1.0000
  C   C1        1.0  0.64803  0.07046  0.93263  1.0000
  C   C2        1.0  0.59800  0.07320  0.93129  1.0000
  C   C3        1.0  0.59558  0.02457  0.94518  1.0000
  C   C4        1.0  0.64335  0.97413  0.95478  1.0000
  C   C5        1.0  0.69396  0.97201  0.95975  1.0000
  C   C6        1.0  0.69673  0.01899  0.94275  1.0000
  C   C7        1.0  0.55654  0.16409  0.92188  1.0000
  C   C8        1.0  0.60605  0.16153  0.92763  1.0000
  C   C9        1.0  0.54765  0.98434  0.97510  1.0000
  C   C10       1.0  0.78205  0.92576  0.99021  1.0000
  C   C11       1.0  0.59543  0.93335  0.97437  1.0000
  C   C12       1.0  0.78553  0.97134  0.96515  1.0000
  C   C13       1.0  0.83501  0.96751  0.97030  1.0000
  C   C14       1.0  0.51061  0.21471  0.91605  1.0000
  C   C15       1.0  0.60679  0.20986  0.93012  1.0000
  C   C16       1.0  0.49886  0.98814  0.00565  1.0000
  C   C17       1.0  0.82804  0.87918  0.02045  1.0000
  C   C18       1.0  0.59183  0.88762  0.99028  1.0000
  C   C19       1.0  0.87653  0.87569  0.02825  1.0000
  C   C20       1.0  0.88033  0.92248  0.00658  1.0000
  C   C21       1.0  0.51106  0.26258  0.91999  1.0000
  C   C22       1.0  0.56152  0.25984  0.92645  1.0000
  C   C23       1.0  0.49519  0.94415  0.03242  1.0000
  C   C24       1.0  0.54374  0.89115  0.01800  1.0000
  C   C25       1.0  0.06599  0.94078  0.96574  1.0000
  C   C26       1.0  0.06949  0.98409  0.94307  1.0000
  C   C27       1.0  0.27011  0.96465  0.81018  1.0000
  C   C28       1.0  0.28355  0.98993  0.71472  1.0000
  C   C29       1.0  0.59904  0.43215  0.84823  1.0000
  C   C30       1.0  0.55972  0.48417  0.84862  1.0000
  C   C31       1.0  0.58578  0.65653  0.70108  1.0000
  C   C32       1.0  0.55606  0.69199  0.60552  1.0000
  C   C33       1.0  0.30939  0.45702  0.89233  1.0000
  C   C34       1.0  0.26226  0.46077  0.87264  1.0000
  C   C35       1.0  0.08222  0.66101  0.76830  1.0000
  C   C36       1.0  0.04767  0.66924  0.65559  1.0000
  C   C37       1.0  0.64582  0.07619  0.48786  1.0000
  C   C38       1.0  0.59617  0.07822  0.48860  1.0000
  C   C39       1.0  0.59434  0.02932  0.50128  1.0000
  C   C40       1.0  0.64242  0.97871  0.50653  1.0000
  C   C41       1.0  0.69290  0.97698  0.51126  1.0000
  C   C42       1.0  0.69496  0.02463  0.49665  1.0000
  C   C43       1.0  0.55338  0.16835  0.46943  1.0000
  C   C44       1.0  0.60256  0.16664  0.47116  1.0000
  C   C45       1.0  0.54704  0.98776  0.51778  1.0000
  C   C46       1.0  0.78186  0.92986  0.53125  1.0000
  C   C47       1.0  0.59511  0.93664  0.51211  1.0000
  C   C48       1.0  0.78442  0.97617  0.50832  1.0000
  C   C49       1.0  0.83401  0.97218  0.50587  1.0000
  C   C50       1.0  0.50691  0.21778  0.45668  1.0000
  C   C51       1.0  0.60242  0.21479  0.46146  1.0000
  C   C52       1.0  0.49843  0.99035  0.53865  1.0000
  C   C53       1.0  0.82887  0.88254  0.55374  1.0000
  C   C54       1.0  0.59184  0.88996  0.51533  1.0000
  C   C55       1.0  0.87763  0.87879  0.55325  1.0000
  C   C56       1.0  0.88047  0.92603  0.53060  1.0000
  C   C57       1.0  0.50692  0.26497  0.44570  1.0000
  C   C58       1.0  0.55681  0.26341  0.44775  1.0000
  C   C59       1.0  0.49492  0.94514  0.55189  1.0000
  C   C60       1.0  0.54399  0.89236  0.53535  1.0000
  C   C61       1.0  0.06746  0.94009  0.45190  1.0000
  C   C62       1.0  0.07211  0.98375  0.44342  1.0000
  C   C63       1.0  0.27328  0.96287  0.31223  1.0000
  C   C64       1.0  0.28576  0.98925  0.21855  1.0000
  C   C65       1.0  0.59364  0.43637  0.36912  1.0000
  C   C66       1.0  0.55471  0.48689  0.35293  1.0000
  C   C67       1.0  0.58132  0.65790  0.19783  1.0000
  C   C68       1.0  0.55081  0.69455  0.10640  1.0000
  C   C69       1.0  0.30734  0.45447  0.37283  1.0000
  C   C70       1.0  0.25929  0.45968  0.36526  1.0000
  C   C71       1.0  0.07843  0.65924  0.25815  1.0000
  C   C72       1.0  0.04240  0.66713  0.15043  1.0000
  N   N1        1.0  0.55310  0.11939  0.92361  1.0000
  N   N2        1.0  0.65166  0.11426  0.93153  1.0000
  N   N3        1.0  0.54840  0.02935  0.95590  1.0000
  N   N4        1.0  0.73618  0.92623  0.98483  1.0000
  N   N5        1.0  0.64319  0.92885  0.96427  1.0000
  N   N6        1.0  0.74228  0.01799  0.94114  1.0000
  N   N7        1.0  0.55085  0.12364  0.47849  1.0000
  N   N8        1.0  0.64857  0.12022  0.48070  1.0000
  N   N9        1.0  0.54734  0.03367  0.50849  1.0000
  N   N10       1.0  0.73577  0.93062  0.53051  1.0000
  N   N11       1.0  0.64270  0.93271  0.50767  1.0000
  N   N12       1.0  0.74053  0.02349  0.49146  1.0000
  C  Sn1       1.0  0.89508  0.05053  0.99807  1.0000
  C   C73       1.0  0.89387  0.00249  0.98064  1.0000
  C  Sn2       1.0  0.94006  0.95263  0.98283  1.0000
  C  Sn3       1.0  0.02268  0.88389  0.00296  1.0000
  C   C74       1.0  0.02388  0.93191  0.02041  1.0000
  C  Sn4       1.0  0.97770  0.98180  0.01820  1.0000
  O  Te1       1.0  0.35046  0.09992  0.99552  1.0000
  O  Te2       1.0  0.93786  0.90514  0.96512  1.0000
  O  Te3       1.0  0.06936  0.83444  0.00550  1.0000
  O  Te4       1.0  0.48193  0.02926  0.03593  1.0000
  Mg  Mg1       1.0  0.01200  0.84772  0.97670  1.0000
  Mg  Mg2       1.0  0.40781  0.08670  0.02445  1.0000
  C  Sn5       1.0  0.98743  0.78498  0.73824  1.0000
  C   C75       1.0  0.99774  0.73275  0.67126  1.0000
  C  Sn6       1.0  0.97244  0.72498  0.53941  1.0000
  C  Sn7       1.0  0.93609  0.77035  0.47304  1.0000
  C   C76       1.0  0.92580  0.82254  0.53999  1.0000
  C  Sn8       1.0  0.95108  0.83035  0.67187  1.0000
  O  Te5       1.0  0.01318  0.79180  0.87004  1.0000
  O  Te6       1.0  0.98338  0.67238  0.47456  1.0000
  O  Te7       1.0  0.91034  0.76349  0.34115  1.0000
  O  Te8       1.0  0.94017  0.88291  0.73670  1.0000
  Mg  Mg3       1.0  0.93838  0.68391  0.29513  1.0000
  Mg  Mg4       1.0  0.98516  0.87142  0.91606  1.0000
  C  Sn9       1.0  0.58918  0.32237  0.03930  1.0000
  C   C77       1.0  0.59297  0.38584  0.93201  1.0000
  C  Sn10      1.0  0.61842  0.34197  0.80164  1.0000
  C  Sn11      1.0  0.60562  0.30063  0.77795  1.0000
  C   C78       1.0  0.56765  0.30402  0.88519  1.0000
  C  Sn12      1.0  0.57637  0.28103  0.01561  1.0000
  O  Te9       1.0  0.56423  0.36659  0.16880  1.0000
  O  Te10      1.0  0.65627  0.33948  0.69601  1.0000
  O  Te11      1.0  0.63061  0.25639  0.64832  1.0000
  O  Te12      1.0  0.53854  0.28354  0.12118  1.0000
  Mg  Mg5       1.0  0.67939  0.27118  0.53743  1.0000
  Mg  Mg6       1.0  0.51537  0.35183  0.27975  1.0000
  C  Sn13      1.0  0.39894  0.31956  0.93658  1.0000
  C   C79       1.0  0.44914  0.30801  0.88467  1.0000
  C  Sn14      1.0  0.45618  0.34929  0.84890  1.0000
  C  Sn15      1.0  0.41212  0.40326  0.86546  1.0000
  C   C80       1.0  0.36195  0.41478  0.91738  1.0000
  C  Sn16      1.0  0.35488  0.37352  0.95314  1.0000
  O  Te13      1.0  0.39282  0.27765  0.97168  1.0000
  O  Te14      1.0  0.50675  0.33675  0.79715  1.0000
  O  Te15      1.0  0.41827  0.44517  0.83031  1.0000
  O  Te16      1.0  0.33853  0.31920  0.00489  1.0000
  Mg  Mg7       1.0  0.49497  0.40781  0.76406  1.0000
  Mg  Mg8       1.0  0.35027  0.24818  0.03810  1.0000
  C  Sn17      1.0  0.42475  0.91239  0.65149  1.0000
  C   C81       1.0  0.43939  0.94217  0.57310  1.0000
  C  Sn18      1.0  0.40160  0.99478  0.55354  1.0000
  C  Sn19      1.0  0.34807  0.01813  0.61366  1.0000
  C   C82       1.0  0.33346  0.98835  0.69202  1.0000
  C  Sn20      1.0  0.37122  0.93573  0.71162  1.0000
  O  Te17      1.0  0.46319  0.85986  0.66971  1.0000
  O  Te18      1.0  0.41718  0.02376  0.47470  1.0000
  O  Te19      1.0  0.81168  0.07069  0.59537  1.0000
  O  Te20      1.0  0.35567  0.90677  0.79042  1.0000
  Mg  Mg9       1.0  0.85234  0.09393  0.47953  1.0000
  Mg  Mg10      1.0  0.42252  0.83660  0.78574  1.0000
  C  Sn21      1.0  0.50282  0.82107  0.50577  1.0000
  C   C83       1.0  0.53368  0.84253  0.56471  1.0000
  C  Sn22      1.0  0.58211  0.80939  0.62063  1.0000
  C  Sn23      1.0  0.60010  0.75362  0.61748  1.0000
  C   C84       1.0  0.56925  0.73219  0.55854  1.0000
  C  Sn24      1.0  0.52080  0.76531  0.50262  1.0000
  O  Te21      1.0  0.45453  0.85496  0.45047  1.0000
  O  Te22      1.0  0.61226  0.83177  0.67905  1.0000
  O  Te23      1.0  0.64843  0.71974  0.67285  1.0000
  O  Te24      1.0  0.49067  0.74295  0.44421  1.0000
  Mg  Mg11      1.0  0.67529  0.76914  0.74102  1.0000
  Mg  Mg12      1.0  0.42764  0.80553  0.38212  1.0000
  C  Sn25      1.0  0.63128  0.01203  0.78582  1.0000
  C   C85       1.0  0.62115  0.97980  0.86777  1.0000
  C  Sn26      1.0  0.65877  0.94567  0.95896  1.0000
  C  Sn27      1.0  0.70751  0.94374  0.96855  1.0000
  C   C86       1.0  0.71761  0.97596  0.88667  1.0000
  C  Sn28      1.0  0.68002  0.01010  0.79541  1.0000
  O  Te25      1.0  0.59310  0.04585  0.69537  1.0000
  O  Te26      1.0  0.68194  0.84697  0.03978  1.0000
  O  Te27      1.0  0.77988  0.84303  0.05909  1.0000
  O  Te28      1.0  0.69101  0.04195  0.71465  1.0000
  Mg  Mg13      1.0  0.74648  0.80740  0.14761  1.0000
  Mg  Mg14      1.0  0.12854  0.08156  0.60686  1.0000
  C  Sn29      1.0  0.60985  0.54613  0.88563  1.0000
  C   C87       1.0  0.56845  0.53689  0.85592  1.0000
  C  Sn30      1.0  0.53219  0.56370  0.74977  1.0000
  C  Sn31      1.0  0.53744  0.60048  0.67160  1.0000
  C   C88       1.0  0.57882  0.60969  0.70129  1.0000
  C  Sn32      1.0  0.61509  0.58291  0.80745  1.0000
  O  Te29      1.0  0.64564  0.51887  0.99220  1.0000
  O  Te30      1.0  0.49112  0.55382  0.72204  1.0000
  O  Te31      1.0  0.50160  0.62774  0.56496  1.0000
  O  Te32      1.0  0.65615  0.59276  0.83517  1.0000
  Mg  Mg15      1.0  0.45235  0.60073  0.56648  1.0000
  Mg  Mg16      1.0  0.69496  0.54586  0.99063  1.0000
  C  Sn33      1.0  0.13320  0.54558  0.75855  1.0000
  C   C89       1.0  0.11907  0.59947  0.82033  1.0000
  C  Sn34      1.0  0.15524  0.61066  0.89589  1.0000
  C  Sn35      1.0  0.20662  0.56707  0.90991  1.0000
  C   C90       1.0  0.22072  0.51323  0.84813  1.0000
  C  Sn36      1.0  0.18457  0.50200  0.77257  1.0000
  O  Te33      1.0  0.09640  0.53536  0.68348  1.0000
  O  Te34      1.0  0.14020  0.66486  0.95675  1.0000
  O  Te35      1.0  0.24342  0.57735  0.98506  1.0000
  O  Te36      1.0  0.19959  0.44784  0.71171  1.0000
  Mg  Mg17      1.0  0.23848  0.59116  0.04872  1.0000
  Mg  Mg18      1.0  0.13554  0.45465  0.61965  1.0000
  C  Sn37      1.0  0.96152  0.98572  0.59310  1.0000
  C   C91       1.0  0.01318  0.94474  0.53158  1.0000
  C  Sn38      1.0  0.02399  0.89356  0.45079  1.0000
  C  Sn39      1.0  0.98229  0.88313  0.43097  1.0000
  C   C92       1.0  0.93066  0.92410  0.49244  1.0000
  C  Sn40      1.0  0.91982  0.97529  0.57329  1.0000
  O  Te37      1.0  0.95163  0.03658  0.67345  1.0000
  O  Te38      1.0  0.07596  0.85323  0.39039  1.0000
  O  Te39      1.0  0.99222  0.83222  0.35055  1.0000
  O  Te40      1.0  0.86788  0.01560  0.63364  1.0000
  Mg  Mg19      1.0  0.06951  0.79049  0.28977  1.0000
  Mg  Mg20      1.0  0.37633  0.07837  0.73420  1.0000
  C  Sn41      1.0  0.95617  0.69537  0.01596  1.0000
  C   C93       1.0  0.94669  0.74754  0.07908  1.0000
  C  Sn42      1.0  0.98502  0.75390  0.15855  1.0000
  C  Sn43      1.0  0.03386  0.70714  0.17518  1.0000
  C   C94       1.0  0.04333  0.65501  0.11206  1.0000
  C  Sn44      1.0  0.00502  0.64861  0.03259  1.0000
  O  Te41      1.0  0.88310  0.75683  0.93697  1.0000
  O  Te42      1.0  0.97462  0.80647  0.22069  1.0000
  O  Te43      1.0  0.07276  0.71257  0.25425  1.0000
  O  Te44      1.0  0.98121  0.66293  0.97045  1.0000
  Mg  Mg21      1.0  0.04004  0.79271  0.31827  1.0000
  Mg  Mg22      1.0  0.91584  0.67664  0.87278  1.0000
  C  Sn45      1.0  0.62315  0.30106  0.37151  1.0000
  C   C95       1.0  0.57918  0.30630  0.45307  1.0000
  C  Sn46      1.0  0.53373  0.35772  0.50360  1.0000
  C  Sn47      1.0  0.53216  0.40490  0.47187  1.0000
  C   C96       1.0  0.57611  0.39965  0.39033  1.0000
  C  Sn48      1.0  0.62159  0.34824  0.33977  1.0000
  O  Te45      1.0  0.66817  0.24925  0.32209  1.0000
  O  Te46      1.0  0.49027  0.36193  0.58498  1.0000
  O  Te47      1.0  0.48709  0.45673  0.52137  1.0000
  O  Te48      1.0  0.66502  0.34402  0.25842  1.0000
  Mg  Mg23      1.0  0.43799  0.44144  0.62803  1.0000
  Mg  Mg24      1.0  0.71731  0.26453  0.21524  1.0000
  C  Sn49      1.0  0.41389  0.37774  0.27293  1.0000
  C   C97       1.0  0.36416  0.39653  0.35076  1.0000
  C  Sn50      1.0  0.35954  0.37568  0.48298  1.0000
  C  Sn51      1.0  0.40559  0.33524  0.53865  1.0000
  C   C98       1.0  0.45529  0.31648  0.46086  1.0000
  C  Sn52      1.0  0.45994  0.33730  0.32860  1.0000
  O  Te49      1.0  0.41757  0.39915  0.14099  1.0000
  O  Te50      1.0  0.30939  0.39509  0.55878  1.0000
  O  Te51      1.0  0.40187  0.31383  0.67070  1.0000
  O  Te52      1.0  0.51005  0.31792  0.25284  1.0000
  Mg  Mg25      1.0  0.32481  0.35332  0.73382  1.0000
  Mg  Mg26      1.0  0.49468  0.35968  0.07785  1.0000
  C  Sn53      1.0  0.85440  0.99833  0.02696  1.0000
  C   C99       1.0  0.84024  0.97438  0.13180  1.0000
  C  Sn54      1.0  0.87641  0.94276  0.23088  1.0000
  C  Sn55      1.0  0.92780  0.93494  0.22512  1.0000
  C   C100      1.0  0.94194  0.95889  0.12035  1.0000
  C  Sn56      1.0  0.90579  0.99051  0.02120  1.0000
  O  Te53      1.0  0.28546  0.09663  0.92901  1.0000
  O  Te54      1.0  0.86134  0.91922  0.33467  1.0000
  O  Te55      1.0  0.96460  0.90345  0.32318  1.0000
  O  Te56      1.0  0.38869  0.08089  0.91748  1.0000
  Mg  Mg27      1.0  0.92543  0.87985  0.44455  1.0000
  Mg  Mg28      1.0  0.32462  0.12029  0.80762  1.0000
  C  Sn57      1.0  0.58185  0.77257  0.18041  1.0000
  C   C101      1.0  0.55135  0.75085  0.11989  1.0000
  C  Sn58      1.0  0.48562  0.83768  0.99669  1.0000
  C  Sn59      1.0  0.48456  0.88025  0.93256  1.0000
  C   C102      1.0  0.51505  0.90195  0.99306  1.0000
  C  Sn60      1.0  0.58079  0.81514  0.11628  1.0000
  O  Te57      1.0  0.61310  0.75196  0.30359  1.0000
  O  Te58      1.0  0.45546  0.81533  0.93818  1.0000
  O  Te59      1.0  0.45328  0.90086  0.80929  1.0000
  O  Te60      1.0  0.61095  0.83747  0.17476  1.0000
  Mg  Mg29      1.0  0.41921  0.85709  0.76958  1.0000
  Mg  Mg30      1.0  0.64723  0.79572  0.34329  1.0000
  C  Sn61      1.0  0.18089  0.93979  0.49161  1.0000
  C   C103      1.0  0.13053  0.98032  0.46520  1.0000
  C  Sn62      1.0  0.12463  0.01612  0.36461  1.0000
  C  Sn63      1.0  0.17001  0.01131  0.28873  1.0000
  C   C104      1.0  0.22033  0.97080  0.31512  1.0000
  C  Sn64      1.0  0.22627  0.93497  0.41573  1.0000
  O  Te61      1.0  0.18585  0.90443  0.59264  1.0000
  O  Te62      1.0  0.57592  0.05632  0.34010  1.0000
  O  Te63      1.0  0.66705  0.04671  0.18763  1.0000
  O  Te64      1.0  0.27698  0.89479  0.44022  1.0000
  Mg  Mg31      1.0  0.58958  0.09478  0.19186  1.0000
  Mg  Mg32      1.0  0.26337  0.85629  0.58836  1.0000
  C  Sn65      1.0  0.52998  0.56989  0.18022  1.0000
  C   C105      1.0  0.56252  0.52954  0.26531  1.0000
  C  Sn66      1.0  0.60029  0.53419  0.35351  1.0000
  C  Sn67      1.0  0.60562  0.58015  0.35683  1.0000
  C   C106      1.0  0.57309  0.62047  0.27180  1.0000
  C  Sn68      1.0  0.53531  0.61585  0.18353  1.0000
  O  Te65      1.0  0.49249  0.56440  0.09285  1.0000
  O  Te66      1.0  0.63238  0.49332  0.43757  1.0000
  O  Te67      1.0  0.64315  0.58561  0.44429  1.0000
  O  Te68      1.0  0.50323  0.65669  0.09953  1.0000
  Mg  Mg33      1.0  0.67761  0.51923  0.53919  1.0000
  Mg  Mg34      1.0  0.42378  0.69768  0.99795  1.0000
  C  Sn69      1.0  0.18530  0.57405  0.45926  1.0000
  C   C107      1.0  0.20113  0.51999  0.39243  1.0000
  C  Sn70      1.0  0.17952  0.50813  0.25637  1.0000
  C  Sn71      1.0  0.14132  0.55119  0.18555  1.0000
  C   C108      1.0  0.12551  0.60521  0.25236  1.0000
  C  Sn72      1.0  0.14709  0.61711  0.38845  1.0000
  O  Te69      1.0  0.20743  0.58496  0.59531  1.0000
  O  Te70      1.0  0.19596  0.45376  0.19174  1.0000
  O  Te71      1.0  0.11919  0.54024  0.04941  1.0000
  O  Te72      1.0  0.13067  0.67144  0.45304  1.0000
  Mg  Mg35      1.0  0.15432  0.45962  0.00556  1.0000
  Mg  Mg36      1.0  0.17231  0.66562  0.63917  1.0000
