data_image0
_chemical_formula_structural       H84C144N12SnCSn2CSnTe4Mg2SnCSn2CSnTe4Mg2SnCSn2CSnTe4Mg2SnCSn2CSnTe4Mg2SnCSn2CSnTe4Mg2SnCSn2CSnTe4Mg2SnCSn2CSnTe4Mg2SnCSn2CSnTe4Mg2SnCSn2CSnTe4Mg2SnCSn2CSnTe4Mg2SnCSn2CSnTe4Mg2SnCSn2CSnTe4Mg2
_chemical_formula_sum              "H84 C168 N12 Sn48 Te48 Mg24"
_cell_length_a       32.2729
_cell_length_b       31.9748
_cell_length_c       8.21813
_cell_angle_alpha    92.9697
_cell_angle_beta     91.8528
_cell_angle_gamma    61.1165

_symmetry_space_group_name_H-M    'P1'
_space_group_IT_number       1

loop_
  _space_group_symop_operation_xyz
  'x, y, z'

loop_
  _atom_site_type_symbol
  _atom_site_label
  _atom_site_symmetry_multiplicity
  _atom_site_fract_x
  _atom_site_fract_y
  _atom_site_fract_z
  _atom_site_occupancy
  H   H1        1.0  0.00732  0.53555  0.94813  1.0000
  H   H2        1.0  0.69188  0.76943  0.93948  1.0000
  H   H3        1.0  0.85904  0.73405  0.00023  1.0000
  H   H4        1.0  0.64342  0.61629  0.78998  1.0000
  H   H5        1.0  0.95985  0.40924  0.90159  1.0000
  H   H6        1.0  0.77749  0.45248  0.83645  1.0000
  H   H7        1.0  0.74313  0.86371  0.24002  1.0000
  H   H8        1.0  0.85878  0.80088  0.90548  1.0000
  H   H9        1.0  0.75521  0.93344  0.28815  1.0000
  H   H10       1.0  0.87092  0.87069  0.94970  1.0000
  H   H11       1.0  0.22942  0.44763  0.93174  1.0000
  H   H12       1.0  0.16169  0.55214  0.03625  1.0000
  H   H13       1.0  0.18536  0.60932  0.95741  1.0000
  H   H14       1.0  0.27952  0.45980  0.85280  1.0000
  H   H15       1.0  0.24093  0.62943  0.82727  1.0000
  H   H16       1.0  0.33420  0.47952  0.72540  1.0000
  H   H17       1.0  0.46326  0.54691  0.40997  1.0000
  H   H18       1.0  0.43763  0.64360  0.58289  1.0000
  H   H19       1.0  0.75233  0.99980  0.23219  1.0000
  H   H20       1.0  0.74973  0.31178  0.70935  1.0000
  H   H21       1.0  0.65186  0.33221  0.57809  1.0000
  H   H22       1.0  0.51233  0.93337  0.08553  1.0000
  H   H23       1.0  0.42969  0.96123  0.03837  1.0000
  H   H24       1.0  0.49040  0.04345  0.85737  1.0000
  H   H25       1.0  0.35238  0.01785  0.92560  1.0000
  H   H26       1.0  0.41402  0.10033  0.75137  1.0000
  H   H27       1.0  0.20158  0.24729  0.58198  1.0000
  H   H28       1.0  0.14375  0.19528  0.61391  1.0000
  H   H29       1.0  0.28741  0.07462  0.87666  1.0000
  H   H30       1.0  0.35914  0.13594  0.62545  1.0000
  H   H31       1.0  0.21114  0.13820  0.78226  1.0000
  H   H32       1.0  0.28292  0.20102  0.54206  1.0000
  H   H33       1.0  0.55248  0.99180  0.93147  1.0000
  H   H34       1.0  0.84471  0.95015  0.03832  1.0000
  H   H35       1.0  0.00240  0.53127  0.45068  1.0000
  H   H36       1.0  0.69086  0.76729  0.45297  1.0000
  H   H37       1.0  0.85938  0.72740  0.49521  1.0000
  H   H38       1.0  0.63739  0.62406  0.30630  1.0000
  H   H39       1.0  0.95779  0.40297  0.40068  1.0000
  H   H40       1.0  0.76052  0.45514  0.35086  1.0000
  H   H41       1.0  0.74951  0.86307  0.72809  1.0000
  H   H42       1.0  0.86507  0.78547  0.39910  1.0000
  H   H43       1.0  0.76954  0.92761  0.75843  1.0000
  H   H44       1.0  0.88618  0.84937  0.42999  1.0000
  H   H45       1.0  0.71720  0.88910  0.43668  1.0000
  H   H46       1.0  0.66169  0.81168  0.68134  1.0000
  H   H47       1.0  0.63795  0.95820  0.42509  1.0000
  H   H48       1.0  0.58243  0.88159  0.67795  1.0000
  H   H49       1.0  0.23615  0.42084  0.40445  1.0000
  H   H50       1.0  0.18393  0.52633  0.52165  1.0000
  H   H51       1.0  0.48424  0.50618  0.83066  1.0000
  H   H52       1.0  0.45295  0.60359  0.00808  1.0000
  H   H53       1.0  0.77710  0.98660  0.70848  1.0000
  H   H54       1.0  0.74010  0.06817  0.72072  1.0000
  H   H55       1.0  0.87189  0.99535  0.46239  1.0000
  H   H56       1.0  0.72972  0.14560  0.63761  1.0000
  H   H57       1.0  0.86165  0.07269  0.38037  1.0000
  H   H58       1.0  0.78886  0.30176  0.25991  1.0000
  H   H59       1.0  0.69313  0.31643  0.12413  1.0000
  H   H60       1.0  0.51406  0.93421  0.58672  1.0000
  H   H61       1.0  0.43007  0.96719  0.56360  1.0000
  H   H62       1.0  0.49470  0.03864  0.33298  1.0000
  H   H63       1.0  0.35317  0.02309  0.44720  1.0000
  H   H64       1.0  0.41899  0.09464  0.22134  1.0000
  H   H65       1.0  0.20788  0.24633  0.05613  1.0000
  H   H66       1.0  0.14635  0.20106  0.13242  1.0000
  H   H67       1.0  0.55585  0.99179  0.43741  1.0000
  H   H68       1.0  0.86491  0.92993  0.49483  1.0000
  H   H69       1.0  0.53901  0.51075  0.69513  1.0000
  H   H70       1.0  0.50884  0.63121  0.02363  1.0000
  H   H71       1.0  0.61904  0.49912  0.65651  1.0000
  H   H72       1.0  0.58990  0.61799  0.98825  1.0000
  H   H73       1.0  0.50560  0.55348  0.24251  1.0000
  H   H74       1.0  0.50893  0.65346  0.60703  1.0000
  H   H75       1.0  0.58794  0.52799  0.17294  1.0000
  H   H76       1.0  0.59261  0.62587  0.54022  1.0000
  H   H77       1.0  0.15268  0.30928  0.22267  1.0000
  H   H78       1.0  0.07102  0.25836  0.93725  1.0000
  H   H79       1.0  0.09412  0.39179  0.16399  1.0000
  H   H80       1.0  0.01452  0.34038  0.86957  1.0000
  H   H81       1.0  0.13891  0.30555  0.75752  1.0000
  H   H82       1.0  0.07351  0.25282  0.39905  1.0000
  H   H83       1.0  0.08006  0.38840  0.69312  1.0000
  H   H84       1.0  0.01866  0.33526  0.32395  1.0000
  C   C1        1.0  0.83589  0.62677  0.86366  1.0000
  C   C2        1.0  0.78691  0.63786  0.84425  1.0000
  C   C3        1.0  0.77437  0.59946  0.81174  1.0000
  C   C4        1.0  0.81176  0.55069  0.80411  1.0000
  C   C5        1.0  0.86151  0.53909  0.82477  1.0000
  C   C6        1.0  0.87373  0.57659  0.85156  1.0000
  C   C7        1.0  0.76412  0.71598  0.91678  1.0000
  C   C8        1.0  0.81244  0.70548  0.93381  1.0000
  C   C9        1.0  0.71938  0.57327  0.80072  1.0000
  C   C10       1.0  0.93814  0.48289  0.87468  1.0000
  C   C11       1.0  0.75706  0.52500  0.80185  1.0000
  C   C12       1.0  0.95063  0.52012  0.89517  1.0000
  C   C13       1.0  0.99764  0.50733  0.94019  1.0000
  C   C14       1.0  0.72811  0.76272  0.95545  1.0000
  C   C15       1.0  0.82205  0.74307  0.98507  1.0000
  C   C16       1.0  0.67246  0.58022  0.80425  1.0000
  C   C17       1.0  0.97223  0.43544  0.90875  1.0000
  C   C18       1.0  0.74695  0.48783  0.82889  1.0000
  C   C19       1.0  0.01790  0.42320  0.96196  1.0000
  C   C20       1.0  0.03117  0.46079  0.97389  1.0000
  C   C21       1.0  0.73736  0.79933  0.00864  1.0000
  C   C22       1.0  0.78626  0.78949  0.02078  1.0000
  C   C23       1.0  0.66260  0.54313  0.83008  1.0000
  C   C24       1.0  0.70160  0.49561  0.86078  1.0000
  C   C25       1.0  0.79872  0.82751  0.06628  1.0000
  C   C26       1.0  0.77117  0.86539  0.17688  1.0000
  C   C27       1.0  0.83671  0.82913  0.99291  1.0000
  C   C28       1.0  0.77783  0.90492  0.20253  1.0000
  C   C29       1.0  0.84362  0.86879  0.01832  1.0000
  C   C30       1.0  0.81298  0.90879  0.11674  1.0000
  C   C31       1.0  0.19811  0.47749  0.98642  1.0000
  C   C32       1.0  0.19401  0.52183  0.98888  1.0000
  C   C33       1.0  0.22798  0.53297  0.91783  1.0000
  C   C34       1.0  0.21838  0.58077  0.90760  1.0000
  C   C35       1.0  0.27057  0.49714  0.84862  1.0000
  C   C36       1.0  0.24992  0.59208  0.83443  1.0000
  C   C37       1.0  0.30152  0.50842  0.77479  1.0000
  C   C38       1.0  0.29254  0.55607  0.76630  1.0000
  C   C39       1.0  0.44106  0.57912  0.48329  1.0000
  C   C40       1.0  0.45670  0.61155  0.50500  1.0000
  C   C41       1.0  0.81553  0.95294  0.10981  1.0000
  C   C42       1.0  0.78204  0.99700  0.16396  1.0000
  C   C43       1.0  0.71912  0.30607  0.69513  1.0000
  C   C44       1.0  0.68219  0.33774  0.60544  1.0000
  C   C45       1.0  0.55358  0.96272  0.99837  1.0000
  C   C46       1.0  0.51218  0.96244  0.02117  1.0000
  C   C47       1.0  0.46663  0.99720  0.95654  1.0000
  C   C48       1.0  0.42622  0.99160  0.97328  1.0000
  C   C49       1.0  0.46045  0.03738  0.87374  1.0000
  C   C50       1.0  0.38232  0.02400  0.90979  1.0000
  C   C51       1.0  0.41674  0.06976  0.81233  1.0000
  C   C52       1.0  0.37616  0.06417  0.82706  1.0000
  C   C53       1.0  0.19688  0.21699  0.61203  1.0000
  C   C54       1.0  0.15175  0.22448  0.60301  1.0000
  C   C55       1.0  0.33013  0.09987  0.76131  1.0000
  C   C56       1.0  0.28707  0.10112  0.79807  1.0000
  C   C57       1.0  0.32709  0.13629  0.66385  1.0000
  C   C58       1.0  0.24362  0.13740  0.74549  1.0000
  C   C59       1.0  0.28381  0.17306  0.61469  1.0000
  C   C60       1.0  0.24076  0.17502  0.65545  1.0000
  C   C61       1.0  0.83247  0.62197  0.38421  1.0000
  C   C62       1.0  0.78344  0.63434  0.36510  1.0000
  C   C63       1.0  0.76991  0.59687  0.33295  1.0000
  C   C64       1.0  0.80567  0.54725  0.33255  1.0000
  C   C65       1.0  0.85600  0.53433  0.35125  1.0000
  C   C66       1.0  0.86906  0.57144  0.37459  1.0000
  C   C67       1.0  0.76235  0.71232  0.43008  1.0000
  C   C68       1.0  0.81108  0.70045  0.44353  1.0000
  C   C69       1.0  0.71190  0.57524  0.31343  1.0000
  C   C70       1.0  0.93354  0.47781  0.38648  1.0000
  C   C71       1.0  0.74728  0.52620  0.32242  1.0000
  C   C72       1.0  0.94638  0.51477  0.40764  1.0000
  C   C73       1.0  0.99391  0.50223  0.44424  1.0000
  C   C74       1.0  0.72741  0.75978  0.46626  1.0000
  C   C75       1.0  0.82207  0.73743  0.48565  1.0000
  C   C76       1.0  0.66373  0.58660  0.31478  1.0000
  C   C77       1.0  0.96895  0.43012  0.40934  1.0000
  C   C78       1.0  0.73268  0.49182  0.34060  1.0000
  C   C79       1.0  0.01507  0.41817  0.45553  1.0000
  C   C80       1.0  0.02871  0.45558  0.47078  1.0000
  C   C81       1.0  0.73798  0.79598  0.51396  1.0000
  C   C82       1.0  0.78752  0.78454  0.51881  1.0000
  C   C83       1.0  0.64952  0.55266  0.33927  1.0000
  C   C84       1.0  0.68549  0.50316  0.35730  1.0000
  C   C85       1.0  0.80350  0.82037  0.55437  1.0000
  C   C86       1.0  0.77878  0.86058  0.65968  1.0000
  C   C87       1.0  0.84410  0.81622  0.47943  1.0000
  C   C88       1.0  0.79015  0.89722  0.67572  1.0000
  C   C89       1.0  0.85607  0.85258  0.49644  1.0000
  C   C90       1.0  0.82776  0.89537  0.58701  1.0000
  C   C91       1.0  0.69524  0.84309  0.54606  1.0000
  C   C92       1.0  0.68781  0.88650  0.48545  1.0000
  C   C93       1.0  0.65625  0.84354  0.62169  1.0000
  C   C94       1.0  0.64287  0.92606  0.48177  1.0000
  C   C95       1.0  0.61144  0.88298  0.61917  1.0000
  C   C96       1.0  0.60303  0.92442  0.53959  1.0000
  C   C97       1.0  0.20785  0.45328  0.46107  1.0000
  C   C98       1.0  0.21262  0.49332  0.46974  1.0000
  C   C99       1.0  0.46194  0.53760  0.90743  1.0000
  C   C100      1.0  0.47467  0.57234  0.92973  1.0000
  C   C101      1.0  0.83562  0.93619  0.57293  1.0000
  C   C102      1.0  0.80647  0.98124  0.63244  1.0000
  C   C103      1.0  0.80605  0.02537  0.59450  1.0000
  C   C104      1.0  0.76651  0.06903  0.64392  1.0000
  C   C105      1.0  0.84072  0.02809  0.50207  1.0000
  C   C106      1.0  0.76038  0.11269  0.59570  1.0000
  C   C107      1.0  0.83503  0.07184  0.45594  1.0000
  C   C108      1.0  0.79414  0.11518  0.49817  1.0000
  C   C109      1.0  0.75968  0.29399  0.23898  1.0000
  C   C110      1.0  0.72162  0.32484  0.15179  1.0000
  C   C111      1.0  0.55615  0.96266  0.50167  1.0000
  C   C112      1.0  0.51432  0.96306  0.52259  1.0000
  C   C113      1.0  0.46890  0.99795  0.45801  1.0000
  C   C114      1.0  0.42754  0.99499  0.48634  1.0000
  C   C115      1.0  0.46388  0.03515  0.36079  1.0000
  C   C116      1.0  0.38385  0.02703  0.42048  1.0000
  C   C117      1.0  0.42049  0.06703  0.29632  1.0000
  C   C118      1.0  0.37890  0.06415  0.32268  1.0000
  C   C119      1.0  0.20179  0.21801  0.09880  1.0000
  C   C120      1.0  0.15581  0.22840  0.10563  1.0000
  C   C121      1.0  0.51842  0.56963  0.87395  1.0000
  C   C122      1.0  0.55009  0.53367  0.76425  1.0000
  C   C123      1.0  0.53292  0.60188  0.94329  1.0000
  C   C124      1.0  0.59563  0.52662  0.74352  1.0000
  C   C125      1.0  0.57890  0.59428  0.92414  1.0000
  C   C126      1.0  0.61230  0.55444  0.83318  1.0000
  C   C127      1.0  0.50200  0.60252  0.44074  1.0000
  C   C128      1.0  0.52493  0.56813  0.31400  1.0000
  C   C129      1.0  0.52639  0.62528  0.51361  1.0000
  C   C130      1.0  0.57181  0.55293  0.27595  1.0000
  C   C131      1.0  0.57357  0.60960  0.47636  1.0000
  C   C132      1.0  0.59819  0.57101  0.36432  1.0000
  C   C133      1.0  0.11782  0.27702  0.07872  1.0000
  C   C134      1.0  0.12277  0.31612  0.14237  1.0000
  C   C135      1.0  0.07627  0.28754  0.98872  1.0000
  C   C136      1.0  0.08957  0.36275  0.10960  1.0000
  C   C137      1.0  0.04393  0.33438  0.95107  1.0000
  C   C138      1.0  0.05025  0.37344  0.00778  1.0000
  C   C139      1.0  0.11287  0.27271  0.57519  1.0000
  C   C140      1.0  0.11344  0.31201  0.65908  1.0000
  C   C141      1.0  0.07571  0.28236  0.46304  1.0000
  C   C142      1.0  0.08052  0.35846  0.62357  1.0000
  C   C143      1.0  0.04420  0.32913  0.42194  1.0000
  C   C144      1.0  0.04704  0.36823  0.49826  1.0000
  N   N1        1.0  0.75184  0.68228  0.86874  1.0000
  N   N2        1.0  0.84808  0.66032  0.90559  1.0000
  N   N3        1.0  0.72872  0.61042  0.80358  1.0000
  N   N4        1.0  0.89344  0.49303  0.83385  1.0000
  N   N5        1.0  0.80294  0.51412  0.79553  1.0000
  N   N6        1.0  0.91835  0.56677  0.88048  1.0000
  N   N7        1.0  0.74893  0.67918  0.38741  1.0000
  N   N8        1.0  0.84601  0.65476  0.42022  1.0000
  N   N9        1.0  0.72393  0.61038  0.31668  1.0000
  N   N10       1.0  0.88817  0.48816  0.35470  1.0000
  N   N11       1.0  0.79420  0.51241  0.32514  1.0000
  N   N12       1.0  0.91386  0.56143  0.39843  1.0000
  C  Sn1       1.0  0.65945  0.43703  0.96707  1.0000
  C   C145      1.0  0.68799  0.45886  0.97776  1.0000
  C  Sn2       1.0  0.73221  0.42166  0.03423  1.0000
  C  Sn3       1.0  0.75072  0.37376  0.08089  1.0000
  C   C146      1.0  0.72218  0.35196  0.07016  1.0000
  C  Sn4       1.0  0.67553  0.37700  0.01373  1.0000
  O  Te1       1.0  0.61293  0.46277  0.91026  1.0000
  O  Te2       1.0  0.76006  0.44425  0.04389  1.0000
  O  Te3       1.0  0.79728  0.34803  0.13773  1.0000
  O  Te4       1.0  0.64769  0.35444  0.00404  1.0000
  Mg  Mg1       1.0  0.82129  0.39431  0.12883  1.0000
  Mg  Mg2       1.0  0.58890  0.41646  0.91903  1.0000
  C  Sn5       1.0  0.24157  0.54902  0.31213  1.0000
  C   C147      1.0  0.24554  0.50585  0.35927  1.0000
  C  Sn6       1.0  0.28935  0.46425  0.35551  1.0000
  C  Sn7       1.0  0.33005  0.46582  0.30364  1.0000
  C   C148      1.0  0.32607  0.50897  0.25656  1.0000
  C  Sn8       1.0  0.28227  0.55059  0.26026  1.0000
  O  Te5       1.0  0.19742  0.59018  0.31687  1.0000
  O  Te6       1.0  0.29244  0.42151  0.40316  1.0000
  O  Te7       1.0  0.37422  0.42461  0.29893  1.0000
  O  Te8       1.0  0.27918  0.59331  0.21267  1.0000
  Mg  Mg3       1.0  0.36040  0.37500  0.37568  1.0000
  Mg  Mg4       1.0  0.21123  0.63984  0.24018  1.0000
  C  Sn9       1.0  0.38975  0.56694  0.14666  1.0000
  C   C149      1.0  0.42420  0.53609  0.03572  1.0000
  C  Sn10      1.0  0.42370  0.50951  0.96074  1.0000
  C  Sn11      1.0  0.38553  0.50147  0.99731  1.0000
  C   C150      1.0  0.34868  0.52018  0.10815  1.0000
  C  Sn12      1.0  0.35158  0.55890  0.18323  1.0000
  O  Te9       1.0  0.39339  0.60542  0.22017  1.0000
  O  Te10      1.0  0.45858  0.47915  0.85028  1.0000
  O  Te11      1.0  0.38193  0.46295  0.92368  1.0000
  O  Te12      1.0  0.31673  0.58926  0.29359  1.0000
  Mg  Mg5       1.0  0.43812  0.43163  0.78156  1.0000
  Mg  Mg6       1.0  0.33714  0.63680  0.36232  1.0000
  C  Sn13      1.0  0.08361  0.50314  0.09001  1.0000
  C   C151      1.0  0.07610  0.46889  0.00118  1.0000
  C  Sn14      1.0  0.11667  0.44011  0.93325  1.0000
  C  Sn15      1.0  0.16329  0.43327  0.95464  1.0000
  C   C152      1.0  0.16835  0.45537  0.04345  1.0000
  C  Sn16      1.0  0.13023  0.49630  0.11140  1.0000
  O  Te13      1.0  0.04495  0.54377  0.15684  1.0000
  O  Te14      1.0  0.10828  0.40638  0.84489  1.0000
  O  Te15      1.0  0.20196  0.39260  0.88772  1.0000
  O  Te16      1.0  0.13860  0.53002  0.19974  1.0000
  Mg  Mg7       1.0  0.17248  0.35688  0.77747  1.0000
  Mg  Mg8       1.0  0.07444  0.57952  0.26728  1.0000
  C  Sn17      1.0  0.36752  0.60817  0.71764  1.0000
  C   C153      1.0  0.40178  0.57832  0.60449  1.0000
  C  Sn18      1.0  0.39703  0.54227  0.51660  1.0000
  C  Sn19      1.0  0.35720  0.53593  0.54226  1.0000
  C   C154      1.0  0.32297  0.56577  0.65533  1.0000
  C  Sn20      1.0  0.32769  0.60183  0.74330  1.0000
  O  Te17      1.0  0.37299  0.64398  0.80414  1.0000
  O  Te18      1.0  0.43175  0.51286  0.40418  1.0000
  O  Te19      1.0  0.35176  0.50008  0.45565  1.0000
  O  Te20      1.0  0.29300  0.63123  0.85564  1.0000
  Mg  Mg9       1.0  0.40849  0.46912  0.31592  1.0000
  Mg  Mg10      1.0  0.31621  0.67500  0.94390  1.0000
  C  Sn21      1.0  0.73574  0.20063  0.33949  1.0000
  C   C155      1.0  0.77910  0.16336  0.38994  1.0000
  C  Sn22      1.0  0.81827  0.17057  0.41447  1.0000
  C  Sn23      1.0  0.81400  0.21598  0.38813  1.0000
  C   C156      1.0  0.77065  0.25322  0.33774  1.0000
  C  Sn24      1.0  0.73147  0.24605  0.31315  1.0000
  O  Te21      1.0  0.69705  0.19263  0.31573  1.0000
  O  Te22      1.0  0.86125  0.13276  0.46487  1.0000
  O  Te23      1.0  0.85273  0.22396  0.41194  1.0000
  O  Te24      1.0  0.68850  0.28383  0.26282  1.0000
  Mg  Mg11      1.0  0.90377  0.16131  0.48095  1.0000
  Mg  Mg12      1.0  0.64596  0.25533  0.24678  1.0000
  C  Sn25      1.0  0.11874  0.48374  0.62700  1.0000
  C   C157      1.0  0.16151  0.44992  0.55672  1.0000
  C  Sn26      1.0  0.16279  0.41490  0.44486  1.0000
  C  Sn27      1.0  0.12043  0.41368  0.40226  1.0000
  C   C158      1.0  0.07770  0.44750  0.47250  1.0000
  C  Sn28      1.0  0.07638  0.48252  0.58441  1.0000
  O  Te25      1.0  0.11829  0.51842  0.73855  1.0000
  O  Te26      1.0  0.20597  0.38146  0.37625  1.0000
  O  Te27      1.0  0.12091  0.37896  0.29063  1.0000
  O  Te28      1.0  0.03323  0.51595  0.65297  1.0000
  Mg  Mg13      1.0  0.18842  0.34120  0.23017  1.0000
  Mg  Mg14      1.0  0.05074  0.55624  0.79899  1.0000
  C  Sn29      1.0  0.25361  0.13704  0.29078  1.0000
  C   C159      1.0  0.24563  0.17454  0.19189  1.0000
  C  Sn30      1.0  0.28259  0.17281  0.10276  1.0000
  C  Sn31      1.0  0.32850  0.13275  0.11259  1.0000
  C   C160      1.0  0.33646  0.09528  0.21141  1.0000
  C  Sn32      1.0  0.29952  0.09699  0.30061  1.0000
  O  Te29      1.0  0.21613  0.13953  0.37880  1.0000
  O  Te30      1.0  0.27375  0.21073  0.00478  1.0000
  O  Te31      1.0  0.36598  0.13029  0.02446  1.0000
  O  Te32      1.0  0.30834  0.05909  0.39852  1.0000
  Mg  Mg15      1.0  0.33871  0.20292  0.90801  1.0000
  Mg  Mg16      1.0  0.24583  0.07898  0.49527  1.0000
  C  Sn33      1.0  0.64236  0.84680  0.08411  1.0000
  C   C161      1.0  0.68373  0.84244  0.01839  1.0000
  C  Sn34      1.0  0.68819  0.89510  0.97372  1.0000
  C  Sn35      1.0  0.64805  0.94094  0.99528  1.0000
  C   C162      1.0  0.60429  0.93315  0.06099  1.0000
  C  Sn36      1.0  0.60222  0.89264  0.10567  1.0000
  O  Te33      1.0  0.64112  0.80580  0.12792  1.0000
  O  Te34      1.0  0.72994  0.88985  0.90821  1.0000
  O  Te35      1.0  0.64932  0.98195  0.95140  1.0000
  O  Te36      1.0  0.56050  0.89788  0.17117  1.0000
  Mg  Mg17      1.0  0.71425  0.95639  0.86725  1.0000
  Mg  Mg18      1.0  0.57616  0.83136  0.21224  1.0000
  C  Sn37      1.0  0.77985  0.21591  0.80845  1.0000
  C   C163      1.0  0.73619  0.25083  0.75027  1.0000
  C  Sn38      1.0  0.69418  0.25340  0.80203  1.0000
  C  Sn39      1.0  0.69585  0.22040  0.91436  1.0000
  C   C164      1.0  0.73950  0.18551  0.97250  1.0000
  C  Sn40      1.0  0.78152  0.18290  0.92078  1.0000
  O  Te37      1.0  0.82140  0.21400  0.75506  1.0000
  O  Te38      1.0  0.65095  0.28862  0.74212  1.0000
  O  Te39      1.0  0.65426  0.22233  0.96773  1.0000
  O  Te40      1.0  0.82473  0.14771  0.98065  1.0000
  Mg  Mg19      1.0  0.60404  0.27675  0.85129  1.0000
  Mg  Mg20      1.0  0.87166  0.15957  0.87164  1.0000
  C  Sn41      1.0  0.81827  0.05952  0.06836  1.0000
  C   C165      1.0  0.78866  0.04779  0.15299  1.0000
  C  Sn42      1.0  0.74002  0.07910  0.15975  1.0000
  C  Sn43      1.0  0.72055  0.12303  0.08019  1.0000
  C   C166      1.0  0.75258  0.14687  0.99560  1.0000
  C  Sn44      1.0  0.80123  0.11558  0.98880  1.0000
  O  Te41      1.0  0.86679  0.02767  0.06320  1.0000
  O  Te42      1.0  0.71114  0.06660  0.24516  1.0000
  O  Te43      1.0  0.67199  0.15488  0.08542  1.0000
  O  Te44      1.0  0.83010  0.12806  0.90344  1.0000
  Mg  Mg21      1.0  0.64721  0.12183  0.21708  1.0000
  Mg  Mg22      1.0  0.89402  0.07285  0.93136  1.0000
  C  Sn45      1.0  0.63422  0.44950  0.41007  1.0000
  C   C167      1.0  0.66533  0.46771  0.44340  1.0000
  C  Sn46      1.0  0.70887  0.43984  0.51955  1.0000
  C  Sn47      1.0  0.72159  0.39278  0.56321  1.0000
  C   C168      1.0  0.69049  0.37458  0.52986  1.0000
  C  Sn48      1.0  0.64694  0.40243  0.45373  1.0000
  O  Te45      1.0  0.59088  0.47799  0.33384  1.0000
  O  Te46      1.0  0.73938  0.45883  0.55167  1.0000
  O  Te47      1.0  0.76497  0.36428  0.63950  1.0000
  O  Te48      1.0  0.61644  0.38346  0.42159  1.0000
  Mg  Mg23      1.0  0.79449  0.40609  0.65760  1.0000
  Mg  Mg24      1.0  0.56133  0.43615  0.31559  1.0000
