data_image0
_chemical_formula_structural       H36C72N12C2Sn2C2HTe2HMgC2Sn2C2HTe2HMgC2Sn2C2HTe2HMgC2Sn2C2HTe2HMgC2Sn2C2HTe2HMgC2Sn2C2HTe2HMgC2Sn2C2HTe2HMgC2Sn2C2HTe2HMgC2Sn2C2HTe2HMgC2Sn2C2HTe2HMgC2Sn2C2HTe2HMgC2Sn2C2HTe2HMgC2Sn2C2HTe2HMgC2Sn2C2HTe2HMgC2Sn2C2HTe2HMgC2Sn2C2HTe2HMgC2Sn2C2HTe2HMgC2Sn2C2HTe2HMg
_chemical_formula_sum              "H72 C144 N12 Sn36 Te36 Mg18"
_cell_length_a       29.6098
_cell_length_b       29.052
_cell_length_c       8.46911
_cell_angle_alpha    99.6792
_cell_angle_beta     89.8738
_cell_angle_gamma    59.2238

_symmetry_space_group_name_H-M    'P1'
_space_group_IT_number       1

loop_
  _space_group_symop_operation_xyz
  'x, y, z'

loop_
  _atom_site_type_symbol
  _atom_site_label
  _atom_site_symmetry_multiplicity
  _atom_site_fract_x
  _atom_site_fract_y
  _atom_site_fract_z
  _atom_site_occupancy
  H   H1        1.0  0.83623  0.00210  0.94304  1.0000
  H   H2        1.0  0.47409  0.21471  0.90413  1.0000
  H   H3        1.0  0.64498  0.20656  0.93683  1.0000
  H   H4        1.0  0.46382  0.02862  0.01802  1.0000
  H   H5        1.0  0.82400  0.84559  0.04249  1.0000
  H   H6        1.0  0.62883  0.84879  0.98055  1.0000
  H   H7        1.0  0.10284  0.90173  0.95745  1.0000
  H   H8        1.0  0.03355  0.02260  0.93681  1.0000
  H   H9        1.0  0.30150  0.93317  0.86490  1.0000
  H   H10       1.0  0.25280  0.02177  0.65945  1.0000
  H   H11       1.0  0.51900  0.49448  0.87145  1.0000
  H   H12       1.0  0.61703  0.66022  0.75840  1.0000
  H   H13       1.0  0.52661  0.68595  0.54434  1.0000
  H   H14       1.0  0.26033  0.42382  0.85865  1.0000
  H   H15       1.0  0.07880  0.69678  0.84616  1.0000
  H   H16       1.0  0.04993  0.63407  0.57781  1.0000
  H   H17       1.0  0.63945  0.42000  0.80998  1.0000
  H   H18       1.0  0.31168  0.49321  0.89007  1.0000
  H   H19       1.0  0.83454  0.00731  0.48027  1.0000
  H   H20       1.0  0.47053  0.21721  0.44999  1.0000
  H   H21       1.0  0.64011  0.21266  0.46651  1.0000
  H   H22       1.0  0.46321  0.03077  0.55284  1.0000
  H   H23       1.0  0.82567  0.84839  0.57512  1.0000
  H   H24       1.0  0.62891  0.85107  0.50244  1.0000
  H   H25       1.0  0.10361  0.89997  0.43022  1.0000
  H   H26       1.0  0.03664  0.02391  0.45121  1.0000
  H   H27       1.0  0.30508  0.93043  0.36291  1.0000
  H   H28       1.0  0.25444  0.02101  0.16439  1.0000
  H   H29       1.0  0.51405  0.49592  0.36033  1.0000
  H   H30       1.0  0.61359  0.66038  0.25175  1.0000
  H   H31       1.0  0.51930  0.69067  0.05205  1.0000
  H   H32       1.0  0.25602  0.42395  0.36435  1.0000
  H   H33       1.0  0.07640  0.69516  0.33040  1.0000
  H   H34       1.0  0.04367  0.63181  0.07679  1.0000
  H   H35       1.0  0.63475  0.42479  0.34616  1.0000
  H   H36       1.0  0.31048  0.48912  0.35564  1.0000
  C   C1        1.0  0.64803  0.07046  0.93263  1.0000
  C   C2        1.0  0.59800  0.07320  0.93129  1.0000
  C   C3        1.0  0.59558  0.02457  0.94518  1.0000
  C   C4        1.0  0.64335  0.97413  0.95478  1.0000
  C   C5        1.0  0.69396  0.97201  0.95975  1.0000
  C   C6        1.0  0.69673  0.01899  0.94275  1.0000
  C   C7        1.0  0.55654  0.16409  0.92188  1.0000
  C   C8        1.0  0.60605  0.16153  0.92763  1.0000
  C   C9        1.0  0.54765  0.98434  0.97510  1.0000
  C   C10       1.0  0.78205  0.92576  0.99021  1.0000
  C   C11       1.0  0.59543  0.93335  0.97437  1.0000
  C   C12       1.0  0.78553  0.97134  0.96515  1.0000
  C   C13       1.0  0.83501  0.96751  0.97030  1.0000
  C   C14       1.0  0.51061  0.21471  0.91605  1.0000
  C   C15       1.0  0.60679  0.20986  0.93012  1.0000
  C   C16       1.0  0.49886  0.98814  0.00565  1.0000
  C   C17       1.0  0.82804  0.87918  0.02045  1.0000
  C   C18       1.0  0.59183  0.88762  0.99028  1.0000
  C   C19       1.0  0.87653  0.87569  0.02825  1.0000
  C   C20       1.0  0.88033  0.92248  0.00658  1.0000
  C   C21       1.0  0.51106  0.26258  0.91999  1.0000
  C   C22       1.0  0.56152  0.25984  0.92645  1.0000
  C   C23       1.0  0.49519  0.94415  0.03242  1.0000
  C   C24       1.0  0.54374  0.89115  0.01800  1.0000
  C   C25       1.0  0.06599  0.94078  0.96574  1.0000
  C   C26       1.0  0.06949  0.98409  0.94307  1.0000
  C   C27       1.0  0.27011  0.96465  0.81018  1.0000
  C   C28       1.0  0.28355  0.98993  0.71472  1.0000
  C   C29       1.0  0.59904  0.43215  0.84823  1.0000
  C   C30       1.0  0.55972  0.48417  0.84862  1.0000
  C   C31       1.0  0.58578  0.65653  0.70108  1.0000
  C   C32       1.0  0.55606  0.69199  0.60552  1.0000
  C   C33       1.0  0.30939  0.45702  0.89233  1.0000
  C   C34       1.0  0.26226  0.46077  0.87264  1.0000
  C   C35       1.0  0.08222  0.66101  0.76830  1.0000
  C   C36       1.0  0.04767  0.66924  0.65559  1.0000
  C   C37       1.0  0.64582  0.07619  0.48786  1.0000
  C   C38       1.0  0.59617  0.07822  0.48860  1.0000
  C   C39       1.0  0.59434  0.02932  0.50128  1.0000
  C   C40       1.0  0.64242  0.97871  0.50653  1.0000
  C   C41       1.0  0.69290  0.97698  0.51126  1.0000
  C   C42       1.0  0.69496  0.02463  0.49665  1.0000
  C   C43       1.0  0.55338  0.16835  0.46943  1.0000
  C   C44       1.0  0.60256  0.16664  0.47116  1.0000
  C   C45       1.0  0.54704  0.98776  0.51778  1.0000
  C   C46       1.0  0.78186  0.92986  0.53125  1.0000
  C   C47       1.0  0.59511  0.93664  0.51211  1.0000
  C   C48       1.0  0.78442  0.97617  0.50832  1.0000
  C   C49       1.0  0.83401  0.97218  0.50587  1.0000
  C   C50       1.0  0.50691  0.21778  0.45668  1.0000
  C   C51       1.0  0.60242  0.21479  0.46146  1.0000
  C   C52       1.0  0.49843  0.99035  0.53865  1.0000
  C   C53       1.0  0.82887  0.88254  0.55374  1.0000
  C   C54       1.0  0.59184  0.88996  0.51533  1.0000
  C   C55       1.0  0.87763  0.87879  0.55325  1.0000
  C   C56       1.0  0.88047  0.92603  0.53060  1.0000
  C   C57       1.0  0.50692  0.26497  0.44570  1.0000
  C   C58       1.0  0.55681  0.26341  0.44775  1.0000
  C   C59       1.0  0.49492  0.94514  0.55189  1.0000
  C   C60       1.0  0.54399  0.89236  0.53535  1.0000
  C   C61       1.0  0.06746  0.94009  0.45190  1.0000
  C   C62       1.0  0.07211  0.98375  0.44342  1.0000
  C   C63       1.0  0.27328  0.96287  0.31223  1.0000
  C   C64       1.0  0.28576  0.98925  0.21855  1.0000
  C   C65       1.0  0.59364  0.43637  0.36912  1.0000
  C   C66       1.0  0.55471  0.48689  0.35293  1.0000
  C   C67       1.0  0.58132  0.65790  0.19783  1.0000
  C   C68       1.0  0.55081  0.69455  0.10640  1.0000
  C   C69       1.0  0.30734  0.45447  0.37283  1.0000
  C   C70       1.0  0.25929  0.45968  0.36526  1.0000
  C   C71       1.0  0.07843  0.65924  0.25815  1.0000
  C   C72       1.0  0.04240  0.66713  0.15043  1.0000
  N   N1        1.0  0.55310  0.11939  0.92361  1.0000
  N   N2        1.0  0.65166  0.11426  0.93153  1.0000
  N   N3        1.0  0.54840  0.02935  0.95590  1.0000
  N   N4        1.0  0.73618  0.92623  0.98483  1.0000
  N   N5        1.0  0.64319  0.92885  0.96427  1.0000
  N   N6        1.0  0.74228  0.01799  0.94114  1.0000
  N   N7        1.0  0.55085  0.12364  0.47849  1.0000
  N   N8        1.0  0.64857  0.12022  0.48070  1.0000
  N   N9        1.0  0.54734  0.03367  0.50849  1.0000
  N   N10       1.0  0.73577  0.93062  0.53051  1.0000
  N   N11       1.0  0.64270  0.93271  0.50767  1.0000
  N   N12       1.0  0.74053  0.02349  0.49146  1.0000
  C   C73       1.0  0.99502  0.87447  0.96916  1.0000
  C   C74       1.0  0.97607  0.84741  0.01658  1.0000
  C  Sn1       1.0  0.95987  0.90274  0.05033  1.0000
  C  Sn2       1.0  0.99767  0.91842  0.03619  1.0000
  C   C75       1.0  0.01654  0.94515  0.98855  1.0000
  C   C76       1.0  0.03232  0.88989  0.95512  1.0000
  H   H37       1.0  0.00723  0.83171  0.94321  1.0000
  O  Te1       1.0  0.90663  0.94196  0.09761  1.0000
  O  Te2       1.0  0.98255  0.97343  0.06912  1.0000
  H   H38       1.0  0.07346  0.85910  0.91831  1.0000
  Mg  Mg1       1.0  0.40744  0.01173  0.12941  1.0000
  C   C77       1.0  0.99768  0.78667  0.70276  1.0000
  C   C78       1.0  0.00585  0.73445  0.65078  1.0000
  C  Sn3       1.0  0.97187  0.72693  0.55019  1.0000
  C  Sn4       1.0  0.92895  0.77261  0.50089  1.0000
  C   C79       1.0  0.92114  0.82468  0.55346  1.0000
  C   C80       1.0  0.95537  0.83174  0.65414  1.0000
  H   H39       1.0  0.02418  0.79213  0.78059  1.0000
  O  Te3       1.0  0.98059  0.67449  0.49943  1.0000
  O  Te4       1.0  0.89440  0.76626  0.40035  1.0000
  H   H40       1.0  0.94905  0.87217  0.69427  1.0000
  Mg  Mg2       1.0  0.92267  0.68666  0.36316  1.0000
  C   C81       1.0  0.61987  0.29920  0.78894  1.0000
  C   C82       1.0  0.58377  0.30089  0.89979  1.0000
  C  Sn5       1.0  0.58273  0.28288  0.00507  1.0000
  C  Sn6       1.0  0.54956  0.39769  0.99894  1.0000
  C   C83       1.0  0.58580  0.39559  0.88753  1.0000
  C   C84       1.0  0.62089  0.34650  0.78277  1.0000
  H   H41       1.0  0.64700  0.26123  0.70783  1.0000
  O  Te5       1.0  0.54693  0.28384  0.11512  1.0000
  O  Te6       1.0  0.54896  0.38021  0.10273  1.0000
  H   H42       1.0  0.64881  0.34522  0.69689  1.0000
  Mg  Mg3       1.0  0.50748  0.36088  0.23157  1.0000
  C   C85       1.0  0.39758  0.32710  0.98895  1.0000
  C   C86       1.0  0.44772  0.31203  0.92339  1.0000
  C  Sn7       1.0  0.45429  0.34746  0.84643  1.0000
  C  Sn8       1.0  0.40977  0.39890  0.83512  1.0000
  C   C87       1.0  0.35979  0.41361  0.90120  1.0000
  C   C88       1.0  0.35366  0.37784  0.97791  1.0000
  H   H43       1.0  0.42703  0.23259  0.04838  1.0000
  O  Te7       1.0  0.50465  0.33175  0.78154  1.0000
  O  Te8       1.0  0.41522  0.43511  0.75891  1.0000
  H   H44       1.0  0.34903  0.32269  0.02875  1.0000
  Mg  Mg4       1.0  0.49193  0.39517  0.68927  1.0000
  C   C89       1.0  0.39700  0.92394  0.71780  1.0000
  C   C90       1.0  0.34791  0.96659  0.69094  1.0000
  C  Sn9       1.0  0.34501  0.00484  0.60466  1.0000
  C  Sn10      1.0  0.39220  0.00020  0.54426  1.0000
  C   C91       1.0  0.44112  0.95736  0.57167  1.0000
  C   C92       1.0  0.44357  0.91932  0.65821  1.0000
  H   H45       1.0  0.39890  0.89449  0.78467  1.0000
  O  Te9       1.0  0.79768  0.04721  0.57897  1.0000
  O  Te10      1.0  0.89249  0.03785  0.45759  1.0000
  H   H46       1.0  0.48158  0.88628  0.67889  1.0000
  Mg  Mg5       1.0  0.81577  0.08842  0.45388  1.0000
  C   C93       1.0  0.59358  0.79146  0.64796  1.0000
  C   C94       1.0  0.56082  0.82925  0.55607  1.0000
  C  Sn11      1.0  0.52359  0.82206  0.47225  1.0000
  C  Sn12      1.0  0.51916  0.77615  0.48085  1.0000
  C   C95       1.0  0.55210  0.73859  0.57320  1.0000
  C   C96       1.0  0.58923  0.74617  0.65655  1.0000
  H   H47       1.0  0.62229  0.79733  0.71253  1.0000
  O  Te11      1.0  0.49118  0.86020  0.38096  1.0000
  O  Te12      1.0  0.48228  0.76798  0.39832  1.0000
  H   H48       1.0  0.61456  0.71692  0.72777  1.0000
  Mg  Mg6       1.0  0.44701  0.83127  0.28994  1.0000
  C   C97       1.0  0.65417  0.02196  0.80004  1.0000
  C   C98       1.0  0.70389  0.98696  0.84561  1.0000
  C  Sn13      1.0  0.71118  0.94611  0.92754  1.0000
  C  Sn14      1.0  0.66781  0.94028  0.96433  1.0000
  C   C99       1.0  0.61823  0.97548  0.91811  1.0000
  C   C100      1.0  0.61138  0.01623  0.83622  1.0000
  H   H49       1.0  0.15092  0.05347  0.73660  1.0000
  O  Te13      1.0  0.76112  0.91150  0.97224  1.0000
  O  Te14      1.0  0.70818  0.83295  0.04605  1.0000
  H   H50       1.0  0.57288  0.04330  0.80086  1.0000
  Mg  Mg7       1.0  0.78392  0.79575  0.08167  1.0000
  C   C101      1.0  0.52100  0.58311  0.73041  1.0000
  C   C102      1.0  0.55672  0.53701  0.79049  1.0000
  C  Sn15      1.0  0.60504  0.53001  0.83375  1.0000
  C  Sn16      1.0  0.61771  0.56998  0.81644  1.0000
  C   C103      1.0  0.58169  0.61597  0.75633  1.0000
  C   C104      1.0  0.53345  0.62255  0.71337  1.0000
  H   H51       1.0  0.48367  0.58822  0.69725  1.0000
  O  Te15      1.0  0.64028  0.48371  0.89352  1.0000
  O  Te16      1.0  0.66571  0.56401  0.85881  1.0000
  H   H52       1.0  0.50579  0.65827  0.66695  1.0000
  Mg  Mg8       1.0  0.70074  0.49388  0.93469  1.0000
  C   C105      1.0  0.14258  0.54244  0.71166  1.0000
  C   C106      1.0  0.12459  0.59661  0.78411  1.0000
  C  Sn17      1.0  0.15348  0.60868  0.89603  1.0000
  C  Sn18      1.0  0.20126  0.56563  0.93588  1.0000
  C   C107      1.0  0.21895  0.51157  0.86265  1.0000
  C   C108      1.0  0.18972  0.49995  0.75085  1.0000
  H   H53       1.0  0.11999  0.53344  0.62509  1.0000
  O  Te17      1.0  0.13492  0.66303  0.96732  1.0000
  O  Te18      1.0  0.26511  0.50970  0.04730  1.0000
  H   H54       1.0  0.20368  0.45801  0.69470  1.0000
  Mg  Mg9       1.0  0.22347  0.59036  0.11211  1.0000
  C   C109      1.0  0.99404  0.87636  0.45409  1.0000
  C   C110      1.0  0.94242  0.91635  0.51899  1.0000
  C  Sn19      1.0  0.92802  0.97105  0.56262  1.0000
  C  Sn20      1.0  0.96610  0.98586  0.54068  1.0000
  C   C111      1.0  0.01764  0.94554  0.47554  1.0000
  C   C112      1.0  0.03162  0.89093  0.43234  1.0000
  H   H55       1.0  0.00486  0.83410  0.42058  1.0000
  O  Te19      1.0  0.87627  0.01049  0.62736  1.0000
  O  Te20      1.0  0.45482  0.04022  0.58319  1.0000
  H   H56       1.0  0.07159  0.85997  0.38199  1.0000
  Mg  Mg10      1.0  0.37926  0.07914  0.66682  1.0000
  C   C113      1.0  0.91787  0.79798  0.99230  1.0000
  C   C114      1.0  0.99315  0.72003  0.08941  1.0000
  C  Sn21      1.0  0.99624  0.76278  0.18168  1.0000
  C  Sn22      1.0  0.95739  0.81764  0.17642  1.0000
  C   C115      1.0  0.91641  0.82833  0.07898  1.0000
  C   C116      1.0  0.87953  0.85208  0.98709  1.0000
  H   H57       1.0  0.91576  0.76464  0.92127  1.0000
  O  Te21      1.0  0.03757  0.75095  0.27800  1.0000
  O  Te22      1.0  0.95952  0.86116  0.26747  1.0000
  H   H58       1.0  0.84769  0.86070  0.91200  1.0000
  Mg  Mg11      1.0  0.02347  0.82422  0.38014  1.0000
  C   C117      1.0  0.61790  0.30221  0.32146  1.0000
  C   C118      1.0  0.57719  0.30534  0.41536  1.0000
  C  Sn23      1.0  0.53744  0.35561  0.50425  1.0000
  C  Sn24      1.0  0.53858  0.40356  0.49875  1.0000
  C   C119      1.0  0.57946  0.39999  0.40435  1.0000
  C   C120      1.0  0.61904  0.34948  0.31592  1.0000
  H   H59       1.0  0.64852  0.26313  0.25297  1.0000
  O  Te23      1.0  0.49707  0.35801  0.59748  1.0000
  O  Te24      1.0  0.49934  0.45433  0.58635  1.0000
  H   H60       1.0  0.65054  0.34707  0.24315  1.0000
  Mg  Mg12      1.0  0.45256  0.43666  0.69564  1.0000
  C   C121      1.0  0.41914  0.38743  0.30707  1.0000
  C   C122      1.0  0.36827  0.40405  0.37022  1.0000
  C  Sn25      1.0  0.36091  0.37471  0.47194  1.0000
  C  Sn26      1.0  0.40538  0.32790  0.51098  1.0000
  C   C123      1.0  0.45611  0.31163  0.44727  1.0000
  C   C124      1.0  0.46302  0.34127  0.34556  1.0000
  H   H61       1.0  0.42449  0.41038  0.22844  1.0000
  O  Te25      1.0  0.30982  0.39187  0.53394  1.0000
  O  Te26      1.0  0.39916  0.29784  0.61240  1.0000
  H   H62       1.0  0.50241  0.32842  0.29677  1.0000
  Mg  Mg13      1.0  0.32163  0.33745  0.66684  1.0000
  C   C125      1.0  0.35452  0.01301  0.06175  1.0000
  C   C126      1.0  0.83770  0.98601  0.15273  1.0000
  C  Sn27      1.0  0.87585  0.94316  0.21997  1.0000
  C  Sn28      1.0  0.92975  0.92715  0.19548  1.0000
  C   C127      1.0  0.94412  0.95444  0.10437  1.0000
  C   C128      1.0  0.90563  0.99725  0.03760  1.0000
  H   H63       1.0  0.32473  0.04615  0.01015  1.0000
  O  Te27      1.0  0.86041  0.91662  0.31049  1.0000
  O  Te28      1.0  0.96869  0.88447  0.26136  1.0000
  H   H64       1.0  0.38493  0.08501  0.96724  1.0000
  Mg  Mg14      1.0  0.92803  0.86084  0.37557  1.0000
  C   C129      1.0  0.50704  0.81433  0.95492  1.0000
  C   C130      1.0  0.56930  0.77145  0.02116  1.0000
  C  Sn29      1.0  0.61058  0.74409  0.11322  1.0000
  C  Sn30      1.0  0.62392  0.69177  0.13920  1.0000
  C   C131      1.0  0.59562  0.66813  0.07232  1.0000
  C   C132      1.0  0.52019  0.76272  0.98044  1.0000
  H   H65       1.0  0.47515  0.83578  0.88376  1.0000
  O  Te29      1.0  0.63821  0.76863  0.17857  1.0000
  O  Te30      1.0  0.66501  0.66351  0.23068  1.0000
  H   H66       1.0  0.49848  0.74414  0.92908  1.0000
  Mg  Mg15      1.0  0.69100  0.71394  0.29458  1.0000
  C   C133      1.0  0.18509  0.92719  0.44595  1.0000
  C   C134      1.0  0.13394  0.96995  0.43624  1.0000
  C  Sn31      1.0  0.12618  0.01477  0.37393  1.0000
  C  Sn32      1.0  0.17052  0.01669  0.32041  1.0000
  C   C135      1.0  0.22153  0.97369  0.33053  1.0000
  C   C136      1.0  0.22884  0.92904  0.39313  1.0000
  H   H67       1.0  0.19075  0.89263  0.49430  1.0000
  O  Te31      1.0  0.57686  0.05715  0.36514  1.0000
  O  Te32      1.0  0.66594  0.06098  0.25756  1.0000
  H   H68       1.0  0.26844  0.89592  0.40054  1.0000
  Mg  Mg16      1.0  0.58815  0.10877  0.27031  1.0000
  C   C137      1.0  0.52252  0.60320  0.19145  1.0000
  C   C138      1.0  0.56058  0.61672  0.23209  1.0000
  C  Sn33      1.0  0.60254  0.58413  0.31469  1.0000
  C  Sn34      1.0  0.60636  0.53715  0.35719  1.0000
  C   C139      1.0  0.56809  0.52394  0.31589  1.0000
  C   C140      1.0  0.52626  0.55685  0.23328  1.0000
  H   H69       1.0  0.49017  0.62864  0.12746  1.0000
  O  Te33      1.0  0.64022  0.59825  0.35440  1.0000
  O  Te34      1.0  0.64789  0.50385  0.43970  1.0000
  H   H70       1.0  0.49681  0.54635  0.20174  1.0000
  Mg  Mg17      1.0  0.68947  0.54005  0.46718  1.0000
  C   C141      1.0  0.13871  0.54066  0.20668  1.0000
  C   C142      1.0  0.12098  0.59499  0.27632  1.0000
  C  Sn35      1.0  0.15056  0.60749  0.38424  1.0000
  C  Sn36      1.0  0.19878  0.56471  0.42289  1.0000
  C   C143      1.0  0.21619  0.51049  0.35249  1.0000
  C   C144      1.0  0.18627  0.49844  0.24469  1.0000
  H   H71       1.0  0.11557  0.53133  0.12321  1.0000
  O  Te35      1.0  0.13227  0.66200  0.45276  1.0000
  O  Te36      1.0  0.22914  0.57605  0.53032  1.0000
  H   H72       1.0  0.20002  0.45637  0.19071  1.0000
  Mg  Mg18      1.0  0.18761  0.65678  0.59248  1.0000
