data_image0
_chemical_formula_structural       H96C240N24O48SnCSn2CSnTe4Mg2SnCSn2CSnTe4Mg2SnCSn2CSnTe4Mg2SnCSn2CSnTe4Mg2SnCSn2CSnTe4Mg2SnCSn2CSnTe4Mg2SnCSn2CSnTe4Mg2SnCSn2CSnTe4Mg2SnCSn2CSnTe4Mg2SnCSn2CSnTe4Mg2SnCSn2CSnTe4Mg2SnCSn2CSnTe4Mg2
_chemical_formula_sum              "H96 C264 N24 O48 Sn48 Te48 Mg24"
_cell_length_a       7.14637
_cell_length_b       36.2077
_cell_length_c       63.4943
_cell_angle_alpha    90.336
_cell_angle_beta     89.7486
_cell_angle_gamma    92.2701

_symmetry_space_group_name_H-M    'P1'
_space_group_IT_number       1

loop_
  _space_group_symop_operation_xyz
  'x, y, z'

loop_
  _atom_site_type_symbol
  _atom_site_label
  _atom_site_symmetry_multiplicity
  _atom_site_fract_x
  _atom_site_fract_y
  _atom_site_fract_z
  _atom_site_occupancy
  H   H1        1.0  0.91646  0.60049  0.88910  1.0000
  H   H2        1.0  0.61201  0.54733  0.17353  1.0000
  H   H3        1.0  0.93653  0.44944  0.84286  1.0000
  H   H4        1.0  0.54013  0.54380  0.27185  1.0000
  H   H5        1.0  0.89457  0.65774  0.86820  1.0000
  H   H6        1.0  0.64729  0.54840  0.13516  1.0000
  H   H7        1.0  0.90603  0.39098  0.82235  1.0000
  H   H8        1.0  0.53932  0.60299  0.29149  1.0000
  H   H9        1.0  0.75000  0.55880  0.91036  1.0000
  H   H10       1.0  0.73089  0.43691  0.20318  1.0000
  H   H11       1.0  0.57897  0.77697  0.83676  1.0000
  H   H12       1.0  0.79616  0.21055  0.27142  1.0000
  H   H13       1.0  0.74204  0.42755  0.05762  1.0000
  H   H14       1.0  0.92401  0.09968  0.38875  1.0000
  H   H15       1.0  0.77081  0.93795  0.43950  1.0000
  H   H16       1.0  0.90147  0.15723  0.36821  1.0000
  H   H17       1.0  0.78027  0.93698  0.47760  1.0000
  H   H18       1.0  0.75276  0.05755  0.41000  1.0000
  H   H19       1.0  0.74335  0.93736  0.70332  1.0000
  H   H20       1.0  0.60333  0.27850  0.33779  1.0000
  H   H21       1.0  0.81677  0.71086  0.77170  1.0000
  H   H22       1.0  0.77377  0.92545  0.55732  1.0000
  H   H23       1.0  0.57663  0.40165  0.89105  1.0000
  H   H24       1.0  0.88060  0.59585  0.22343  1.0000
  H   H25       1.0  0.92166  0.44756  0.17590  1.0000
  H   H26       1.0  0.57316  0.54153  0.84333  1.0000
  H   H27       1.0  0.55401  0.34284  0.87088  1.0000
  H   H28       1.0  0.87247  0.65527  0.24263  1.0000
  H   H29       1.0  0.94454  0.44723  0.13722  1.0000
  H   H30       1.0  0.55713  0.59843  0.82224  1.0000
  H   H31       1.0  0.77083  0.43980  0.91057  1.0000
  H   H32       1.0  0.73942  0.55570  0.20405  1.0000
  H   H33       1.0  0.83359  0.21654  0.83929  1.0000
  H   H34       1.0  0.59369  0.78020  0.27356  1.0000
  H   H35       1.0  0.84110  0.56713  0.05820  1.0000
  H   H36       1.0  0.77614  0.05705  0.44088  1.0000
  H   H37       1.0  0.57358  0.04184  0.34319  1.0000
  H   H38       1.0  0.77944  0.05595  0.47904  1.0000
  H   H39       1.0  0.55536  0.09903  0.32254  1.0000
  H   H40       1.0  0.78293  0.93871  0.40953  1.0000
  H   H41       1.0  0.74552  0.05613  0.70399  1.0000
  H   H42       1.0  0.80123  0.71469  0.33963  1.0000
  H   H43       1.0  0.57926  0.28016  0.77485  1.0000
  H   H44       1.0  0.81749  0.06566  0.55751  1.0000
  H   H45       1.0  0.53026  0.59898  0.77501  1.0000
  H   H46       1.0  0.26953  0.55978  0.05711  1.0000
  H   H47       1.0  0.43822  0.45007  0.82344  1.0000
  H   H48       1.0  0.49564  0.45553  0.72434  1.0000
  H   H49       1.0  0.54115  0.65891  0.75653  1.0000
  H   H50       1.0  0.25963  0.56009  0.01895  1.0000
  H   H51       1.0  0.40902  0.44921  0.86188  1.0000
  H   H52       1.0  0.50445  0.39668  0.70455  1.0000
  H   H53       1.0  0.31044  0.44086  0.08691  1.0000
  H   H54       1.0  0.31384  0.56049  0.79414  1.0000
  H   H55       1.0  0.48650  0.22179  0.16011  1.0000
  H   H56       1.0  0.26484  0.78753  0.72621  1.0000
  H   H57       1.0  0.30611  0.57120  0.93960  1.0000
  H   H58       1.0  0.14020  0.89698  0.60846  1.0000
  H   H59       1.0  0.52105  0.10089  0.27493  1.0000
  H   H60       1.0  0.16522  0.83993  0.62935  1.0000
  H   H61       1.0  0.52992  0.16037  0.25603  1.0000
  H   H62       1.0  0.30402  0.93936  0.58697  1.0000
  H   H63       1.0  0.31342  0.06145  0.29406  1.0000
  H   H64       1.0  0.46199  0.71971  0.65994  1.0000
  H   H65       1.0  0.23338  0.28665  0.22479  1.0000
  H   H66       1.0  0.32576  0.07022  0.43989  1.0000
  H   H67       1.0  0.18427  0.40014  0.77402  1.0000
  H   H68       1.0  0.31347  0.44138  0.05618  1.0000
  H   H69       1.0  0.12684  0.54977  0.82161  1.0000
  H   H70       1.0  0.16677  0.55254  0.72683  1.0000
  H   H71       1.0  0.20151  0.34117  0.75466  1.0000
  H   H72       1.0  0.30649  0.44178  0.01802  1.0000
  H   H73       1.0  0.10995  0.55018  0.86025  1.0000
  H   H74       1.0  0.18298  0.61246  0.70803  1.0000
  H   H75       1.0  0.28733  0.55981  0.08719  1.0000
  H   H76       1.0  0.30812  0.44171  0.79294  1.0000
  H   H77       1.0  0.23403  0.78258  0.15774  1.0000
  H   H78       1.0  0.48537  0.21827  0.72300  1.0000
  H   H79       1.0  0.22277  0.43140  0.93942  1.0000
  H   H80       1.0  0.48584  0.95636  0.65383  1.0000
  H   H81       1.0  0.17257  0.05214  0.22605  1.0000
  H   H82       1.0  0.50634  0.89969  0.67487  1.0000
  H   H83       1.0  0.18796  0.11159  0.20679  1.0000
  H   H84       1.0  0.29267  0.05842  0.58698  1.0000
  H   H85       1.0  0.30476  0.94263  0.29291  1.0000
  H   H86       1.0  0.24143  0.28175  0.65799  1.0000
  H   H87       1.0  0.47026  0.71940  0.22325  1.0000
  H   H88       1.0  0.22205  0.93078  0.43934  1.0000
  H   H89       1.0  0.76177  0.49814  0.85228  1.0000
  H   H90       1.0  0.69281  0.49521  0.26203  1.0000
  H   H91       1.0  0.76437  0.99786  0.35158  1.0000
  H   H92       1.0  0.70699  0.99578  0.76212  1.0000
  H   H93       1.0  0.29214  0.50064  0.14524  1.0000
  H   H94       1.0  0.35173  0.50286  0.73513  1.0000
  H   H95       1.0  0.29194  0.99959  0.64521  1.0000
  H   H96       1.0  0.34828  0.00344  0.23507  1.0000
  C   C1        1.0  0.83351  0.60008  0.87476  1.0000
  C   C2        1.0  0.68934  0.52572  0.16583  1.0000
  C   C3        1.0  0.85004  0.42643  0.84894  1.0000
  C   C4        1.0  0.61607  0.56789  0.26551  1.0000
  C   C5        1.0  0.82391  0.63225  0.86292  1.0000
  C   C6        1.0  0.70657  0.52625  0.14403  1.0000
  C   C7        1.0  0.83480  0.39359  0.83741  1.0000
  C   C8        1.0  0.61338  0.60121  0.27656  1.0000
  C   C9        1.0  0.75900  0.66756  0.81019  1.0000
  C   C10       1.0  0.64385  0.32111  0.29914  1.0000
  C   C11       1.0  0.81283  0.52994  0.01744  1.0000
  C   C12       1.0  0.78119  0.46483  0.09845  1.0000
  C   C13       1.0  0.77083  0.29536  0.84257  1.0000
  C   C14       1.0  0.65506  0.70091  0.27071  1.0000
  C   C15       1.0  0.73142  0.70699  0.80467  1.0000
  C   C16       1.0  0.66540  0.28139  0.30416  1.0000
  C   C17       1.0  0.80226  0.51667  0.03947  1.0000
  C   C18       1.0  0.78427  0.47786  0.07627  1.0000
  C   C19       1.0  0.74239  0.26768  0.82534  1.0000
  C   C20       1.0  0.67145  0.72862  0.28815  1.0000
  C   C21       1.0  0.75774  0.53239  0.90223  1.0000
  C   C22       1.0  0.72597  0.46288  0.21183  1.0000
  C   C23       1.0  0.75603  0.53232  0.88012  1.0000
  C   C24       1.0  0.70835  0.46214  0.23382  1.0000
  C   C25       1.0  0.74458  0.56681  0.86793  1.0000
  C   C26       1.0  0.72447  0.63152  0.84396  1.0000
  C   C27       1.0  0.62758  0.76271  0.82275  1.0000
  C   C28       1.0  0.75187  0.22499  0.28557  1.0000
  C   C29       1.0  0.76377  0.45746  0.05771  1.0000
  C   C30       1.0  0.83944  0.09951  0.37453  1.0000
  C   C31       1.0  0.77343  0.96434  0.44775  1.0000
  C   C32       1.0  0.82929  0.13193  0.36289  1.0000
  C   C33       1.0  0.77826  0.96330  0.46962  1.0000
  C   C34       1.0  0.75034  0.16770  0.31025  1.0000
  C   C35       1.0  0.63499  0.82019  0.79848  1.0000
  C   C36       1.0  0.80632  0.02802  0.51697  1.0000
  C   C37       1.0  0.78785  0.96341  0.59814  1.0000
  C   C38       1.0  0.74731  0.79403  0.34258  1.0000
  C   C39       1.0  0.65232  0.20115  0.77154  1.0000
  C   C40       1.0  0.72756  0.20733  0.30494  1.0000
  C   C41       1.0  0.65876  0.78059  0.80360  1.0000
  C   C42       1.0  0.79985  0.01474  0.53900  1.0000
  C   C43       1.0  0.79234  0.97629  0.57592  1.0000
  C   C44       1.0  0.72578  0.76654  0.32514  1.0000
  C   C45       1.0  0.67173  0.22910  0.78886  1.0000
  C   C46       1.0  0.76304  0.03134  0.40172  1.0000
  C   C47       1.0  0.73797  0.96335  0.71194  1.0000
  C   C48       1.0  0.76109  0.03167  0.37961  1.0000
  C   C49       1.0  0.72159  0.96261  0.73396  1.0000
  C   C50       1.0  0.74893  0.06643  0.36765  1.0000
  C   C51       1.0  0.72694  0.13171  0.34413  1.0000
  C   C52       1.0  0.64269  0.26383  0.32353  1.0000
  C   C53       1.0  0.76340  0.72497  0.78553  1.0000
  C   C54       1.0  0.78357  0.95552  0.55739  1.0000
  C   C55       1.0  0.65363  0.39916  0.87632  1.0000
  C   C56       1.0  0.80274  0.59726  0.23814  1.0000
  C   C57       1.0  0.85736  0.46933  0.16705  1.0000
  C   C58       1.0  0.64629  0.56670  0.84876  1.0000
  C   C59       1.0  0.63780  0.36622  0.86490  1.0000
  C   C60       1.0  0.80034  0.63078  0.24895  1.0000
  C   C61       1.0  0.87305  0.46924  0.14517  1.0000
  C   C62       1.0  0.63554  0.59869  0.83686  1.0000
  C   C63       1.0  0.65175  0.32537  0.81296  1.0000
  C   C64       1.0  0.75435  0.67077  0.30110  1.0000
  C   C65       1.0  0.74783  0.46593  0.01705  1.0000
  C   C66       1.0  0.81984  0.52958  0.09856  1.0000
  C   C67       1.0  0.65268  0.69850  0.84032  1.0000
  C   C68       1.0  0.73370  0.29005  0.26822  1.0000
  C   C69       1.0  0.67164  0.28540  0.80763  1.0000
  C   C70       1.0  0.72927  0.71046  0.30633  1.0000
  C   C71       1.0  0.77204  0.47834  0.03927  1.0000
  C   C72       1.0  0.80901  0.51647  0.07641  1.0000
  C   C73       1.0  0.66655  0.72530  0.82265  1.0000
  C   C74       1.0  0.71859  0.26273  0.28577  1.0000
  C   C75       1.0  0.76601  0.46596  0.90236  1.0000
  C   C76       1.0  0.73199  0.52957  0.21241  1.0000
  C   C77       1.0  0.76535  0.46509  0.88029  1.0000
  C   C78       1.0  0.71501  0.52976  0.23443  1.0000
  C   C79       1.0  0.75950  0.42973  0.86856  1.0000
  C   C80       1.0  0.71099  0.56518  0.24614  1.0000
  C   C81       1.0  0.72866  0.36352  0.84545  1.0000
  C   C82       1.0  0.70584  0.63267  0.26823  1.0000
  C   C83       1.0  0.77920  0.23016  0.82550  1.0000
  C   C84       1.0  0.63902  0.76640  0.28777  1.0000
  C   C85       1.0  0.82001  0.53720  0.05806  1.0000
  C   C86       1.0  0.77651  0.03028  0.44853  1.0000
  C   C87       1.0  0.64806  0.06683  0.34867  1.0000
  C   C88       1.0  0.77904  0.03006  0.47042  1.0000
  C   C89       1.0  0.63600  0.09908  0.33701  1.0000
  C   C90       1.0  0.65570  0.82496  0.31200  1.0000
  C   C91       1.0  0.76757  0.17184  0.80145  1.0000
  C   C92       1.0  0.77063  0.96333  0.51659  1.0000
  C   C93       1.0  0.81246  0.02842  0.59810  1.0000
  C   C94       1.0  0.66796  0.19957  0.34115  1.0000
  C   C95       1.0  0.74534  0.79000  0.76825  1.0000
  C   C96       1.0  0.66962  0.78480  0.30692  1.0000
  C   C97       1.0  0.74149  0.21149  0.80664  1.0000
  C   C98       1.0  0.78643  0.97620  0.53885  1.0000
  C   C99       1.0  0.80376  0.01504  0.57597  1.0000
  C   C100      1.0  0.67600  0.22616  0.32331  1.0000
  C   C101      1.0  0.72454  0.76246  0.78560  1.0000
  C   C102      1.0  0.77412  0.96497  0.40149  1.0000
  C   C103      1.0  0.74046  0.03006  0.71242  1.0000
  C   C104      1.0  0.77018  0.96443  0.37944  1.0000
  C   C105      1.0  0.72545  0.03036  0.73449  1.0000
  C   C106      1.0  0.75739  0.72878  0.32549  1.0000
  C   C107      1.0  0.63325  0.26667  0.78874  1.0000
  C   C108      1.0  0.80790  0.03559  0.55754  1.0000
  C   C109      1.0  0.45030  0.60183  0.76060  1.0000
  C   C110      1.0  0.27854  0.53347  0.04893  1.0000
  C   C111      1.0  0.36211  0.47174  0.83126  1.0000
  C   C112      1.0  0.42760  0.43081  0.73095  1.0000
  C   C113      1.0  0.45859  0.63563  0.75016  1.0000
  C   C114      1.0  0.27258  0.53407  0.02705  1.0000
  C   C115      1.0  0.34845  0.47132  0.85310  1.0000
  C   C116      1.0  0.43493  0.39766  0.71978  1.0000
  C   C117      1.0  0.30034  0.33073  0.18654  1.0000
  C   C118      1.0  0.41477  0.67692  0.69854  1.0000
  C   C119      1.0  0.24384  0.46907  0.98010  1.0000
  C   C120      1.0  0.27561  0.53323  0.89864  1.0000
  C   C121      1.0  0.29234  0.70334  0.15516  1.0000
  C   C122      1.0  0.41955  0.29781  0.72580  1.0000
  C   C123      1.0  0.32661  0.29126  0.19204  1.0000
  C   C124      1.0  0.39665  0.71672  0.69350  1.0000
  C   C125      1.0  0.25465  0.48210  0.95798  1.0000
  C   C126      1.0  0.27151  0.52059  0.92093  1.0000
  C   C127      1.0  0.31784  0.73138  0.17227  1.0000
  C   C128      1.0  0.39801  0.26945  0.70868  1.0000
  C   C129      1.0  0.30090  0.46711  0.09515  1.0000
  C   C130      1.0  0.31874  0.53459  0.78543  1.0000
  C   C131      1.0  0.30075  0.46678  0.11726  1.0000
  C   C132      1.0  0.33560  0.53553  0.76343  1.0000
  C   C133      1.0  0.34629  0.57134  0.75232  1.0000
  C   C134      1.0  0.36198  0.63926  0.73123  1.0000
  C   C135      1.0  0.43430  0.23577  0.17404  1.0000
  C   C136      1.0  0.31003  0.77314  0.71208  1.0000
  C   C137      1.0  0.28791  0.54121  0.93946  1.0000
  C   C138      1.0  0.22375  0.89763  0.62275  1.0000
  C   C139      1.0  0.44390  0.10309  0.26027  1.0000
  C   C140      1.0  0.23537  0.86549  0.63460  1.0000
  C   C141      1.0  0.45129  0.13664  0.24958  1.0000
  C   C142      1.0  0.31516  0.83052  0.68747  1.0000
  C   C143      1.0  0.42181  0.17788  0.19795  1.0000
  C   C144      1.0  0.25195  0.96811  0.48017  1.0000
  C   C145      1.0  0.28579  0.03302  0.39894  1.0000
  C   C146      1.0  0.30096  0.20272  0.65503  1.0000
  C   C147      1.0  0.39910  0.79849  0.22604  1.0000
  C   C148      1.0  0.33705  0.79088  0.69278  1.0000
  C   C149      1.0  0.39919  0.21760  0.19301  1.0000
  C   C150      1.0  0.26232  0.98120  0.45806  1.0000
  C   C151      1.0  0.28335  0.01996  0.42115  1.0000
  C   C152      1.0  0.32812  0.23049  0.67224  1.0000
  C   C153      1.0  0.38246  0.77042  0.20876  1.0000
  C   C154      1.0  0.29845  0.96570  0.59520  1.0000
  C   C155      1.0  0.31745  0.03555  0.28534  1.0000
  C   C156      1.0  0.29961  0.96560  0.61732  1.0000
  C   C157      1.0  0.33360  0.03644  0.26331  1.0000
  C   C158      1.0  0.31202  0.93103  0.62948  1.0000
  C   C159      1.0  0.34425  0.07206  0.25197  1.0000
  C   C160      1.0  0.33681  0.86628  0.65343  1.0000
  C   C161      1.0  0.35884  0.13951  0.23032  1.0000
  C   C162      1.0  0.42205  0.73435  0.67419  1.0000
  C   C163      1.0  0.29040  0.27294  0.21101  1.0000
  C   C164      1.0  0.30371  0.04032  0.43972  1.0000
  C   C165      1.0  0.25748  0.39967  0.75898  1.0000
  C   C166      1.0  0.30134  0.46785  0.04841  1.0000
  C   C167      1.0  0.19316  0.52804  0.83031  1.0000
  C   C168      1.0  0.25099  0.57561  0.73322  1.0000
  C   C169      1.0  0.26502  0.36631  0.74807  1.0000
  C   C170      1.0  0.29761  0.46768  0.02651  1.0000
  C   C171      1.0  0.18093  0.52820  0.85220  1.0000
  C   C172      1.0  0.25813  0.60926  0.72269  1.0000
  C   C173      1.0  0.40226  0.67376  0.18538  1.0000
  C   C174      1.0  0.30134  0.32647  0.69582  1.0000
  C   C175      1.0  0.30284  0.53335  0.98016  1.0000
  C   C176      1.0  0.24260  0.46831  0.89894  1.0000
  C   C177      1.0  0.41128  0.29994  0.15651  1.0000
  C   C178      1.0  0.32061  0.70798  0.72922  1.0000
  C   C179      1.0  0.38312  0.71385  0.19032  1.0000
  C   C180      1.0  0.32942  0.28687  0.69075  1.0000
  C   C181      1.0  0.28054  0.52051  0.95800  1.0000
  C   C182      1.0  0.25092  0.48190  0.92100  1.0000
  C   C183      1.0  0.39490  0.27314  0.17417  1.0000
  C   C184      1.0  0.34175  0.73537  0.71181  1.0000
  C   C185      1.0  0.29240  0.53353  0.09529  1.0000
  C   C186      1.0  0.31457  0.46789  0.78463  1.0000
  C   C187      1.0  0.29213  0.53406  0.11737  1.0000
  C   C188      1.0  0.33109  0.46788  0.76259  1.0000
  C   C189      1.0  0.33862  0.43260  0.75073  1.0000
  C   C190      1.0  0.35361  0.36534  0.72840  1.0000
  C   C191      1.0  0.28379  0.76902  0.17178  1.0000
  C   C192      1.0  0.43334  0.23174  0.70901  1.0000
  C   C193      1.0  0.24070  0.46138  0.93943  1.0000
  C   C194      1.0  0.41237  0.93117  0.64851  1.0000
  C   C195      1.0  0.25333  0.07560  0.23252  1.0000
  C   C196      1.0  0.42585  0.89920  0.66039  1.0000
  C   C197      1.0  0.26011  0.10897  0.22171  1.0000
  C   C198      1.0  0.41192  0.17267  0.68507  1.0000
  C   C199      1.0  0.29304  0.82772  0.19559  1.0000
  C   C200      1.0  0.31480  0.03222  0.48040  1.0000
  C   C201      1.0  0.24609  0.96826  0.39887  1.0000
  C   C202      1.0  0.39821  0.79862  0.65664  1.0000
  C   C203      1.0  0.30274  0.20744  0.22796  1.0000
  C   C204      1.0  0.39494  0.21281  0.69016  1.0000
  C   C205      1.0  0.31797  0.78792  0.19066  1.0000
  C   C206      1.0  0.29353  0.01952  0.45819  1.0000
  C   C207      1.0  0.25709  0.98136  0.42105  1.0000
  C   C208      1.0  0.38960  0.77205  0.67446  1.0000
  C   C209      1.0  0.32902  0.23543  0.21089  1.0000
  C   C210      1.0  0.29390  0.03222  0.59522  1.0000
  C   C211      1.0  0.31151  0.96883  0.28462  1.0000
  C   C212      1.0  0.29183  0.03295  0.61730  1.0000
  C   C213      1.0  0.32683  0.96880  0.26258  1.0000
  C   C214      1.0  0.29338  0.26809  0.67190  1.0000
  C   C215      1.0  0.41880  0.73280  0.20920  1.0000
  C   C216      1.0  0.24440  0.96069  0.43944  1.0000
  C   C217      1.0  0.76226  0.49849  0.86938  1.0000
  C   C218      1.0  0.70428  0.49571  0.24495  1.0000
  C   C219      1.0  0.76348  0.49936  0.91375  1.0000
  C   C220      1.0  0.73979  0.49647  0.20092  1.0000
  C   C221      1.0  0.76260  0.49714  0.17780  1.0000
  C   C222      1.0  0.79578  0.49762  0.13357  1.0000
  C   C223      1.0  0.76645  0.99798  0.36868  1.0000
  C   C224      1.0  0.71736  0.99627  0.74503  1.0000
  C   C225      1.0  0.77081  0.99813  0.41307  1.0000
  C   C226      1.0  0.74913  0.99689  0.70094  1.0000
  C   C227      1.0  0.77346  0.99764  0.43642  1.0000
  C   C228      1.0  0.78098  0.99639  0.48134  1.0000
  C   C229      1.0  0.29335  0.50048  0.12814  1.0000
  C   C230      1.0  0.34005  0.50207  0.75220  1.0000
  C   C231      1.0  0.29500  0.50030  0.08376  1.0000
  C   C232      1.0  0.30632  0.50089  0.79623  1.0000
  C   C233      1.0  0.29216  0.50052  0.06038  1.0000
  C   C234      1.0  0.28644  0.50020  0.81939  1.0000
  C   C235      1.0  0.28227  0.50097  0.01550  1.0000
  C   C236      1.0  0.26052  0.49993  0.86370  1.0000
  C   C237      1.0  0.29279  0.99939  0.62811  1.0000
  C   C238      1.0  0.33706  0.00290  0.25215  1.0000
  C   C239      1.0  0.29530  0.99888  0.58376  1.0000
  C   C240      1.0  0.30518  0.00188  0.29621  1.0000
  N   N1        1.0  0.71345  0.66448  0.83192  1.0000
  N   N2        1.0  0.68567  0.32442  0.27729  1.0000
  N   N3        1.0  0.71544  0.16488  0.33228  1.0000
  N   N4        1.0  0.68932  0.82410  0.77702  1.0000
  N   N5        1.0  0.71635  0.32950  0.83404  1.0000
  N   N6        1.0  0.70414  0.66676  0.27953  1.0000
  N   N7        1.0  0.70659  0.82867  0.33357  1.0000
  N   N8        1.0  0.70950  0.16731  0.78014  1.0000
  N   N9        1.0  0.34975  0.33398  0.16487  1.0000
  N   N10       1.0  0.36967  0.67357  0.72030  1.0000
  N   N11       1.0  0.34977  0.83330  0.66544  1.0000
  N   N12       1.0  0.36433  0.17373  0.21928  1.0000
  N   N13       1.0  0.34308  0.66925  0.16412  1.0000
  N   N14       1.0  0.36013  0.33133  0.71705  1.0000
  N   N15       1.0  0.35059  0.16844  0.66384  1.0000
  N   N16       1.0  0.34481  0.83223  0.21710  1.0000
  N   N17       1.0  0.77770  0.49822  0.00434  1.0000
  N   N18       1.0  0.80339  0.49730  0.11121  1.0000
  N   N19       1.0  0.78633  0.99588  0.50379  1.0000
  N   N20       1.0  0.80128  0.99612  0.61089  1.0000
  N   N21       1.0  0.27621  0.50116  0.99307  1.0000
  N   N22       1.0  0.25585  0.50043  0.88608  1.0000
  N   N23       1.0  0.28595  0.00003  0.49315  1.0000
  N   N24       1.0  0.26199  0.00056  0.38620  1.0000
  O   O1        1.0  0.60006  0.70370  0.85833  1.0000
  O   O2        1.0  0.77916  0.28510  0.24990  1.0000
  O   O3        1.0  0.70554  0.43487  0.01071  1.0000
  O   O4        1.0  0.83789  0.56144  0.10485  1.0000
  O   O5        1.0  0.59226  0.34998  0.80212  1.0000
  O   O6        1.0  0.80867  0.64628  0.31236  1.0000
  O   O7        1.0  0.62929  0.20540  0.35956  1.0000
  O   O8        1.0  0.79982  0.78523  0.75024  1.0000
  O   O9        1.0  0.74414  0.93160  0.51038  1.0000
  O   O10       1.0  0.82741  0.06043  0.60427  1.0000
  O   O11       1.0  0.61047  0.85001  0.30056  1.0000
  O   O12       1.0  0.82796  0.14791  0.81267  1.0000
  O   O13       1.0  0.82891  0.29070  0.86034  1.0000
  O   O14       1.0  0.60969  0.70556  0.25243  1.0000
  O   O15       1.0  0.84823  0.56147  0.01158  1.0000
  O   O16       1.0  0.76262  0.43317  0.10481  1.0000
  O   O17       1.0  0.80925  0.64250  0.79881  1.0000
  O   O18       1.0  0.60052  0.34608  0.31096  1.0000
  O   O19       1.0  0.79087  0.78887  0.36084  1.0000
  O   O20       1.0  0.59985  0.20544  0.75348  1.0000
  O   O21       1.0  0.82828  0.06001  0.51122  1.0000
  O   O22       1.0  0.77310  0.93161  0.60437  1.0000
  O   O23       1.0  0.78993  0.14242  0.29845  1.0000
  O   O24       1.0  0.58062  0.84464  0.80998  1.0000
  O   O25       1.0  0.46570  0.29458  0.13858  1.0000
  O   O26       1.0  0.26871  0.71302  0.74730  1.0000
  O   O27       1.0  0.34175  0.56474  0.98623  1.0000
  O   O28       1.0  0.22846  0.43622  0.89294  1.0000
  O   O29       1.0  0.45692  0.64946  0.19677  1.0000
  O   O30       1.0  0.23866  0.35020  0.68462  1.0000
  O   O31       1.0  0.43779  0.79272  0.63826  1.0000
  O   O32       1.0  0.23924  0.21134  0.24566  1.0000
  O   O33       1.0  0.35279  0.06346  0.48673  1.0000
  O   O34       1.0  0.22846  0.93641  0.39254  1.0000
  O   O35       1.0  0.46651  0.14806  0.69625  1.0000
  O   O36       1.0  0.23848  0.85186  0.18411  1.0000
  O   O37       1.0  0.23816  0.70755  0.13719  1.0000
  O   O38       1.0  0.47588  0.29431  0.74378  1.0000
  O   O39       1.0  0.20989  0.43755  0.98613  1.0000
  O   O40       1.0  0.29389  0.56478  0.89208  1.0000
  O   O41       1.0  0.24805  0.35564  0.19789  1.0000
  O   O42       1.0  0.45759  0.65184  0.68679  1.0000
  O   O43       1.0  0.24715  0.20741  0.63708  1.0000
  O   O44       1.0  0.44751  0.79444  0.24427  1.0000
  O   O45       1.0  0.21848  0.93671  0.48635  1.0000
  O   O46       1.0  0.30420  0.06470  0.39259  1.0000
  O   O47       1.0  0.27647  0.85578  0.69934  1.0000
  O   O48       1.0  0.47636  0.15359  0.18635  1.0000
  C  Sn1       1.0  0.73146  0.46212  0.95328  1.0000
  C   C241      1.0  0.71638  0.49219  0.93977  1.0000
  C  Sn2       1.0  0.74545  0.52826  0.94732  1.0000
  C  Sn3       1.0  0.79065  0.53442  0.96882  1.0000
  C   C242      1.0  0.80573  0.50437  0.98231  1.0000
  C  Sn4       1.0  0.77665  0.46828  0.97477  1.0000
  O  Te1       1.0  0.70182  0.42630  0.94538  1.0000
  O  Te2       1.0  0.72954  0.55788  0.93352  1.0000
  O  Te3       1.0  0.82028  0.57028  0.97671  1.0000
  O  Te4       1.0  0.79257  0.43868  0.98856  1.0000
  Mg  Mg1       1.0  0.78287  0.60157  0.95173  1.0000
  Mg  Mg2       1.0  0.73937  0.39497  0.97037  1.0000
  C  Sn5       1.0  0.68592  0.88727  0.37729  1.0000
  C   C243      1.0  0.78323  0.91995  0.37156  1.0000
  C  Sn6       1.0  0.84296  0.92536  0.35079  1.0000
  C  Sn7       1.0  0.80453  0.89754  0.33542  1.0000
  C   C244      1.0  0.70725  0.86489  0.34114  1.0000
  C  Sn8       1.0  0.64749  0.85946  0.36191  1.0000
  O  Te5       1.0  0.62753  0.88245  0.39814  1.0000
  O  Te6       1.0  0.94006  0.95825  0.34545  1.0000
  O  Te7       1.0  0.86302  0.90239  0.31455  1.0000
  O  Te8       1.0  0.55041  0.82659  0.36726  1.0000
  Mg  Mg3       1.0  0.99053  0.95192  0.31498  1.0000
  Mg  Mg4       1.0  0.49979  0.83290  0.39771  1.0000
  C  Sn9       1.0  0.85807  0.10461  0.74215  1.0000
  C   C245      1.0  0.77873  0.07017  0.74782  1.0000
  C  Sn10      1.0  0.64387  0.06745  0.76378  1.0000
  C  Sn11      1.0  0.58702  0.09983  0.77430  1.0000
  C   C246      1.0  0.66631  0.13424  0.76863  1.0000
  C  Sn12      1.0  0.80122  0.13699  0.75267  1.0000
  O  Te9       1.0  0.99265  0.10667  0.72614  1.0000
  O  Te10      1.0  0.56661  0.03271  0.76917  1.0000
  O  Te11      1.0  0.45233  0.09774  0.79032  1.0000
  O  Te12      1.0  0.87843  0.17170  0.74727  1.0000
  Mg  Mg5       1.0  0.38803  0.04416  0.79200  1.0000
  Mg  Mg6       1.0  0.05694  0.16029  0.72444  1.0000
  C  Sn13      1.0  0.75618  0.40029  0.27681  1.0000
  C   C247      1.0  0.66401  0.36707  0.27095  1.0000
  C  Sn14      1.0  0.59814  0.36192  0.25041  1.0000
  C  Sn15      1.0  0.62505  0.39056  0.23543  1.0000
  C   C248      1.0  0.71719  0.42375  0.24129  1.0000
  C  Sn16      1.0  0.78308  0.42893  0.26182  1.0000
  O  Te13      1.0  0.82087  0.40483  0.29742  1.0000
  O  Te14      1.0  0.50636  0.32848  0.24492  1.0000
  O  Te15      1.0  0.56026  0.38599  0.21480  1.0000
  O  Te16      1.0  0.87484  0.46234  0.26732  1.0000
  Mg  Mg7       1.0  0.44376  0.33547  0.21490  1.0000
  Mg  Mg8       1.0  0.93758  0.45537  0.29733  1.0000
  C  Sn17      1.0  0.23786  0.03701  0.33540  1.0000
  C   C249      1.0  0.31253  0.01065  0.32193  1.0000
  C  Sn18      1.0  0.55451  0.97576  0.32949  1.0000
  C  Sn19      1.0  0.52035  0.96701  0.35094  1.0000
  C   C250      1.0  0.44569  0.99335  0.36439  1.0000
  C  Sn20      1.0  0.20369  0.02826  0.35685  1.0000
  O  Te17      1.0  0.19763  0.07172  0.32751  1.0000
  O  Te18      1.0  0.62914  0.94987  0.31573  1.0000
  O  Te19      1.0  0.56064  0.93227  0.35882  1.0000
  O  Te20      1.0  0.12908  0.05414  0.37060  1.0000
  Mg  Mg9       1.0  0.66060  0.90634  0.33392  1.0000
  Mg  Mg10      1.0  0.09748  0.09766  0.35242  1.0000
  C  Sn21      1.0  0.75976  0.90014  0.77700  1.0000
  C   C251      1.0  0.66873  0.86702  0.77077  1.0000
  C  Sn22      1.0  0.60781  0.86209  0.75003  1.0000
  C  Sn23      1.0  0.63862  0.89087  0.73521  1.0000
  C   C252      1.0  0.72963  0.92396  0.74144  1.0000
  C  Sn24      1.0  0.79057  0.92892  0.76217  1.0000
  O  Te21      1.0  0.81948  0.90446  0.79781  1.0000
  O  Te22      1.0  0.51707  0.82874  0.74418  1.0000
  O  Te23      1.0  0.57881  0.88652  0.71438  1.0000
  O  Te24      1.0  0.88129  0.96225  0.76803  1.0000
  Mg  Mg11      1.0  0.46183  0.83605  0.71400  1.0000
  Mg  Mg12      1.0  0.93667  0.95496  0.79820  1.0000
  C  Sn25      1.0  0.46672  0.42417  0.14900  1.0000
  C   C253      1.0  0.37268  0.42919  0.13004  1.0000
  C  Sn26      1.0  0.23935  0.40275  0.12298  1.0000
  C  Sn27      1.0  0.19906  0.37065  0.13513  1.0000
  C   C254      1.0  0.29304  0.36565  0.15408  1.0000
  C  Sn28      1.0  0.42644  0.39207  0.16115  1.0000
  O  Te25      1.0  0.59947  0.45096  0.15575  1.0000
  O  Te26      1.0  0.14720  0.40837  0.10397  1.0000
  O  Te27      1.0  0.06619  0.34385  0.12836  1.0000
  O  Te28      1.0  0.51853  0.38647  0.18015  1.0000
  Mg  Mg13      1.0  0.97779  0.36398  0.10142  1.0000
  Mg  Mg14      1.0  0.68789  0.43084  0.18272  1.0000
  C  Sn29      1.0  0.46292  0.10327  0.62561  1.0000
  C   C255      1.0  0.36050  0.07086  0.63075  1.0000
  C  Sn30      1.0  0.22340  0.07117  0.64649  1.0000
  C  Sn31      1.0  0.18783  0.10456  0.65731  1.0000
  C   C256      1.0  0.29019  0.13694  0.65217  1.0000
  C  Sn32      1.0  0.42735  0.13666  0.63643  1.0000
  O  Te29      1.0  0.59932  0.10232  0.60981  1.0000
  O  Te30      1.0  0.12286  0.03843  0.65136  1.0000
  O  Te31      1.0  0.05131  0.10549  0.67311  1.0000
  O  Te32      1.0  0.52783  0.16938  0.63156  1.0000
  Mg  Mg15      1.0  0.95128  0.05376  0.67407  1.0000
  Mg  Mg16      1.0  0.69936  0.15408  0.60884  1.0000
  C  Sn33      1.0  0.18728  0.87644  0.24762  1.0000
  C   C257      1.0  0.28381  0.86886  0.22899  1.0000
  C  Sn34      1.0  0.42371  0.89355  0.22156  1.0000
  C  Sn35      1.0  0.46813  0.92650  0.23299  1.0000
  C   C258      1.0  0.37165  0.93405  0.25160  1.0000
  C  Sn36      1.0  0.23171  0.90938  0.25904  1.0000
  O  Te33      1.0  0.04796  0.85136  0.25475  1.0000
  O  Te34      1.0  0.51824  0.88538  0.20291  1.0000
  O  Te35      1.0  0.60758  0.95158  0.22584  1.0000
  O  Te36      1.0  0.13723  0.91753  0.27769  1.0000
  Mg  Mg17      1.0  0.69695  0.92817  0.19960  1.0000
  Mg  Mg18      1.0  0.95857  0.87476  0.28101  1.0000
  C  Sn37      1.0  0.46430  0.60407  0.12627  1.0000
  C   C259      1.0  0.35957  0.57177  0.13106  1.0000
  C  Sn38      1.0  0.21859  0.57218  0.14636  1.0000
  C  Sn39      1.0  0.18142  0.60558  0.15709  1.0000
  C   C260      1.0  0.28608  0.63786  0.15230  1.0000
  C  Sn40      1.0  0.42712  0.63747  0.13700  1.0000
  O  Te37      1.0  0.60456  0.60301  0.11092  1.0000
  O  Te38      1.0  0.11580  0.53954  0.15087  1.0000
  O  Te39      1.0  0.04102  0.60661  0.17245  1.0000
  O  Te40      1.0  0.52985  0.67009  0.13248  1.0000
  Mg  Mg19      1.0  0.93911  0.55500  0.17304  1.0000
  Mg  Mg20      1.0  0.70650  0.65466  0.11031  1.0000
  C  Sn41      1.0  0.91978  0.97282  0.66251  1.0000
  C   C261      1.0  0.83361  0.99830  0.67561  1.0000
  C  Sn42      1.0  0.50585  0.02266  0.66735  1.0000
  C  Sn43      1.0  0.46394  0.02152  0.64553  1.0000
  C   C262      1.0  0.75075  0.99606  0.63245  1.0000
  C  Sn44      1.0  0.87787  0.97169  0.64070  1.0000
  O  Te41      1.0  0.04636  0.94873  0.67112  1.0000
  O  Te42      1.0  0.42152  0.04789  0.68075  1.0000
  O  Te43      1.0  0.33725  0.04565  0.63693  1.0000
  O  Te44      1.0  0.96215  0.94647  0.62731  1.0000
  Mg  Mg21      1.0  0.25849  0.07501  0.66159  1.0000
  Mg  Mg22      1.0  0.12512  0.91932  0.64646  1.0000
  C  Sn45      1.0  0.38602  0.96754  0.54357  1.0000
  C   C263      1.0  0.35140  0.99634  0.55763  1.0000
  C  Sn46      1.0  0.06408  0.02797  0.55073  1.0000
  C  Sn47      1.0  0.01082  0.03087  0.52933  1.0000
  C   C264      1.0  0.24610  0.00208  0.51528  1.0000
  C  Sn48      1.0  0.33277  0.97044  0.52217  1.0000
  O  Te45      1.0  0.47279  0.93618  0.55082  1.0000
  O  Te46      1.0  0.03099  0.05641  0.56508  1.0000
  O  Te47      1.0  0.92400  0.06226  0.52209  1.0000
  O  Te48      1.0  0.36583  0.94201  0.50784  1.0000
  Mg  Mg23      1.0  0.90873  0.09358  0.54764  1.0000
  Mg  Mg24      1.0  0.48798  0.90482  0.52526  1.0000
