data_image0
_chemical_formula_structural       H96C240N24O48C2Sn2C2HTe2HMgC2Sn2C2HTe2HMgC2Sn2C2HTe2HMgC2Sn2C2HTe2HMgC2Sn2C2HTe2HMgC2Sn2C2HTe2HMgC2Sn2C2HTe2HMgC2Sn2C2HTe2HMgC2Sn2C2HTe2HMgC2Sn2C2HTe2HMgC2Sn2C2HTe2HMgC2Sn2C2HTe2HMg
_chemical_formula_sum              "H120 C288 N24 O48 Sn24 Te24 Mg12"
_cell_length_a       7.14637
_cell_length_b       36.2077
_cell_length_c       63.4943
_cell_angle_alpha    90.336
_cell_angle_beta     89.7486
_cell_angle_gamma    92.2701

_symmetry_space_group_name_H-M    'P1'
_space_group_IT_number       1

loop_
  _space_group_symop_operation_xyz
  'x, y, z'

loop_
  _atom_site_type_symbol
  _atom_site_label
  _atom_site_symmetry_multiplicity
  _atom_site_fract_x
  _atom_site_fract_y
  _atom_site_fract_z
  _atom_site_occupancy
  H   H1        1.0  0.51490  0.39825  0.22260  1.0000
  H   H2        1.0  0.61201  0.54733  0.17353  1.0000
  H   H3        1.0  0.93653  0.44944  0.84286  1.0000
  H   H4        1.0  0.54013  0.54380  0.27185  1.0000
  H   H5        1.0  0.50943  0.33840  0.24116  1.0000
  H   H6        1.0  0.64729  0.54840  0.13516  1.0000
  H   H7        1.0  0.90603  0.39098  0.82235  1.0000
  H   H8        1.0  0.53932  0.60299  0.29149  1.0000
  H   H9        1.0  0.75000  0.55880  0.91036  1.0000
  H   H10       1.0  0.73089  0.43691  0.20318  1.0000
  H   H11       1.0  0.57897  0.77697  0.83676  1.0000
  H   H12       1.0  0.79616  0.21055  0.27142  1.0000
  H   H13       1.0  0.74204  0.42755  0.05762  1.0000
  H   H14       1.0  0.77081  0.93795  0.43950  1.0000
  H   H15       1.0  0.55987  0.04358  0.77265  1.0000
  H   H16       1.0  0.78027  0.93698  0.47760  1.0000
  H   H17       1.0  0.55747  0.10238  0.79250  1.0000
  H   H18       1.0  0.75276  0.05755  0.41000  1.0000
  H   H19       1.0  0.74335  0.93736  0.70332  1.0000
  H   H20       1.0  0.60333  0.27850  0.33779  1.0000
  H   H21       1.0  0.81677  0.71086  0.77170  1.0000
  H   H22       1.0  0.77377  0.92545  0.55732  1.0000
  H   H23       1.0  0.57663  0.40165  0.89105  1.0000
  H   H24       1.0  0.88060  0.59585  0.22343  1.0000
  H   H25       1.0  0.92166  0.44756  0.17590  1.0000
  H   H26       1.0  0.87924  0.44583  0.27035  1.0000
  H   H27       1.0  0.55401  0.34284  0.87088  1.0000
  H   H28       1.0  0.87247  0.65527  0.24263  1.0000
  H   H29       1.0  0.94454  0.44723  0.13722  1.0000
  H   H30       1.0  0.86910  0.38599  0.28923  1.0000
  H   H31       1.0  0.77083  0.43980  0.91057  1.0000
  H   H32       1.0  0.73942  0.55570  0.20405  1.0000
  H   H33       1.0  0.83359  0.21654  0.83929  1.0000
  H   H34       1.0  0.59369  0.78020  0.27356  1.0000
  H   H35       1.0  0.84110  0.56713  0.05820  1.0000
  H   H36       1.0  0.87660  0.09784  0.72300  1.0000
  H   H37       1.0  0.77614  0.05705  0.44088  1.0000
  H   H38       1.0  0.86614  0.15683  0.74244  1.0000
  H   H39       1.0  0.77944  0.05595  0.47904  1.0000
  H   H40       1.0  0.78293  0.93871  0.40953  1.0000
  H   H41       1.0  0.74552  0.05613  0.70399  1.0000
  H   H42       1.0  0.80123  0.71469  0.33963  1.0000
  H   H43       1.0  0.57926  0.28016  0.77485  1.0000
  H   H44       1.0  0.81749  0.06566  0.55751  1.0000
  H   H45       1.0  0.26953  0.55978  0.05711  1.0000
  H   H46       1.0  0.43822  0.45007  0.82344  1.0000
  H   H47       1.0  0.11769  0.54969  0.15458  1.0000
  H   H48       1.0  0.25963  0.56009  0.01895  1.0000
  H   H49       1.0  0.40902  0.44921  0.86188  1.0000
  H   H50       1.0  0.14806  0.60790  0.17537  1.0000
  H   H51       1.0  0.31044  0.44086  0.08691  1.0000
  H   H52       1.0  0.31384  0.56049  0.79414  1.0000
  H   H53       1.0  0.48650  0.22179  0.16011  1.0000
  H   H54       1.0  0.26484  0.78753  0.72621  1.0000
  H   H55       1.0  0.30611  0.57120  0.93960  1.0000
  H   H56       1.0  0.14020  0.89698  0.60846  1.0000
  H   H57       1.0  0.22961  0.05672  0.55729  1.0000
  H   H58       1.0  0.50578  0.95526  0.22537  1.0000
  H   H59       1.0  0.16522  0.83993  0.62935  1.0000
  H   H60       1.0  0.22664  0.05734  0.51906  1.0000
  H   H61       1.0  0.51003  0.89625  0.20554  1.0000
  H   H62       1.0  0.30402  0.93936  0.58697  1.0000
  H   H63       1.0  0.31342  0.06145  0.29406  1.0000
  H   H64       1.0  0.46199  0.71971  0.65994  1.0000
  H   H65       1.0  0.23338  0.28665  0.22479  1.0000
  H   H66       1.0  0.32576  0.07022  0.43989  1.0000
  H   H67       1.0  0.48711  0.59723  0.10723  1.0000
  H   H68       1.0  0.31347  0.44138  0.05618  1.0000
  H   H69       1.0  0.12684  0.54977  0.82161  1.0000
  H   H70       1.0  0.51041  0.65571  0.12766  1.0000
  H   H71       1.0  0.30649  0.44178  0.01802  1.0000
  H   H72       1.0  0.10995  0.55018  0.86025  1.0000
  H   H73       1.0  0.28733  0.55981  0.08719  1.0000
  H   H74       1.0  0.30812  0.44171  0.79294  1.0000
  H   H75       1.0  0.23403  0.78258  0.15774  1.0000
  H   H76       1.0  0.48537  0.21827  0.72300  1.0000
  H   H77       1.0  0.22277  0.43140  0.93942  1.0000
  H   H78       1.0  0.15839  0.90261  0.27299  1.0000
  H   H79       1.0  0.36039  0.94157  0.55617  1.0000
  H   H80       1.0  0.48584  0.95636  0.65383  1.0000
  H   H81       1.0  0.16994  0.84337  0.25358  1.0000
  H   H82       1.0  0.35363  0.94195  0.51790  1.0000
  H   H83       1.0  0.50634  0.89969  0.67487  1.0000
  H   H84       1.0  0.29267  0.05842  0.58698  1.0000
  H   H85       1.0  0.30476  0.94263  0.29291  1.0000
  H   H86       1.0  0.24143  0.28175  0.65799  1.0000
  H   H87       1.0  0.47026  0.71940  0.22325  1.0000
  H   H88       1.0  0.22205  0.93078  0.43934  1.0000
  H   H89       1.0  0.76177  0.49814  0.85228  1.0000
  H   H90       1.0  0.69281  0.49521  0.26203  1.0000
  H   H91       1.0  0.76437  0.99786  0.35158  1.0000
  H   H92       1.0  0.70699  0.99578  0.76212  1.0000
  H   H93       1.0  0.29214  0.50064  0.14524  1.0000
  H   H94       1.0  0.35173  0.50286  0.73513  1.0000
  H   H95       1.0  0.29194  0.99959  0.64521  1.0000
  H   H96       1.0  0.34828  0.00344  0.23507  1.0000
  C   C1        1.0  0.59606  0.39565  0.23695  1.0000
  C   C2        1.0  0.68934  0.52572  0.16583  1.0000
  C   C3        1.0  0.85004  0.42643  0.84894  1.0000
  C   C4        1.0  0.61607  0.56789  0.26551  1.0000
  C   C5        1.0  0.59080  0.36191  0.24745  1.0000
  C   C6        1.0  0.70657  0.52625  0.14403  1.0000
  C   C7        1.0  0.83480  0.39359  0.83741  1.0000
  C   C8        1.0  0.61338  0.60121  0.27656  1.0000
  C   C9        1.0  0.75900  0.66756  0.81019  1.0000
  C   C10       1.0  0.64385  0.32111  0.29914  1.0000
  C   C11       1.0  0.81283  0.52994  0.01744  1.0000
  C   C12       1.0  0.78119  0.46483  0.09845  1.0000
  C   C13       1.0  0.77083  0.29536  0.84257  1.0000
  C   C14       1.0  0.65506  0.70091  0.27071  1.0000
  C   C15       1.0  0.73142  0.70699  0.80467  1.0000
  C   C16       1.0  0.66540  0.28139  0.30416  1.0000
  C   C17       1.0  0.80226  0.51667  0.03947  1.0000
  C   C18       1.0  0.78427  0.47786  0.07627  1.0000
  C   C19       1.0  0.74239  0.26768  0.82534  1.0000
  C   C20       1.0  0.67145  0.72862  0.28815  1.0000
  C   C21       1.0  0.75774  0.53239  0.90223  1.0000
  C   C22       1.0  0.72597  0.46288  0.21183  1.0000
  C   C23       1.0  0.75603  0.53232  0.88012  1.0000
  C   C24       1.0  0.70835  0.46214  0.23382  1.0000
  C   C25       1.0  0.69892  0.42644  0.24507  1.0000
  C   C26       1.0  0.68941  0.35864  0.26629  1.0000
  C   C27       1.0  0.62758  0.76271  0.82275  1.0000
  C   C28       1.0  0.75187  0.22499  0.28557  1.0000
  C   C29       1.0  0.76377  0.45746  0.05771  1.0000
  C   C30       1.0  0.77343  0.96434  0.44775  1.0000
  C   C31       1.0  0.63070  0.06803  0.76605  1.0000
  C   C32       1.0  0.77826  0.96330  0.46962  1.0000
  C   C33       1.0  0.62698  0.10122  0.77726  1.0000
  C   C34       1.0  0.75034  0.16770  0.31025  1.0000
  C   C35       1.0  0.63499  0.82019  0.79848  1.0000
  C   C36       1.0  0.80632  0.02802  0.51697  1.0000
  C   C37       1.0  0.78785  0.96341  0.59814  1.0000
  C   C38       1.0  0.74731  0.79403  0.34258  1.0000
  C   C39       1.0  0.65232  0.20115  0.77154  1.0000
  C   C40       1.0  0.72756  0.20733  0.30494  1.0000
  C   C41       1.0  0.65876  0.78059  0.80360  1.0000
  C   C42       1.0  0.79985  0.01474  0.53900  1.0000
  C   C43       1.0  0.79234  0.97629  0.57592  1.0000
  C   C44       1.0  0.72578  0.76654  0.32514  1.0000
  C   C45       1.0  0.67173  0.22910  0.78886  1.0000
  C   C46       1.0  0.76304  0.03134  0.40172  1.0000
  C   C47       1.0  0.73797  0.96335  0.71194  1.0000
  C   C48       1.0  0.76109  0.03167  0.37961  1.0000
  C   C49       1.0  0.72159  0.96261  0.73396  1.0000
  C   C50       1.0  0.64269  0.26383  0.32353  1.0000
  C   C51       1.0  0.76340  0.72497  0.78553  1.0000
  C   C52       1.0  0.78357  0.95552  0.55739  1.0000
  C   C53       1.0  0.65363  0.39916  0.87632  1.0000
  C   C54       1.0  0.80274  0.59726  0.23814  1.0000
  C   C55       1.0  0.85736  0.46933  0.16705  1.0000
  C   C56       1.0  0.79598  0.42252  0.26409  1.0000
  C   C57       1.0  0.63780  0.36622  0.86490  1.0000
  C   C58       1.0  0.80034  0.63078  0.24895  1.0000
  C   C59       1.0  0.87305  0.46924  0.14517  1.0000
  C   C60       1.0  0.79209  0.38894  0.27467  1.0000
  C   C61       1.0  0.65175  0.32537  0.81296  1.0000
  C   C62       1.0  0.75435  0.67077  0.30110  1.0000
  C   C63       1.0  0.74783  0.46593  0.01705  1.0000
  C   C64       1.0  0.81984  0.52958  0.09856  1.0000
  C   C65       1.0  0.65268  0.69850  0.84032  1.0000
  C   C66       1.0  0.73370  0.29005  0.26822  1.0000
  C   C67       1.0  0.67164  0.28540  0.80763  1.0000
  C   C68       1.0  0.72927  0.71046  0.30633  1.0000
  C   C69       1.0  0.77204  0.47834  0.03927  1.0000
  C   C70       1.0  0.80901  0.51647  0.07641  1.0000
  C   C71       1.0  0.66655  0.72530  0.82265  1.0000
  C   C72       1.0  0.71859  0.26273  0.28577  1.0000
  C   C73       1.0  0.76601  0.46596  0.90236  1.0000
  C   C74       1.0  0.73199  0.52957  0.21241  1.0000
  C   C75       1.0  0.76535  0.46509  0.88029  1.0000
  C   C76       1.0  0.71501  0.52976  0.23443  1.0000
  C   C77       1.0  0.75950  0.42973  0.86856  1.0000
  C   C78       1.0  0.71099  0.56518  0.24614  1.0000
  C   C79       1.0  0.72866  0.36352  0.84545  1.0000
  C   C80       1.0  0.70584  0.63267  0.26823  1.0000
  C   C81       1.0  0.77920  0.23016  0.82550  1.0000
  C   C82       1.0  0.63902  0.76640  0.28777  1.0000
  C   C83       1.0  0.82001  0.53720  0.05806  1.0000
  C   C84       1.0  0.80370  0.09853  0.73805  1.0000
  C   C85       1.0  0.77651  0.03028  0.44853  1.0000
  C   C86       1.0  0.79996  0.13193  0.74902  1.0000
  C   C87       1.0  0.77904  0.03006  0.47042  1.0000
  C   C88       1.0  0.65570  0.82496  0.31200  1.0000
  C   C89       1.0  0.76757  0.17184  0.80145  1.0000
  C   C90       1.0  0.77063  0.96333  0.51659  1.0000
  C   C91       1.0  0.81246  0.02842  0.59810  1.0000
  C   C92       1.0  0.66796  0.19957  0.34115  1.0000
  C   C93       1.0  0.74534  0.79000  0.76825  1.0000
  C   C94       1.0  0.66962  0.78480  0.30692  1.0000
  C   C95       1.0  0.74149  0.21149  0.80664  1.0000
  C   C96       1.0  0.78643  0.97620  0.53885  1.0000
  C   C97       1.0  0.80376  0.01504  0.57597  1.0000
  C   C98       1.0  0.67600  0.22616  0.32331  1.0000
  C   C99       1.0  0.72454  0.76246  0.78560  1.0000
  C   C100      1.0  0.77412  0.96497  0.40149  1.0000
  C   C101      1.0  0.74046  0.03006  0.71242  1.0000
  C   C102      1.0  0.77018  0.96443  0.37944  1.0000
  C   C103      1.0  0.72545  0.03036  0.73449  1.0000
  C   C104      1.0  0.71968  0.06583  0.74627  1.0000
  C   C105      1.0  0.71211  0.13325  0.76872  1.0000
  C   C106      1.0  0.75739  0.72878  0.32549  1.0000
  C   C107      1.0  0.63325  0.26667  0.78874  1.0000
  C   C108      1.0  0.80790  0.03559  0.55754  1.0000
  C   C109      1.0  0.27854  0.53347  0.04893  1.0000
  C   C110      1.0  0.36211  0.47174  0.83126  1.0000
  C   C111      1.0  0.20626  0.57260  0.14876  1.0000
  C   C112      1.0  0.27258  0.53407  0.02705  1.0000
  C   C113      1.0  0.34845  0.47132  0.85310  1.0000
  C   C114      1.0  0.22176  0.60528  0.16045  1.0000
  C   C115      1.0  0.30034  0.33073  0.18654  1.0000
  C   C116      1.0  0.41477  0.67692  0.69854  1.0000
  C   C117      1.0  0.24384  0.46907  0.98010  1.0000
  C   C118      1.0  0.27561  0.53323  0.89864  1.0000
  C   C119      1.0  0.29234  0.70334  0.15516  1.0000
  C   C120      1.0  0.41955  0.29781  0.72580  1.0000
  C   C121      1.0  0.32661  0.29126  0.19204  1.0000
  C   C122      1.0  0.39665  0.71672  0.69350  1.0000
  C   C123      1.0  0.25465  0.48210  0.95798  1.0000
  C   C124      1.0  0.27151  0.52059  0.92093  1.0000
  C   C125      1.0  0.31784  0.73138  0.17227  1.0000
  C   C126      1.0  0.39801  0.26945  0.70868  1.0000
  C   C127      1.0  0.30090  0.46711  0.09515  1.0000
  C   C128      1.0  0.31874  0.53459  0.78543  1.0000
  C   C129      1.0  0.30075  0.46678  0.11726  1.0000
  C   C130      1.0  0.33560  0.53553  0.76343  1.0000
  C   C131      1.0  0.43430  0.23577  0.17404  1.0000
  C   C132      1.0  0.31003  0.77314  0.71208  1.0000
  C   C133      1.0  0.28791  0.54121  0.93946  1.0000
  C   C134      1.0  0.22375  0.89763  0.62275  1.0000
  C   C135      1.0  0.25950  0.03126  0.54901  1.0000
  C   C136      1.0  0.42901  0.93107  0.23149  1.0000
  C   C137      1.0  0.23537  0.86549  0.63460  1.0000
  C   C138      1.0  0.25631  0.03194  0.52712  1.0000
  C   C139      1.0  0.43350  0.89788  0.22032  1.0000
  C   C140      1.0  0.31516  0.83052  0.68747  1.0000
  C   C141      1.0  0.42181  0.17788  0.19795  1.0000
  C   C142      1.0  0.25195  0.96811  0.48017  1.0000
  C   C143      1.0  0.28579  0.03302  0.39894  1.0000
  C   C144      1.0  0.30096  0.20272  0.65503  1.0000
  C   C145      1.0  0.39910  0.79849  0.22604  1.0000
  C   C146      1.0  0.33705  0.79088  0.69278  1.0000
  C   C147      1.0  0.39919  0.21760  0.19301  1.0000
  C   C148      1.0  0.26232  0.98120  0.45806  1.0000
  C   C149      1.0  0.28335  0.01996  0.42115  1.0000
  C   C150      1.0  0.32812  0.23049  0.67224  1.0000
  C   C151      1.0  0.38246  0.77042  0.20876  1.0000
  C   C152      1.0  0.29845  0.96570  0.59520  1.0000
  C   C153      1.0  0.31745  0.03555  0.28534  1.0000
  C   C154      1.0  0.29961  0.96560  0.61732  1.0000
  C   C155      1.0  0.33360  0.03644  0.26331  1.0000
  C   C156      1.0  0.31202  0.93103  0.62948  1.0000
  C   C157      1.0  0.33681  0.86628  0.65343  1.0000
  C   C158      1.0  0.42205  0.73435  0.67419  1.0000
  C   C159      1.0  0.29040  0.27294  0.21101  1.0000
  C   C160      1.0  0.30371  0.04032  0.43972  1.0000
  C   C161      1.0  0.40817  0.59969  0.12184  1.0000
  C   C162      1.0  0.30134  0.46785  0.04841  1.0000
  C   C163      1.0  0.19316  0.52804  0.83031  1.0000
  C   C164      1.0  0.42450  0.63245  0.13342  1.0000
  C   C165      1.0  0.29761  0.46768  0.02651  1.0000
  C   C166      1.0  0.18093  0.52820  0.85220  1.0000
  C   C167      1.0  0.40226  0.67376  0.18538  1.0000
  C   C168      1.0  0.30134  0.32647  0.69582  1.0000
  C   C169      1.0  0.30284  0.53335  0.98016  1.0000
  C   C170      1.0  0.24260  0.46831  0.89894  1.0000
  C   C171      1.0  0.41128  0.29994  0.15651  1.0000
  C   C172      1.0  0.32061  0.70798  0.72922  1.0000
  C   C173      1.0  0.38312  0.71385  0.19032  1.0000
  C   C174      1.0  0.32942  0.28687  0.69075  1.0000
  C   C175      1.0  0.28054  0.52051  0.95800  1.0000
  C   C176      1.0  0.25092  0.48190  0.92100  1.0000
  C   C177      1.0  0.39490  0.27314  0.17417  1.0000
  C   C178      1.0  0.34175  0.73537  0.71181  1.0000
  C   C179      1.0  0.29240  0.53353  0.09529  1.0000
  C   C180      1.0  0.31457  0.46789  0.78463  1.0000
  C   C181      1.0  0.29213  0.53406  0.11737  1.0000
  C   C182      1.0  0.33109  0.46788  0.76259  1.0000
  C   C183      1.0  0.29905  0.56928  0.12928  1.0000
  C   C184      1.0  0.33120  0.63518  0.15273  1.0000
  C   C185      1.0  0.28379  0.76902  0.17178  1.0000
  C   C186      1.0  0.43334  0.23174  0.70901  1.0000
  C   C187      1.0  0.24070  0.46138  0.93943  1.0000
  C   C188      1.0  0.23853  0.90136  0.25843  1.0000
  C   C189      1.0  0.32860  0.96722  0.54839  1.0000
  C   C190      1.0  0.41237  0.93117  0.64851  1.0000
  C   C191      1.0  0.24276  0.86798  0.24749  1.0000
  C   C192      1.0  0.32684  0.96718  0.52647  1.0000
  C   C193      1.0  0.42585  0.89920  0.66039  1.0000
  C   C194      1.0  0.41192  0.17267  0.68507  1.0000
  C   C195      1.0  0.29304  0.82772  0.19559  1.0000
  C   C196      1.0  0.31480  0.03222  0.48040  1.0000
  C   C197      1.0  0.24609  0.96826  0.39887  1.0000
  C   C198      1.0  0.39821  0.79862  0.65664  1.0000
  C   C199      1.0  0.30274  0.20744  0.22796  1.0000
  C   C200      1.0  0.39494  0.21281  0.69016  1.0000
  C   C201      1.0  0.31797  0.78792  0.19066  1.0000
  C   C202      1.0  0.29353  0.01952  0.45819  1.0000
  C   C203      1.0  0.25709  0.98136  0.42105  1.0000
  C   C204      1.0  0.38960  0.77205  0.67446  1.0000
  C   C205      1.0  0.32902  0.23543  0.21089  1.0000
  C   C206      1.0  0.29390  0.03222  0.59522  1.0000
  C   C207      1.0  0.31151  0.96883  0.28462  1.0000
  C   C208      1.0  0.29183  0.03295  0.61730  1.0000
  C   C209      1.0  0.32683  0.96880  0.26258  1.0000
  C   C210      1.0  0.33152  0.93352  0.25072  1.0000
  C   C211      1.0  0.34029  0.86632  0.22839  1.0000
  C   C212      1.0  0.29338  0.26809  0.67190  1.0000
  C   C213      1.0  0.41880  0.73280  0.20920  1.0000
  C   C214      1.0  0.24440  0.96069  0.43944  1.0000
  C   C215      1.0  0.76226  0.49849  0.86938  1.0000
  C   C216      1.0  0.70428  0.49571  0.24495  1.0000
  C   C217      1.0  0.76348  0.49936  0.91375  1.0000
  C   C218      1.0  0.73979  0.49647  0.20092  1.0000
  C   C219      1.0  0.76260  0.49714  0.17780  1.0000
  C   C220      1.0  0.79578  0.49762  0.13357  1.0000
  C   C221      1.0  0.76645  0.99798  0.36868  1.0000
  C   C222      1.0  0.71736  0.99627  0.74503  1.0000
  C   C223      1.0  0.77081  0.99813  0.41307  1.0000
  C   C224      1.0  0.74913  0.99689  0.70094  1.0000
  C   C225      1.0  0.77346  0.99764  0.43642  1.0000
  C   C226      1.0  0.78098  0.99639  0.48134  1.0000
  C   C227      1.0  0.29335  0.50048  0.12814  1.0000
  C   C228      1.0  0.34005  0.50207  0.75220  1.0000
  C   C229      1.0  0.29500  0.50030  0.08376  1.0000
  C   C230      1.0  0.30632  0.50089  0.79623  1.0000
  C   C231      1.0  0.29216  0.50052  0.06038  1.0000
  C   C232      1.0  0.28644  0.50020  0.81939  1.0000
  C   C233      1.0  0.28227  0.50097  0.01550  1.0000
  C   C234      1.0  0.26052  0.49993  0.86370  1.0000
  C   C235      1.0  0.29279  0.99939  0.62811  1.0000
  C   C236      1.0  0.33706  0.00290  0.25215  1.0000
  C   C237      1.0  0.29530  0.99888  0.58376  1.0000
  C   C238      1.0  0.30518  0.00188  0.29621  1.0000
  C   C239      1.0  0.29479  0.99906  0.56039  1.0000
  C   C240      1.0  0.29002  0.99970  0.51556  1.0000
  N   N1        1.0  0.71345  0.66448  0.83192  1.0000
  N   N2        1.0  0.68567  0.32442  0.27729  1.0000
  N   N3        1.0  0.71544  0.16488  0.33228  1.0000
  N   N4        1.0  0.68932  0.82410  0.77702  1.0000
  N   N5        1.0  0.71635  0.32950  0.83404  1.0000
  N   N6        1.0  0.70414  0.66676  0.27953  1.0000
  N   N7        1.0  0.70659  0.82867  0.33357  1.0000
  N   N8        1.0  0.70950  0.16731  0.78014  1.0000
  N   N9        1.0  0.34975  0.33398  0.16487  1.0000
  N   N10       1.0  0.36967  0.67357  0.72030  1.0000
  N   N11       1.0  0.34977  0.83330  0.66544  1.0000
  N   N12       1.0  0.36433  0.17373  0.21928  1.0000
  N   N13       1.0  0.34308  0.66925  0.16412  1.0000
  N   N14       1.0  0.36013  0.33133  0.71705  1.0000
  N   N15       1.0  0.35059  0.16844  0.66384  1.0000
  N   N16       1.0  0.34481  0.83223  0.21710  1.0000
  N   N17       1.0  0.77770  0.49822  0.00434  1.0000
  N   N18       1.0  0.80339  0.49730  0.11121  1.0000
  N   N19       1.0  0.78633  0.99588  0.50379  1.0000
  N   N20       1.0  0.80128  0.99612  0.61089  1.0000
  N   N21       1.0  0.27621  0.50116  0.99307  1.0000
  N   N22       1.0  0.25585  0.50043  0.88608  1.0000
  N   N23       1.0  0.28595  0.00003  0.49315  1.0000
  N   N24       1.0  0.26199  0.00056  0.38620  1.0000
  O   O1        1.0  0.60006  0.70370  0.85833  1.0000
  O   O2        1.0  0.77916  0.28510  0.24990  1.0000
  O   O3        1.0  0.70554  0.43487  0.01071  1.0000
  O   O4        1.0  0.83789  0.56144  0.10485  1.0000
  O   O5        1.0  0.59226  0.34998  0.80212  1.0000
  O   O6        1.0  0.80867  0.64628  0.31236  1.0000
  O   O7        1.0  0.62929  0.20540  0.35956  1.0000
  O   O8        1.0  0.79982  0.78523  0.75024  1.0000
  O   O9        1.0  0.74414  0.93160  0.51038  1.0000
  O   O10       1.0  0.82741  0.06043  0.60427  1.0000
  O   O11       1.0  0.61047  0.85001  0.30056  1.0000
  O   O12       1.0  0.82796  0.14791  0.81267  1.0000
  O   O13       1.0  0.82891  0.29070  0.86034  1.0000
  O   O14       1.0  0.60969  0.70556  0.25243  1.0000
  O   O15       1.0  0.84823  0.56147  0.01158  1.0000
  O   O16       1.0  0.76262  0.43317  0.10481  1.0000
  O   O17       1.0  0.80925  0.64250  0.79881  1.0000
  O   O18       1.0  0.60052  0.34608  0.31096  1.0000
  O   O19       1.0  0.79087  0.78887  0.36084  1.0000
  O   O20       1.0  0.59985  0.20544  0.75348  1.0000
  O   O21       1.0  0.82828  0.06001  0.51122  1.0000
  O   O22       1.0  0.77310  0.93161  0.60437  1.0000
  O   O23       1.0  0.78993  0.14242  0.29845  1.0000
  O   O24       1.0  0.58062  0.84464  0.80998  1.0000
  O   O25       1.0  0.46570  0.29458  0.13858  1.0000
  O   O26       1.0  0.26871  0.71302  0.74730  1.0000
  O   O27       1.0  0.34175  0.56474  0.98623  1.0000
  O   O28       1.0  0.22846  0.43622  0.89294  1.0000
  O   O29       1.0  0.45692  0.64946  0.19677  1.0000
  O   O30       1.0  0.23866  0.35020  0.68462  1.0000
  O   O31       1.0  0.43779  0.79272  0.63826  1.0000
  O   O32       1.0  0.23924  0.21134  0.24566  1.0000
  O   O33       1.0  0.35279  0.06346  0.48673  1.0000
  O   O34       1.0  0.22846  0.93641  0.39254  1.0000
  O   O35       1.0  0.46651  0.14806  0.69625  1.0000
  O   O36       1.0  0.23848  0.85186  0.18411  1.0000
  O   O37       1.0  0.23816  0.70755  0.13719  1.0000
  O   O38       1.0  0.47588  0.29431  0.74378  1.0000
  O   O39       1.0  0.20989  0.43755  0.98613  1.0000
  O   O40       1.0  0.29389  0.56478  0.89208  1.0000
  O   O41       1.0  0.24805  0.35564  0.19789  1.0000
  O   O42       1.0  0.45759  0.65184  0.68679  1.0000
  O   O43       1.0  0.24715  0.20741  0.63708  1.0000
  O   O44       1.0  0.44751  0.79444  0.24427  1.0000
  O   O45       1.0  0.21848  0.93671  0.48635  1.0000
  O   O46       1.0  0.30420  0.06470  0.39259  1.0000
  O   O47       1.0  0.27647  0.85578  0.69934  1.0000
  O   O48       1.0  0.47636  0.15359  0.18635  1.0000
  C   C241      1.0  0.85629  0.10931  0.37367  1.0000
  C   C242      1.0  0.76585  0.07484  0.37041  1.0000
  C  Sn1       1.0  0.65483  0.06850  0.35259  1.0000
  C  Sn2       1.0  0.63429  0.09726  0.33779  1.0000
  C   C243      1.0  0.72546  0.13164  0.34120  1.0000
  C   C244      1.0  0.83617  0.13769  0.35908  1.0000
  H   H97       1.0  0.94204  0.11398  0.38750  1.0000
  O  Te1       1.0  0.56539  0.03390  0.34957  1.0000
  O  Te2       1.0  0.52422  0.09167  0.31985  1.0000
  H   H98       1.0  0.90628  0.16437  0.36160  1.0000
  Mg  Mg1       1.0  0.43037  0.03975  0.32270  1.0000
  C   C245      1.0  0.36367  0.96683  0.34798  1.0000
  C   C246      1.0  0.29044  0.99281  0.36179  1.0000
  C  Sn3       1.0  0.00268  0.02372  0.35395  1.0000
  C  Sn4       1.0  0.98883  0.02863  0.33187  1.0000
  C   C247      1.0  0.26311  0.00247  0.31818  1.0000
  C   C248      1.0  0.35000  0.97165  0.32620  1.0000
  H   H99       1.0  0.43081  0.94297  0.35418  1.0000
  O  Te3       1.0  0.93034  0.04941  0.36798  1.0000
  O  Te4       1.0  0.90246  0.05927  0.32361  1.0000
  H   H100      1.0  0.40658  0.95153  0.31550  1.0000
  Mg  Mg2       1.0  0.82543  0.08664  0.34910  1.0000
  C   C249      1.0  0.44675  0.42555  0.72638  1.0000
  C   C250      1.0  0.35525  0.43328  0.74530  1.0000
  C  Sn5       1.0  0.26332  0.40491  0.75659  1.0000
  C  Sn6       1.0  0.26328  0.36813  0.74875  1.0000
  C   C251      1.0  0.35534  0.36067  0.72982  1.0000
  C   C252      1.0  0.44684  0.38928  0.71864  1.0000
  H   H101      1.0  0.51764  0.44768  0.71774  1.0000
  O  Te5       1.0  0.17253  0.41312  0.77546  1.0000
  O  Te6       1.0  0.17255  0.33924  0.75972  1.0000
  H   H102      1.0  0.51778  0.38328  0.70400  1.0000
  Mg  Mg3       1.0  0.06841  0.36432  0.78470  1.0000
  C   C253      1.0  0.86618  0.91952  0.34351  1.0000
  C   C254      1.0  0.77816  0.92971  0.36225  1.0000
  C  Sn7       1.0  0.66119  0.90428  0.37297  1.0000
  C  Sn8       1.0  0.63212  0.86799  0.36476  1.0000
  C   C255      1.0  0.72092  0.85805  0.34602  1.0000
  C   C256      1.0  0.83764  0.88372  0.33541  1.0000
  H   H103      1.0  0.95657  0.93937  0.33531  1.0000
  O  Te7       1.0  0.57429  0.91493  0.39166  1.0000
  O  Te8       1.0  0.51598  0.84202  0.37517  1.0000
  H   H104      1.0  0.90586  0.87582  0.32091  1.0000
  Mg  Mg4       1.0  0.42866  0.86968  0.40009  1.0000
  C   C257      1.0  0.24366  0.59921  0.72264  1.0000
  C   C258      1.0  0.32865  0.63295  0.72881  1.0000
  C  Sn9       1.0  0.43461  0.63540  0.74724  1.0000
  C  Sn10      1.0  0.45566  0.60342  0.75969  1.0000
  C   C259      1.0  0.37018  0.56979  0.75337  1.0000
  C   C260      1.0  0.26441  0.56765  0.73490  1.0000
  H   H105      1.0  0.16190  0.59755  0.70834  1.0000
  O  Te9       1.0  0.51852  0.66933  0.75319  1.0000
  O  Te10      1.0  0.56085  0.60509  0.77818  1.0000
  H   H106      1.0  0.19872  0.54152  0.73012  1.0000
  Mg  Mg5       1.0  0.64808  0.65762  0.77970  1.0000
  C   C261      1.0  0.85014  0.60989  0.87388  1.0000
  C   C262      1.0  0.76136  0.57526  0.87062  1.0000
  C  Sn11      1.0  0.65305  0.56853  0.85264  1.0000
  C  Sn12      1.0  0.63356  0.59705  0.83767  1.0000
  C   C263      1.0  0.72306  0.63159  0.84107  1.0000
  C   C264      1.0  0.83106  0.63803  0.85912  1.0000
  H   H107      1.0  0.93379  0.61487  0.88785  1.0000
  O  Te11      1.0  0.56524  0.53377  0.84962  1.0000
  O  Te12      1.0  0.52620  0.59107  0.81955  1.0000
  H   H108      1.0  0.89988  0.66484  0.86164  1.0000
  Mg  Mg6       1.0  0.43377  0.53906  0.82247  1.0000
  C   C265      1.0  0.59697  0.88593  0.73654  1.0000
  C   C266      1.0  0.67557  0.91997  0.74316  1.0000
  C  Sn13      1.0  0.77792  0.92259  0.76184  1.0000
  C  Sn14      1.0  0.80183  0.89048  0.77409  1.0000
  C   C267      1.0  0.72276  0.85655  0.76732  1.0000
  C   C268      1.0  0.62055  0.85424  0.74861  1.0000
  H   H109      1.0  0.51798  0.88414  0.72205  1.0000
  O  Te13      1.0  0.85544  0.95683  0.76823  1.0000
  O  Te14      1.0  0.90353  0.89231  0.79282  1.0000
  H   H110      1.0  0.55982  0.82787  0.74348  1.0000
  Mg  Mg7       1.0  0.98221  0.94525  0.79493  1.0000
  C   C269      1.0  0.75230  0.53730  0.96602  1.0000
  C   C270      1.0  0.75740  0.50747  0.97984  1.0000
  C  Sn15      1.0  0.77603  0.47163  0.97205  1.0000
  C  Sn16      1.0  0.78984  0.46563  0.95001  1.0000
  C   C271      1.0  0.78474  0.49567  0.93631  1.0000
  C   C272      1.0  0.76599  0.53141  0.94427  1.0000
  H   H111      1.0  0.73790  0.56497  0.97218  1.0000
  O  Te15      1.0  0.78081  0.44214  0.98608  1.0000
  O  Te16      1.0  0.80864  0.43010  0.94180  1.0000
  H   H112      1.0  0.76218  0.55451  0.93356  1.0000
  Mg  Mg8       1.0  0.80819  0.39883  0.96728  1.0000
  C   C273      1.0  0.42101  0.10881  0.62149  1.0000
  C   C274      1.0  0.33578  0.07495  0.62726  1.0000
  C  Sn17      1.0  0.23631  0.07172  0.64619  1.0000
  C  Sn18      1.0  0.22211  0.10303  0.65956  1.0000
  C   C275      1.0  0.30776  0.13680  0.65364  1.0000
  C   C276      1.0  0.40700  0.13971  0.63466  1.0000
  H   H113      1.0  0.49772  0.11108  0.60680  1.0000
  O  Te17      1.0  0.15207  0.03768  0.65172  1.0000
  O  Te18      1.0  0.12348  0.10058  0.67857  1.0000
  H   H114      1.0  0.47287  0.16594  0.63019  1.0000
  Mg  Mg9       1.0  0.03296  0.04820  0.67922  1.0000
  C   C277      1.0  0.42254  0.42771  0.15363  1.0000
  C   C278      1.0  0.34618  0.43258  0.13366  1.0000
  C  Sn19      1.0  0.25208  0.40312  0.12341  1.0000
  C  Sn20      1.0  0.23426  0.36818  0.13338  1.0000
  C   C279      1.0  0.31102  0.36360  0.15337  1.0000
  C   C280      1.0  0.40496  0.39326  0.16348  1.0000
  H   H115      1.0  0.49513  0.45065  0.16146  1.0000
  O  Te19      1.0  0.17669  0.40846  0.10346  1.0000
  O  Te20      1.0  0.14084  0.33828  0.12349  1.0000
  H   H116      1.0  0.46396  0.38948  0.17895  1.0000
  Mg  Mg10      1.0  0.06201  0.35929  0.09636  1.0000
  C   C281      1.0  0.46468  0.11271  0.25980  1.0000
  C   C282      1.0  0.36381  0.07990  0.25501  1.0000
  C  Sn21      1.0  0.26019  0.07680  0.23643  1.0000
  C  Sn22      1.0  0.25783  0.10715  0.22241  1.0000
  C   C283      1.0  0.35932  0.13984  0.22734  1.0000
  C   C284      1.0  0.46248  0.14265  0.24598  1.0000
  H   H117      1.0  0.54459  0.11488  0.27421  1.0000
  O  Te21      1.0  0.16016  0.04382  0.23190  1.0000
  O  Te22      1.0  0.15550  0.10479  0.20373  1.0000
  H   H118      1.0  0.54066  0.16805  0.24967  1.0000
  Mg  Mg11      1.0  0.04175  0.05405  0.20450  1.0000
  C   C285      1.0  0.68797  0.03054  0.66058  1.0000
  C   C286      1.0  0.93970  0.00372  0.67497  1.0000
  C  Sn23      1.0  0.03498  0.97287  0.66813  1.0000
  C  Sn24      1.0  0.07985  0.96889  0.64646  1.0000
  C   C287      1.0  0.02828  0.99589  0.63219  1.0000
  C   C288      1.0  0.73223  0.02664  0.63921  1.0000
  H   H119      1.0  0.61427  0.05435  0.66601  1.0000
  O  Te23      1.0  0.08487  0.94633  0.68272  1.0000
  O  Te24      1.0  0.17506  0.93833  0.63920  1.0000
  H   H120      1.0  0.69283  0.04742  0.62806  1.0000
  Mg  Mg12      1.0  0.21313  0.90958  0.66515  1.0000
