data_image0
_chemical_formula_structural       H24C120N32O48SnCSn2CSnTe4Mg2SnCSn2CSnTe4Mg2SnCSn2CSnTe4Mg2SnCSn2CSnTe4Mg2SnCSn2CSnTe4Mg2SnCSn2CSnTe4Mg2SnCSn2CSnTe4Mg2SnCSn2CSnTe4Mg2SnCSn2CSnTe4Mg2SnCSn2CSnTe4Mg2SnCSn2CSnTe4Mg2SnCSn2CSnTe4Mg2SnCSn2CSnTe4Mg2SnCSn2CSnTe4Mg2SnCSn2CSnTe4Mg2SnCSn2CSnTe4Mg2SnCSn2CSnTe4Mg2SnCSn2CSnTe4Mg2SnCSn2CSnTe4Mg2SnCSn2CSnTe4Mg2SnCSn2CSnTe4Mg2SnCSn2CSnTe4Mg2SnCSn2CSnTe4Mg2SnCSn2CSnTe4Mg2
_chemical_formula_sum              "H24 C168 N32 O48 Sn96 Te96 Mg48"
_cell_length_a       7.82431
_cell_length_b       31.2498
_cell_length_c       54.1495
_cell_angle_alpha    89.5733
_cell_angle_beta     91.6455
_cell_angle_gamma    84.374

_symmetry_space_group_name_H-M    'P1'
_space_group_IT_number       1

loop_
  _space_group_symop_operation_xyz
  'x, y, z'

loop_
  _atom_site_type_symbol
  _atom_site_label
  _atom_site_symmetry_multiplicity
  _atom_site_fract_x
  _atom_site_fract_y
  _atom_site_fract_z
  _atom_site_occupancy
  H   H1        1.0  0.78957  0.58412  0.93916  1.0000
  H   H2        1.0  0.86709  0.70829  0.23150  1.0000
  H   H3        1.0  0.39996  0.71099  0.34784  1.0000
  H   H4        1.0  0.76697  0.08346  0.43935  1.0000
  H   H5        1.0  0.83722  0.20793  0.73184  1.0000
  H   H6        1.0  0.40281  0.21412  0.84570  1.0000
  H   H7        1.0  0.71322  0.42473  0.93997  1.0000
  H   H8        1.0  0.61703  0.29116  0.22597  1.0000
  H   H9        1.0  0.21994  0.28954  0.35221  1.0000
  H   H10       1.0  0.71541  0.92280  0.44035  1.0000
  H   H11       1.0  0.58394  0.78889  0.72559  1.0000
  H   H12       1.0  0.23237  0.79217  0.85267  1.0000
  H   H13       1.0  0.21979  0.41638  0.06150  1.0000
  H   H14       1.0  0.18551  0.29448  0.76728  1.0000
  H   H15       1.0  0.57361  0.28741  0.65562  1.0000
  H   H16       1.0  0.20884  0.91672  0.56155  1.0000
  H   H17       1.0  0.19878  0.79184  0.26885  1.0000
  H   H18       1.0  0.57379  0.78727  0.15713  1.0000
  H   H19       1.0  0.27855  0.57674  0.06037  1.0000
  H   H20       1.0  0.36589  0.71062  0.77359  1.0000
  H   H21       1.0  0.82491  0.71107  0.65020  1.0000
  H   H22       1.0  0.27501  0.07671  0.56031  1.0000
  H   H23       1.0  0.39028  0.20848  0.27430  1.0000
  H   H24       1.0  0.79110  0.20973  0.14835  1.0000
  C   C1        1.0  0.71953  0.46864  0.98734  1.0000
  C   C2        1.0  0.22676  0.46053  0.10887  1.0000
  C   C3        1.0  0.67017  0.69501  0.15257  1.0000
  C   C4        1.0  0.26947  0.69765  0.26650  1.0000
  C   C5        1.0  0.66717  0.34159  0.18150  1.0000
  C   C6        1.0  0.26662  0.34018  0.30752  1.0000
  C   C7        1.0  0.73704  0.48279  0.96133  1.0000
  C   C8        1.0  0.23825  0.47485  0.08279  1.0000
  C   C9        1.0  0.68554  0.72606  0.17307  1.0000
  C   C10       1.0  0.28248  0.72986  0.28654  1.0000
  C   C11       1.0  0.68242  0.29453  0.18713  1.0000
  C   C12       1.0  0.28065  0.29309  0.31317  1.0000
  C   C13       1.0  0.77224  0.54998  0.93929  1.0000
  C   C14       1.0  0.80106  0.72500  0.21572  1.0000
  C   C15       1.0  0.35886  0.72842  0.33088  1.0000
  C   C16       1.0  0.71378  0.96708  0.48757  1.0000
  C   C17       1.0  0.21978  0.96088  0.60893  1.0000
  C   C18       1.0  0.66717  0.19505  0.65164  1.0000
  C   C19       1.0  0.26252  0.20058  0.76463  1.0000
  C   C20       1.0  0.65232  0.84094  0.68263  1.0000
  C   C21       1.0  0.25660  0.84243  0.80732  1.0000
  C   C22       1.0  0.72977  0.98139  0.46159  1.0000
  C   C23       1.0  0.23105  0.97510  0.58283  1.0000
  C   C24       1.0  0.67761  0.22615  0.67222  1.0000
  C   C25       1.0  0.27607  0.23282  0.78471  1.0000
  C   C26       1.0  0.67365  0.79383  0.68796  1.0000
  C   C27       1.0  0.27406  0.79542  0.81302  1.0000
  C   C28       1.0  0.75497  0.04906  0.43956  1.0000
  C   C29       1.0  0.77818  0.22485  0.71563  1.0000
  C   C30       1.0  0.35819  0.23146  0.82885  1.0000
  C   C31       1.0  0.77746  0.54102  0.98721  1.0000
  C   C32       1.0  0.25531  0.53470  0.10826  1.0000
  C   C33       1.0  0.74661  0.30408  0.14536  1.0000
  C   C34       1.0  0.33921  0.30261  0.27132  1.0000
  C   C35       1.0  0.80093  0.65763  0.18720  1.0000
  C   C36       1.0  0.36518  0.66092  0.30317  1.0000
  C   C37       1.0  0.76042  0.52669  0.96115  1.0000
  C   C38       1.0  0.25246  0.51917  0.08243  1.0000
  C   C39       1.0  0.72983  0.27210  0.16558  1.0000
  C   C40       1.0  0.32574  0.27063  0.29159  1.0000
  C   C41       1.0  0.76517  0.70406  0.19371  1.0000
  C   C42       1.0  0.33836  0.70777  0.30840  1.0000
  C   C43       1.0  0.72976  0.45889  0.93978  1.0000
  C   C44       1.0  0.65781  0.27380  0.20948  1.0000
  C   C45       1.0  0.25502  0.27221  0.33545  1.0000
  C   C46       1.0  0.75939  0.04026  0.48742  1.0000
  C   C47       1.0  0.25485  0.03477  0.60824  1.0000
  C   C48       1.0  0.75827  0.80506  0.64730  1.0000
  C   C49       1.0  0.31536  0.80485  0.77063  1.0000
  C   C50       1.0  0.78524  0.15765  0.68699  1.0000
  C   C51       1.0  0.36381  0.16389  0.80110  1.0000
  C   C52       1.0  0.74590  0.02563  0.46140  1.0000
  C   C53       1.0  0.24785  0.01930  0.58242  1.0000
  C   C54       1.0  0.73848  0.77237  0.66699  1.0000
  C   C55       1.0  0.30959  0.77287  0.79114  1.0000
  C   C56       1.0  0.74932  0.20407  0.69334  1.0000
  C   C57       1.0  0.33610  0.21074  0.80644  1.0000
  C   C58       1.0  0.72667  0.95723  0.44008  1.0000
  C   C59       1.0  0.63902  0.77233  0.70963  1.0000
  C   C60       1.0  0.25953  0.77475  0.83567  1.0000
  C   C61       1.0  0.28097  0.53197  0.01304  1.0000
  C   C62       1.0  0.77672  0.54030  0.89158  1.0000
  C   C63       1.0  0.32200  0.30719  0.84864  1.0000
  C   C64       1.0  0.74413  0.30142  0.73542  1.0000
  C   C65       1.0  0.33022  0.66037  0.81889  1.0000
  C   C66       1.0  0.76803  0.65923  0.69407  1.0000
  C   C67       1.0  0.26297  0.51817  0.03912  1.0000
  C   C68       1.0  0.76376  0.52615  0.91770  1.0000
  C   C69       1.0  0.31672  0.27587  0.82810  1.0000
  C   C70       1.0  0.72879  0.26906  0.71543  1.0000
  C   C71       1.0  0.31761  0.70734  0.81310  1.0000
  C   C72       1.0  0.74242  0.70623  0.68823  1.0000
  C   C73       1.0  0.23336  0.45072  0.06130  1.0000
  C   C74       1.0  0.23501  0.27736  0.78398  1.0000
  C   C75       1.0  0.62832  0.27020  0.67200  1.0000
  C   C76       1.0  0.27233  0.03201  0.51301  1.0000
  C   C77       1.0  0.76361  0.03949  0.39206  1.0000
  C   C78       1.0  0.32483  0.80438  0.35054  1.0000
  C   C79       1.0  0.77090  0.80155  0.23561  1.0000
  C   C80       1.0  0.33456  0.15787  0.31862  1.0000
  C   C81       1.0  0.75035  0.15954  0.19330  1.0000
  C   C82       1.0  0.25496  0.01827  0.53910  1.0000
  C   C83       1.0  0.75106  0.02494  0.41805  1.0000
  C   C84       1.0  0.32072  0.77292  0.33001  1.0000
  C   C85       1.0  0.75012  0.76915  0.21578  1.0000
  C   C86       1.0  0.32321  0.20494  0.31307  1.0000
  C   C87       1.0  0.73197  0.20653  0.18743  1.0000
  C   C88       1.0  0.22400  0.95098  0.56136  1.0000
  C   C89       1.0  0.24500  0.77449  0.28563  1.0000
  C   C90       1.0  0.63464  0.77005  0.17311  1.0000
  C   C91       1.0  0.22818  0.45926  0.01353  1.0000
  C   C92       1.0  0.73718  0.46672  0.89213  1.0000
  C   C93       1.0  0.27084  0.69851  0.85553  1.0000
  C   C94       1.0  0.65890  0.69550  0.72899  1.0000
  C   C95       1.0  0.22740  0.34489  0.81230  1.0000
  C   C96       1.0  0.62116  0.33727  0.69989  1.0000
  C   C97       1.0  0.24378  0.47405  0.03946  1.0000
  C   C98       1.0  0.74401  0.48206  0.91798  1.0000
  C   C99       1.0  0.28181  0.72996  0.83495  1.0000
  C   C100      1.0  0.67674  0.72781  0.70909  1.0000
  C   C101      1.0  0.25826  0.29819  0.80640  1.0000
  C   C102      1.0  0.65598  0.29075  0.69429  1.0000
  C   C103      1.0  0.26590  0.54237  0.06061  1.0000
  C   C104      1.0  0.33382  0.72801  0.79044  1.0000
  C   C105      1.0  0.77480  0.72777  0.66643  1.0000
  C   C106      1.0  0.21893  0.95936  0.51357  1.0000
  C   C107      1.0  0.73347  0.96538  0.39232  1.0000
  C   C108      1.0  0.25650  0.19551  0.35472  1.0000
  C   C109      1.0  0.67552  0.19718  0.22943  1.0000
  C   C110      1.0  0.23920  0.84205  0.31374  1.0000
  C   C111      1.0  0.63522  0.83724  0.20083  1.0000
  C   C112      1.0  0.23450  0.97422  0.53949  1.0000
  C   C113      1.0  0.73787  0.98055  0.41825  1.0000
  C   C114      1.0  0.27682  0.22739  0.33464  1.0000
  C   C115      1.0  0.68582  0.22901  0.20896  1.0000
  C   C116      1.0  0.26717  0.79526  0.30808  1.0000
  C   C117      1.0  0.66925  0.79072  0.19513  1.0000
  C   C118      1.0  0.26055  0.04244  0.56057  1.0000
  C   C119      1.0  0.35039  0.22579  0.29086  1.0000
  C   C120      1.0  0.75525  0.22727  0.16502  1.0000
  N   N1        1.0  0.74254  0.65467  0.16230  1.0000
  N   N2        1.0  0.32043  0.65688  0.27767  1.0000
  N   N3        1.0  0.73649  0.15471  0.66168  1.0000
  N   N4        1.0  0.31596  0.16001  0.77576  1.0000
  N   N5        1.0  0.71000  0.34508  0.15636  1.0000
  N   N6        1.0  0.30173  0.34359  0.28199  1.0000
  N   N7        1.0  0.70561  0.84548  0.65806  1.0000
  N   N8        1.0  0.28347  0.84588  0.78153  1.0000
  N   N9        1.0  0.26376  0.34795  0.83798  1.0000
  N   N10       1.0  0.67734  0.34154  0.72483  1.0000
  N   N11       1.0  0.27096  0.84508  0.33953  1.0000
  N   N12       1.0  0.69970  0.84161  0.22537  1.0000
  N   N13       1.0  0.29993  0.65721  0.84457  1.0000
  N   N14       1.0  0.71407  0.65511  0.71879  1.0000
  N   N15       1.0  0.29179  0.15445  0.34375  1.0000
  N   N16       1.0  0.71197  0.15616  0.21872  1.0000
  N   N17       1.0  0.74200  0.50305  0.10637  1.0000
  N   N18       1.0  0.74809  0.50488  0.00210  1.0000
  N   N19       1.0  0.74138  0.00193  0.60676  1.0000
  N   N20       1.0  0.73590  0.00372  0.50239  1.0000
  N   N21       1.0  0.25324  0.49947  0.89422  1.0000
  N   N22       1.0  0.25445  0.49538  0.99844  1.0000
  N   N23       1.0  0.24218  0.99796  0.39431  1.0000
  N   N24       1.0  0.24530  0.99541  0.49846  1.0000
  N   N25       1.0  0.29089  0.49926  0.22782  1.0000
  N   N26       1.0  0.24048  0.49786  0.12349  1.0000
  N   N27       1.0  0.27851  0.00152  0.72768  1.0000
  N   N28       1.0  0.23595  0.99819  0.62348  1.0000
  N   N29       1.0  0.71138  0.50020  0.77289  1.0000
  N   N30       1.0  0.75800  0.50322  0.87703  1.0000
  N   N31       1.0  0.71681  0.00119  0.27308  1.0000
  N   N32       1.0  0.74991  0.00235  0.37732  1.0000
  O   O1        1.0  0.81579  0.57558  0.99486  1.0000
  O   O2        1.0  0.26800  0.57130  0.11528  1.0000
  O   O3        1.0  0.86566  0.62764  0.20001  1.0000
  O   O4        1.0  0.41515  0.63171  0.31744  1.0000
  O   O5        1.0  0.78348  0.29817  0.12386  1.0000
  O   O6        1.0  0.37404  0.29628  0.24973  1.0000
  O   O7        1.0  0.79108  0.07546  0.49492  1.0000
  O   O8        1.0  0.27454  0.07105  0.61526  1.0000
  O   O9        1.0  0.84273  0.12755  0.70025  1.0000
  O   O10       1.0  0.41592  0.13430  0.81502  1.0000
  O   O11       1.0  0.80814  0.80012  0.62631  1.0000
  O   O12       1.0  0.34121  0.79851  0.74875  1.0000
  O   O13       1.0  0.68353  0.43384  0.99495  1.0000
  O   O14       1.0  0.20799  0.42444  0.11645  1.0000
  O   O15       1.0  0.62649  0.37173  0.19509  1.0000
  O   O16       1.0  0.23276  0.37023  0.32132  1.0000
  O   O17       1.0  0.60947  0.70143  0.13174  1.0000
  O   O18       1.0  0.22399  0.70370  0.24489  1.0000
  O   O19       1.0  0.68319  0.93175  0.49504  1.0000
  O   O20       1.0  0.19980  0.92489  0.61655  1.0000
  O   O21       1.0  0.60087  0.87021  0.69619  1.0000
  O   O22       1.0  0.22534  0.87238  0.82131  1.0000
  O   O23       1.0  0.61108  0.20140  0.63056  1.0000
  O   O24       1.0  0.21529  0.20632  0.74307  1.0000
  O   O25       1.0  0.19248  0.42428  0.00623  1.0000
  O   O26       1.0  0.71655  0.43064  0.88490  1.0000
  O   O27       1.0  0.18209  0.37506  0.79837  1.0000
  O   O28       1.0  0.55828  0.36621  0.68628  1.0000
  O   O29       1.0  0.24215  0.70550  0.87722  1.0000
  O   O30       1.0  0.60932  0.70134  0.75000  1.0000
  O   O31       1.0  0.18384  0.92432  0.50627  1.0000
  O   O32       1.0  0.71749  0.92910  0.38496  1.0000
  O   O33       1.0  0.19927  0.87238  0.29969  1.0000
  O   O34       1.0  0.56722  0.86609  0.18757  1.0000
  O   O35       1.0  0.21732  0.20159  0.37612  1.0000
  O   O36       1.0  0.64443  0.20367  0.25114  1.0000
  O   O37       1.0  0.31609  0.56672  0.00521  1.0000
  O   O38       1.0  0.80028  0.57589  0.88372  1.0000
  O   O39       1.0  0.35894  0.63004  0.80499  1.0000
  O   O40       1.0  0.82426  0.62979  0.68108  1.0000
  O   O41       1.0  0.36648  0.30067  0.87019  1.0000
  O   O42       1.0  0.80216  0.29618  0.75650  1.0000
  O   O43       1.0  0.30732  0.06674  0.50514  1.0000
  O   O44       1.0  0.78363  0.07558  0.38463  1.0000
  O   O45       1.0  0.37224  0.12772  0.30493  1.0000
  O   O46       1.0  0.79091  0.12952  0.17976  1.0000
  O   O47       1.0  0.36520  0.79817  0.37227  1.0000
  O   O48       1.0  0.83527  0.79631  0.25633  1.0000
  C  Sn1       1.0  0.71932  0.54890  0.04668  1.0000
  C   C121      1.0  0.78183  0.51603  0.03101  1.0000
  C  Sn2       1.0  0.81643  0.47393  0.03993  1.0000
  C  Sn3       1.0  0.78785  0.46447  0.06505  1.0000
  C   C122      1.0  0.72535  0.49732  0.08071  1.0000
  C  Sn4       1.0  0.69074  0.53943  0.07180  1.0000
  O  Te1       1.0  0.68561  0.59076  0.03736  1.0000
  O  Te2       1.0  0.87891  0.44162  0.02391  1.0000
  O  Te3       1.0  0.82162  0.42256  0.07436  1.0000
  O  Te4       1.0  0.62827  0.57173  0.08781  1.0000
  Mg  Mg1       1.0  0.90529  0.38959  0.04530  1.0000
  Mg  Mg2       1.0  0.60176  0.62376  0.06643  1.0000
  C  Sn5       1.0  0.32361  0.45575  0.16841  1.0000
  C   C123      1.0  0.22955  0.48536  0.15255  1.0000
  C  Sn6       1.0  0.16560  0.52562  0.16119  1.0000
  C  Sn7       1.0  0.19638  0.53655  0.18619  1.0000
  C   C124      1.0  0.29040  0.50696  0.20203  1.0000
  C  Sn8       1.0  0.35439  0.46668  0.19341  1.0000
  O  Te5       1.0  0.38633  0.41568  0.15938  1.0000
  O  Te6       1.0  0.07187  0.55468  0.14498  1.0000
  O  Te7       1.0  0.13355  0.57666  0.19521  1.0000
  O  Te8       1.0  0.44808  0.43764  0.20960  1.0000
  Mg  Mg3       1.0  0.01317  0.60528  0.16599  1.0000
  Mg  Mg4       1.0  0.50692  0.38704  0.18861  1.0000
  C  Sn9       1.0  0.68373  0.56850  0.15835  1.0000
  C   C125      1.0  0.76817  0.60495  0.15362  1.0000
  C  Sn10      1.0  0.83408  0.61159  0.13035  1.0000
  C  Sn11      1.0  0.81510  0.58117  0.11140  1.0000
  C   C126      1.0  0.73068  0.54475  0.11613  1.0000
  C  Sn12      1.0  0.66475  0.53808  0.13940  1.0000
  O  Te9       1.0  0.61884  0.56251  0.18175  1.0000
  O  Te10      1.0  0.91806  0.64828  0.12606  1.0000
  O  Te11      1.0  0.88008  0.58718  0.08799  1.0000
  O  Te12      1.0  0.58079  0.50142  0.14369  1.0000
  Mg  Mg5       1.0  0.98427  0.64217  0.09116  1.0000
  Mg  Mg6       1.0  0.51445  0.50751  0.17858  1.0000
  C  Sn13      1.0  0.36946  0.60714  0.23543  1.0000
  C   C127      1.0  0.29179  0.62022  0.25741  1.0000
  C  Sn14      1.0  0.22688  0.59019  0.27294  1.0000
  C  Sn15      1.0  0.23997  0.54617  0.26637  1.0000
  C   C128      1.0  0.31763  0.53311  0.24440  1.0000
  C  Sn16      1.0  0.38255  0.56311  0.22886  1.0000
  O  Te13      1.0  0.43347  0.63771  0.22019  1.0000
  O  Te14      1.0  0.14972  0.60404  0.29481  1.0000
  O  Te15      1.0  0.17587  0.51559  0.28163  1.0000
  O  Te16      1.0  0.45970  0.54928  0.20700  1.0000
  Mg  Mg7       1.0  0.08200  0.55022  0.30949  1.0000
  Mg  Mg8       1.0  0.52754  0.60307  0.19232  1.0000
  C  Sn17      1.0  0.58441  0.42827  0.11426  1.0000
  C   C129      1.0  0.68190  0.46187  0.12070  1.0000
  C  Sn18      1.0  0.81581  0.45537  0.13836  1.0000
  C  Sn19      1.0  0.85314  0.41442  0.14981  1.0000
  C   C130      1.0  0.75570  0.38085  0.14337  1.0000
  C  Sn20      1.0  0.62174  0.38732  0.12571  1.0000
  O  Te17      1.0  0.45115  0.43550  0.09656  1.0000
  O  Te18      1.0  0.91144  0.48945  0.14450  1.0000
  O  Te19      1.0  0.98652  0.40721  0.16753  1.0000
  O  Te20      1.0  0.52616  0.35327  0.11957  1.0000
  Mg  Mg9       1.0  0.08017  0.46370  0.16967  1.0000
  Mg  Mg10      1.0  0.35747  0.37897  0.09439  1.0000
  C  Sn21      1.0  0.22841  0.39115  0.23869  1.0000
  C   C131      1.0  0.31832  0.37957  0.26079  1.0000
  C  Sn22      1.0  0.38812  0.41075  0.27524  1.0000
  C  Sn23      1.0  0.36754  0.45443  0.26745  1.0000
  C   C132      1.0  0.27766  0.46600  0.24536  1.0000
  C  Sn24      1.0  0.20783  0.43484  0.23090  1.0000
  O  Te21      1.0  0.15970  0.35944  0.22454  1.0000
  O  Te22      1.0  0.47753  0.39839  0.29725  1.0000
  O  Te23      1.0  0.43635  0.48615  0.28162  1.0000
  O  Te24      1.0  0.11844  0.44718  0.20890  1.0000
  Mg  Mg11      1.0  0.54745  0.45337  0.31016  1.0000
  Mg  Mg12      1.0  0.04840  0.39223  0.19598  1.0000
  C  Sn25      1.0  0.71088  0.04750  0.54707  1.0000
  C   C133      1.0  0.77139  0.01465  0.53124  1.0000
  C  Sn26      1.0  0.41498  0.97251  0.54009  1.0000
  C  Sn27      1.0  0.38900  0.96299  0.56527  1.0000
  C   C134      1.0  0.72004  0.99582  0.58108  1.0000
  C  Sn28      1.0  0.68490  0.03797  0.57225  1.0000
  O  Te25      1.0  0.67660  0.08939  0.53783  1.0000
  O  Te26      1.0  0.47543  0.94022  0.52392  1.0000
  O  Te27      1.0  0.42335  0.92105  0.57451  1.0000
  O  Te28      1.0  0.62446  0.07025  0.58841  1.0000
  Mg  Mg13      1.0  0.50358  0.88813  0.54525  1.0000
  Mg  Mg14      1.0  0.59619  0.12234  0.56710  1.0000
  C  Sn29      1.0  0.11290  0.02837  0.68311  1.0000
  C   C135      1.0  0.21037  0.99991  0.69924  1.0000
  C  Sn30      1.0  0.95130  0.97143  0.69037  1.0000
  C  Sn31      1.0  0.98719  0.97142  0.66485  1.0000
  C   C136      1.0  0.28132  0.99987  0.64873  1.0000
  C  Sn32      1.0  0.14879  0.02836  0.65759  1.0000
  O  Te29      1.0  0.98109  0.05657  0.69239  1.0000
  O  Te30      1.0  0.04694  0.94326  0.70686  1.0000
  O  Te31      1.0  0.11913  0.94319  0.65558  1.0000
  O  Te32      1.0  0.05321  0.05652  0.64112  1.0000
  Mg  Mg15      1.0  0.21340  0.91095  0.68534  1.0000
  Mg  Mg16      1.0  0.88679  0.08886  0.66262  1.0000
  C  Sn33      1.0  0.68043  0.06844  0.65819  1.0000
  C   C137      1.0  0.76411  0.10492  0.65322  1.0000
  C  Sn34      1.0  0.83016  0.11117  0.62992  1.0000
  C  Sn35      1.0  0.81212  0.08032  0.61118  1.0000
  C   C138      1.0  0.72847  0.04386  0.61615  1.0000
  C  Sn36      1.0  0.66239  0.03759  0.63946  1.0000
  O  Te33      1.0  0.61539  0.06285  0.68162  1.0000
  O  Te34      1.0  0.91335  0.14789  0.62539  1.0000
  O  Te35      1.0  0.87726  0.08593  0.58774  1.0000
  O  Te36      1.0  0.57922  0.00089  0.64399  1.0000
  Mg  Mg17      1.0  0.98015  0.14115  0.59054  1.0000
  Mg  Mg18      1.0  0.51230  0.00762  0.67882  1.0000
  C  Sn37      1.0  0.24370  0.07471  0.77642  1.0000
  C   C139      1.0  0.33236  0.10921  0.76918  1.0000
  C  Sn38      1.0  0.39160  0.11162  0.74516  1.0000
  C  Sn39      1.0  0.36151  0.07888  0.72803  1.0000
  C   C140      1.0  0.27288  0.04442  0.73527  1.0000
  C  Sn40      1.0  0.21361  0.04198  0.75929  1.0000
  O  Te37      1.0  0.18563  0.07296  0.80052  1.0000
  O  Te38      1.0  0.47997  0.14641  0.73835  1.0000
  O  Te39      1.0  0.41967  0.08066  0.70391  1.0000
  O  Te40      1.0  0.12526  0.00722  0.76610  1.0000
  Mg  Mg19      1.0  0.53363  0.13447  0.70342  1.0000
  Mg  Mg20      1.0  0.07147  0.01913  0.80103  1.0000
  C  Sn41      1.0  0.87016  0.94155  0.64237  1.0000
  C   C141      1.0  0.78447  0.95555  0.62033  1.0000
  C  Sn42      1.0  0.64400  0.93531  0.61142  1.0000
  C  Sn43      1.0  0.58793  0.90037  0.62481  1.0000
  C   C142      1.0  0.67357  0.88638  0.64683  1.0000
  C  Sn44      1.0  0.81408  0.90660  0.65576  1.0000
  O  Te41      1.0  0.01028  0.96226  0.65093  1.0000
  O  Te42      1.0  0.56043  0.94988  0.58935  1.0000
  O  Te43      1.0  0.44769  0.87966  0.61623  1.0000
  O  Te44      1.0  0.89761  0.89205  0.67782  1.0000
  Mg  Mg21      1.0  0.37585  0.91125  0.58524  1.0000
  Mg  Mg22      1.0  0.08214  0.93067  0.68195  1.0000
  C  Sn45      1.0  0.20901  0.89409  0.73852  1.0000
  C   C143      1.0  0.29942  0.88200  0.76050  1.0000
  C  Sn46      1.0  0.37165  0.91276  0.77499  1.0000
  C  Sn47      1.0  0.35305  0.95652  0.76736  1.0000
  C   C144      1.0  0.26266  0.96860  0.74539  1.0000
  C  Sn48      1.0  0.19040  0.93786  0.73088  1.0000
  O  Te45      1.0  0.13786  0.86280  0.72432  1.0000
  O  Te46      1.0  0.46153  0.89989  0.79689  1.0000
  O  Te47      1.0  0.81584  0.98782  0.78157  1.0000
  O  Te48      1.0  0.10055  0.95070  0.70900  1.0000
  Mg  Mg23      1.0  0.53508  0.95443  0.80992  1.0000
  Mg  Mg24      1.0  0.02687  0.89620  0.69597  1.0000
  C  Sn49      1.0  0.27783  0.45277  0.93876  1.0000
  C   C145      1.0  0.21922  0.48672  0.92278  1.0000
  C  Sn50      1.0  0.18658  0.52841  0.93178  1.0000
  C  Sn51      1.0  0.21318  0.53633  0.95729  1.0000
  C   C146      1.0  0.27178  0.50240  0.97326  1.0000
  C  Sn52      1.0  0.30443  0.46070  0.96427  1.0000
  O  Te49      1.0  0.30964  0.41136  0.92935  1.0000
  O  Te50      1.0  0.12799  0.56183  0.91545  1.0000
  O  Te51      1.0  0.18131  0.57779  0.96669  1.0000
  O  Te52      1.0  0.36301  0.42730  0.98059  1.0000
  Mg  Mg25      1.0  0.10295  0.61268  0.93711  1.0000
  Mg  Mg26      1.0  0.38818  0.37643  0.95895  1.0000
  C  Sn53      1.0  0.80050  0.45954  0.81797  1.0000
  C   C147      1.0  0.70771  0.48906  0.80193  1.0000
  C  Sn54      1.0  0.64380  0.52947  0.81038  1.0000
  C  Sn55      1.0  0.67334  0.54061  0.83538  1.0000
  C   C148      1.0  0.76610  0.51110  0.85140  1.0000
  C  Sn56      1.0  0.83004  0.47068  0.84297  1.0000
  O  Te53      1.0  0.86319  0.41934  0.80913  1.0000
  O  Te54      1.0  0.55135  0.55844  0.79400  1.0000
  O  Te55      1.0  0.61054  0.58085  0.84422  1.0000
  O  Te56      1.0  0.92246  0.44173  0.85933  1.0000
  Mg  Mg27      1.0  0.49215  0.60928  0.81480  1.0000
  Mg  Mg28      1.0  0.98179  0.39088  0.83855  1.0000
  C  Sn57      1.0  0.10854  0.40298  0.87283  1.0000
  C   C149      1.0  0.20094  0.39255  0.85164  1.0000
  C  Sn58      1.0  0.33650  0.41591  0.84514  1.0000
  C  Sn59      1.0  0.38073  0.45040  0.86014  1.0000
  C   C150      1.0  0.28839  0.46081  0.88132  1.0000
  C  Sn60      1.0  0.15277  0.43748  0.88784  1.0000
  O  Te57      1.0  0.97350  0.37919  0.87898  1.0000
  O  Te58      1.0  0.42695  0.40488  0.82386  1.0000
  O  Te59      1.0  0.51589  0.47419  0.85398  1.0000
  O  Te60      1.0  0.06237  0.44848  0.90910  1.0000
  Mg  Mg29      1.0  0.60066  0.44685  0.82322  1.0000
  Mg  Mg30      1.0  0.88871  0.40652  0.90977  1.0000
  C  Sn61      1.0  0.83398  0.41589  0.73292  1.0000
  C   C151      1.0  0.73475  0.38272  0.73899  1.0000
  C  Sn62      1.0  0.60022  0.38993  0.75533  1.0000
  C  Sn63      1.0  0.56403  0.43117  0.76581  1.0000
  C   C152      1.0  0.66321  0.46432  0.75974  1.0000
  C  Sn64      1.0  0.79780  0.45713  0.74341  1.0000
  O  Te61      1.0  0.96784  0.40796  0.71655  1.0000
  O  Te62      1.0  0.50283  0.35626  0.76112  1.0000
  O  Te63      1.0  0.43005  0.43908  0.78220  1.0000
  O  Te64      1.0  0.89512  0.49078  0.73761  1.0000
  Mg  Mg31      1.0  0.33391  0.38294  0.78435  1.0000
  Mg  Mg32      1.0  0.06401  0.46414  0.71437  1.0000
  C  Sn65      1.0  0.33839  0.58447  0.89432  1.0000
  C   C153      1.0  0.24442  0.55060  0.88717  1.0000
  C  Sn66      1.0  0.18014  0.54833  0.86293  1.0000
  C  Sn67      1.0  0.21051  0.58058  0.84547  1.0000
  C   C154      1.0  0.30444  0.61442  0.85262  1.0000
  C  Sn68      1.0  0.36875  0.61671  0.87686  1.0000
  O  Te65      1.0  0.40143  0.58608  0.91865  1.0000
  O  Te66      1.0  0.08651  0.51417  0.85622  1.0000
  O  Te67      1.0  0.14736  0.57893  0.82112  1.0000
  O  Te68      1.0  0.46235  0.65084  0.88357  1.0000
  Mg  Mg33      1.0  0.02726  0.52606  0.82088  1.0000
  Mg  Mg34      1.0  0.52174  0.63898  0.91890  1.0000
  C  Sn69      1.0  0.57157  0.57941  0.72876  1.0000
  C   C155      1.0  0.66547  0.61424  0.73396  1.0000
  C  Sn70      1.0  0.80232  0.60995  0.75122  1.0000
  C  Sn71      1.0  0.84632  0.57001  0.76355  1.0000
  C   C156      1.0  0.75247  0.53521  0.75835  1.0000
  C  Sn72      1.0  0.61557  0.53947  0.74109  1.0000
  O  Te69      1.0  0.43526  0.58442  0.71143  1.0000
  O  Te70      1.0  0.89427  0.64523  0.75612  1.0000
  O  Te71      1.0  0.98275  0.56502  0.78089  1.0000
  O  Te72      1.0  0.52367  0.50422  0.73619  1.0000
  Mg  Mg35      1.0  0.06933  0.62245  0.78123  1.0000
  Mg  Mg36      1.0  0.34865  0.52696  0.71107  1.0000
  C  Sn73      1.0  0.36449  0.96158  0.45428  1.0000
  C   C157      1.0  0.68489  0.99326  0.47007  1.0000
  C  Sn74      1.0  0.56812  0.02665  0.46087  1.0000
  C  Sn75      1.0  0.52138  0.02841  0.43536  1.0000
  C   C158      1.0  0.59248  0.99675  0.41958  1.0000
  C  Sn76      1.0  0.31775  0.96334  0.42877  1.0000
  O  Te73      1.0  0.48097  0.92849  0.46388  1.0000
  O  Te74      1.0  0.49875  0.05796  0.47702  1.0000
  O  Te75      1.0  0.40479  0.06154  0.42577  1.0000
  O  Te76      1.0  0.38707  0.93204  0.41263  1.0000
  Mg  Mg37      1.0  0.34523  0.09664  0.45514  1.0000
  Mg  Mg38      1.0  0.54053  0.89334  0.43450  1.0000
  C  Sn77      1.0  0.79975  0.95972  0.31806  1.0000
  C   C159      1.0  0.70934  0.98960  0.30199  1.0000
  C  Sn78      1.0  0.03546  0.02978  0.31058  1.0000
  C  Sn79      1.0  0.06101  0.04033  0.33576  1.0000
  C   C160      1.0  0.15139  0.01046  0.35182  1.0000
  C  Sn80      1.0  0.82530  0.97027  0.34324  1.0000
  O  Te77      1.0  0.86403  0.91974  0.30907  1.0000
  O  Te78      1.0  0.94544  0.05911  0.29416  1.0000
  O  Te79      1.0  0.99663  0.08034  0.34474  1.0000
  O  Te80      1.0  0.91529  0.94094  0.35965  1.0000
  Mg  Mg39      1.0  0.88272  0.10944  0.31520  1.0000
  Mg  Mg40      1.0  0.97814  0.89062  0.33863  1.0000
  C  Sn81      1.0  0.18503  0.91186  0.38986  1.0000
  C   C161      1.0  0.26584  0.94892  0.38521  1.0000
  C  Sn82      1.0  0.33554  0.95552  0.36219  1.0000
  C  Sn83      1.0  0.32413  0.92444  0.34341  1.0000
  C   C162      1.0  0.24333  0.88741  0.34806  1.0000
  C  Sn84      1.0  0.17362  0.88078  0.37108  1.0000
  O  Te81      1.0  0.11625  0.90592  0.41301  1.0000
  O  Te82      1.0  0.41577  0.99282  0.35799  1.0000
  O  Te83      1.0  0.39300  0.93041  0.32025  1.0000
  O  Te84      1.0  0.09341  0.84351  0.37529  1.0000
  Mg  Mg41      1.0  0.48967  0.98638  0.32344  1.0000
  Mg  Mg42      1.0  0.01938  0.84993  0.40983  1.0000
  C  Sn85      1.0  0.77472  0.94960  0.23177  1.0000
  C   C163      1.0  0.69122  0.96385  0.25310  1.0000
  C  Sn86      1.0  0.62040  0.93473  0.26857  1.0000
  C  Sn87      1.0  0.63339  0.89043  0.26261  1.0000
  C   C164      1.0  0.71687  0.87620  0.24130  1.0000
  C  Sn88      1.0  0.78771  0.90530  0.22581  1.0000
  O  Te85      1.0  0.84458  0.97928  0.21657  1.0000
  O  Te86      1.0  0.53749  0.94975  0.28979  1.0000
  O  Te87      1.0  0.56343  0.86075  0.27783  1.0000
  O  Te88      1.0  0.87060  0.89030  0.20460  1.0000
  Mg  Mg43      1.0  0.46301  0.89683  0.30468  1.0000
  Mg  Mg44      1.0  0.94520  0.94318  0.18971  1.0000
  C  Sn89      1.0  0.32526  0.08291  0.39389  1.0000
  C   C165      1.0  0.23288  0.04874  0.38676  1.0000
  C  Sn90      1.0  0.17182  0.04578  0.36240  1.0000
  C  Sn91      1.0  0.20385  0.07763  0.34478  1.0000
  C   C166      1.0  0.29621  0.11177  0.35191  1.0000
  C  Sn92      1.0  0.35730  0.11476  0.37627  1.0000
  O  Te89      1.0  0.38509  0.08523  0.41834  1.0000
  O  Te90      1.0  0.07971  0.01133  0.35572  1.0000
  O  Te91      1.0  0.14392  0.07529  0.32031  1.0000
  O  Te92      1.0  0.44937  0.14918  0.38295  1.0000
  Mg  Mg45      1.0  0.02486  0.02225  0.32017  1.0000
  Mg  Mg46      1.0  0.50436  0.13828  0.41849  1.0000
  C  Sn93      1.0  0.85904  0.09916  0.25469  1.0000
  C   C167      1.0  0.76747  0.11104  0.23276  1.0000
  C  Sn94      1.0  0.63261  0.08807  0.22458  1.0000
  C  Sn95      1.0  0.58826  0.05250  0.23861  1.0000
  C   C168      1.0  0.67977  0.04064  0.26053  1.0000
  C  Sn96      1.0  0.81468  0.06359  0.26872  1.0000
  O  Te93      1.0  0.99338  0.12258  0.26252  1.0000
  O  Te94      1.0  0.54299  0.10055  0.20260  1.0000
  O  Te95      1.0  0.45379  0.02907  0.23077  1.0000
  O  Te96      1.0  0.90425  0.05113  0.29069  1.0000
  Mg  Mg47      1.0  0.37002  0.05854  0.19962  1.0000
  Mg  Mg48      1.0  0.07717  0.09313  0.29370  1.0000
