data_image0
_chemical_formula_structural       H48C168N24O48SnCSn2CSnTe4Mg2SnCSn2CSnTe4Mg2SnCSn2CSnTe4Mg2SnCSn2CSnTe4Mg2SnCSn2CSnTe4Mg2SnCSn2CSnTe4Mg2SnCSn2CSnTe4Mg2SnCSn2CSnTe4Mg2SnCSn2CSnTe4Mg2SnCSn2CSnTe4Mg2SnCSn2CSnTe4Mg2SnCSn2CSnTe4Mg2SnCSn2CSnTe4Mg2SnCSn2CSnTe4Mg2SnCSn2CSnTe4Mg2SnCSn2CSnTe4Mg2SnCSn2CSnTe4Mg2SnCSn2CSnTe4Mg2SnCSn2CSnTe4Mg2SnCSn2CSnTe4Mg2SnCSn2CSnTe4Mg2SnCSn2CSnTe4Mg2SnCSn2CSnTe4Mg2SnCSn2CSnTe4Mg2
_chemical_formula_sum              "H48 C216 N24 O48 Sn96 Te96 Mg48"
_cell_length_a       7.14637
_cell_length_b       36.2077
_cell_length_c       63.4943
_cell_angle_alpha    90.336
_cell_angle_beta     89.7486
_cell_angle_gamma    92.2701

_symmetry_space_group_name_H-M    'P1'
_space_group_IT_number       1

loop_
  _space_group_symop_operation_xyz
  'x, y, z'

loop_
  _atom_site_type_symbol
  _atom_site_label
  _atom_site_symmetry_multiplicity
  _atom_site_fract_x
  _atom_site_fract_y
  _atom_site_fract_z
  _atom_site_occupancy
  H   H1        1.0  0.75000  0.55880  0.91036  1.0000
  H   H2        1.0  0.73089  0.43691  0.20318  1.0000
  H   H3        1.0  0.57897  0.77697  0.83676  1.0000
  H   H4        1.0  0.79616  0.21055  0.27142  1.0000
  H   H5        1.0  0.74204  0.42755  0.05762  1.0000
  H   H6        1.0  0.75276  0.05755  0.41000  1.0000
  H   H7        1.0  0.74335  0.93736  0.70332  1.0000
  H   H8        1.0  0.60333  0.27850  0.33779  1.0000
  H   H9        1.0  0.81677  0.71086  0.77170  1.0000
  H   H10       1.0  0.77377  0.92545  0.55732  1.0000
  H   H11       1.0  0.77083  0.43980  0.91057  1.0000
  H   H12       1.0  0.73942  0.55570  0.20405  1.0000
  H   H13       1.0  0.83359  0.21654  0.83929  1.0000
  H   H14       1.0  0.59369  0.78020  0.27356  1.0000
  H   H15       1.0  0.84110  0.56713  0.05820  1.0000
  H   H16       1.0  0.78293  0.93871  0.40953  1.0000
  H   H17       1.0  0.74552  0.05613  0.70399  1.0000
  H   H18       1.0  0.80123  0.71469  0.33963  1.0000
  H   H19       1.0  0.57926  0.28016  0.77485  1.0000
  H   H20       1.0  0.81749  0.06566  0.55751  1.0000
  H   H21       1.0  0.31044  0.44086  0.08691  1.0000
  H   H22       1.0  0.31384  0.56049  0.79414  1.0000
  H   H23       1.0  0.48650  0.22179  0.16011  1.0000
  H   H24       1.0  0.26484  0.78753  0.72621  1.0000
  H   H25       1.0  0.30611  0.57120  0.93960  1.0000
  H   H26       1.0  0.30402  0.93936  0.58697  1.0000
  H   H27       1.0  0.31342  0.06145  0.29406  1.0000
  H   H28       1.0  0.46199  0.71971  0.65994  1.0000
  H   H29       1.0  0.23338  0.28665  0.22479  1.0000
  H   H30       1.0  0.32576  0.07022  0.43989  1.0000
  H   H31       1.0  0.28733  0.55981  0.08719  1.0000
  H   H32       1.0  0.30812  0.44171  0.79294  1.0000
  H   H33       1.0  0.23403  0.78258  0.15774  1.0000
  H   H34       1.0  0.48537  0.21827  0.72300  1.0000
  H   H35       1.0  0.22277  0.43140  0.93942  1.0000
  H   H36       1.0  0.29267  0.05842  0.58698  1.0000
  H   H37       1.0  0.30476  0.94263  0.29291  1.0000
  H   H38       1.0  0.24143  0.28175  0.65799  1.0000
  H   H39       1.0  0.47026  0.71940  0.22325  1.0000
  H   H40       1.0  0.22205  0.93078  0.43934  1.0000
  H   H41       1.0  0.76177  0.49814  0.85228  1.0000
  H   H42       1.0  0.69281  0.49521  0.26203  1.0000
  H   H43       1.0  0.76437  0.99786  0.35158  1.0000
  H   H44       1.0  0.70699  0.99578  0.76212  1.0000
  H   H45       1.0  0.29214  0.50064  0.14524  1.0000
  H   H46       1.0  0.35173  0.50286  0.73513  1.0000
  H   H47       1.0  0.29194  0.99959  0.64521  1.0000
  H   H48       1.0  0.34828  0.00344  0.23507  1.0000
  C   C1        1.0  0.75900  0.66756  0.81019  1.0000
  C   C2        1.0  0.64385  0.32111  0.29914  1.0000
  C   C3        1.0  0.81283  0.52994  0.01744  1.0000
  C   C4        1.0  0.78119  0.46483  0.09845  1.0000
  C   C5        1.0  0.77083  0.29536  0.84257  1.0000
  C   C6        1.0  0.65506  0.70091  0.27071  1.0000
  C   C7        1.0  0.73142  0.70699  0.80467  1.0000
  C   C8        1.0  0.66540  0.28139  0.30416  1.0000
  C   C9        1.0  0.80226  0.51667  0.03947  1.0000
  C   C10       1.0  0.78427  0.47786  0.07627  1.0000
  C   C11       1.0  0.74239  0.26768  0.82534  1.0000
  C   C12       1.0  0.67145  0.72862  0.28815  1.0000
  C   C13       1.0  0.75774  0.53239  0.90223  1.0000
  C   C14       1.0  0.72597  0.46288  0.21183  1.0000
  C   C15       1.0  0.75603  0.53232  0.88012  1.0000
  C   C16       1.0  0.70835  0.46214  0.23382  1.0000
  C   C17       1.0  0.62758  0.76271  0.82275  1.0000
  C   C18       1.0  0.75187  0.22499  0.28557  1.0000
  C   C19       1.0  0.76377  0.45746  0.05771  1.0000
  C   C20       1.0  0.75034  0.16770  0.31025  1.0000
  C   C21       1.0  0.63499  0.82019  0.79848  1.0000
  C   C22       1.0  0.80632  0.02802  0.51697  1.0000
  C   C23       1.0  0.78785  0.96341  0.59814  1.0000
  C   C24       1.0  0.74731  0.79403  0.34258  1.0000
  C   C25       1.0  0.65232  0.20115  0.77154  1.0000
  C   C26       1.0  0.72756  0.20733  0.30494  1.0000
  C   C27       1.0  0.65876  0.78059  0.80360  1.0000
  C   C28       1.0  0.79985  0.01474  0.53900  1.0000
  C   C29       1.0  0.79234  0.97629  0.57592  1.0000
  C   C30       1.0  0.72578  0.76654  0.32514  1.0000
  C   C31       1.0  0.67173  0.22910  0.78886  1.0000
  C   C32       1.0  0.76304  0.03134  0.40172  1.0000
  C   C33       1.0  0.73797  0.96335  0.71194  1.0000
  C   C34       1.0  0.76109  0.03167  0.37961  1.0000
  C   C35       1.0  0.72159  0.96261  0.73396  1.0000
  C   C36       1.0  0.64269  0.26383  0.32353  1.0000
  C   C37       1.0  0.76340  0.72497  0.78553  1.0000
  C   C38       1.0  0.78357  0.95552  0.55739  1.0000
  C   C39       1.0  0.65175  0.32537  0.81296  1.0000
  C   C40       1.0  0.75435  0.67077  0.30110  1.0000
  C   C41       1.0  0.74783  0.46593  0.01705  1.0000
  C   C42       1.0  0.81984  0.52958  0.09856  1.0000
  C   C43       1.0  0.65268  0.69850  0.84032  1.0000
  C   C44       1.0  0.73370  0.29005  0.26822  1.0000
  C   C45       1.0  0.67164  0.28540  0.80763  1.0000
  C   C46       1.0  0.72927  0.71046  0.30633  1.0000
  C   C47       1.0  0.77204  0.47834  0.03927  1.0000
  C   C48       1.0  0.80901  0.51647  0.07641  1.0000
  C   C49       1.0  0.66655  0.72530  0.82265  1.0000
  C   C50       1.0  0.71859  0.26273  0.28577  1.0000
  C   C51       1.0  0.76601  0.46596  0.90236  1.0000
  C   C52       1.0  0.73199  0.52957  0.21241  1.0000
  C   C53       1.0  0.76535  0.46509  0.88029  1.0000
  C   C54       1.0  0.71501  0.52976  0.23443  1.0000
  C   C55       1.0  0.77920  0.23016  0.82550  1.0000
  C   C56       1.0  0.63902  0.76640  0.28777  1.0000
  C   C57       1.0  0.82001  0.53720  0.05806  1.0000
  C   C58       1.0  0.65570  0.82496  0.31200  1.0000
  C   C59       1.0  0.76757  0.17184  0.80145  1.0000
  C   C60       1.0  0.77063  0.96333  0.51659  1.0000
  C   C61       1.0  0.81246  0.02842  0.59810  1.0000
  C   C62       1.0  0.66796  0.19957  0.34115  1.0000
  C   C63       1.0  0.74534  0.79000  0.76825  1.0000
  C   C64       1.0  0.66962  0.78480  0.30692  1.0000
  C   C65       1.0  0.74149  0.21149  0.80664  1.0000
  C   C66       1.0  0.78643  0.97620  0.53885  1.0000
  C   C67       1.0  0.80376  0.01504  0.57597  1.0000
  C   C68       1.0  0.67600  0.22616  0.32331  1.0000
  C   C69       1.0  0.72454  0.76246  0.78560  1.0000
  C   C70       1.0  0.77412  0.96497  0.40149  1.0000
  C   C71       1.0  0.74046  0.03006  0.71242  1.0000
  C   C72       1.0  0.77018  0.96443  0.37944  1.0000
  C   C73       1.0  0.72545  0.03036  0.73449  1.0000
  C   C74       1.0  0.75739  0.72878  0.32549  1.0000
  C   C75       1.0  0.63325  0.26667  0.78874  1.0000
  C   C76       1.0  0.80790  0.03559  0.55754  1.0000
  C   C77       1.0  0.30034  0.33073  0.18654  1.0000
  C   C78       1.0  0.41477  0.67692  0.69854  1.0000
  C   C79       1.0  0.24384  0.46907  0.98010  1.0000
  C   C80       1.0  0.27561  0.53323  0.89864  1.0000
  C   C81       1.0  0.29234  0.70334  0.15516  1.0000
  C   C82       1.0  0.41955  0.29781  0.72580  1.0000
  C   C83       1.0  0.32661  0.29126  0.19204  1.0000
  C   C84       1.0  0.39665  0.71672  0.69350  1.0000
  C   C85       1.0  0.25465  0.48210  0.95798  1.0000
  C   C86       1.0  0.27151  0.52059  0.92093  1.0000
  C   C87       1.0  0.31784  0.73138  0.17227  1.0000
  C   C88       1.0  0.39801  0.26945  0.70868  1.0000
  C   C89       1.0  0.30090  0.46711  0.09515  1.0000
  C   C90       1.0  0.31874  0.53459  0.78543  1.0000
  C   C91       1.0  0.30075  0.46678  0.11726  1.0000
  C   C92       1.0  0.33560  0.53553  0.76343  1.0000
  C   C93       1.0  0.43430  0.23577  0.17404  1.0000
  C   C94       1.0  0.31003  0.77314  0.71208  1.0000
  C   C95       1.0  0.28791  0.54121  0.93946  1.0000
  C   C96       1.0  0.31516  0.83052  0.68747  1.0000
  C   C97       1.0  0.42181  0.17788  0.19795  1.0000
  C   C98       1.0  0.25195  0.96811  0.48017  1.0000
  C   C99       1.0  0.28579  0.03302  0.39894  1.0000
  C   C100      1.0  0.30096  0.20272  0.65503  1.0000
  C   C101      1.0  0.39910  0.79849  0.22604  1.0000
  C   C102      1.0  0.33705  0.79088  0.69278  1.0000
  C   C103      1.0  0.39919  0.21760  0.19301  1.0000
  C   C104      1.0  0.26232  0.98120  0.45806  1.0000
  C   C105      1.0  0.28335  0.01996  0.42115  1.0000
  C   C106      1.0  0.32812  0.23049  0.67224  1.0000
  C   C107      1.0  0.38246  0.77042  0.20876  1.0000
  C   C108      1.0  0.29845  0.96570  0.59520  1.0000
  C   C109      1.0  0.31745  0.03555  0.28534  1.0000
  C   C110      1.0  0.29961  0.96560  0.61732  1.0000
  C   C111      1.0  0.33360  0.03644  0.26331  1.0000
  C   C112      1.0  0.42205  0.73435  0.67419  1.0000
  C   C113      1.0  0.29040  0.27294  0.21101  1.0000
  C   C114      1.0  0.30371  0.04032  0.43972  1.0000
  C   C115      1.0  0.40226  0.67376  0.18538  1.0000
  C   C116      1.0  0.30134  0.32647  0.69582  1.0000
  C   C117      1.0  0.30284  0.53335  0.98016  1.0000
  C   C118      1.0  0.24260  0.46831  0.89894  1.0000
  C   C119      1.0  0.41128  0.29994  0.15651  1.0000
  C   C120      1.0  0.32061  0.70798  0.72922  1.0000
  C   C121      1.0  0.38312  0.71385  0.19032  1.0000
  C   C122      1.0  0.32942  0.28687  0.69075  1.0000
  C   C123      1.0  0.28054  0.52051  0.95800  1.0000
  C   C124      1.0  0.25092  0.48190  0.92100  1.0000
  C   C125      1.0  0.39490  0.27314  0.17417  1.0000
  C   C126      1.0  0.34175  0.73537  0.71181  1.0000
  C   C127      1.0  0.29240  0.53353  0.09529  1.0000
  C   C128      1.0  0.31457  0.46789  0.78463  1.0000
  C   C129      1.0  0.29213  0.53406  0.11737  1.0000
  C   C130      1.0  0.33109  0.46788  0.76259  1.0000
  C   C131      1.0  0.28379  0.76902  0.17178  1.0000
  C   C132      1.0  0.43334  0.23174  0.70901  1.0000
  C   C133      1.0  0.24070  0.46138  0.93943  1.0000
  C   C134      1.0  0.41192  0.17267  0.68507  1.0000
  C   C135      1.0  0.29304  0.82772  0.19559  1.0000
  C   C136      1.0  0.31480  0.03222  0.48040  1.0000
  C   C137      1.0  0.24609  0.96826  0.39887  1.0000
  C   C138      1.0  0.39821  0.79862  0.65664  1.0000
  C   C139      1.0  0.30274  0.20744  0.22796  1.0000
  C   C140      1.0  0.39494  0.21281  0.69016  1.0000
  C   C141      1.0  0.31797  0.78792  0.19066  1.0000
  C   C142      1.0  0.29353  0.01952  0.45819  1.0000
  C   C143      1.0  0.25709  0.98136  0.42105  1.0000
  C   C144      1.0  0.38960  0.77205  0.67446  1.0000
  C   C145      1.0  0.32902  0.23543  0.21089  1.0000
  C   C146      1.0  0.29390  0.03222  0.59522  1.0000
  C   C147      1.0  0.31151  0.96883  0.28462  1.0000
  C   C148      1.0  0.29183  0.03295  0.61730  1.0000
  C   C149      1.0  0.32683  0.96880  0.26258  1.0000
  C   C150      1.0  0.29338  0.26809  0.67190  1.0000
  C   C151      1.0  0.41880  0.73280  0.20920  1.0000
  C   C152      1.0  0.24440  0.96069  0.43944  1.0000
  C   C153      1.0  0.76226  0.49849  0.86938  1.0000
  C   C154      1.0  0.70428  0.49571  0.24495  1.0000
  C   C155      1.0  0.76348  0.49936  0.91375  1.0000
  C   C156      1.0  0.73979  0.49647  0.20092  1.0000
  C   C157      1.0  0.76645  0.99798  0.36868  1.0000
  C   C158      1.0  0.71736  0.99627  0.74503  1.0000
  C   C159      1.0  0.77081  0.99813  0.41307  1.0000
  C   C160      1.0  0.74913  0.99689  0.70094  1.0000
  C   C161      1.0  0.29335  0.50048  0.12814  1.0000
  C   C162      1.0  0.34005  0.50207  0.75220  1.0000
  C   C163      1.0  0.29500  0.50030  0.08376  1.0000
  C   C164      1.0  0.30632  0.50089  0.79623  1.0000
  C   C165      1.0  0.29279  0.99939  0.62811  1.0000
  C   C166      1.0  0.33706  0.00290  0.25215  1.0000
  C   C167      1.0  0.29530  0.99888  0.58376  1.0000
  C   C168      1.0  0.30518  0.00188  0.29621  1.0000
  N   N1        1.0  0.71345  0.66448  0.83192  1.0000
  N   N2        1.0  0.68567  0.32442  0.27729  1.0000
  N   N3        1.0  0.71544  0.16488  0.33228  1.0000
  N   N4        1.0  0.68932  0.82410  0.77702  1.0000
  N   N5        1.0  0.71635  0.32950  0.83404  1.0000
  N   N6        1.0  0.70414  0.66676  0.27953  1.0000
  N   N7        1.0  0.70659  0.82867  0.33357  1.0000
  N   N8        1.0  0.70950  0.16731  0.78014  1.0000
  N   N9        1.0  0.34975  0.33398  0.16487  1.0000
  N   N10       1.0  0.36967  0.67357  0.72030  1.0000
  N   N11       1.0  0.34977  0.83330  0.66544  1.0000
  N   N12       1.0  0.36433  0.17373  0.21928  1.0000
  N   N13       1.0  0.34308  0.66925  0.16412  1.0000
  N   N14       1.0  0.36013  0.33133  0.71705  1.0000
  N   N15       1.0  0.35059  0.16844  0.66384  1.0000
  N   N16       1.0  0.34481  0.83223  0.21710  1.0000
  N   N17       1.0  0.77770  0.49822  0.00434  1.0000
  N   N18       1.0  0.80339  0.49730  0.11121  1.0000
  N   N19       1.0  0.78633  0.99588  0.50379  1.0000
  N   N20       1.0  0.80128  0.99612  0.61089  1.0000
  N   N21       1.0  0.27621  0.50116  0.99307  1.0000
  N   N22       1.0  0.25585  0.50043  0.88608  1.0000
  N   N23       1.0  0.28595  0.00003  0.49315  1.0000
  N   N24       1.0  0.26199  0.00056  0.38620  1.0000
  O   O1        1.0  0.60006  0.70370  0.85833  1.0000
  O   O2        1.0  0.77916  0.28510  0.24990  1.0000
  O   O3        1.0  0.70554  0.43487  0.01071  1.0000
  O   O4        1.0  0.83789  0.56144  0.10485  1.0000
  O   O5        1.0  0.59226  0.34998  0.80212  1.0000
  O   O6        1.0  0.80867  0.64628  0.31236  1.0000
  O   O7        1.0  0.62929  0.20540  0.35956  1.0000
  O   O8        1.0  0.79982  0.78523  0.75024  1.0000
  O   O9        1.0  0.74414  0.93160  0.51038  1.0000
  O   O10       1.0  0.82741  0.06043  0.60427  1.0000
  O   O11       1.0  0.61047  0.85001  0.30056  1.0000
  O   O12       1.0  0.82796  0.14791  0.81267  1.0000
  O   O13       1.0  0.82891  0.29070  0.86034  1.0000
  O   O14       1.0  0.60969  0.70556  0.25243  1.0000
  O   O15       1.0  0.84823  0.56147  0.01158  1.0000
  O   O16       1.0  0.76262  0.43317  0.10481  1.0000
  O   O17       1.0  0.80925  0.64250  0.79881  1.0000
  O   O18       1.0  0.60052  0.34608  0.31096  1.0000
  O   O19       1.0  0.79087  0.78887  0.36084  1.0000
  O   O20       1.0  0.59985  0.20544  0.75348  1.0000
  O   O21       1.0  0.82828  0.06001  0.51122  1.0000
  O   O22       1.0  0.77310  0.93161  0.60437  1.0000
  O   O23       1.0  0.78993  0.14242  0.29845  1.0000
  O   O24       1.0  0.58062  0.84464  0.80998  1.0000
  O   O25       1.0  0.46570  0.29458  0.13858  1.0000
  O   O26       1.0  0.26871  0.71302  0.74730  1.0000
  O   O27       1.0  0.34175  0.56474  0.98623  1.0000
  O   O28       1.0  0.22846  0.43622  0.89294  1.0000
  O   O29       1.0  0.45692  0.64946  0.19677  1.0000
  O   O30       1.0  0.23866  0.35020  0.68462  1.0000
  O   O31       1.0  0.43779  0.79272  0.63826  1.0000
  O   O32       1.0  0.23924  0.21134  0.24566  1.0000
  O   O33       1.0  0.35279  0.06346  0.48673  1.0000
  O   O34       1.0  0.22846  0.93641  0.39254  1.0000
  O   O35       1.0  0.46651  0.14806  0.69625  1.0000
  O   O36       1.0  0.23848  0.85186  0.18411  1.0000
  O   O37       1.0  0.23816  0.70755  0.13719  1.0000
  O   O38       1.0  0.47588  0.29431  0.74378  1.0000
  O   O39       1.0  0.20989  0.43755  0.98613  1.0000
  O   O40       1.0  0.29389  0.56478  0.89208  1.0000
  O   O41       1.0  0.24805  0.35564  0.19789  1.0000
  O   O42       1.0  0.45759  0.65184  0.68679  1.0000
  O   O43       1.0  0.24715  0.20741  0.63708  1.0000
  O   O44       1.0  0.44751  0.79444  0.24427  1.0000
  O   O45       1.0  0.21848  0.93671  0.48635  1.0000
  O   O46       1.0  0.30420  0.06470  0.39259  1.0000
  O   O47       1.0  0.27647  0.85578  0.69934  1.0000
  O   O48       1.0  0.47636  0.15359  0.18635  1.0000
  C  Sn1       1.0  0.88069  0.62414  0.86316  1.0000
  C   C169      1.0  0.78175  0.62935  0.84454  1.0000
  C  Sn2       1.0  0.64492  0.60322  0.83796  1.0000
  C  Sn3       1.0  0.60608  0.57122  0.85025  1.0000
  C   C170      1.0  0.70496  0.56603  0.86886  1.0000
  C  Sn4       1.0  0.84184  0.59214  0.87545  1.0000
  O  Te1       1.0  0.01686  0.65062  0.86943  1.0000
  O  Te2       1.0  0.54790  0.60903  0.81929  1.0000
  O  Te3       1.0  0.46977  0.54473  0.84396  1.0000
  O  Te4       1.0  0.93881  0.58635  0.89411  1.0000
  Mg  Mg1       1.0  0.37517  0.56504  0.81735  1.0000
  Mg  Mg2       1.0  0.11148  0.63033  0.89607  1.0000
  C  Sn5       1.0  0.75618  0.40029  0.27681  1.0000
  C   C171      1.0  0.66401  0.36707  0.27095  1.0000
  C  Sn6       1.0  0.59814  0.36192  0.25041  1.0000
  C  Sn7       1.0  0.62505  0.39056  0.23543  1.0000
  C   C172      1.0  0.71719  0.42375  0.24129  1.0000
  C  Sn8       1.0  0.78308  0.42893  0.26182  1.0000
  O  Te5       1.0  0.82087  0.40483  0.29742  1.0000
  O  Te6       1.0  0.50636  0.32848  0.24492  1.0000
  O  Te7       1.0  0.56026  0.38599  0.21480  1.0000
  O  Te8       1.0  0.87484  0.46234  0.26732  1.0000
  Mg  Mg3       1.0  0.44376  0.33547  0.21490  1.0000
  Mg  Mg4       1.0  0.93758  0.45537  0.29733  1.0000
  C  Sn9       1.0  0.69264  0.53272  0.96649  1.0000
  C   C173      1.0  0.71735  0.50296  0.97998  1.0000
  C  Sn10      1.0  0.78565  0.46990  0.97221  1.0000
  C  Sn11      1.0  0.83030  0.46653  0.95051  1.0000
  C   C174      1.0  0.80561  0.49629  0.93704  1.0000
  C  Sn12      1.0  0.73728  0.52935  0.94480  1.0000
  O  Te9       1.0  0.62418  0.56551  0.97460  1.0000
  O  Te10      1.0  0.80912  0.44052  0.98599  1.0000
  O  Te11      1.0  0.89880  0.43371  0.94241  1.0000
  O  Te12      1.0  0.71384  0.55872  0.93103  1.0000
  Mg  Mg5       1.0  0.90672  0.40151  0.96745  1.0000
  Mg  Mg6       1.0  0.61636  0.59776  0.94956  1.0000
  C  Sn13      1.0  0.63795  0.52218  0.16055  1.0000
  C   C175      1.0  0.70530  0.49662  0.17477  1.0000
  C  Sn14      1.0  0.84182  0.47221  0.16852  1.0000
  C  Sn15      1.0  0.91260  0.47338  0.14763  1.0000
  C   C176      1.0  0.84529  0.49894  0.13341  1.0000
  C  Sn16      1.0  0.70873  0.52336  0.13965  1.0000
  O  Te13      1.0  0.50145  0.54632  0.16714  1.0000
  O  Te14      1.0  0.90693  0.44689  0.18303  1.0000
  O  Te15      1.0  0.04920  0.44921  0.14104  1.0000
  O  Te16      1.0  0.64365  0.54867  0.12516  1.0000
  Mg  Mg7       1.0  0.09365  0.41973  0.16656  1.0000
  Mg  Mg8       1.0  0.45702  0.57586  0.14161  1.0000
  C  Sn17      1.0  0.68892  0.38756  0.87801  1.0000
  C   C177      1.0  0.78265  0.42067  0.87238  1.0000
  C  Sn18      1.0  0.84203  0.42649  0.85163  1.0000
  C  Sn19      1.0  0.80688  0.39865  0.83619  1.0000
  C   C178      1.0  0.71318  0.36557  0.84182  1.0000
  C  Sn20      1.0  0.65378  0.35972  0.86257  1.0000
  O  Te17      1.0  0.63082  0.38234  0.89885  1.0000
  O  Te18      1.0  0.93553  0.45981  0.84638  1.0000
  O  Te19      1.0  0.86508  0.40389  0.81534  1.0000
  O  Te20      1.0  0.56030  0.32643  0.86782  1.0000
  Mg  Mg9       1.0  0.98707  0.45393  0.81590  1.0000
  Mg  Mg10      1.0  0.50862  0.33229  0.89829  1.0000
  C  Sn21      1.0  0.76206  0.62737  0.24240  1.0000
  C   C179      1.0  0.67673  0.63474  0.26174  1.0000
  C  Sn22      1.0  0.61878  0.60580  0.27500  1.0000
  C  Sn23      1.0  0.64679  0.56872  0.26881  1.0000
  C   C180      1.0  0.73210  0.56136  0.24949  1.0000
  C  Sn24      1.0  0.79007  0.59028  0.23621  1.0000
  O  Te21      1.0  0.81889  0.65673  0.22940  1.0000
  O  Te22      1.0  0.53374  0.61386  0.29426  1.0000
  O  Te23      1.0  0.58987  0.53935  0.28184  1.0000
  O  Te24      1.0  0.87509  0.58224  0.21697  1.0000
  Mg  Mg11      1.0  0.48061  0.56438  0.30653  1.0000
  Mg  Mg12      1.0  0.92835  0.63169  0.20469  1.0000
  C  Sn25      1.0  0.58426  0.09367  0.34178  1.0000
  C   C181      1.0  0.67100  0.12825  0.34579  1.0000
  C  Sn26      1.0  0.81722  0.13186  0.36028  1.0000
  C  Sn27      1.0  0.87810  0.10024  0.37097  1.0000
  C   C182      1.0  0.79140  0.06568  0.36695  1.0000
  C  Sn28      1.0  0.64514  0.06205  0.35246  1.0000
  O  Te25      1.0  0.43836  0.09072  0.32723  1.0000
  O  Te26      1.0  0.90173  0.16672  0.36404  1.0000
  O  Te27      1.0  0.02412  0.10322  0.38553  1.0000
  O  Te28      1.0  0.56068  0.02722  0.34870  1.0000
  Mg  Mg13      1.0  0.09500  0.15662  0.38527  1.0000
  Mg  Mg14      1.0  0.36747  0.03728  0.32747  1.0000
  C  Sn29      1.0  0.85526  0.91335  0.76466  1.0000
  C   C183      1.0  0.76806  0.92257  0.74586  1.0000
  C  Sn30      1.0  0.62303  0.89989  0.73767  1.0000
  C  Sn31      1.0  0.56382  0.86731  0.74851  1.0000
  C   C184      1.0  0.65098  0.85810  0.76731  1.0000
  C  Sn32      1.0  0.79606  0.88077  0.77550  1.0000
  O  Te29      1.0  0.99996  0.93643  0.77256  1.0000
  O  Te30      1.0  0.53803  0.90969  0.71885  1.0000
  O  Te31      1.0  0.41901  0.84422  0.74060  1.0000
  O  Te32      1.0  0.88101  0.87099  0.79432  1.0000
  Mg  Mg15      1.0  0.34686  0.86934  0.71443  1.0000
  Mg  Mg16      1.0  0.07212  0.91132  0.79876  1.0000
  C  Sn33      1.0  0.71787  0.96118  0.45258  1.0000
  C   C185      1.0  0.71928  0.99163  0.43915  1.0000
  C  Sn34      1.0  0.56921  0.02691  0.44673  1.0000
  C  Sn35      1.0  0.61958  0.03185  0.46817  1.0000
  C   C186      1.0  0.81887  0.00140  0.48159  1.0000
  C  Sn36      1.0  0.76824  0.96612  0.47403  1.0000
  O  Te33      1.0  0.66681  0.92617  0.44467  1.0000
  O  Te34      1.0  0.56950  0.05694  0.43301  1.0000
  O  Te35      1.0  0.67066  0.06690  0.47608  1.0000
  O  Te36      1.0  0.76796  0.93610  0.48774  1.0000
  Mg  Mg17      1.0  0.64960  0.09917  0.45122  1.0000
  Mg  Mg18      1.0  0.68798  0.89385  0.46954  1.0000
  C  Sn37      1.0  0.91978  0.97282  0.66251  1.0000
  C   C187      1.0  0.83361  0.99830  0.67561  1.0000
  C  Sn38      1.0  0.50585  0.02266  0.66735  1.0000
  C  Sn39      1.0  0.46394  0.02152  0.64553  1.0000
  C   C188      1.0  0.75075  0.99606  0.63245  1.0000
  C  Sn40      1.0  0.87787  0.97169  0.64070  1.0000
  O  Te37      1.0  0.04636  0.94873  0.67112  1.0000
  O  Te38      1.0  0.42152  0.04789  0.68075  1.0000
  O  Te39      1.0  0.33725  0.04565  0.63693  1.0000
  O  Te40      1.0  0.96215  0.94647  0.62731  1.0000
  Mg  Mg19      1.0  0.25849  0.07501  0.66159  1.0000
  Mg  Mg20      1.0  0.12512  0.91932  0.64646  1.0000
  C  Sn41      1.0  0.88927  0.89633  0.34101  1.0000
  C   C189      1.0  0.78007  0.86467  0.34594  1.0000
  C  Sn42      1.0  0.64155  0.86594  0.36149  1.0000
  C  Sn43      1.0  0.61146  0.89957  0.37232  1.0000
  C   C190      1.0  0.72060  0.93121  0.36738  1.0000
  C  Sn44      1.0  0.85918  0.92996  0.35184  1.0000
  O  Te41      1.0  0.02696  0.89442  0.32540  1.0000
  O  Te42      1.0  0.53418  0.83392  0.36616  1.0000
  O  Te43      1.0  0.47363  0.90145  0.38794  1.0000
  O  Te44      1.0  0.96648  0.96196  0.34717  1.0000
  Mg  Mg21      1.0  0.36346  0.85045  0.38865  1.0000
  Mg  Mg22      1.0  0.13717  0.94546  0.32467  1.0000
  C  Sn45      1.0  0.66857  0.09045  0.77886  1.0000
  C   C191      1.0  0.74388  0.12509  0.77296  1.0000
  C  Sn46      1.0  0.79564  0.13187  0.75205  1.0000
  C  Sn47      1.0  0.77151  0.10345  0.73672  1.0000
  C   C192      1.0  0.69621  0.06884  0.74263  1.0000
  C  Sn48      1.0  0.64444  0.06203  0.76353  1.0000
  O  Te45      1.0  0.61779  0.08429  0.79985  1.0000
  O  Te46      1.0  0.87069  0.16671  0.74653  1.0000
  O  Te47      1.0  0.82237  0.10964  0.71572  1.0000
  O  Te48      1.0  0.56940  0.02721  0.76906  1.0000
  Mg  Mg23      1.0  0.91853  0.16166  0.71593  1.0000
  Mg  Mg24      1.0  0.52143  0.03224  0.79965  1.0000
  C  Sn49      1.0  0.38010  0.41069  0.16199  1.0000
  C   C193      1.0  0.30665  0.37531  0.15718  1.0000
  C  Sn50      1.0  0.24646  0.36666  0.13677  1.0000
  C  Sn51      1.0  0.26007  0.39393  0.12084  1.0000
  C   C194      1.0  0.33350  0.42928  0.12565  1.0000
  C  Sn52      1.0  0.39370  0.43796  0.14605  1.0000
  O  Te49      1.0  0.43942  0.41873  0.18249  1.0000
  O  Te50      1.0  0.17347  0.33111  0.13235  1.0000
  O  Te51      1.0  0.20065  0.38587  0.10032  1.0000
  O  Te52      1.0  0.46668  0.47349  0.15048  1.0000
  Mg  Mg25      1.0  0.11135  0.33352  0.10204  1.0000
  Mg  Mg26      1.0  0.52893  0.47110  0.18077  1.0000
  C  Sn53      1.0  0.41404  0.61312  0.76277  1.0000
  C   C195      1.0  0.32286  0.57999  0.75657  1.0000
  C  Sn54      1.0  0.25920  0.57523  0.73593  1.0000
  C  Sn55      1.0  0.28735  0.60419  0.72116  1.0000
  C   C196      1.0  0.37851  0.63729  0.72736  1.0000
  C  Sn56      1.0  0.44219  0.64207  0.74800  1.0000
  O  Te53      1.0  0.47652  0.61727  0.78349  1.0000
  O  Te54      1.0  0.16837  0.54187  0.73011  1.0000
  O  Te55      1.0  0.22478  0.60001  0.70043  1.0000
  O  Te56      1.0  0.53300  0.67541  0.75382  1.0000
  Mg  Mg27      1.0  0.10883  0.54945  0.70005  1.0000
  Mg  Mg28      1.0  0.59268  0.66785  0.78387  1.0000
  C  Sn57      1.0  0.35808  0.46664  0.04358  1.0000
  C   C197      1.0  0.34372  0.49629  0.05760  1.0000
  C  Sn58      1.0  0.27969  0.53007  0.05068  1.0000
  C  Sn59      1.0  0.22882  0.53430  0.02928  1.0000
  C   C198      1.0  0.24315  0.50465  0.01527  1.0000
  C  Sn60      1.0  0.30721  0.47086  0.02219  1.0000
  O  Te57      1.0  0.42244  0.43312  0.05085  1.0000
  O  Te58      1.0  0.26659  0.55932  0.06499  1.0000
  O  Te59      1.0  0.16442  0.56785  0.02202  1.0000
  O  Te60      1.0  0.32029  0.44163  0.00789  1.0000
  Mg  Mg29      1.0  0.17104  0.59954  0.04753  1.0000
  Mg  Mg30      1.0  0.41572  0.40139  0.02533  1.0000
  C  Sn61      1.0  0.23374  0.53626  0.83516  1.0000
  C   C199      1.0  0.31127  0.50995  0.82189  1.0000
  C  Sn62      1.0  0.35339  0.47521  0.82961  1.0000
  C  Sn63      1.0  0.31716  0.46658  0.85104  1.0000
  C   C200      1.0  0.23965  0.49288  0.86430  1.0000
  C  Sn64      1.0  0.19751  0.52763  0.85659  1.0000
  O  Te61      1.0  0.19274  0.57081  0.82711  1.0000
  O  Te62      1.0  0.43089  0.44937  0.81604  1.0000
  O  Te63      1.0  0.35824  0.43199  0.85908  1.0000
  O  Te64      1.0  0.12003  0.55346  0.87015  1.0000
  Mg  Mg31      1.0  0.46236  0.40608  0.83440  1.0000
  Mg  Mg32      1.0  0.08842  0.59675  0.85180  1.0000
  C  Sn65      1.0  0.25459  0.59337  0.16209  1.0000
  C   C201      1.0  0.35504  0.62603  0.15701  1.0000
  C  Sn66      1.0  0.41900  0.63214  0.13646  1.0000
  C  Sn67      1.0  0.38168  0.60505  0.12064  1.0000
  C   C202      1.0  0.28126  0.57241  0.12572  1.0000
  C  Sn68      1.0  0.21727  0.56628  0.14627  1.0000
  O  Te65      1.0  0.19199  0.58785  0.18274  1.0000
  O  Te66      1.0  0.51920  0.66500  0.13176  1.0000
  O  Te67      1.0  0.44439  0.61060  0.09998  1.0000
  O  Te68      1.0  0.11710  0.53344  0.15097  1.0000
  Mg  Mg33      1.0  0.57497  0.65979  0.10134  1.0000
  Mg  Mg34      1.0  0.06119  0.53864  0.18138  1.0000
  C  Sn69      1.0  0.48937  0.40360  0.72393  1.0000
  C   C203      1.0  0.40907  0.36912  0.72936  1.0000
  C  Sn70      1.0  0.27388  0.36622  0.74528  1.0000
  C  Sn71      1.0  0.21769  0.39845  0.75600  1.0000
  C   C204      1.0  0.29795  0.43290  0.75057  1.0000
  C  Sn72      1.0  0.43318  0.43583  0.73465  1.0000
  O  Te69      1.0  0.62426  0.40585  0.70796  1.0000
  O  Te70      1.0  0.19565  0.33144  0.75043  1.0000
  O  Te71      1.0  0.08269  0.39617  0.77198  1.0000
  O  Te72      1.0  0.51137  0.47058  0.72949  1.0000
  Mg  Mg35      1.0  0.01700  0.34261  0.77330  1.0000
  Mg  Mg36      1.0  0.68995  0.45945  0.70662  1.0000
  C  Sn73      1.0  0.17245  0.89200  0.62750  1.0000
  C   C205      1.0  0.25483  0.92697  0.63151  1.0000
  C  Sn74      1.0  0.40011  0.93134  0.64607  1.0000
  C  Sn75      1.0  0.46449  0.90010  0.65684  1.0000
  C   C206      1.0  0.38214  0.86515  0.65282  1.0000
  C  Sn76      1.0  0.23682  0.86076  0.63827  1.0000
  O  Te73      1.0  0.02740  0.88829  0.61288  1.0000
  O  Te74      1.0  0.48024  0.96658  0.64982  1.0000
  O  Te75      1.0  0.60965  0.90384  0.67147  1.0000
  O  Te76      1.0  0.15674  0.82555  0.63451  1.0000
  Mg  Mg37      1.0  0.67401  0.95751  0.67116  1.0000
  Mg  Mg38      1.0  0.96303  0.83458  0.61316  1.0000
  C  Sn77      1.0  0.20423  0.10402  0.22603  1.0000
  C   C207      1.0  0.30228  0.13684  0.23147  1.0000
  C  Sn78      1.0  0.44157  0.13689  0.24683  1.0000
  C  Sn79      1.0  0.48383  0.10344  0.25697  1.0000
  C   C208      1.0  0.38584  0.07066  0.25153  1.0000
  C  Sn80      1.0  0.24650  0.07058  0.23616  1.0000
  O  Te77      1.0  0.06555  0.10462  0.21062  1.0000
  O  Te78      1.0  0.53764  0.17004  0.25201  1.0000
  O  Te79      1.0  0.62264  0.10288  0.27239  1.0000
  O  Te80      1.0  0.15048  0.03745  0.23098  1.0000
  Mg  Mg39      1.0  0.71470  0.15509  0.27399  1.0000
  Mg  Mg40      1.0  0.97347  0.05236  0.20900  1.0000
  C  Sn81      1.0  0.27511  0.96177  0.53124  1.0000
  C   C209      1.0  0.24453  0.99128  0.51776  1.0000
  C  Sn82      1.0  0.05450  0.02760  0.52534  1.0000
  C  Sn83      1.0  0.09674  0.03456  0.54684  1.0000
  C   C210      1.0  0.32802  0.00505  0.56030  1.0000
  C  Sn84      1.0  0.31734  0.96873  0.55274  1.0000
  O  Te81      1.0  0.26375  0.92569  0.52331  1.0000
  O  Te82      1.0  0.02332  0.05665  0.51157  1.0000
  O  Te83      1.0  0.10808  0.07067  0.55476  1.0000
  O  Te84      1.0  0.34853  0.93969  0.56649  1.0000
  Mg  Mg41      1.0  0.05444  0.10098  0.52982  1.0000
  Mg  Mg42      1.0  0.31755  0.89535  0.54826  1.0000
  C  Sn85      1.0  0.40940  0.97571  0.34882  1.0000
  C   C211      1.0  0.31826  0.00006  0.36217  1.0000
  C  Sn86      1.0  0.99010  0.02450  0.35406  1.0000
  C  Sn87      1.0  0.95285  0.02457  0.33213  1.0000
  C   C212      1.0  0.24463  0.00022  0.31879  1.0000
  C  Sn88      1.0  0.37215  0.97578  0.32690  1.0000
  O  Te85      1.0  0.53628  0.95152  0.35728  1.0000
  O  Te86      1.0  0.90076  0.04860  0.36772  1.0000
  O  Te87      1.0  0.82586  0.04879  0.32368  1.0000
  O  Te88      1.0  0.46144  0.95169  0.31325  1.0000
  Mg  Mg43      1.0  0.73936  0.07635  0.34868  1.0000
  Mg  Mg44      1.0  0.62278  0.92392  0.33227  1.0000
  C  Sn89      1.0  0.46292  0.10327  0.62561  1.0000
  C   C213      1.0  0.36050  0.07086  0.63075  1.0000
  C  Sn90      1.0  0.22340  0.07117  0.64649  1.0000
  C  Sn91      1.0  0.18783  0.10456  0.65731  1.0000
  C   C214      1.0  0.29019  0.13694  0.65217  1.0000
  C  Sn92      1.0  0.42735  0.13666  0.63643  1.0000
  O  Te89      1.0  0.59932  0.10232  0.60981  1.0000
  O  Te90      1.0  0.12286  0.03843  0.65136  1.0000
  O  Te91      1.0  0.05131  0.10549  0.67311  1.0000
  O  Te92      1.0  0.52783  0.16938  0.63156  1.0000
  Mg  Mg45      1.0  0.95128  0.05376  0.67407  1.0000
  Mg  Mg46      1.0  0.69936  0.15408  0.60884  1.0000
  C  Sn93      1.0  0.39031  0.92794  0.22493  1.0000
  C   C215      1.0  0.30617  0.93481  0.24440  1.0000
  C  Sn94      1.0  0.24754  0.90553  0.25738  1.0000
  C  Sn95      1.0  0.27364  0.86859  0.25077  1.0000
  C   C216      1.0  0.35776  0.86173  0.23132  1.0000
  C  Sn96      1.0  0.41641  0.89101  0.21832  1.0000
  O  Te93      1.0  0.44785  0.95765  0.21221  1.0000
  O  Te94      1.0  0.16372  0.91309  0.27677  1.0000
  O  Te95      1.0  0.21601  0.83888  0.26351  1.0000
  O  Te96      1.0  0.50021  0.88346  0.19895  1.0000
  Mg  Mg47      1.0  0.10896  0.86329  0.28854  1.0000
  Mg  Mg48      1.0  0.55511  0.93324  0.18717  1.0000
