data_image0
_chemical_formula_structural       H48C168N24O48C2Sn2C2HTe2HMgC2Sn2C2HTe2HMgC2Sn2C2HTe2HMgC2Sn2C2HTe2HMgC2Sn2C2HTe2HMgC2Sn2C2HTe2HMgC2Sn2C2HTe2HMgC2Sn2C2HTe2HMgC2Sn2C2HTe2HMgC2Sn2C2HTe2HMgC2Sn2C2HTe2HMgC2Sn2C2HTe2HMgC2Sn2C2HTe2HMgC2Sn2C2HTe2HMgC2Sn2C2HTe2HMgC2Sn2C2HTe2HMgC2Sn2C2HTe2HMgC2Sn2C2HTe2HMgC2Sn2C2HTe2HMgC2Sn2C2HTe2HMgC2Sn2C2HTe2HMgC2Sn2C2HTe2HMgC2Sn2C2HTe2HMgC2Sn2C2HTe2HMg
_chemical_formula_sum              "H96 C264 N24 O48 Sn48 Te48 Mg24"
_cell_length_a       7.14637
_cell_length_b       36.2077
_cell_length_c       63.4943
_cell_angle_alpha    90.336
_cell_angle_beta     89.7486
_cell_angle_gamma    92.2701

_symmetry_space_group_name_H-M    'P1'
_space_group_IT_number       1

loop_
  _space_group_symop_operation_xyz
  'x, y, z'

loop_
  _atom_site_type_symbol
  _atom_site_label
  _atom_site_symmetry_multiplicity
  _atom_site_fract_x
  _atom_site_fract_y
  _atom_site_fract_z
  _atom_site_occupancy
  H   H1        1.0  0.75000  0.55880  0.91036  1.0000
  H   H2        1.0  0.73089  0.43691  0.20318  1.0000
  H   H3        1.0  0.57897  0.77697  0.83676  1.0000
  H   H4        1.0  0.79616  0.21055  0.27142  1.0000
  H   H5        1.0  0.74204  0.42755  0.05762  1.0000
  H   H6        1.0  0.75276  0.05755  0.41000  1.0000
  H   H7        1.0  0.74335  0.93736  0.70332  1.0000
  H   H8        1.0  0.60333  0.27850  0.33779  1.0000
  H   H9        1.0  0.81677  0.71086  0.77170  1.0000
  H   H10       1.0  0.77377  0.92545  0.55732  1.0000
  H   H11       1.0  0.77083  0.43980  0.91057  1.0000
  H   H12       1.0  0.73942  0.55570  0.20405  1.0000
  H   H13       1.0  0.83359  0.21654  0.83929  1.0000
  H   H14       1.0  0.59369  0.78020  0.27356  1.0000
  H   H15       1.0  0.84110  0.56713  0.05820  1.0000
  H   H16       1.0  0.78293  0.93871  0.40953  1.0000
  H   H17       1.0  0.74552  0.05613  0.70399  1.0000
  H   H18       1.0  0.80123  0.71469  0.33963  1.0000
  H   H19       1.0  0.57926  0.28016  0.77485  1.0000
  H   H20       1.0  0.81749  0.06566  0.55751  1.0000
  H   H21       1.0  0.31044  0.44086  0.08691  1.0000
  H   H22       1.0  0.31384  0.56049  0.79414  1.0000
  H   H23       1.0  0.48650  0.22179  0.16011  1.0000
  H   H24       1.0  0.26484  0.78753  0.72621  1.0000
  H   H25       1.0  0.30611  0.57120  0.93960  1.0000
  H   H26       1.0  0.30402  0.93936  0.58697  1.0000
  H   H27       1.0  0.31342  0.06145  0.29406  1.0000
  H   H28       1.0  0.46199  0.71971  0.65994  1.0000
  H   H29       1.0  0.23338  0.28665  0.22479  1.0000
  H   H30       1.0  0.32576  0.07022  0.43989  1.0000
  H   H31       1.0  0.28733  0.55981  0.08719  1.0000
  H   H32       1.0  0.30812  0.44171  0.79294  1.0000
  H   H33       1.0  0.23403  0.78258  0.15774  1.0000
  H   H34       1.0  0.48537  0.21827  0.72300  1.0000
  H   H35       1.0  0.22277  0.43140  0.93942  1.0000
  H   H36       1.0  0.29267  0.05842  0.58698  1.0000
  H   H37       1.0  0.30476  0.94263  0.29291  1.0000
  H   H38       1.0  0.24143  0.28175  0.65799  1.0000
  H   H39       1.0  0.47026  0.71940  0.22325  1.0000
  H   H40       1.0  0.22205  0.93078  0.43934  1.0000
  H   H41       1.0  0.76177  0.49814  0.85228  1.0000
  H   H42       1.0  0.69281  0.49521  0.26203  1.0000
  H   H43       1.0  0.76437  0.99786  0.35158  1.0000
  H   H44       1.0  0.70699  0.99578  0.76212  1.0000
  H   H45       1.0  0.29214  0.50064  0.14524  1.0000
  H   H46       1.0  0.35173  0.50286  0.73513  1.0000
  H   H47       1.0  0.29194  0.99959  0.64521  1.0000
  H   H48       1.0  0.34828  0.00344  0.23507  1.0000
  C   C1        1.0  0.75900  0.66756  0.81019  1.0000
  C   C2        1.0  0.64385  0.32111  0.29914  1.0000
  C   C3        1.0  0.81283  0.52994  0.01744  1.0000
  C   C4        1.0  0.78119  0.46483  0.09845  1.0000
  C   C5        1.0  0.77083  0.29536  0.84257  1.0000
  C   C6        1.0  0.65506  0.70091  0.27071  1.0000
  C   C7        1.0  0.73142  0.70699  0.80467  1.0000
  C   C8        1.0  0.66540  0.28139  0.30416  1.0000
  C   C9        1.0  0.80226  0.51667  0.03947  1.0000
  C   C10       1.0  0.78427  0.47786  0.07627  1.0000
  C   C11       1.0  0.74239  0.26768  0.82534  1.0000
  C   C12       1.0  0.67145  0.72862  0.28815  1.0000
  C   C13       1.0  0.75774  0.53239  0.90223  1.0000
  C   C14       1.0  0.72597  0.46288  0.21183  1.0000
  C   C15       1.0  0.75603  0.53232  0.88012  1.0000
  C   C16       1.0  0.70835  0.46214  0.23382  1.0000
  C   C17       1.0  0.62758  0.76271  0.82275  1.0000
  C   C18       1.0  0.75187  0.22499  0.28557  1.0000
  C   C19       1.0  0.76377  0.45746  0.05771  1.0000
  C   C20       1.0  0.75034  0.16770  0.31025  1.0000
  C   C21       1.0  0.63499  0.82019  0.79848  1.0000
  C   C22       1.0  0.80632  0.02802  0.51697  1.0000
  C   C23       1.0  0.78785  0.96341  0.59814  1.0000
  C   C24       1.0  0.74731  0.79403  0.34258  1.0000
  C   C25       1.0  0.65232  0.20115  0.77154  1.0000
  C   C26       1.0  0.72756  0.20733  0.30494  1.0000
  C   C27       1.0  0.65876  0.78059  0.80360  1.0000
  C   C28       1.0  0.79985  0.01474  0.53900  1.0000
  C   C29       1.0  0.79234  0.97629  0.57592  1.0000
  C   C30       1.0  0.72578  0.76654  0.32514  1.0000
  C   C31       1.0  0.67173  0.22910  0.78886  1.0000
  C   C32       1.0  0.76304  0.03134  0.40172  1.0000
  C   C33       1.0  0.73797  0.96335  0.71194  1.0000
  C   C34       1.0  0.76109  0.03167  0.37961  1.0000
  C   C35       1.0  0.72159  0.96261  0.73396  1.0000
  C   C36       1.0  0.64269  0.26383  0.32353  1.0000
  C   C37       1.0  0.76340  0.72497  0.78553  1.0000
  C   C38       1.0  0.78357  0.95552  0.55739  1.0000
  C   C39       1.0  0.65175  0.32537  0.81296  1.0000
  C   C40       1.0  0.75435  0.67077  0.30110  1.0000
  C   C41       1.0  0.74783  0.46593  0.01705  1.0000
  C   C42       1.0  0.81984  0.52958  0.09856  1.0000
  C   C43       1.0  0.65268  0.69850  0.84032  1.0000
  C   C44       1.0  0.73370  0.29005  0.26822  1.0000
  C   C45       1.0  0.67164  0.28540  0.80763  1.0000
  C   C46       1.0  0.72927  0.71046  0.30633  1.0000
  C   C47       1.0  0.77204  0.47834  0.03927  1.0000
  C   C48       1.0  0.80901  0.51647  0.07641  1.0000
  C   C49       1.0  0.66655  0.72530  0.82265  1.0000
  C   C50       1.0  0.71859  0.26273  0.28577  1.0000
  C   C51       1.0  0.76601  0.46596  0.90236  1.0000
  C   C52       1.0  0.73199  0.52957  0.21241  1.0000
  C   C53       1.0  0.76535  0.46509  0.88029  1.0000
  C   C54       1.0  0.71501  0.52976  0.23443  1.0000
  C   C55       1.0  0.77920  0.23016  0.82550  1.0000
  C   C56       1.0  0.63902  0.76640  0.28777  1.0000
  C   C57       1.0  0.82001  0.53720  0.05806  1.0000
  C   C58       1.0  0.65570  0.82496  0.31200  1.0000
  C   C59       1.0  0.76757  0.17184  0.80145  1.0000
  C   C60       1.0  0.77063  0.96333  0.51659  1.0000
  C   C61       1.0  0.81246  0.02842  0.59810  1.0000
  C   C62       1.0  0.66796  0.19957  0.34115  1.0000
  C   C63       1.0  0.74534  0.79000  0.76825  1.0000
  C   C64       1.0  0.66962  0.78480  0.30692  1.0000
  C   C65       1.0  0.74149  0.21149  0.80664  1.0000
  C   C66       1.0  0.78643  0.97620  0.53885  1.0000
  C   C67       1.0  0.80376  0.01504  0.57597  1.0000
  C   C68       1.0  0.67600  0.22616  0.32331  1.0000
  C   C69       1.0  0.72454  0.76246  0.78560  1.0000
  C   C70       1.0  0.77412  0.96497  0.40149  1.0000
  C   C71       1.0  0.74046  0.03006  0.71242  1.0000
  C   C72       1.0  0.77018  0.96443  0.37944  1.0000
  C   C73       1.0  0.72545  0.03036  0.73449  1.0000
  C   C74       1.0  0.75739  0.72878  0.32549  1.0000
  C   C75       1.0  0.63325  0.26667  0.78874  1.0000
  C   C76       1.0  0.80790  0.03559  0.55754  1.0000
  C   C77       1.0  0.30034  0.33073  0.18654  1.0000
  C   C78       1.0  0.41477  0.67692  0.69854  1.0000
  C   C79       1.0  0.24384  0.46907  0.98010  1.0000
  C   C80       1.0  0.27561  0.53323  0.89864  1.0000
  C   C81       1.0  0.29234  0.70334  0.15516  1.0000
  C   C82       1.0  0.41955  0.29781  0.72580  1.0000
  C   C83       1.0  0.32661  0.29126  0.19204  1.0000
  C   C84       1.0  0.39665  0.71672  0.69350  1.0000
  C   C85       1.0  0.25465  0.48210  0.95798  1.0000
  C   C86       1.0  0.27151  0.52059  0.92093  1.0000
  C   C87       1.0  0.31784  0.73138  0.17227  1.0000
  C   C88       1.0  0.39801  0.26945  0.70868  1.0000
  C   C89       1.0  0.30090  0.46711  0.09515  1.0000
  C   C90       1.0  0.31874  0.53459  0.78543  1.0000
  C   C91       1.0  0.30075  0.46678  0.11726  1.0000
  C   C92       1.0  0.33560  0.53553  0.76343  1.0000
  C   C93       1.0  0.43430  0.23577  0.17404  1.0000
  C   C94       1.0  0.31003  0.77314  0.71208  1.0000
  C   C95       1.0  0.28791  0.54121  0.93946  1.0000
  C   C96       1.0  0.31516  0.83052  0.68747  1.0000
  C   C97       1.0  0.42181  0.17788  0.19795  1.0000
  C   C98       1.0  0.25195  0.96811  0.48017  1.0000
  C   C99       1.0  0.28579  0.03302  0.39894  1.0000
  C   C100      1.0  0.30096  0.20272  0.65503  1.0000
  C   C101      1.0  0.39910  0.79849  0.22604  1.0000
  C   C102      1.0  0.33705  0.79088  0.69278  1.0000
  C   C103      1.0  0.39919  0.21760  0.19301  1.0000
  C   C104      1.0  0.26232  0.98120  0.45806  1.0000
  C   C105      1.0  0.28335  0.01996  0.42115  1.0000
  C   C106      1.0  0.32812  0.23049  0.67224  1.0000
  C   C107      1.0  0.38246  0.77042  0.20876  1.0000
  C   C108      1.0  0.29845  0.96570  0.59520  1.0000
  C   C109      1.0  0.31745  0.03555  0.28534  1.0000
  C   C110      1.0  0.29961  0.96560  0.61732  1.0000
  C   C111      1.0  0.33360  0.03644  0.26331  1.0000
  C   C112      1.0  0.42205  0.73435  0.67419  1.0000
  C   C113      1.0  0.29040  0.27294  0.21101  1.0000
  C   C114      1.0  0.30371  0.04032  0.43972  1.0000
  C   C115      1.0  0.40226  0.67376  0.18538  1.0000
  C   C116      1.0  0.30134  0.32647  0.69582  1.0000
  C   C117      1.0  0.30284  0.53335  0.98016  1.0000
  C   C118      1.0  0.24260  0.46831  0.89894  1.0000
  C   C119      1.0  0.41128  0.29994  0.15651  1.0000
  C   C120      1.0  0.32061  0.70798  0.72922  1.0000
  C   C121      1.0  0.38312  0.71385  0.19032  1.0000
  C   C122      1.0  0.32942  0.28687  0.69075  1.0000
  C   C123      1.0  0.28054  0.52051  0.95800  1.0000
  C   C124      1.0  0.25092  0.48190  0.92100  1.0000
  C   C125      1.0  0.39490  0.27314  0.17417  1.0000
  C   C126      1.0  0.34175  0.73537  0.71181  1.0000
  C   C127      1.0  0.29240  0.53353  0.09529  1.0000
  C   C128      1.0  0.31457  0.46789  0.78463  1.0000
  C   C129      1.0  0.29213  0.53406  0.11737  1.0000
  C   C130      1.0  0.33109  0.46788  0.76259  1.0000
  C   C131      1.0  0.28379  0.76902  0.17178  1.0000
  C   C132      1.0  0.43334  0.23174  0.70901  1.0000
  C   C133      1.0  0.24070  0.46138  0.93943  1.0000
  C   C134      1.0  0.41192  0.17267  0.68507  1.0000
  C   C135      1.0  0.29304  0.82772  0.19559  1.0000
  C   C136      1.0  0.31480  0.03222  0.48040  1.0000
  C   C137      1.0  0.24609  0.96826  0.39887  1.0000
  C   C138      1.0  0.39821  0.79862  0.65664  1.0000
  C   C139      1.0  0.30274  0.20744  0.22796  1.0000
  C   C140      1.0  0.39494  0.21281  0.69016  1.0000
  C   C141      1.0  0.31797  0.78792  0.19066  1.0000
  C   C142      1.0  0.29353  0.01952  0.45819  1.0000
  C   C143      1.0  0.25709  0.98136  0.42105  1.0000
  C   C144      1.0  0.38960  0.77205  0.67446  1.0000
  C   C145      1.0  0.32902  0.23543  0.21089  1.0000
  C   C146      1.0  0.29390  0.03222  0.59522  1.0000
  C   C147      1.0  0.31151  0.96883  0.28462  1.0000
  C   C148      1.0  0.29183  0.03295  0.61730  1.0000
  C   C149      1.0  0.32683  0.96880  0.26258  1.0000
  C   C150      1.0  0.29338  0.26809  0.67190  1.0000
  C   C151      1.0  0.41880  0.73280  0.20920  1.0000
  C   C152      1.0  0.24440  0.96069  0.43944  1.0000
  C   C153      1.0  0.76226  0.49849  0.86938  1.0000
  C   C154      1.0  0.70428  0.49571  0.24495  1.0000
  C   C155      1.0  0.76348  0.49936  0.91375  1.0000
  C   C156      1.0  0.73979  0.49647  0.20092  1.0000
  C   C157      1.0  0.76645  0.99798  0.36868  1.0000
  C   C158      1.0  0.71736  0.99627  0.74503  1.0000
  C   C159      1.0  0.77081  0.99813  0.41307  1.0000
  C   C160      1.0  0.74913  0.99689  0.70094  1.0000
  C   C161      1.0  0.29335  0.50048  0.12814  1.0000
  C   C162      1.0  0.34005  0.50207  0.75220  1.0000
  C   C163      1.0  0.29500  0.50030  0.08376  1.0000
  C   C164      1.0  0.30632  0.50089  0.79623  1.0000
  C   C165      1.0  0.29279  0.99939  0.62811  1.0000
  C   C166      1.0  0.33706  0.00290  0.25215  1.0000
  C   C167      1.0  0.29530  0.99888  0.58376  1.0000
  C   C168      1.0  0.30518  0.00188  0.29621  1.0000
  N   N1        1.0  0.71345  0.66448  0.83192  1.0000
  N   N2        1.0  0.68567  0.32442  0.27729  1.0000
  N   N3        1.0  0.71544  0.16488  0.33228  1.0000
  N   N4        1.0  0.68932  0.82410  0.77702  1.0000
  N   N5        1.0  0.71635  0.32950  0.83404  1.0000
  N   N6        1.0  0.70414  0.66676  0.27953  1.0000
  N   N7        1.0  0.70659  0.82867  0.33357  1.0000
  N   N8        1.0  0.70950  0.16731  0.78014  1.0000
  N   N9        1.0  0.34975  0.33398  0.16487  1.0000
  N   N10       1.0  0.36967  0.67357  0.72030  1.0000
  N   N11       1.0  0.34977  0.83330  0.66544  1.0000
  N   N12       1.0  0.36433  0.17373  0.21928  1.0000
  N   N13       1.0  0.34308  0.66925  0.16412  1.0000
  N   N14       1.0  0.36013  0.33133  0.71705  1.0000
  N   N15       1.0  0.35059  0.16844  0.66384  1.0000
  N   N16       1.0  0.34481  0.83223  0.21710  1.0000
  N   N17       1.0  0.77770  0.49822  0.00434  1.0000
  N   N18       1.0  0.80339  0.49730  0.11121  1.0000
  N   N19       1.0  0.78633  0.99588  0.50379  1.0000
  N   N20       1.0  0.80128  0.99612  0.61089  1.0000
  N   N21       1.0  0.27621  0.50116  0.99307  1.0000
  N   N22       1.0  0.25585  0.50043  0.88608  1.0000
  N   N23       1.0  0.28595  0.00003  0.49315  1.0000
  N   N24       1.0  0.26199  0.00056  0.38620  1.0000
  O   O1        1.0  0.60006  0.70370  0.85833  1.0000
  O   O2        1.0  0.77916  0.28510  0.24990  1.0000
  O   O3        1.0  0.70554  0.43487  0.01071  1.0000
  O   O4        1.0  0.83789  0.56144  0.10485  1.0000
  O   O5        1.0  0.59226  0.34998  0.80212  1.0000
  O   O6        1.0  0.80867  0.64628  0.31236  1.0000
  O   O7        1.0  0.62929  0.20540  0.35956  1.0000
  O   O8        1.0  0.79982  0.78523  0.75024  1.0000
  O   O9        1.0  0.74414  0.93160  0.51038  1.0000
  O   O10       1.0  0.82741  0.06043  0.60427  1.0000
  O   O11       1.0  0.61047  0.85001  0.30056  1.0000
  O   O12       1.0  0.82796  0.14791  0.81267  1.0000
  O   O13       1.0  0.82891  0.29070  0.86034  1.0000
  O   O14       1.0  0.60969  0.70556  0.25243  1.0000
  O   O15       1.0  0.84823  0.56147  0.01158  1.0000
  O   O16       1.0  0.76262  0.43317  0.10481  1.0000
  O   O17       1.0  0.80925  0.64250  0.79881  1.0000
  O   O18       1.0  0.60052  0.34608  0.31096  1.0000
  O   O19       1.0  0.79087  0.78887  0.36084  1.0000
  O   O20       1.0  0.59985  0.20544  0.75348  1.0000
  O   O21       1.0  0.82828  0.06001  0.51122  1.0000
  O   O22       1.0  0.77310  0.93161  0.60437  1.0000
  O   O23       1.0  0.78993  0.14242  0.29845  1.0000
  O   O24       1.0  0.58062  0.84464  0.80998  1.0000
  O   O25       1.0  0.46570  0.29458  0.13858  1.0000
  O   O26       1.0  0.26871  0.71302  0.74730  1.0000
  O   O27       1.0  0.34175  0.56474  0.98623  1.0000
  O   O28       1.0  0.22846  0.43622  0.89294  1.0000
  O   O29       1.0  0.45692  0.64946  0.19677  1.0000
  O   O30       1.0  0.23866  0.35020  0.68462  1.0000
  O   O31       1.0  0.43779  0.79272  0.63826  1.0000
  O   O32       1.0  0.23924  0.21134  0.24566  1.0000
  O   O33       1.0  0.35279  0.06346  0.48673  1.0000
  O   O34       1.0  0.22846  0.93641  0.39254  1.0000
  O   O35       1.0  0.46651  0.14806  0.69625  1.0000
  O   O36       1.0  0.23848  0.85186  0.18411  1.0000
  O   O37       1.0  0.23816  0.70755  0.13719  1.0000
  O   O38       1.0  0.47588  0.29431  0.74378  1.0000
  O   O39       1.0  0.20989  0.43755  0.98613  1.0000
  O   O40       1.0  0.29389  0.56478  0.89208  1.0000
  O   O41       1.0  0.24805  0.35564  0.19789  1.0000
  O   O42       1.0  0.45759  0.65184  0.68679  1.0000
  O   O43       1.0  0.24715  0.20741  0.63708  1.0000
  O   O44       1.0  0.44751  0.79444  0.24427  1.0000
  O   O45       1.0  0.21848  0.93671  0.48635  1.0000
  O   O46       1.0  0.30420  0.06470  0.39259  1.0000
  O   O47       1.0  0.27647  0.85578  0.69934  1.0000
  O   O48       1.0  0.47636  0.15359  0.18635  1.0000
  C   C169      1.0  0.85014  0.60989  0.87388  1.0000
  C   C170      1.0  0.76136  0.57526  0.87062  1.0000
  C  Sn1       1.0  0.65305  0.56853  0.85264  1.0000
  C  Sn2       1.0  0.63356  0.59705  0.83767  1.0000
  C   C171      1.0  0.72306  0.63159  0.84107  1.0000
  C   C172      1.0  0.83106  0.63803  0.85912  1.0000
  H   H49       1.0  0.93379  0.61487  0.88785  1.0000
  O  Te1       1.0  0.56524  0.53377  0.84962  1.0000
  O  Te2       1.0  0.52620  0.59107  0.81955  1.0000
  H   H50       1.0  0.89988  0.66484  0.86164  1.0000
  Mg  Mg1       1.0  0.43377  0.53906  0.82247  1.0000
  C   C173      1.0  0.81379  0.39847  0.27411  1.0000
  C   C174      1.0  0.70767  0.36610  0.26975  1.0000
  C  Sn3       1.0  0.59760  0.36348  0.25163  1.0000
  C  Sn4       1.0  0.59403  0.39387  0.23765  1.0000
  C   C175      1.0  0.70080  0.42612  0.24215  1.0000
  C   C176      1.0  0.81040  0.42845  0.26033  1.0000
  H   H51       1.0  0.89868  0.40027  0.28817  1.0000
  O  Te3       1.0  0.49238  0.33094  0.24751  1.0000
  O  Te4       1.0  0.48530  0.39199  0.21942  1.0000
  H   H52       1.0  0.89264  0.45350  0.26370  1.0000
  Mg  Mg2       1.0  0.36612  0.34173  0.22066  1.0000
  C   C177      1.0  0.79443  0.46135  0.95348  1.0000
  C   C178      1.0  0.76029  0.49028  0.93972  1.0000
  C  Sn5       1.0  0.73826  0.52601  0.94752  1.0000
  C  Sn6       1.0  0.75078  0.53283  0.96951  1.0000
  C   C179      1.0  0.78511  0.50370  0.98314  1.0000
  C   C180      1.0  0.80687  0.46805  0.97517  1.0000
  H   H53       1.0  0.81137  0.43376  0.94732  1.0000
  O  Te5       1.0  0.70416  0.55460  0.93355  1.0000
  O  Te6       1.0  0.72939  0.56828  0.97772  1.0000
  H   H54       1.0  0.83343  0.44566  0.98583  1.0000
  Mg  Mg3       1.0  0.68490  0.59816  0.95234  1.0000
  C   C181      1.0  0.88823  0.46535  0.15031  1.0000
  C   C182      1.0  0.80704  0.48851  0.13570  1.0000
  C  Sn7       1.0  0.70695  0.51873  0.14254  1.0000
  C  Sn8       1.0  0.68808  0.52585  0.16443  1.0000
  C   C183      1.0  0.76994  0.50253  0.17892  1.0000
  C   C184      1.0  0.86975  0.47235  0.17190  1.0000
  H   H55       1.0  0.96554  0.44201  0.14488  1.0000
  O  Te7       1.0  0.62666  0.54158  0.12773  1.0000
  O  Te8       1.0  0.58885  0.55587  0.17170  1.0000
  H   H56       1.0  0.93270  0.45444  0.18322  1.0000
  Mg  Mg4       1.0  0.50478  0.57904  0.14539  1.0000
  C   C185      1.0  0.86619  0.42081  0.84436  1.0000
  C   C186      1.0  0.77691  0.43046  0.86311  1.0000
  C  Sn9       1.0  0.66256  0.40447  0.87376  1.0000
  C  Sn10      1.0  0.63743  0.36816  0.86544  1.0000
  C   C187      1.0  0.72747  0.35878  0.84668  1.0000
  C   C188      1.0  0.84154  0.38500  0.83615  1.0000
  H   H57       1.0  0.95454  0.44109  0.83622  1.0000
  O  Te9       1.0  0.57435  0.41458  0.89247  1.0000
  O  Te10      1.0  0.52396  0.34164  0.87576  1.0000
  H   H58       1.0  0.91074  0.37751  0.82164  1.0000
  Mg  Mg5       1.0  0.43347  0.36870  0.90076  1.0000
  C   C189      1.0  0.59404  0.59150  0.27595  1.0000
  C   C190      1.0  0.69069  0.62494  0.27166  1.0000
  C  Sn11      1.0  0.79583  0.62907  0.25316  1.0000
  C  Sn12      1.0  0.80405  0.59913  0.23871  1.0000
  C   C191      1.0  0.70675  0.56580  0.24314  1.0000
  C   C192      1.0  0.60201  0.56196  0.26170  1.0000
  H   H59       1.0  0.51291  0.58854  0.29030  1.0000
  O  Te11      1.0  0.89160  0.66266  0.24912  1.0000
  O  Te12      1.0  0.90802  0.60251  0.22010  1.0000
  H   H60       1.0  0.52709  0.53608  0.26501  1.0000
  Mg  Mg6       1.0  0.01438  0.65378  0.22163  1.0000
  C   C193      1.0  0.85629  0.10931  0.37367  1.0000
  C   C194      1.0  0.76585  0.07484  0.37041  1.0000
  C  Sn13      1.0  0.65483  0.06850  0.35259  1.0000
  C  Sn14      1.0  0.63429  0.09726  0.33779  1.0000
  C   C195      1.0  0.72546  0.13164  0.34120  1.0000
  C   C196      1.0  0.83617  0.13769  0.35908  1.0000
  H   H61       1.0  0.94204  0.11398  0.38750  1.0000
  O  Te13      1.0  0.56539  0.03390  0.34957  1.0000
  O  Te14      1.0  0.52422  0.09167  0.31985  1.0000
  H   H62       1.0  0.90628  0.16437  0.36160  1.0000
  Mg  Mg7       1.0  0.43037  0.03975  0.32270  1.0000
  C   C197      1.0  0.58338  0.86804  0.74277  1.0000
  C   C198      1.0  0.67973  0.85745  0.76072  1.0000
  C  Sn15      1.0  0.79032  0.88338  0.77194  1.0000
  C  Sn16      1.0  0.80440  0.92058  0.76503  1.0000
  C   C199      1.0  0.70736  0.93091  0.74706  1.0000
  C   C200      1.0  0.59714  0.90473  0.73594  1.0000
  H   H63       1.0  0.49802  0.84780  0.73417  1.0000
  O  Te15      1.0  0.88570  0.87232  0.78983  1.0000
  O  Te16      1.0  0.91389  0.94706  0.77595  1.0000
  H   H64       1.0  0.52247  0.91295  0.72206  1.0000
  Mg  Mg8       1.0  0.01731  0.91854  0.79941  1.0000
  C   C201      1.0  0.77192  0.03540  0.45363  1.0000
  C   C202      1.0  0.78535  0.00636  0.43918  1.0000
  C  Sn17      1.0  0.98861  0.96988  0.44619  1.0000
  C  Sn18      1.0  0.97746  0.96242  0.46808  1.0000
  C   C203      1.0  0.96394  0.99166  0.48241  1.0000
  C   C204      1.0  0.76085  0.02807  0.47523  1.0000
  H   H65       1.0  0.76997  0.06356  0.44808  1.0000
  O  Te17      1.0  0.00216  0.94119  0.43154  1.0000
  O  Te18      1.0  0.97967  0.92622  0.47552  1.0000
  H   H66       1.0  0.75033  0.05055  0.48642  1.0000
  Mg  Mg9       1.0  0.99999  0.89649  0.44939  1.0000
  C   C205      1.0  0.68797  0.03054  0.66058  1.0000
  C   C206      1.0  0.93970  0.00372  0.67497  1.0000
  C  Sn19      1.0  0.03498  0.97287  0.66813  1.0000
  C  Sn20      1.0  0.07985  0.96889  0.64646  1.0000
  C   C207      1.0  0.02828  0.99589  0.63219  1.0000
  C   C208      1.0  0.73223  0.02664  0.63921  1.0000
  H   H67       1.0  0.61427  0.05435  0.66601  1.0000
  O  Te19      1.0  0.08487  0.94633  0.68272  1.0000
  O  Te20      1.0  0.17506  0.93833  0.63920  1.0000
  H   H68       1.0  0.69283  0.04742  0.62806  1.0000
  Mg  Mg10      1.0  0.21313  0.90958  0.66515  1.0000
  C   C209      1.0  0.86618  0.91952  0.34351  1.0000
  C   C210      1.0  0.77816  0.92971  0.36225  1.0000
  C  Sn21      1.0  0.66119  0.90428  0.37297  1.0000
  C  Sn22      1.0  0.63212  0.86799  0.36476  1.0000
  C   C211      1.0  0.72092  0.85805  0.34602  1.0000
  C   C212      1.0  0.83764  0.88372  0.33541  1.0000
  H   H69       1.0  0.95657  0.93937  0.33531  1.0000
  O  Te21      1.0  0.57429  0.91493  0.39166  1.0000
  O  Te22      1.0  0.51598  0.84202  0.37517  1.0000
  H   H70       1.0  0.90586  0.87582  0.32091  1.0000
  Mg  Mg11      1.0  0.42866  0.86968  0.40009  1.0000
  C   C213      1.0  0.60881  0.09143  0.77668  1.0000
  C   C214      1.0  0.69925  0.12539  0.77214  1.0000
  C  Sn23      1.0  0.79750  0.13029  0.75323  1.0000
  C  Sn24      1.0  0.80506  0.10059  0.73862  1.0000
  C   C215      1.0  0.71400  0.06672  0.74330  1.0000
  C   C216      1.0  0.61613  0.06212  0.76227  1.0000
  H   H71       1.0  0.53299  0.08787  0.79136  1.0000
  O  Te23      1.0  0.88712  0.16441  0.74895  1.0000
  O  Te24      1.0  0.90221  0.10473  0.71959  1.0000
  H   H72       1.0  0.54602  0.03582  0.76578  1.0000
  Mg  Mg12      1.0  0.00181  0.15650  0.72091  1.0000
  C   C217      1.0  0.21812  0.37114  0.12932  1.0000
  C   C218      1.0  0.32172  0.36487  0.14748  1.0000
  C  Sn25      1.0  0.41918  0.39415  0.15751  1.0000
  C  Sn26      1.0  0.41249  0.43035  0.14917  1.0000
  C   C219      1.0  0.30833  0.43633  0.13100  1.0000
  C   C220      1.0  0.21138  0.40683  0.12109  1.0000
  H   H73       1.0  0.14302  0.34832  0.12166  1.0000
  O  Te25      1.0  0.52206  0.38741  0.17563  1.0000
  O  Te26      1.0  0.50852  0.46011  0.15888  1.0000
  H   H74       1.0  0.13108  0.41169  0.10704  1.0000
  Mg  Mg13      1.0  0.62940  0.43696  0.18322  1.0000
  C   C221      1.0  0.47195  0.61138  0.76013  1.0000
  C   C222      1.0  0.36665  0.57906  0.75543  1.0000
  C  Sn27      1.0  0.25851  0.57677  0.73715  1.0000
  C  Sn28      1.0  0.25607  0.60744  0.72336  1.0000
  C   C223      1.0  0.36200  0.63964  0.72821  1.0000
  C   C224      1.0  0.46967  0.64164  0.74654  1.0000
  H   H75       1.0  0.55534  0.61292  0.77431  1.0000
  O  Te27      1.0  0.15409  0.54427  0.73269  1.0000
  O  Te28      1.0  0.14927  0.60589  0.70499  1.0000
  H   H76       1.0  0.55128  0.66665  0.75017  1.0000
  Mg  Mg14      1.0  0.03052  0.55556  0.70575  1.0000
  C   C225      1.0  0.28012  0.53889  0.04392  1.0000
  C   C226      1.0  0.28101  0.50909  0.05781  1.0000
  C  Sn29      1.0  0.29170  0.47302  0.05007  1.0000
  C  Sn30      1.0  0.30172  0.46677  0.02802  1.0000
  C   C227      1.0  0.30088  0.49677  0.01426  1.0000
  C   C228      1.0  0.29008  0.53274  0.02217  1.0000
  H   H77       1.0  0.27187  0.56672  0.05004  1.0000
  O  Te29      1.0  0.29236  0.44357  0.06416  1.0000
  O  Te30      1.0  0.31258  0.43101  0.01987  1.0000
  H   H78       1.0  0.28951  0.55581  0.01142  1.0000
  Mg  Mg15      1.0  0.30903  0.39989  0.04542  1.0000
  C   C229      1.0  0.17322  0.53211  0.83523  1.0000
  C   C230      1.0  0.26641  0.50829  0.82173  1.0000
  C  Sn31      1.0  0.35559  0.47781  0.82980  1.0000
  C  Sn32      1.0  0.35111  0.47111  0.85180  1.0000
  C   C231      1.0  0.25739  0.49509  0.86517  1.0000
  C   C232      1.0  0.16866  0.52551  0.85692  1.0000
  H   H79       1.0  0.10448  0.55563  0.82885  1.0000
  O  Te31      1.0  0.44812  0.45431  0.81610  1.0000
  O  Te32      1.0  0.43902  0.44085  0.86028  1.0000
  H   H80       1.0  0.09642  0.54393  0.86737  1.0000
  Mg  Mg16      1.0  0.54708  0.41675  0.83520  1.0000
  C   C233      1.0  0.44209  0.62676  0.12894  1.0000
  C   C234      1.0  0.34679  0.63670  0.14725  1.0000
  C  Sn33      1.0  0.22865  0.61090  0.15754  1.0000
  C  Sn34      1.0  0.20583  0.57449  0.14931  1.0000
  C   C235      1.0  0.30189  0.56482  0.13099  1.0000
  C   C236      1.0  0.41971  0.59085  0.12081  1.0000
  H   H81       1.0  0.53332  0.64690  0.12107  1.0000
  O  Te33      1.0  0.13444  0.62130  0.17582  1.0000
  O  Te34      1.0  0.08868  0.54816  0.15928  1.0000
  H   H82       1.0  0.49357  0.58314  0.10664  1.0000
  Mg  Mg17      1.0  0.99033  0.57559  0.18374  1.0000
  C   C237      1.0  0.44352  0.40793  0.71984  1.0000
  C   C238      1.0  0.38138  0.37246  0.72588  1.0000
  C  Sn35      1.0  0.28636  0.36709  0.74496  1.0000
  C  Sn36      1.0  0.25310  0.39785  0.75821  1.0000
  C   C239      1.0  0.31572  0.43323  0.75202  1.0000
  C   C240      1.0  0.41071  0.43829  0.73289  1.0000
  H   H83       1.0  0.51693  0.41185  0.70504  1.0000
  O  Te35      1.0  0.22529  0.33146  0.75076  1.0000
  O  Te36      1.0  0.15842  0.39328  0.77736  1.0000
  H   H84       1.0  0.45870  0.46576  0.72821  1.0000
  Mg  Mg18      1.0  0.10259  0.33931  0.77837  1.0000
  C   C241      1.0  0.42629  0.92678  0.65356  1.0000
  C   C242      1.0  0.34556  0.93153  0.63381  1.0000
  C  Sn37      1.0  0.24713  0.90216  0.62398  1.0000
  C  Sn38      1.0  0.22940  0.86741  0.63417  1.0000
  C   C243      1.0  0.31057  0.86295  0.65394  1.0000
  C   C244      1.0  0.40881  0.89252  0.66362  1.0000
  H   H85       1.0  0.50222  0.94967  0.66106  1.0000
  O  Te37      1.0  0.16740  0.90738  0.60424  1.0000
  O  Te38      1.0  0.13173  0.83759  0.62471  1.0000
  H   H86       1.0  0.47120  0.88884  0.67893  1.0000
  Mg  Mg19      1.0  0.04787  0.85838  0.59772  1.0000
  C   C245      1.0  0.46173  0.13144  0.25449  1.0000
  C   C246      1.0  0.38983  0.13982  0.23473  1.0000
  C  Sn39      1.0  0.28351  0.11325  0.22348  1.0000
  C  Sn40      1.0  0.24871  0.07765  0.23222  1.0000
  C   C247      1.0  0.32115  0.06954  0.25200  1.0000
  C   C248      1.0  0.42741  0.09633  0.26312  1.0000
  H   H87       1.0  0.54386  0.15217  0.26310  1.0000
  O  Te39      1.0  0.21279  0.12209  0.20375  1.0000
  O  Te40      1.0  0.14284  0.05058  0.22132  1.0000
  H   H88       1.0  0.48296  0.08984  0.27843  1.0000
  Mg  Mg20      1.0  0.07659  0.07587  0.19497  1.0000
  C   C249      1.0  0.32850  0.96188  0.54332  1.0000
  C   C250      1.0  0.31355  0.99111  0.55762  1.0000
  C  Sn41      1.0  0.07447  0.02644  0.55050  1.0000
  C  Sn42      1.0  0.05062  0.03253  0.52863  1.0000
  C   C251      1.0  0.26641  0.00310  0.51445  1.0000
  C   C252      1.0  0.30492  0.96786  0.52176  1.0000
  H   H89       1.0  0.35820  0.93461  0.54897  1.0000
  O  Te41      1.0  0.06007  0.05533  0.56500  1.0000
  O  Te42      1.0  0.01208  0.06756  0.52108  1.0000
  H   H90       1.0  0.31637  0.94524  0.51068  1.0000
  Mg  Mg21      1.0  0.00576  0.09810  0.54703  1.0000
  C   C253      1.0  0.17716  0.03296  0.33554  1.0000
  C   C254      1.0  0.26759  0.00908  0.32184  1.0000
  C  Sn43      1.0  0.55686  0.97835  0.32969  1.0000
  C  Sn44      1.0  0.55459  0.97147  0.35166  1.0000
  C   C255      1.0  0.46363  0.99552  0.36524  1.0000
  C   C256      1.0  0.17479  0.02620  0.35722  1.0000
  H   H91       1.0  0.10887  0.05669  0.32933  1.0000
  O  Te43      1.0  0.64662  0.95477  0.31578  1.0000
  O  Te44      1.0  0.64196  0.94096  0.35993  1.0000
  H   H92       1.0  0.10469  0.04467  0.36783  1.0000
  Mg  Mg22      1.0  0.74589  0.91685  0.33462  1.0000
  C   C257      1.0  0.20397  0.07658  0.65403  1.0000
  C   C258      1.0  0.26745  0.06888  0.63368  1.0000
  C  Sn45      1.0  0.37891  0.09501  0.62278  1.0000
  C  Sn46      1.0  0.42752  0.12945  0.63246  1.0000
  C   C259      1.0  0.36342  0.13688  0.65283  1.0000
  C   C260      1.0  0.25192  0.11054  0.66359  1.0000
  H   H93       1.0  0.11779  0.05620  0.66236  1.0000
  O  Te45      1.0  0.44108  0.08687  0.60246  1.0000
  O  Te46      1.0  0.53878  0.15606  0.62192  1.0000
  H   H94       1.0  0.20289  0.11651  0.67935  1.0000
  Mg  Mg23      1.0  0.58934  0.13206  0.59449  1.0000
  C   C261      1.0  0.44909  0.92565  0.22704  1.0000
  C   C262      1.0  0.35038  0.93415  0.24537  1.0000
  C  Sn47      1.0  0.24634  0.90655  0.25601  1.0000
  C  Sn48      1.0  0.24132  0.86979  0.24811  1.0000
  C   C263      1.0  0.34066  0.86157  0.22976  1.0000
  C   C264      1.0  0.44428  0.88940  0.21924  1.0000
  H   H95       1.0  0.52935  0.94718  0.21890  1.0000
  O  Te47      1.0  0.14848  0.91552  0.27430  1.0000
  O  Te48      1.0  0.13851  0.84167  0.25843  1.0000
  H   H96       1.0  0.52078  0.88280  0.20506  1.0000
  Mg  Mg24      1.0  0.02839  0.86762  0.28277  1.0000
