data_image0
_chemical_formula_structural       H72C192N32O48SnCSn2CSnTe4Mg2SnCSn2CSnTe4Mg2SnCSn2CSnTe4Mg2SnCSn2CSnTe4Mg2SnCSn2CSnTe4Mg2SnCSn2CSnTe4Mg2SnCSn2CSnTe4Mg2SnCSn2CSnTe4Mg2SnCSn2CSnTe4Mg2SnCSn2CSnTe4Mg2SnCSn2CSnTe4Mg2SnCSn2CSnTe4Mg2
_chemical_formula_sum              "H72 C216 N32 O48 Sn48 Te48 Mg24"
_cell_length_a       7.82431
_cell_length_b       31.2498
_cell_length_c       54.1495
_cell_angle_alpha    89.5733
_cell_angle_beta     91.6455
_cell_angle_gamma    84.374

_symmetry_space_group_name_H-M    'P1'
_space_group_IT_number       1

loop_
  _space_group_symop_operation_xyz
  'x, y, z'

loop_
  _atom_site_type_symbol
  _atom_site_label
  _atom_site_symmetry_multiplicity
  _atom_site_fract_x
  _atom_site_fract_y
  _atom_site_fract_z
  _atom_site_occupancy
  H   H1        1.0  0.09780  0.55653  0.19870  1.0000
  H   H2        1.0  0.56261  0.43857  0.09180  1.0000
  H   H3        1.0  0.11408  0.43239  0.21671  1.0000
  H   H4        1.0  0.07555  0.55574  0.15313  1.0000
  H   H5        1.0  0.54677  0.36936  0.11383  1.0000
  H   H6        1.0  0.12029  0.36407  0.24043  1.0000
  H   H7        1.0  0.78957  0.58412  0.93916  1.0000
  H   H8        1.0  0.86709  0.70829  0.23150  1.0000
  H   H9        1.0  0.39996  0.71099  0.34784  1.0000
  H   H10       1.0  0.61418  0.06724  0.57687  1.0000
  H   H11       1.0  0.57096  0.02021  0.64807  1.0000
  H   H12       1.0  0.09624  0.93595  0.71678  1.0000
  H   H13       1.0  0.61339  0.06813  0.53131  1.0000
  H   H14       1.0  0.57018  0.08694  0.67216  1.0000
  H   H15       1.0  0.09956  0.86738  0.74025  1.0000
  H   H16       1.0  0.76697  0.08346  0.43935  1.0000
  H   H17       1.0  0.83722  0.20793  0.73184  1.0000
  H   H18       1.0  0.40281  0.21412  0.84570  1.0000
  H   H19       1.0  0.45031  0.44090  0.19786  1.0000
  H   H20       1.0  0.90885  0.47765  0.14870  1.0000
  H   H21       1.0  0.47263  0.47861  0.26964  1.0000
  H   H22       1.0  0.42580  0.44027  0.15247  1.0000
  H   H23       1.0  0.89378  0.40843  0.17060  1.0000
  H   H24       1.0  0.47500  0.41064  0.29364  1.0000
  H   H25       1.0  0.71322  0.42473  0.93997  1.0000
  H   H26       1.0  0.61703  0.29116  0.22597  1.0000
  H   H27       1.0  0.21994  0.28954  0.35221  1.0000
  H   H28       1.0  0.86909  0.93869  0.57761  1.0000
  H   H29       1.0  0.45994  0.98033  0.76953  1.0000
  H   H30       1.0  0.91535  0.06970  0.59670  1.0000
  H   H31       1.0  0.86403  0.93905  0.53209  1.0000
  H   H32       1.0  0.45997  0.91218  0.79329  1.0000
  H   H33       1.0  0.91438  0.13664  0.62093  1.0000
  H   H34       1.0  0.71541  0.92280  0.44035  1.0000
  H   H35       1.0  0.58394  0.78889  0.72559  1.0000
  H   H36       1.0  0.23237  0.79217  0.85267  1.0000
  H   H37       1.0  0.37513  0.43273  0.92367  1.0000
  H   H38       1.0  0.90448  0.44384  0.80221  1.0000
  H   H39       1.0  0.42256  0.48300  0.85264  1.0000
  H   H40       1.0  0.89111  0.56602  0.78440  1.0000
  H   H41       1.0  0.37447  0.43092  0.96926  1.0000
  H   H42       1.0  0.92512  0.44539  0.84791  1.0000
  H   H43       1.0  0.42684  0.41702  0.82794  1.0000
  H   H44       1.0  0.89029  0.63448  0.76079  1.0000
  H   H45       1.0  0.21979  0.41638  0.06150  1.0000
  H   H46       1.0  0.18551  0.29448  0.76728  1.0000
  H   H47       1.0  0.57361  0.28741  0.65562  1.0000
  H   H48       1.0  0.41878  0.98120  0.35339  1.0000
  H   H49       1.0  0.42504  0.06166  0.40909  1.0000
  H   H50       1.0  0.43196  0.91415  0.32942  1.0000
  H   H51       1.0  0.44965  0.13014  0.38666  1.0000
  H   H52       1.0  0.20884  0.91672  0.56155  1.0000
  H   H53       1.0  0.19878  0.79184  0.26885  1.0000
  H   H54       1.0  0.57379  0.78727  0.15713  1.0000
  H   H55       1.0  0.12358  0.56159  0.92364  1.0000
  H   H56       1.0  0.55160  0.55937  0.80226  1.0000
  H   H57       1.0  0.54139  0.52019  0.73005  1.0000
  H   H58       1.0  0.07864  0.43126  0.90323  1.0000
  H   H59       1.0  0.12688  0.56025  0.96917  1.0000
  H   H60       1.0  0.57522  0.56087  0.84776  1.0000
  H   H61       1.0  0.54506  0.58822  0.70615  1.0000
  H   H62       1.0  0.08245  0.36512  0.87834  1.0000
  H   H63       1.0  0.27855  0.57674  0.06037  1.0000
  H   H64       1.0  0.36589  0.71062  0.77359  1.0000
  H   H65       1.0  0.82491  0.71107  0.65020  1.0000
  H   H66       1.0  0.08244  0.02309  0.35163  1.0000
  H   H67       1.0  0.07150  0.92952  0.40347  1.0000
  H   H68       1.0  0.10604  0.09152  0.32925  1.0000
  H   H69       1.0  0.08375  0.86234  0.37928  1.0000
  H   H70       1.0  0.27501  0.07671  0.56031  1.0000
  H   H71       1.0  0.39028  0.20848  0.27430  1.0000
  H   H72       1.0  0.79110  0.20973  0.14835  1.0000
  C   C1        1.0  0.17105  0.53118  0.18868  1.0000
  C   C2        1.0  0.63451  0.43206  0.10910  1.0000
  C   C3        1.0  0.19425  0.42753  0.23341  1.0000
  C   C4        1.0  0.15803  0.53082  0.16294  1.0000
  C   C5        1.0  0.62656  0.39300  0.12131  1.0000
  C   C6        1.0  0.19748  0.38916  0.24673  1.0000
  C   C7        1.0  0.71953  0.46864  0.98734  1.0000
  C   C8        1.0  0.22676  0.46053  0.10887  1.0000
  C   C9        1.0  0.67017  0.69501  0.15257  1.0000
  C   C10       1.0  0.26947  0.69765  0.26650  1.0000
  C   C11       1.0  0.66717  0.34159  0.18150  1.0000
  C   C12       1.0  0.26662  0.34018  0.30752  1.0000
  C   C13       1.0  0.73704  0.48279  0.96133  1.0000
  C   C14       1.0  0.23825  0.47485  0.08279  1.0000
  C   C15       1.0  0.68554  0.72606  0.17307  1.0000
  C   C16       1.0  0.28248  0.72986  0.28654  1.0000
  C   C17       1.0  0.68242  0.29453  0.18713  1.0000
  C   C18       1.0  0.28065  0.29309  0.31317  1.0000
  C   C19       1.0  0.77224  0.54998  0.93929  1.0000
  C   C20       1.0  0.80106  0.72500  0.21572  1.0000
  C   C21       1.0  0.35886  0.72842  0.33088  1.0000
  C   C22       1.0  0.67089  0.03932  0.56713  1.0000
  C   C23       1.0  0.64702  0.04541  0.64211  1.0000
  C   C24       1.0  0.17667  0.93058  0.73342  1.0000
  C   C25       1.0  0.67025  0.03990  0.54144  1.0000
  C   C26       1.0  0.64722  0.08282  0.65580  1.0000
  C   C27       1.0  0.17832  0.89212  0.74658  1.0000
  C   C28       1.0  0.71378  0.96708  0.48757  1.0000
  C   C29       1.0  0.21978  0.96088  0.60893  1.0000
  C   C30       1.0  0.66717  0.19505  0.65164  1.0000
  C   C31       1.0  0.26252  0.20058  0.76463  1.0000
  C   C32       1.0  0.65232  0.84094  0.68263  1.0000
  C   C33       1.0  0.25660  0.84243  0.80732  1.0000
  C   C34       1.0  0.72977  0.98139  0.46159  1.0000
  C   C35       1.0  0.23105  0.97510  0.58283  1.0000
  C   C36       1.0  0.67761  0.22615  0.67222  1.0000
  C   C37       1.0  0.27607  0.23282  0.78471  1.0000
  C   C38       1.0  0.67365  0.79383  0.68796  1.0000
  C   C39       1.0  0.27406  0.79542  0.81302  1.0000
  C   C40       1.0  0.74281  0.04036  0.62061  1.0000
  C   C41       1.0  0.74236  0.11580  0.64809  1.0000
  C   C42       1.0  0.75497  0.04906  0.43956  1.0000
  C   C43       1.0  0.77818  0.22485  0.71563  1.0000
  C   C44       1.0  0.35819  0.23146  0.82885  1.0000
  C   C45       1.0  0.36725  0.46604  0.18826  1.0000
  C   C46       1.0  0.82837  0.45422  0.14113  1.0000
  C   C47       1.0  0.39454  0.45370  0.26332  1.0000
  C   C48       1.0  0.35304  0.46545  0.16259  1.0000
  C   C49       1.0  0.81979  0.41535  0.15350  1.0000
  C   C50       1.0  0.39616  0.41553  0.27682  1.0000
  C   C51       1.0  0.77746  0.54102  0.98721  1.0000
  C   C52       1.0  0.25531  0.53470  0.10826  1.0000
  C   C53       1.0  0.74661  0.30408  0.14536  1.0000
  C   C54       1.0  0.33921  0.30261  0.27132  1.0000
  C   C55       1.0  0.80093  0.65763  0.18720  1.0000
  C   C56       1.0  0.36518  0.66092  0.30317  1.0000
  C   C57       1.0  0.76042  0.52669  0.96115  1.0000
  C   C58       1.0  0.25246  0.51917  0.08243  1.0000
  C   C59       1.0  0.72983  0.27210  0.16558  1.0000
  C   C60       1.0  0.32574  0.27063  0.29159  1.0000
  C   C61       1.0  0.76517  0.70406  0.19371  1.0000
  C   C62       1.0  0.33836  0.70777  0.30840  1.0000
  C   C63       1.0  0.73467  0.46309  0.11888  1.0000
  C   C64       1.0  0.29335  0.46025  0.24147  1.0000
  C   C65       1.0  0.71846  0.38476  0.14366  1.0000
  C   C66       1.0  0.29824  0.38307  0.26849  1.0000
  C   C67       1.0  0.72976  0.45889  0.93978  1.0000
  C   C68       1.0  0.65781  0.27380  0.20948  1.0000
  C   C69       1.0  0.25502  0.27221  0.33545  1.0000
  C   C70       1.0  0.81127  0.96691  0.56753  1.0000
  C   C71       1.0  0.38004  0.95578  0.76323  1.0000
  C   C72       1.0  0.83914  0.07352  0.61314  1.0000
  C   C73       1.0  0.80874  0.96706  0.54186  1.0000
  C   C74       1.0  0.38030  0.91750  0.77657  1.0000
  C   C75       1.0  0.83840  0.11122  0.62671  1.0000
  C   C76       1.0  0.75939  0.04026  0.48742  1.0000
  C   C77       1.0  0.25485  0.03477  0.60824  1.0000
  C   C78       1.0  0.75827  0.80506  0.64730  1.0000
  C   C79       1.0  0.31536  0.80485  0.77063  1.0000
  C   C80       1.0  0.78524  0.15765  0.68699  1.0000
  C   C81       1.0  0.36381  0.16389  0.80110  1.0000
  C   C82       1.0  0.74590  0.02563  0.46140  1.0000
  C   C83       1.0  0.24785  0.01930  0.58242  1.0000
  C   C84       1.0  0.73848  0.77237  0.66699  1.0000
  C   C85       1.0  0.30959  0.77287  0.79114  1.0000
  C   C86       1.0  0.74932  0.20407  0.69334  1.0000
  C   C87       1.0  0.33610  0.21074  0.80644  1.0000
  C   C88       1.0  0.27832  0.96277  0.74147  1.0000
  C   C89       1.0  0.28022  0.88548  0.76821  1.0000
  C   C90       1.0  0.72667  0.95723  0.44008  1.0000
  C   C91       1.0  0.63902  0.77233  0.70963  1.0000
  C   C92       1.0  0.25953  0.77475  0.83567  1.0000
  C   C93       1.0  0.31898  0.46052  0.93357  1.0000
  C   C94       1.0  0.83041  0.46915  0.81216  1.0000
  C   C95       1.0  0.34678  0.45751  0.85824  1.0000
  C   C96       1.0  0.81362  0.57114  0.76746  1.0000
  C   C97       1.0  0.31857  0.45938  0.95926  1.0000
  C   C98       1.0  0.84251  0.46997  0.83787  1.0000
  C   C99       1.0  0.34857  0.42044  0.84420  1.0000
  C   C100      1.0  0.81348  0.60948  0.75422  1.0000
  C   C101      1.0  0.28097  0.53197  0.01304  1.0000
  C   C102      1.0  0.77672  0.54030  0.89158  1.0000
  C   C103      1.0  0.32200  0.30719  0.84864  1.0000
  C   C104      1.0  0.74413  0.30142  0.73542  1.0000
  C   C105      1.0  0.33022  0.66037  0.81889  1.0000
  C   C106      1.0  0.76803  0.65923  0.69407  1.0000
  C   C107      1.0  0.26297  0.51817  0.03912  1.0000
  C   C108      1.0  0.76376  0.52615  0.91770  1.0000
  C   C109      1.0  0.31672  0.27587  0.82810  1.0000
  C   C110      1.0  0.72879  0.26906  0.71543  1.0000
  C   C111      1.0  0.31761  0.70734  0.81310  1.0000
  C   C112      1.0  0.74242  0.70623  0.68823  1.0000
  C   C113      1.0  0.25112  0.46174  0.87979  1.0000
  C   C114      1.0  0.25495  0.38690  0.85157  1.0000
  C   C115      1.0  0.23336  0.45072  0.06130  1.0000
  C   C116      1.0  0.23501  0.27736  0.78398  1.0000
  C   C117      1.0  0.62832  0.27020  0.67200  1.0000
  C   C118      1.0  0.34492  0.95538  0.35908  1.0000
  C   C119      1.0  0.35532  0.06829  0.39162  1.0000
  C   C120      1.0  0.35170  0.91780  0.34546  1.0000
  C   C121      1.0  0.36823  0.10687  0.37915  1.0000
  C   C122      1.0  0.27233  0.03201  0.51301  1.0000
  C   C123      1.0  0.76361  0.03949  0.39206  1.0000
  C   C124      1.0  0.32483  0.80438  0.35054  1.0000
  C   C125      1.0  0.77090  0.80155  0.23561  1.0000
  C   C126      1.0  0.33456  0.15787  0.31862  1.0000
  C   C127      1.0  0.75035  0.15954  0.19330  1.0000
  C   C128      1.0  0.25496  0.01827  0.53910  1.0000
  C   C129      1.0  0.75106  0.02494  0.41805  1.0000
  C   C130      1.0  0.32072  0.77292  0.33001  1.0000
  C   C131      1.0  0.75012  0.76915  0.21578  1.0000
  C   C132      1.0  0.32321  0.20494  0.31307  1.0000
  C   C133      1.0  0.73197  0.20653  0.18743  1.0000
  C   C134      1.0  0.24563  0.95976  0.38025  1.0000
  C   C135      1.0  0.25927  0.88413  0.35292  1.0000
  C   C136      1.0  0.22400  0.95098  0.56136  1.0000
  C   C137      1.0  0.24500  0.77449  0.28563  1.0000
  C   C138      1.0  0.63464  0.77005  0.17311  1.0000
  C   C139      1.0  0.18049  0.53315  0.93359  1.0000
  C   C140      1.0  0.63401  0.53439  0.81211  1.0000
  C   C141      1.0  0.61822  0.54509  0.73673  1.0000
  C   C142      1.0  0.15506  0.42822  0.88679  1.0000
  C   C143      1.0  0.18199  0.53243  0.95922  1.0000
  C   C144      1.0  0.64761  0.53545  0.83777  1.0000
  C   C145      1.0  0.62018  0.58320  0.72331  1.0000
  C   C146      1.0  0.15744  0.39090  0.87285  1.0000
  C   C147      1.0  0.22818  0.45926  0.01353  1.0000
  C   C148      1.0  0.73718  0.46672  0.89213  1.0000
  C   C149      1.0  0.27084  0.69851  0.85553  1.0000
  C   C150      1.0  0.65890  0.69550  0.72899  1.0000
  C   C151      1.0  0.22740  0.34489  0.81230  1.0000
  C   C152      1.0  0.62116  0.33727  0.69989  1.0000
  C   C153      1.0  0.24378  0.47405  0.03946  1.0000
  C   C154      1.0  0.74401  0.48206  0.91798  1.0000
  C   C155      1.0  0.28181  0.72996  0.83495  1.0000
  C   C156      1.0  0.67674  0.72781  0.70909  1.0000
  C   C157      1.0  0.25826  0.29819  0.80640  1.0000
  C   C158      1.0  0.65598  0.29075  0.69429  1.0000
  C   C159      1.0  0.71444  0.53871  0.75902  1.0000
  C   C160      1.0  0.71669  0.61554  0.73212  1.0000
  C   C161      1.0  0.26590  0.54237  0.06061  1.0000
  C   C162      1.0  0.33382  0.72801  0.79044  1.0000
  C   C163      1.0  0.77480  0.72777  0.66643  1.0000
  C   C164      1.0  0.16340  0.04638  0.35924  1.0000
  C   C165      1.0  0.15092  0.92606  0.38734  1.0000
  C   C166      1.0  0.17696  0.08474  0.34662  1.0000
  C   C167      1.0  0.15804  0.88828  0.37382  1.0000
  C   C168      1.0  0.21893  0.95936  0.51357  1.0000
  C   C169      1.0  0.73347  0.96538  0.39232  1.0000
  C   C170      1.0  0.25650  0.19551  0.35472  1.0000
  C   C171      1.0  0.67552  0.19718  0.22943  1.0000
  C   C172      1.0  0.23920  0.84205  0.31374  1.0000
  C   C173      1.0  0.63522  0.83724  0.20083  1.0000
  C   C174      1.0  0.23450  0.97422  0.53949  1.0000
  C   C175      1.0  0.73787  0.98055  0.41825  1.0000
  C   C176      1.0  0.27682  0.22739  0.33464  1.0000
  C   C177      1.0  0.68582  0.22901  0.20896  1.0000
  C   C178      1.0  0.26717  0.79526  0.30808  1.0000
  C   C179      1.0  0.66925  0.79072  0.19513  1.0000
  C   C180      1.0  0.25347  0.03767  0.38179  1.0000
  C   C181      1.0  0.27967  0.11500  0.35652  1.0000
  C   C182      1.0  0.26055  0.04244  0.56057  1.0000
  C   C183      1.0  0.35039  0.22579  0.29086  1.0000
  C   C184      1.0  0.75525  0.22727  0.16502  1.0000
  C   C185      1.0  0.74131  0.00285  0.58061  1.0000
  C   C186      1.0  0.73810  0.00361  0.52864  1.0000
  C   C187      1.0  0.25073  0.49748  0.92033  1.0000
  C   C188      1.0  0.25167  0.49557  0.97221  1.0000
  C   C189      1.0  0.27644  0.49891  0.20159  1.0000
  C   C190      1.0  0.24915  0.49795  0.14982  1.0000
  C   C191      1.0  0.72496  0.50115  0.79908  1.0000
  C   C192      1.0  0.75068  0.50304  0.85072  1.0000
  N   N1        1.0  0.74254  0.65467  0.16230  1.0000
  N   N2        1.0  0.32043  0.65688  0.27767  1.0000
  N   N3        1.0  0.73649  0.15471  0.66168  1.0000
  N   N4        1.0  0.31596  0.16001  0.77576  1.0000
  N   N5        1.0  0.71000  0.34508  0.15636  1.0000
  N   N6        1.0  0.30173  0.34359  0.28199  1.0000
  N   N7        1.0  0.70561  0.84548  0.65806  1.0000
  N   N8        1.0  0.28347  0.84588  0.78153  1.0000
  N   N9        1.0  0.26376  0.34795  0.83798  1.0000
  N   N10       1.0  0.67734  0.34154  0.72483  1.0000
  N   N11       1.0  0.27096  0.84508  0.33953  1.0000
  N   N12       1.0  0.69970  0.84161  0.22537  1.0000
  N   N13       1.0  0.29993  0.65721  0.84457  1.0000
  N   N14       1.0  0.71407  0.65511  0.71879  1.0000
  N   N15       1.0  0.29179  0.15445  0.34375  1.0000
  N   N16       1.0  0.71197  0.15616  0.21872  1.0000
  N   N17       1.0  0.74200  0.50305  0.10637  1.0000
  N   N18       1.0  0.74809  0.50488  0.00210  1.0000
  N   N19       1.0  0.74138  0.00193  0.60676  1.0000
  N   N20       1.0  0.73590  0.00372  0.50239  1.0000
  N   N21       1.0  0.25324  0.49947  0.89422  1.0000
  N   N22       1.0  0.25445  0.49538  0.99844  1.0000
  N   N23       1.0  0.24218  0.99796  0.39431  1.0000
  N   N24       1.0  0.24530  0.99541  0.49846  1.0000
  N   N25       1.0  0.29089  0.49926  0.22782  1.0000
  N   N26       1.0  0.24048  0.49786  0.12349  1.0000
  N   N27       1.0  0.27851  0.00152  0.72768  1.0000
  N   N28       1.0  0.23595  0.99819  0.62348  1.0000
  N   N29       1.0  0.71138  0.50020  0.77289  1.0000
  N   N30       1.0  0.75800  0.50322  0.87703  1.0000
  N   N31       1.0  0.71681  0.00119  0.27308  1.0000
  N   N32       1.0  0.74991  0.00235  0.37732  1.0000
  O   O1        1.0  0.81579  0.57558  0.99486  1.0000
  O   O2        1.0  0.26800  0.57130  0.11528  1.0000
  O   O3        1.0  0.86566  0.62764  0.20001  1.0000
  O   O4        1.0  0.41515  0.63171  0.31744  1.0000
  O   O5        1.0  0.78348  0.29817  0.12386  1.0000
  O   O6        1.0  0.37404  0.29628  0.24973  1.0000
  O   O7        1.0  0.79108  0.07546  0.49492  1.0000
  O   O8        1.0  0.27454  0.07105  0.61526  1.0000
  O   O9        1.0  0.84273  0.12755  0.70025  1.0000
  O   O10       1.0  0.41592  0.13430  0.81502  1.0000
  O   O11       1.0  0.80814  0.80012  0.62631  1.0000
  O   O12       1.0  0.34121  0.79851  0.74875  1.0000
  O   O13       1.0  0.68353  0.43384  0.99495  1.0000
  O   O14       1.0  0.20799  0.42444  0.11645  1.0000
  O   O15       1.0  0.62649  0.37173  0.19509  1.0000
  O   O16       1.0  0.23276  0.37023  0.32132  1.0000
  O   O17       1.0  0.60947  0.70143  0.13174  1.0000
  O   O18       1.0  0.22399  0.70370  0.24489  1.0000
  O   O19       1.0  0.68319  0.93175  0.49504  1.0000
  O   O20       1.0  0.19980  0.92489  0.61655  1.0000
  O   O21       1.0  0.60087  0.87021  0.69619  1.0000
  O   O22       1.0  0.22534  0.87238  0.82131  1.0000
  O   O23       1.0  0.61108  0.20140  0.63056  1.0000
  O   O24       1.0  0.21529  0.20632  0.74307  1.0000
  O   O25       1.0  0.19248  0.42428  0.00623  1.0000
  O   O26       1.0  0.71655  0.43064  0.88490  1.0000
  O   O27       1.0  0.18209  0.37506  0.79837  1.0000
  O   O28       1.0  0.55828  0.36621  0.68628  1.0000
  O   O29       1.0  0.24215  0.70550  0.87722  1.0000
  O   O30       1.0  0.60932  0.70134  0.75000  1.0000
  O   O31       1.0  0.18384  0.92432  0.50627  1.0000
  O   O32       1.0  0.71749  0.92910  0.38496  1.0000
  O   O33       1.0  0.19927  0.87238  0.29969  1.0000
  O   O34       1.0  0.56722  0.86609  0.18757  1.0000
  O   O35       1.0  0.21732  0.20159  0.37612  1.0000
  O   O36       1.0  0.64443  0.20367  0.25114  1.0000
  O   O37       1.0  0.31609  0.56672  0.00521  1.0000
  O   O38       1.0  0.80028  0.57589  0.88372  1.0000
  O   O39       1.0  0.35894  0.63004  0.80499  1.0000
  O   O40       1.0  0.82426  0.62979  0.68108  1.0000
  O   O41       1.0  0.36648  0.30067  0.87019  1.0000
  O   O42       1.0  0.80216  0.29618  0.75650  1.0000
  O   O43       1.0  0.30732  0.06674  0.50514  1.0000
  O   O44       1.0  0.78363  0.07558  0.38463  1.0000
  O   O45       1.0  0.37224  0.12772  0.30493  1.0000
  O   O46       1.0  0.79091  0.12952  0.17976  1.0000
  O   O47       1.0  0.36520  0.79817  0.37227  1.0000
  O   O48       1.0  0.83527  0.79631  0.25633  1.0000
  C  Sn1       1.0  0.87021  0.47030  0.06206  1.0000
  C   C193      1.0  0.80249  0.50263  0.07771  1.0000
  C  Sn2       1.0  0.68840  0.53647  0.06839  1.0000
  C  Sn3       1.0  0.64090  0.53804  0.04290  1.0000
  C   C194      1.0  0.70858  0.50572  0.02727  1.0000
  C  Sn4       1.0  0.82272  0.47186  0.03657  1.0000
  O  Te1       1.0  0.98406  0.43677  0.07177  1.0000
  O  Te2       1.0  0.62243  0.56843  0.08440  1.0000
  O  Te3       1.0  0.52696  0.57161  0.03320  1.0000
  O  Te4       1.0  0.88864  0.43992  0.02058  1.0000
  Mg  Mg1       1.0  0.47162  0.60752  0.06240  1.0000
  Mg  Mg2       1.0  0.03939  0.40080  0.04256  1.0000
  C  Sn5       1.0  0.59347  0.03019  0.33276  1.0000
  C   C195      1.0  0.69232  0.00183  0.34880  1.0000
  C  Sn6       1.0  0.43584  0.97422  0.33988  1.0000
  C  Sn7       1.0  0.47298  0.97499  0.31441  1.0000
  C   C196      1.0  0.76573  0.00334  0.29839  1.0000
  C  Sn8       1.0  0.63061  0.03096  0.30729  1.0000
  O  Te5       1.0  0.45906  0.05751  0.34208  1.0000
  O  Te6       1.0  0.53282  0.94614  0.35627  1.0000
  O  Te7       1.0  0.60752  0.94764  0.30510  1.0000
  O  Te8       1.0  0.53368  0.05903  0.29092  1.0000
  Mg  Mg3       1.0  0.70279  0.91517  0.33473  1.0000
  Mg  Mg4       1.0  0.36376  0.09003  0.31244  1.0000
  C  Sn9       1.0  0.57935  0.92799  0.61548  1.0000
  C   C197      1.0  0.67786  0.96158  0.62154  1.0000
  C  Sn10      1.0  0.81122  0.95544  0.63930  1.0000
  C  Sn11      1.0  0.84696  0.91488  0.65125  1.0000
  C   C198      1.0  0.74850  0.88131  0.64519  1.0000
  C  Sn12      1.0  0.61508  0.88742  0.62743  1.0000
  O  Te9       1.0  0.44666  0.93484  0.59766  1.0000
  O  Te10      1.0  0.29944  0.98951  0.64506  1.0000
  O  Te11      1.0  0.97977  0.90804  0.66908  1.0000
  O  Te12      1.0  0.51847  0.85337  0.62167  1.0000
  Mg  Mg5       1.0  0.07529  0.96435  0.67057  1.0000
  Mg  Mg6       1.0  0.35111  0.87849  0.59615  1.0000
  C  Sn13      1.0  0.40228  0.97141  0.68273  1.0000
  C   C199      1.0  0.71024  0.00106  0.69864  1.0000
  C  Sn14      1.0  0.57020  0.02889  0.69005  1.0000
  C  Sn15      1.0  0.51241  0.02705  0.66505  1.0000
  C   C200      1.0  0.59595  0.99741  0.64916  1.0000
  C  Sn16      1.0  0.34449  0.96956  0.65773  1.0000
  O  Te13      1.0  0.54201  0.94389  0.69171  1.0000
  O  Te14      1.0  0.48875  0.05827  0.70630  1.0000
  O  Te15      1.0  0.37256  0.05460  0.65608  1.0000
  O  Te16      1.0  0.42589  0.94020  0.64150  1.0000
  Mg  Mg7       1.0  0.30389  0.08901  0.68534  1.0000
  Mg  Mg8       1.0  0.61071  0.90943  0.66244  1.0000
  C  Sn17      1.0  0.83398  0.41589  0.73292  1.0000
  C   C201      1.0  0.73475  0.38272  0.73899  1.0000
  C  Sn18      1.0  0.60022  0.38993  0.75533  1.0000
  C  Sn19      1.0  0.56403  0.43117  0.76581  1.0000
  C   C202      1.0  0.66321  0.46432  0.75974  1.0000
  C  Sn20      1.0  0.79780  0.45713  0.74341  1.0000
  O  Te17      1.0  0.96784  0.40796  0.71655  1.0000
  O  Te18      1.0  0.50283  0.35626  0.76112  1.0000
  O  Te19      1.0  0.43005  0.43908  0.78220  1.0000
  O  Te20      1.0  0.89512  0.49078  0.73761  1.0000
  Mg  Mg9       1.0  0.33391  0.38294  0.78435  1.0000
  Mg  Mg10      1.0  0.06401  0.46414  0.71437  1.0000
  C  Sn21      1.0  0.77472  0.94960  0.23177  1.0000
  C   C203      1.0  0.69122  0.96385  0.25310  1.0000
  C  Sn22      1.0  0.62040  0.93473  0.26857  1.0000
  C  Sn23      1.0  0.63339  0.89043  0.26261  1.0000
  C   C204      1.0  0.71687  0.87620  0.24130  1.0000
  C  Sn24      1.0  0.78771  0.90530  0.22581  1.0000
  O  Te21      1.0  0.84458  0.97928  0.21657  1.0000
  O  Te22      1.0  0.53749  0.94975  0.28979  1.0000
  O  Te23      1.0  0.56343  0.86075  0.27783  1.0000
  O  Te24      1.0  0.87060  0.89030  0.20460  1.0000
  Mg  Mg11      1.0  0.46301  0.89683  0.30468  1.0000
  Mg  Mg12      1.0  0.94520  0.94318  0.18971  1.0000
  C  Sn25      1.0  0.33839  0.58447  0.89432  1.0000
  C   C205      1.0  0.24442  0.55060  0.88717  1.0000
  C  Sn26      1.0  0.18014  0.54833  0.86293  1.0000
  C  Sn27      1.0  0.21051  0.58058  0.84547  1.0000
  C   C206      1.0  0.30444  0.61442  0.85262  1.0000
  C  Sn28      1.0  0.36875  0.61671  0.87686  1.0000
  O  Te25      1.0  0.40143  0.58608  0.91865  1.0000
  O  Te26      1.0  0.08651  0.51417  0.85622  1.0000
  O  Te27      1.0  0.14736  0.57893  0.82112  1.0000
  O  Te28      1.0  0.46235  0.65084  0.88357  1.0000
  Mg  Mg13      1.0  0.02726  0.52606  0.82088  1.0000
  Mg  Mg14      1.0  0.52174  0.63898  0.91890  1.0000
  C  Sn29      1.0  0.36254  0.10909  0.73402  1.0000
  C   C207      1.0  0.28612  0.12308  0.75592  1.0000
  C  Sn30      1.0  0.22009  0.09378  0.77181  1.0000
  C  Sn31      1.0  0.23076  0.04957  0.76568  1.0000
  C   C208      1.0  0.30716  0.03560  0.74378  1.0000
  C  Sn32      1.0  0.37320  0.06488  0.72789  1.0000
  O  Te29      1.0  0.42770  0.13894  0.71841  1.0000
  O  Te30      1.0  0.14422  0.10854  0.79360  1.0000
  O  Te31      1.0  0.16551  0.01972  0.78130  1.0000
  O  Te32      1.0  0.44906  0.05014  0.70611  1.0000
  Mg  Mg15      1.0  0.07415  0.05546  0.80888  1.0000
  Mg  Mg16      1.0  0.51925  0.10318  0.69082  1.0000
  C  Sn33      1.0  0.85904  0.09916  0.25469  1.0000
  C   C209      1.0  0.76747  0.11104  0.23276  1.0000
  C  Sn34      1.0  0.63261  0.08807  0.22458  1.0000
  C  Sn35      1.0  0.58826  0.05250  0.23861  1.0000
  C   C210      1.0  0.67977  0.04064  0.26053  1.0000
  C  Sn36      1.0  0.81468  0.06359  0.26872  1.0000
  O  Te33      1.0  0.99338  0.12258  0.26252  1.0000
  O  Te34      1.0  0.54299  0.10055  0.20260  1.0000
  O  Te35      1.0  0.45379  0.02907  0.23077  1.0000
  O  Te36      1.0  0.90425  0.05113  0.29069  1.0000
  Mg  Mg17      1.0  0.37002  0.05854  0.19962  1.0000
  Mg  Mg18      1.0  0.07717  0.09313  0.29370  1.0000
  C  Sn37      1.0  0.16337  0.55928  0.26218  1.0000
  C   C211      1.0  0.24668  0.54549  0.24075  1.0000
  C  Sn38      1.0  0.38300  0.56661  0.23217  1.0000
  C  Sn39      1.0  0.43728  0.60224  0.24529  1.0000
  C   C212      1.0  0.35402  0.61600  0.26671  1.0000
  C  Sn40      1.0  0.21766  0.59490  0.27530  1.0000
  O  Te37      1.0  0.02739  0.53768  0.27042  1.0000
  O  Te38      1.0  0.46425  0.55225  0.21069  1.0000
  O  Te39      1.0  0.57338  0.62383  0.23702  1.0000
  O  Te40      1.0  0.13645  0.60924  0.29677  1.0000
  Mg  Mg19      1.0  0.64332  0.59219  0.20684  1.0000
  Mg  Mg20      1.0  0.95743  0.56932  0.30064  1.0000
  C  Sn41      1.0  0.11741  0.02957  0.45355  1.0000
  C   C213      1.0  0.18989  0.99729  0.46973  1.0000
  C  Sn42      1.0  0.91438  0.96423  0.46122  1.0000
  C  Sn43      1.0  0.95901  0.96343  0.43601  1.0000
  C   C214      1.0  0.27812  0.99570  0.41985  1.0000
  C  Sn44      1.0  0.16204  0.02877  0.42834  1.0000
  O  Te41      1.0  0.00170  0.06232  0.46246  1.0000
  O  Te42      1.0  0.98511  0.93231  0.47775  1.0000
  O  Te43      1.0  0.07482  0.93065  0.42711  1.0000
  O  Te44      1.0  0.09136  0.06068  0.41183  1.0000
  Mg  Mg21      1.0  0.13685  0.89444  0.45679  1.0000
  Mg  Mg22      1.0  0.93968  0.09857  0.43277  1.0000
  C  Sn45      1.0  0.80939  0.61028  0.11901  1.0000
  C   C215      1.0  0.72596  0.62015  0.14102  1.0000
  C  Sn46      1.0  0.65949  0.58791  0.15474  1.0000
  C  Sn47      1.0  0.67684  0.54490  0.14629  1.0000
  C   C216      1.0  0.76025  0.53504  0.12429  1.0000
  C  Sn48      1.0  0.82674  0.56726  0.11056  1.0000
  O  Te45      1.0  0.87486  0.64302  0.10559  1.0000
  O  Te46      1.0  0.57655  0.59857  0.17669  1.0000
  O  Te47      1.0  0.61128  0.51215  0.15973  1.0000
  O  Te48      1.0  0.90966  0.55662  0.08862  1.0000
  Mg  Mg23      1.0  0.50897  0.54269  0.18847  1.0000
  Mg  Mg24      1.0  0.97736  0.61247  0.07683  1.0000
