data_image0
_chemical_formula_structural       H72C192N32O48C2Sn2C2HTe2HMgC2Sn2C2HTe2HMgC2Sn2C2HTe2HMgC2Sn2C2HTe2HMgC2Sn2C2HTe2HMgC2Sn2C2HTe2HMgC2Sn2C2HTe2HMgC2Sn2C2HTe2HMgC2Sn2C2HTe2HMgC2Sn2C2HTe2HMgC2Sn2C2HTe2HMgC2Sn2C2HTe2HMg
_chemical_formula_sum              "H96 C240 N32 O48 Sn24 Te24 Mg12"
_cell_length_a       7.82431
_cell_length_b       31.2498
_cell_length_c       54.1495
_cell_angle_alpha    89.5733
_cell_angle_beta     91.6455
_cell_angle_gamma    84.374

_symmetry_space_group_name_H-M    'P1'
_space_group_IT_number       1

loop_
  _space_group_symop_operation_xyz
  'x, y, z'

loop_
  _atom_site_type_symbol
  _atom_site_label
  _atom_site_symmetry_multiplicity
  _atom_site_fract_x
  _atom_site_fract_y
  _atom_site_fract_z
  _atom_site_occupancy
  H   H1        1.0  0.13415  0.52261  0.26958  1.0000
  H   H2        1.0  0.11408  0.43239  0.21671  1.0000
  H   H3        1.0  0.14913  0.59166  0.29152  1.0000
  H   H4        1.0  0.12029  0.36407  0.24043  1.0000
  H   H5        1.0  0.78957  0.58412  0.93916  1.0000
  H   H6        1.0  0.86709  0.70829  0.23150  1.0000
  H   H7        1.0  0.39996  0.71099  0.34784  1.0000
  H   H8        1.0  0.12389  0.02643  0.76932  1.0000
  H   H9        1.0  0.09624  0.93595  0.71678  1.0000
  H   H10       1.0  0.14325  0.09608  0.79051  1.0000
  H   H11       1.0  0.09956  0.86738  0.74025  1.0000
  H   H12       1.0  0.76697  0.08346  0.43935  1.0000
  H   H13       1.0  0.83722  0.20793  0.73184  1.0000
  H   H14       1.0  0.40281  0.21412  0.84570  1.0000
  H   H15       1.0  0.47263  0.47861  0.26964  1.0000
  H   H16       1.0  0.46922  0.56412  0.21441  1.0000
  H   H17       1.0  0.47500  0.41064  0.29364  1.0000
  H   H18       1.0  0.48118  0.63355  0.23610  1.0000
  H   H19       1.0  0.71322  0.42473  0.93997  1.0000
  H   H20       1.0  0.61703  0.29116  0.22597  1.0000
  H   H21       1.0  0.21994  0.28954  0.35221  1.0000
  H   H22       1.0  0.45994  0.98033  0.76953  1.0000
  H   H23       1.0  0.45972  0.06504  0.71344  1.0000
  H   H24       1.0  0.45997  0.91218  0.79329  1.0000
  H   H25       1.0  0.47612  0.13512  0.73440  1.0000
  H   H26       1.0  0.71541  0.92280  0.44035  1.0000
  H   H27       1.0  0.58394  0.78889  0.72559  1.0000
  H   H28       1.0  0.23237  0.79217  0.85267  1.0000
  H   H29       1.0  0.37513  0.43273  0.92367  1.0000
  H   H30       1.0  0.90448  0.44384  0.80221  1.0000
  H   H31       1.0  0.42256  0.48300  0.85264  1.0000
  H   H32       1.0  0.87408  0.47456  0.73209  1.0000
  H   H33       1.0  0.89111  0.56602  0.78440  1.0000
  H   H34       1.0  0.37447  0.43092  0.96926  1.0000
  H   H35       1.0  0.92512  0.44539  0.84791  1.0000
  H   H36       1.0  0.42684  0.41702  0.82794  1.0000
  H   H37       1.0  0.85660  0.40477  0.71086  1.0000
  H   H38       1.0  0.89029  0.63448  0.76079  1.0000
  H   H39       1.0  0.21979  0.41638  0.06150  1.0000
  H   H40       1.0  0.18551  0.29448  0.76728  1.0000
  H   H41       1.0  0.57361  0.28741  0.65562  1.0000
  H   H42       1.0  0.90566  0.94431  0.30254  1.0000
  H   H43       1.0  0.88752  0.97571  0.23276  1.0000
  H   H44       1.0  0.42504  0.06166  0.40909  1.0000
  H   H45       1.0  0.91935  0.94468  0.34825  1.0000
  H   H46       1.0  0.87833  0.90530  0.21188  1.0000
  H   H47       1.0  0.44965  0.13014  0.38666  1.0000
  H   H48       1.0  0.20884  0.91672  0.56155  1.0000
  H   H49       1.0  0.19878  0.79184  0.26885  1.0000
  H   H50       1.0  0.57379  0.78727  0.15713  1.0000
  H   H51       1.0  0.12358  0.56159  0.92364  1.0000
  H   H52       1.0  0.55160  0.55937  0.80226  1.0000
  H   H53       1.0  0.54139  0.52019  0.73005  1.0000
  H   H54       1.0  0.07864  0.43126  0.90323  1.0000
  H   H55       1.0  0.52241  0.43746  0.78627  1.0000
  H   H56       1.0  0.12688  0.56025  0.96917  1.0000
  H   H57       1.0  0.57522  0.56087  0.84776  1.0000
  H   H58       1.0  0.54506  0.58822  0.70615  1.0000
  H   H59       1.0  0.08245  0.36512  0.87834  1.0000
  H   H60       1.0  0.50790  0.36735  0.76526  1.0000
  H   H61       1.0  0.27855  0.57674  0.06037  1.0000
  H   H62       1.0  0.36589  0.71062  0.77359  1.0000
  H   H63       1.0  0.82491  0.71107  0.65020  1.0000
  H   H64       1.0  0.55203  0.05967  0.30247  1.0000
  H   H65       1.0  0.08244  0.02309  0.35163  1.0000
  H   H66       1.0  0.53201  0.93792  0.28613  1.0000
  H   H67       1.0  0.56881  0.06009  0.34795  1.0000
  H   H68       1.0  0.10604  0.09152  0.32925  1.0000
  H   H69       1.0  0.52496  0.86726  0.26553  1.0000
  H   H70       1.0  0.27501  0.07671  0.56031  1.0000
  H   H71       1.0  0.39028  0.20848  0.27430  1.0000
  H   H72       1.0  0.79110  0.20973  0.14835  1.0000
  C   C1        1.0  0.21065  0.54679  0.26232  1.0000
  C   C2        1.0  0.19425  0.42753  0.23341  1.0000
  C   C3        1.0  0.21939  0.58546  0.27468  1.0000
  C   C4        1.0  0.19748  0.38916  0.24673  1.0000
  C   C5        1.0  0.71953  0.46864  0.98734  1.0000
  C   C6        1.0  0.22676  0.46053  0.10887  1.0000
  C   C7        1.0  0.67017  0.69501  0.15257  1.0000
  C   C8        1.0  0.26947  0.69765  0.26650  1.0000
  C   C9        1.0  0.66717  0.34159  0.18150  1.0000
  C   C10       1.0  0.26662  0.34018  0.30752  1.0000
  C   C11       1.0  0.73704  0.48279  0.96133  1.0000
  C   C12       1.0  0.23825  0.47485  0.08279  1.0000
  C   C13       1.0  0.68554  0.72606  0.17307  1.0000
  C   C14       1.0  0.28248  0.72986  0.28654  1.0000
  C   C15       1.0  0.68242  0.29453  0.18713  1.0000
  C   C16       1.0  0.28065  0.29309  0.31317  1.0000
  C   C17       1.0  0.29954  0.53879  0.24037  1.0000
  C   C18       1.0  0.31590  0.61691  0.26518  1.0000
  C   C19       1.0  0.77224  0.54998  0.93929  1.0000
  C   C20       1.0  0.80106  0.72500  0.21572  1.0000
  C   C21       1.0  0.35886  0.72842  0.33088  1.0000
  C   C22       1.0  0.20166  0.05008  0.76178  1.0000
  C   C23       1.0  0.17667  0.93058  0.73342  1.0000
  C   C24       1.0  0.21225  0.08910  0.77364  1.0000
  C   C25       1.0  0.17832  0.89212  0.74658  1.0000
  C   C26       1.0  0.71378  0.96708  0.48757  1.0000
  C   C27       1.0  0.21978  0.96088  0.60893  1.0000
  C   C28       1.0  0.66717  0.19505  0.65164  1.0000
  C   C29       1.0  0.26252  0.20058  0.76463  1.0000
  C   C30       1.0  0.65232  0.84094  0.68263  1.0000
  C   C31       1.0  0.25660  0.84243  0.80732  1.0000
  C   C32       1.0  0.72977  0.98139  0.46159  1.0000
  C   C33       1.0  0.23105  0.97510  0.58283  1.0000
  C   C34       1.0  0.67761  0.22615  0.67222  1.0000
  C   C35       1.0  0.27607  0.23282  0.78471  1.0000
  C   C36       1.0  0.67365  0.79383  0.68796  1.0000
  C   C37       1.0  0.27406  0.79542  0.81302  1.0000
  C   C38       1.0  0.28979  0.04119  0.73987  1.0000
  C   C39       1.0  0.30954  0.11988  0.76362  1.0000
  C   C40       1.0  0.75497  0.04906  0.43956  1.0000
  C   C41       1.0  0.77818  0.22485  0.71563  1.0000
  C   C42       1.0  0.35819  0.23146  0.82885  1.0000
  C   C43       1.0  0.39454  0.45370  0.26332  1.0000
  C   C44       1.0  0.39733  0.57042  0.23110  1.0000
  C   C45       1.0  0.39616  0.41553  0.27682  1.0000
  C   C46       1.0  0.40474  0.60933  0.24332  1.0000
  C   C47       1.0  0.77746  0.54102  0.98721  1.0000
  C   C48       1.0  0.25531  0.53470  0.10826  1.0000
  C   C49       1.0  0.74661  0.30408  0.14536  1.0000
  C   C50       1.0  0.33921  0.30261  0.27132  1.0000
  C   C51       1.0  0.80093  0.65763  0.18720  1.0000
  C   C52       1.0  0.36518  0.66092  0.30317  1.0000
  C   C53       1.0  0.76042  0.52669  0.96115  1.0000
  C   C54       1.0  0.25246  0.51917  0.08243  1.0000
  C   C55       1.0  0.72983  0.27210  0.16558  1.0000
  C   C56       1.0  0.32574  0.27063  0.29159  1.0000
  C   C57       1.0  0.76517  0.70406  0.19371  1.0000
  C   C58       1.0  0.33836  0.70777  0.30840  1.0000
  C   C59       1.0  0.29335  0.46025  0.24147  1.0000
  C   C60       1.0  0.29824  0.38307  0.26849  1.0000
  C   C61       1.0  0.72976  0.45889  0.93978  1.0000
  C   C62       1.0  0.65781  0.27380  0.20948  1.0000
  C   C63       1.0  0.25502  0.27221  0.33545  1.0000
  C   C64       1.0  0.38004  0.95578  0.76323  1.0000
  C   C65       1.0  0.38893  0.07213  0.73014  1.0000
  C   C66       1.0  0.38030  0.91750  0.77657  1.0000
  C   C67       1.0  0.39820  0.11140  0.74185  1.0000
  C   C68       1.0  0.75939  0.04026  0.48742  1.0000
  C   C69       1.0  0.25485  0.03477  0.60824  1.0000
  C   C70       1.0  0.75827  0.80506  0.64730  1.0000
  C   C71       1.0  0.31536  0.80485  0.77063  1.0000
  C   C72       1.0  0.78524  0.15765  0.68699  1.0000
  C   C73       1.0  0.36381  0.16389  0.80110  1.0000
  C   C74       1.0  0.74590  0.02563  0.46140  1.0000
  C   C75       1.0  0.24785  0.01930  0.58242  1.0000
  C   C76       1.0  0.73848  0.77237  0.66699  1.0000
  C   C77       1.0  0.30959  0.77287  0.79114  1.0000
  C   C78       1.0  0.74932  0.20407  0.69334  1.0000
  C   C79       1.0  0.33610  0.21074  0.80644  1.0000
  C   C80       1.0  0.27832  0.96277  0.74147  1.0000
  C   C81       1.0  0.28022  0.88548  0.76821  1.0000
  C   C82       1.0  0.72667  0.95723  0.44008  1.0000
  C   C83       1.0  0.63902  0.77233  0.70963  1.0000
  C   C84       1.0  0.25953  0.77475  0.83567  1.0000
  C   C85       1.0  0.31898  0.46052  0.93357  1.0000
  C   C86       1.0  0.83041  0.46915  0.81216  1.0000
  C   C87       1.0  0.34678  0.45751  0.85824  1.0000
  C   C88       1.0  0.79376  0.45114  0.73927  1.0000
  C   C89       1.0  0.81362  0.57114  0.76746  1.0000
  C   C90       1.0  0.31857  0.45938  0.95926  1.0000
  C   C91       1.0  0.84251  0.46997  0.83787  1.0000
  C   C92       1.0  0.34857  0.42044  0.84420  1.0000
  C   C93       1.0  0.78392  0.41212  0.72737  1.0000
  C   C94       1.0  0.81348  0.60948  0.75422  1.0000
  C   C95       1.0  0.28097  0.53197  0.01304  1.0000
  C   C96       1.0  0.77672  0.54030  0.89158  1.0000
  C   C97       1.0  0.32200  0.30719  0.84864  1.0000
  C   C98       1.0  0.74413  0.30142  0.73542  1.0000
  C   C99       1.0  0.33022  0.66037  0.81889  1.0000
  C   C100      1.0  0.76803  0.65923  0.69407  1.0000
  C   C101      1.0  0.26297  0.51817  0.03912  1.0000
  C   C102      1.0  0.76376  0.52615  0.91770  1.0000
  C   C103      1.0  0.31672  0.27587  0.82810  1.0000
  C   C104      1.0  0.72879  0.26906  0.71543  1.0000
  C   C105      1.0  0.31761  0.70734  0.81310  1.0000
  C   C106      1.0  0.74242  0.70623  0.68823  1.0000
  C   C107      1.0  0.25112  0.46174  0.87979  1.0000
  C   C108      1.0  0.70098  0.46042  0.76074  1.0000
  C   C109      1.0  0.25495  0.38690  0.85157  1.0000
  C   C110      1.0  0.68275  0.38178  0.73695  1.0000
  C   C111      1.0  0.23336  0.45072  0.06130  1.0000
  C   C112      1.0  0.23501  0.27736  0.78398  1.0000
  C   C113      1.0  0.62832  0.27020  0.67200  1.0000
  C   C114      1.0  0.83055  0.96947  0.31245  1.0000
  C   C115      1.0  0.80788  0.95203  0.23981  1.0000
  C   C116      1.0  0.35532  0.06829  0.39162  1.0000
  C   C117      1.0  0.83866  0.96961  0.33818  1.0000
  C   C118      1.0  0.80273  0.91262  0.22813  1.0000
  C   C119      1.0  0.36823  0.10687  0.37915  1.0000
  C   C120      1.0  0.27233  0.03201  0.51301  1.0000
  C   C121      1.0  0.76361  0.03949  0.39206  1.0000
  C   C122      1.0  0.32483  0.80438  0.35054  1.0000
  C   C123      1.0  0.77090  0.80155  0.23561  1.0000
  C   C124      1.0  0.33456  0.15787  0.31862  1.0000
  C   C125      1.0  0.75035  0.15954  0.19330  1.0000
  C   C126      1.0  0.25496  0.01827  0.53910  1.0000
  C   C127      1.0  0.75106  0.02494  0.41805  1.0000
  C   C128      1.0  0.32072  0.77292  0.33001  1.0000
  C   C129      1.0  0.75012  0.76915  0.21578  1.0000
  C   C130      1.0  0.32321  0.20494  0.31307  1.0000
  C   C131      1.0  0.73197  0.20653  0.18743  1.0000
  C   C132      1.0  0.71126  0.96125  0.26092  1.0000
  C   C133      1.0  0.70255  0.88192  0.23755  1.0000
  C   C134      1.0  0.22400  0.95098  0.56136  1.0000
  C   C135      1.0  0.24500  0.77449  0.28563  1.0000
  C   C136      1.0  0.63464  0.77005  0.17311  1.0000
  C   C137      1.0  0.18049  0.53315  0.93359  1.0000
  C   C138      1.0  0.63401  0.53439  0.81211  1.0000
  C   C139      1.0  0.61822  0.54509  0.73673  1.0000
  C   C140      1.0  0.15506  0.42822  0.88679  1.0000
  C   C141      1.0  0.59771  0.42997  0.77001  1.0000
  C   C142      1.0  0.18199  0.53243  0.95922  1.0000
  C   C143      1.0  0.64761  0.53545  0.83777  1.0000
  C   C144      1.0  0.62018  0.58320  0.72331  1.0000
  C   C145      1.0  0.15744  0.39090  0.87285  1.0000
  C   C146      1.0  0.58932  0.39069  0.75825  1.0000
  C   C147      1.0  0.22818  0.45926  0.01353  1.0000
  C   C148      1.0  0.73718  0.46672  0.89213  1.0000
  C   C149      1.0  0.27084  0.69851  0.85553  1.0000
  C   C150      1.0  0.65890  0.69550  0.72899  1.0000
  C   C151      1.0  0.22740  0.34489  0.81230  1.0000
  C   C152      1.0  0.62116  0.33727  0.69989  1.0000
  C   C153      1.0  0.24378  0.47405  0.03946  1.0000
  C   C154      1.0  0.74401  0.48206  0.91798  1.0000
  C   C155      1.0  0.28181  0.72996  0.83495  1.0000
  C   C156      1.0  0.67674  0.72781  0.70909  1.0000
  C   C157      1.0  0.25826  0.29819  0.80640  1.0000
  C   C158      1.0  0.65598  0.29075  0.69429  1.0000
  C   C159      1.0  0.71444  0.53871  0.75902  1.0000
  C   C160      1.0  0.71669  0.61554  0.73212  1.0000
  C   C161      1.0  0.26590  0.54237  0.06061  1.0000
  C   C162      1.0  0.33382  0.72801  0.79044  1.0000
  C   C163      1.0  0.77480  0.72777  0.66643  1.0000
  C   C164      1.0  0.63365  0.03456  0.31232  1.0000
  C   C165      1.0  0.16340  0.04638  0.35924  1.0000
  C   C166      1.0  0.60934  0.93042  0.27007  1.0000
  C   C167      1.0  0.64330  0.03499  0.33800  1.0000
  C   C168      1.0  0.17696  0.08474  0.34662  1.0000
  C   C169      1.0  0.60560  0.89080  0.25854  1.0000
  C   C170      1.0  0.21893  0.95936  0.51357  1.0000
  C   C171      1.0  0.73347  0.96538  0.39232  1.0000
  C   C172      1.0  0.25650  0.19551  0.35472  1.0000
  C   C173      1.0  0.67552  0.19718  0.22943  1.0000
  C   C174      1.0  0.23920  0.84205  0.31374  1.0000
  C   C175      1.0  0.63522  0.83724  0.20083  1.0000
  C   C176      1.0  0.23450  0.97422  0.53949  1.0000
  C   C177      1.0  0.73787  0.98055  0.41825  1.0000
  C   C178      1.0  0.27682  0.22739  0.33464  1.0000
  C   C179      1.0  0.68582  0.22901  0.20896  1.0000
  C   C180      1.0  0.26717  0.79526  0.30808  1.0000
  C   C181      1.0  0.66925  0.79072  0.19513  1.0000
  C   C182      1.0  0.25347  0.03767  0.38179  1.0000
  C   C183      1.0  0.27967  0.11500  0.35652  1.0000
  C   C184      1.0  0.26055  0.04244  0.56057  1.0000
  C   C185      1.0  0.35039  0.22579  0.29086  1.0000
  C   C186      1.0  0.75525  0.22727  0.16502  1.0000
  C   C187      1.0  0.25073  0.49748  0.92033  1.0000
  C   C188      1.0  0.25167  0.49557  0.97221  1.0000
  C   C189      1.0  0.72496  0.50115  0.79908  1.0000
  C   C190      1.0  0.75068  0.50304  0.85072  1.0000
  C   C191      1.0  0.72712  0.00178  0.29929  1.0000
  C   C192      1.0  0.74491  0.00240  0.35101  1.0000
  N   N1        1.0  0.74254  0.65467  0.16230  1.0000
  N   N2        1.0  0.32043  0.65688  0.27767  1.0000
  N   N3        1.0  0.73649  0.15471  0.66168  1.0000
  N   N4        1.0  0.31596  0.16001  0.77576  1.0000
  N   N5        1.0  0.71000  0.34508  0.15636  1.0000
  N   N6        1.0  0.30173  0.34359  0.28199  1.0000
  N   N7        1.0  0.70561  0.84548  0.65806  1.0000
  N   N8        1.0  0.28347  0.84588  0.78153  1.0000
  N   N9        1.0  0.26376  0.34795  0.83798  1.0000
  N   N10       1.0  0.67734  0.34154  0.72483  1.0000
  N   N11       1.0  0.27096  0.84508  0.33953  1.0000
  N   N12       1.0  0.69970  0.84161  0.22537  1.0000
  N   N13       1.0  0.29993  0.65721  0.84457  1.0000
  N   N14       1.0  0.71407  0.65511  0.71879  1.0000
  N   N15       1.0  0.29179  0.15445  0.34375  1.0000
  N   N16       1.0  0.71197  0.15616  0.21872  1.0000
  N   N17       1.0  0.74200  0.50305  0.10637  1.0000
  N   N18       1.0  0.74809  0.50488  0.00210  1.0000
  N   N19       1.0  0.74138  0.00193  0.60676  1.0000
  N   N20       1.0  0.73590  0.00372  0.50239  1.0000
  N   N21       1.0  0.25324  0.49947  0.89422  1.0000
  N   N22       1.0  0.25445  0.49538  0.99844  1.0000
  N   N23       1.0  0.24218  0.99796  0.39431  1.0000
  N   N24       1.0  0.24530  0.99541  0.49846  1.0000
  N   N25       1.0  0.29089  0.49926  0.22782  1.0000
  N   N26       1.0  0.24048  0.49786  0.12349  1.0000
  N   N27       1.0  0.27851  0.00152  0.72768  1.0000
  N   N28       1.0  0.23595  0.99819  0.62348  1.0000
  N   N29       1.0  0.71138  0.50020  0.77289  1.0000
  N   N30       1.0  0.75800  0.50322  0.87703  1.0000
  N   N31       1.0  0.71681  0.00119  0.27308  1.0000
  N   N32       1.0  0.74991  0.00235  0.37732  1.0000
  O   O1        1.0  0.81579  0.57558  0.99486  1.0000
  O   O2        1.0  0.26800  0.57130  0.11528  1.0000
  O   O3        1.0  0.86566  0.62764  0.20001  1.0000
  O   O4        1.0  0.41515  0.63171  0.31744  1.0000
  O   O5        1.0  0.78348  0.29817  0.12386  1.0000
  O   O6        1.0  0.37404  0.29628  0.24973  1.0000
  O   O7        1.0  0.79108  0.07546  0.49492  1.0000
  O   O8        1.0  0.27454  0.07105  0.61526  1.0000
  O   O9        1.0  0.84273  0.12755  0.70025  1.0000
  O   O10       1.0  0.41592  0.13430  0.81502  1.0000
  O   O11       1.0  0.80814  0.80012  0.62631  1.0000
  O   O12       1.0  0.34121  0.79851  0.74875  1.0000
  O   O13       1.0  0.68353  0.43384  0.99495  1.0000
  O   O14       1.0  0.20799  0.42444  0.11645  1.0000
  O   O15       1.0  0.62649  0.37173  0.19509  1.0000
  O   O16       1.0  0.23276  0.37023  0.32132  1.0000
  O   O17       1.0  0.60947  0.70143  0.13174  1.0000
  O   O18       1.0  0.22399  0.70370  0.24489  1.0000
  O   O19       1.0  0.68319  0.93175  0.49504  1.0000
  O   O20       1.0  0.19980  0.92489  0.61655  1.0000
  O   O21       1.0  0.60087  0.87021  0.69619  1.0000
  O   O22       1.0  0.22534  0.87238  0.82131  1.0000
  O   O23       1.0  0.61108  0.20140  0.63056  1.0000
  O   O24       1.0  0.21529  0.20632  0.74307  1.0000
  O   O25       1.0  0.19248  0.42428  0.00623  1.0000
  O   O26       1.0  0.71655  0.43064  0.88490  1.0000
  O   O27       1.0  0.18209  0.37506  0.79837  1.0000
  O   O28       1.0  0.55828  0.36621  0.68628  1.0000
  O   O29       1.0  0.24215  0.70550  0.87722  1.0000
  O   O30       1.0  0.60932  0.70134  0.75000  1.0000
  O   O31       1.0  0.18384  0.92432  0.50627  1.0000
  O   O32       1.0  0.71749  0.92910  0.38496  1.0000
  O   O33       1.0  0.19927  0.87238  0.29969  1.0000
  O   O34       1.0  0.56722  0.86609  0.18757  1.0000
  O   O35       1.0  0.21732  0.20159  0.37612  1.0000
  O   O36       1.0  0.64443  0.20367  0.25114  1.0000
  O   O37       1.0  0.31609  0.56672  0.00521  1.0000
  O   O38       1.0  0.80028  0.57589  0.88372  1.0000
  O   O39       1.0  0.35894  0.63004  0.80499  1.0000
  O   O40       1.0  0.82426  0.62979  0.68108  1.0000
  O   O41       1.0  0.36648  0.30067  0.87019  1.0000
  O   O42       1.0  0.80216  0.29618  0.75650  1.0000
  O   O43       1.0  0.30732  0.06674  0.50514  1.0000
  O   O44       1.0  0.78363  0.07558  0.38463  1.0000
  O   O45       1.0  0.37224  0.12772  0.30493  1.0000
  O   O46       1.0  0.79091  0.12952  0.17976  1.0000
  O   O47       1.0  0.36520  0.79817  0.37227  1.0000
  O   O48       1.0  0.83527  0.79631  0.25633  1.0000
  C   C193      1.0  0.83007  0.08350  0.26691  1.0000
  C   C194      1.0  0.73623  0.04835  0.26257  1.0000
  C  Sn1       1.0  0.63188  0.04709  0.24126  1.0000
  C  Sn2       1.0  0.62159  0.08171  0.22401  1.0000
  C   C195      1.0  0.71607  0.11671  0.22851  1.0000
  C   C196      1.0  0.82005  0.11765  0.24989  1.0000
  H   H73       1.0  0.91060  0.08422  0.28344  1.0000
  O  Te1       1.0  0.53893  0.01173  0.23722  1.0000
  O  Te2       1.0  0.51834  0.08127  0.20256  1.0000
  H   H74       1.0  0.89278  0.14485  0.25324  1.0000
  Mg  Mg1       1.0  0.41610  0.02598  0.20528  1.0000
  C   C197      1.0  0.66358  0.04566  0.56124  1.0000
  C   C198      1.0  0.71465  0.01190  0.57773  1.0000
  C  Sn3       1.0  0.39785  0.97266  0.56902  1.0000
  C  Sn4       1.0  0.42179  0.96721  0.54332  1.0000
  C   C199      1.0  0.76192  0.00119  0.52698  1.0000
  C   C200      1.0  0.68721  0.04032  0.53589  1.0000
  H   H75       1.0  0.60586  0.07595  0.56813  1.0000
  O  Te3       1.0  0.44807  0.93926  0.58576  1.0000
  O  Te4       1.0  0.49622  0.92833  0.53413  1.0000
  H   H76       1.0  0.64778  0.06646  0.52311  1.0000
  Mg  Mg2       1.0  0.54359  0.89235  0.56426  1.0000
  C   C201      1.0  0.14166  0.53544  0.16888  1.0000
  C   C202      1.0  0.23127  0.50833  0.15223  1.0000
  C  Sn5       1.0  0.34375  0.47362  0.16088  1.0000
  C  Sn6       1.0  0.36664  0.46598  0.18668  1.0000
  C   C203      1.0  0.27631  0.49327  0.20318  1.0000
  C   C204      1.0  0.16412  0.52792  0.19433  1.0000
  H   H77       1.0  0.05478  0.56224  0.16204  1.0000
  O  Te5       1.0  0.43232  0.44686  0.14399  1.0000
  O  Te6       1.0  0.47821  0.43151  0.19582  1.0000
  H   H78       1.0  0.09467  0.54888  0.20722  1.0000
  Mg  Mg3       1.0  0.57006  0.40408  0.16547  1.0000
  C   C205      1.0  0.36212  0.92921  0.34591  1.0000
  C   C206      1.0  0.29032  0.89097  0.35093  1.0000
  C  Sn7       1.0  0.18332  0.88824  0.37098  1.0000
  C  Sn8       1.0  0.14774  0.92453  0.38626  1.0000
  C   C207      1.0  0.22010  0.96265  0.38108  1.0000
  C   C208      1.0  0.32704  0.96502  0.36097  1.0000
  H   H79       1.0  0.44479  0.93106  0.33035  1.0000
  O  Te7       1.0  0.11271  0.84979  0.37573  1.0000
  O  Te8       1.0  0.04119  0.92269  0.40641  1.0000
  H   H80       1.0  0.77406  0.99465  0.35708  1.0000
  Mg  Mg4       1.0  0.97539  0.86313  0.40536  1.0000
  C   C209      1.0  0.63736  0.55163  0.14794  1.0000
  C   C210      1.0  0.71330  0.54181  0.12536  1.0000
  C  Sn9       1.0  0.81753  0.57018  0.11460  1.0000
  C  Sn10      1.0  0.84607  0.60906  0.12671  1.0000
  C   C211      1.0  0.76962  0.61858  0.14929  1.0000
  C   C212      1.0  0.66550  0.58997  0.15989  1.0000
  H   H81       1.0  0.55688  0.52949  0.15615  1.0000
  O  Te9       1.0  0.89235  0.55988  0.09203  1.0000
  O  Te10      1.0  0.94973  0.63798  0.11636  1.0000
  H   H82       1.0  0.60682  0.59757  0.17738  1.0000
  Mg  Mg5       1.0  0.02334  0.60961  0.08532  1.0000
  C   C213      1.0  0.83394  0.94788  0.64792  1.0000
  C   C214      1.0  0.76385  0.96069  0.62469  1.0000
  C  Sn11      1.0  0.65583  0.93485  0.61193  1.0000
  C  Sn12      1.0  0.61748  0.89549  0.62267  1.0000
  C   C215      1.0  0.68815  0.88298  0.64593  1.0000
  C   C216      1.0  0.79613  0.90907  0.65853  1.0000
  H   H83       1.0  0.91741  0.96808  0.65768  1.0000
  O  Te11      1.0  0.58695  0.94812  0.58873  1.0000
  O  Te12      1.0  0.50986  0.86906  0.61033  1.0000
  H   H84       1.0  0.85029  0.89917  0.67652  1.0000
  Mg  Mg6       1.0  0.44723  0.90103  0.57915  1.0000
  C   C217      1.0  0.60935  0.40057  0.11624  1.0000
  C   C218      1.0  0.70074  0.38434  0.13738  1.0000
  C  Sn13      1.0  0.81031  0.40963  0.15025  1.0000
  C  Sn14      1.0  0.82841  0.45196  0.14175  1.0000
  C   C219      1.0  0.73631  0.46792  0.12059  1.0000
  C   C220      1.0  0.62707  0.44233  0.10785  1.0000
  H   H85       1.0  0.52475  0.38078  0.10639  1.0000
  O  Te13      1.0  0.90072  0.39290  0.17134  1.0000
  O  Te14      1.0  0.93698  0.47794  0.15426  1.0000
  H   H86       1.0  0.55624  0.45492  0.09149  1.0000
  Mg  Mg7       1.0  0.03299  0.44072  0.18206  1.0000
  C   C221      1.0  0.13612  0.03691  0.66841  1.0000
  C   C222      1.0  0.22578  0.00915  0.65210  1.0000
  C  Sn15      1.0  0.94412  0.97426  0.66115  1.0000
  C  Sn16      1.0  0.96433  0.96712  0.68702  1.0000
  C   C223      1.0  0.26550  0.99506  0.70319  1.0000
  C   C224      1.0  0.15592  0.02988  0.69393  1.0000
  H   H87       1.0  0.05125  0.06384  0.66125  1.0000
  O  Te15      1.0  0.03278  0.94685  0.64459  1.0000
  O  Te16      1.0  0.07327  0.93249  0.69657  1.0000
  H   H88       1.0  0.08643  0.05136  0.70657  1.0000
  Mg  Mg8       1.0  0.16637  0.90410  0.66656  1.0000
  C   C225      1.0  0.15483  0.55677  0.85475  1.0000
  C   C226      1.0  0.24519  0.53992  0.87584  1.0000
  C  Sn17      1.0  0.35761  0.56442  0.88873  1.0000
  C  Sn18      1.0  0.37967  0.60658  0.88031  1.0000
  C   C227      1.0  0.28858  0.62316  0.85920  1.0000
  C   C228      1.0  0.17646  0.59836  0.84644  1.0000
  H   H89       1.0  0.06800  0.53760  0.84488  1.0000
  O  Te17      1.0  0.44694  0.54708  0.90976  1.0000
  O  Te18      1.0  0.49116  0.63177  0.89285  1.0000
  H   H90       1.0  0.10643  0.61143  0.83012  1.0000
  Mg  Mg9       1.0  0.58423  0.59392  0.92054  1.0000
  C   C229      1.0  0.15250  0.03727  0.43932  1.0000
  C   C230      1.0  0.22728  0.00667  0.42317  1.0000
  C  Sn19      1.0  0.91651  0.96768  0.43232  1.0000
  C  Sn20      1.0  0.92228  0.95925  0.45813  1.0000
  C   C231      1.0  0.84698  0.99005  0.47413  1.0000
  C   C232      1.0  0.15808  0.02896  0.46477  1.0000
  H   H91       1.0  0.09017  0.06737  0.43208  1.0000
  O  Te19      1.0  0.99063  0.93748  0.41593  1.0000
  O  Te20      1.0  0.00213  0.92053  0.46778  1.0000
  H   H92       1.0  0.10010  0.05263  0.47728  1.0000
  Mg  Mg10      1.0  0.08471  0.88949  0.43799  1.0000
  C   C233      1.0  0.85099  0.08482  0.61357  1.0000
  C   C234      1.0  0.77558  0.04717  0.61880  1.0000
  C  Sn21      1.0  0.67188  0.04504  0.63927  1.0000
  C  Sn22      1.0  0.64334  0.08133  0.65474  1.0000
  C   C235      1.0  0.71926  0.11885  0.64934  1.0000
  C   C236      1.0  0.82285  0.12063  0.62882  1.0000
  H   H93       1.0  0.93106  0.08620  0.59768  1.0000
  O  Te21      1.0  0.59758  0.00718  0.64423  1.0000
  O  Te22      1.0  0.54021  0.08008  0.67531  1.0000
  H   H94       1.0  0.88113  0.14979  0.62476  1.0000
  Mg  Mg11      1.0  0.46719  0.02120  0.67442  1.0000
  C   C237      1.0  0.66322  0.54653  0.04676  1.0000
  C   C238      1.0  0.74044  0.51592  0.03083  1.0000
  C  Sn23      1.0  0.81896  0.47683  0.04017  1.0000
  C  Sn24      1.0  0.81993  0.46830  0.06595  1.0000
  C   C239      1.0  0.74222  0.49911  0.08173  1.0000
  C   C240      1.0  0.66407  0.53814  0.07218  1.0000
  H   H95       1.0  0.60266  0.57671  0.03937  1.0000
  O  Te23      1.0  0.89557  0.44661  0.02399  1.0000
  O  Te24      1.0  0.89744  0.42948  0.07578  1.0000
  H   H96       1.0  0.60419  0.56182  0.08452  1.0000
  Mg  Mg12      1.0  0.98492  0.39846  0.04625  1.0000
