data_image0
_chemical_formula_structural       H24C120N32O48C2Sn2C2HTe2HMgC2Sn2C2HTe2HMgC2Sn2C2HTe2HMgC2Sn2C2HTe2HMgC2Sn2C2HTe2HMgC2Sn2C2HTe2HMgC2Sn2C2HTe2HMgC2Sn2C2HTe2HMgC2Sn2C2HTe2HMgC2Sn2C2HTe2HMgC2Sn2C2HTe2HMgC2Sn2C2HTe2HMgC2Sn2C2HTe2HMgC2Sn2C2HTe2HMgC2Sn2C2HTe2HMgC2Sn2C2HTe2HMgC2Sn2C2HTe2HMgC2Sn2C2HTe2HMgC2Sn2C2HTe2HMgC2Sn2C2HTe2HMgC2Sn2C2HTe2HMgC2Sn2C2HTe2HMgC2Sn2C2HTe2HMgC2Sn2C2HTe2HMg
_chemical_formula_sum              "H72 C216 N32 O48 Sn48 Te48 Mg24"
_cell_length_a       7.82431
_cell_length_b       31.2498
_cell_length_c       54.1495
_cell_angle_alpha    89.5733
_cell_angle_beta     91.6455
_cell_angle_gamma    84.374

_symmetry_space_group_name_H-M    'P1'
_space_group_IT_number       1

loop_
  _space_group_symop_operation_xyz
  'x, y, z'

loop_
  _atom_site_type_symbol
  _atom_site_label
  _atom_site_symmetry_multiplicity
  _atom_site_fract_x
  _atom_site_fract_y
  _atom_site_fract_z
  _atom_site_occupancy
  H   H1        1.0  0.78957  0.58412  0.93916  1.0000
  H   H2        1.0  0.86709  0.70829  0.23150  1.0000
  H   H3        1.0  0.39996  0.71099  0.34784  1.0000
  H   H4        1.0  0.76697  0.08346  0.43935  1.0000
  H   H5        1.0  0.83722  0.20793  0.73184  1.0000
  H   H6        1.0  0.40281  0.21412  0.84570  1.0000
  H   H7        1.0  0.71322  0.42473  0.93997  1.0000
  H   H8        1.0  0.61703  0.29116  0.22597  1.0000
  H   H9        1.0  0.21994  0.28954  0.35221  1.0000
  H   H10       1.0  0.71541  0.92280  0.44035  1.0000
  H   H11       1.0  0.58394  0.78889  0.72559  1.0000
  H   H12       1.0  0.23237  0.79217  0.85267  1.0000
  H   H13       1.0  0.21979  0.41638  0.06150  1.0000
  H   H14       1.0  0.18551  0.29448  0.76728  1.0000
  H   H15       1.0  0.57361  0.28741  0.65562  1.0000
  H   H16       1.0  0.20884  0.91672  0.56155  1.0000
  H   H17       1.0  0.19878  0.79184  0.26885  1.0000
  H   H18       1.0  0.57379  0.78727  0.15713  1.0000
  H   H19       1.0  0.27855  0.57674  0.06037  1.0000
  H   H20       1.0  0.36589  0.71062  0.77359  1.0000
  H   H21       1.0  0.82491  0.71107  0.65020  1.0000
  H   H22       1.0  0.27501  0.07671  0.56031  1.0000
  H   H23       1.0  0.39028  0.20848  0.27430  1.0000
  H   H24       1.0  0.79110  0.20973  0.14835  1.0000
  C   C1        1.0  0.71953  0.46864  0.98734  1.0000
  C   C2        1.0  0.22676  0.46053  0.10887  1.0000
  C   C3        1.0  0.67017  0.69501  0.15257  1.0000
  C   C4        1.0  0.26947  0.69765  0.26650  1.0000
  C   C5        1.0  0.66717  0.34159  0.18150  1.0000
  C   C6        1.0  0.26662  0.34018  0.30752  1.0000
  C   C7        1.0  0.73704  0.48279  0.96133  1.0000
  C   C8        1.0  0.23825  0.47485  0.08279  1.0000
  C   C9        1.0  0.68554  0.72606  0.17307  1.0000
  C   C10       1.0  0.28248  0.72986  0.28654  1.0000
  C   C11       1.0  0.68242  0.29453  0.18713  1.0000
  C   C12       1.0  0.28065  0.29309  0.31317  1.0000
  C   C13       1.0  0.77224  0.54998  0.93929  1.0000
  C   C14       1.0  0.80106  0.72500  0.21572  1.0000
  C   C15       1.0  0.35886  0.72842  0.33088  1.0000
  C   C16       1.0  0.71378  0.96708  0.48757  1.0000
  C   C17       1.0  0.21978  0.96088  0.60893  1.0000
  C   C18       1.0  0.66717  0.19505  0.65164  1.0000
  C   C19       1.0  0.26252  0.20058  0.76463  1.0000
  C   C20       1.0  0.65232  0.84094  0.68263  1.0000
  C   C21       1.0  0.25660  0.84243  0.80732  1.0000
  C   C22       1.0  0.72977  0.98139  0.46159  1.0000
  C   C23       1.0  0.23105  0.97510  0.58283  1.0000
  C   C24       1.0  0.67761  0.22615  0.67222  1.0000
  C   C25       1.0  0.27607  0.23282  0.78471  1.0000
  C   C26       1.0  0.67365  0.79383  0.68796  1.0000
  C   C27       1.0  0.27406  0.79542  0.81302  1.0000
  C   C28       1.0  0.75497  0.04906  0.43956  1.0000
  C   C29       1.0  0.77818  0.22485  0.71563  1.0000
  C   C30       1.0  0.35819  0.23146  0.82885  1.0000
  C   C31       1.0  0.77746  0.54102  0.98721  1.0000
  C   C32       1.0  0.25531  0.53470  0.10826  1.0000
  C   C33       1.0  0.74661  0.30408  0.14536  1.0000
  C   C34       1.0  0.33921  0.30261  0.27132  1.0000
  C   C35       1.0  0.80093  0.65763  0.18720  1.0000
  C   C36       1.0  0.36518  0.66092  0.30317  1.0000
  C   C37       1.0  0.76042  0.52669  0.96115  1.0000
  C   C38       1.0  0.25246  0.51917  0.08243  1.0000
  C   C39       1.0  0.72983  0.27210  0.16558  1.0000
  C   C40       1.0  0.32574  0.27063  0.29159  1.0000
  C   C41       1.0  0.76517  0.70406  0.19371  1.0000
  C   C42       1.0  0.33836  0.70777  0.30840  1.0000
  C   C43       1.0  0.72976  0.45889  0.93978  1.0000
  C   C44       1.0  0.65781  0.27380  0.20948  1.0000
  C   C45       1.0  0.25502  0.27221  0.33545  1.0000
  C   C46       1.0  0.75939  0.04026  0.48742  1.0000
  C   C47       1.0  0.25485  0.03477  0.60824  1.0000
  C   C48       1.0  0.75827  0.80506  0.64730  1.0000
  C   C49       1.0  0.31536  0.80485  0.77063  1.0000
  C   C50       1.0  0.78524  0.15765  0.68699  1.0000
  C   C51       1.0  0.36381  0.16389  0.80110  1.0000
  C   C52       1.0  0.74590  0.02563  0.46140  1.0000
  C   C53       1.0  0.24785  0.01930  0.58242  1.0000
  C   C54       1.0  0.73848  0.77237  0.66699  1.0000
  C   C55       1.0  0.30959  0.77287  0.79114  1.0000
  C   C56       1.0  0.74932  0.20407  0.69334  1.0000
  C   C57       1.0  0.33610  0.21074  0.80644  1.0000
  C   C58       1.0  0.72667  0.95723  0.44008  1.0000
  C   C59       1.0  0.63902  0.77233  0.70963  1.0000
  C   C60       1.0  0.25953  0.77475  0.83567  1.0000
  C   C61       1.0  0.28097  0.53197  0.01304  1.0000
  C   C62       1.0  0.77672  0.54030  0.89158  1.0000
  C   C63       1.0  0.32200  0.30719  0.84864  1.0000
  C   C64       1.0  0.74413  0.30142  0.73542  1.0000
  C   C65       1.0  0.33022  0.66037  0.81889  1.0000
  C   C66       1.0  0.76803  0.65923  0.69407  1.0000
  C   C67       1.0  0.26297  0.51817  0.03912  1.0000
  C   C68       1.0  0.76376  0.52615  0.91770  1.0000
  C   C69       1.0  0.31672  0.27587  0.82810  1.0000
  C   C70       1.0  0.72879  0.26906  0.71543  1.0000
  C   C71       1.0  0.31761  0.70734  0.81310  1.0000
  C   C72       1.0  0.74242  0.70623  0.68823  1.0000
  C   C73       1.0  0.23336  0.45072  0.06130  1.0000
  C   C74       1.0  0.23501  0.27736  0.78398  1.0000
  C   C75       1.0  0.62832  0.27020  0.67200  1.0000
  C   C76       1.0  0.27233  0.03201  0.51301  1.0000
  C   C77       1.0  0.76361  0.03949  0.39206  1.0000
  C   C78       1.0  0.32483  0.80438  0.35054  1.0000
  C   C79       1.0  0.77090  0.80155  0.23561  1.0000
  C   C80       1.0  0.33456  0.15787  0.31862  1.0000
  C   C81       1.0  0.75035  0.15954  0.19330  1.0000
  C   C82       1.0  0.25496  0.01827  0.53910  1.0000
  C   C83       1.0  0.75106  0.02494  0.41805  1.0000
  C   C84       1.0  0.32072  0.77292  0.33001  1.0000
  C   C85       1.0  0.75012  0.76915  0.21578  1.0000
  C   C86       1.0  0.32321  0.20494  0.31307  1.0000
  C   C87       1.0  0.73197  0.20653  0.18743  1.0000
  C   C88       1.0  0.22400  0.95098  0.56136  1.0000
  C   C89       1.0  0.24500  0.77449  0.28563  1.0000
  C   C90       1.0  0.63464  0.77005  0.17311  1.0000
  C   C91       1.0  0.22818  0.45926  0.01353  1.0000
  C   C92       1.0  0.73718  0.46672  0.89213  1.0000
  C   C93       1.0  0.27084  0.69851  0.85553  1.0000
  C   C94       1.0  0.65890  0.69550  0.72899  1.0000
  C   C95       1.0  0.22740  0.34489  0.81230  1.0000
  C   C96       1.0  0.62116  0.33727  0.69989  1.0000
  C   C97       1.0  0.24378  0.47405  0.03946  1.0000
  C   C98       1.0  0.74401  0.48206  0.91798  1.0000
  C   C99       1.0  0.28181  0.72996  0.83495  1.0000
  C   C100      1.0  0.67674  0.72781  0.70909  1.0000
  C   C101      1.0  0.25826  0.29819  0.80640  1.0000
  C   C102      1.0  0.65598  0.29075  0.69429  1.0000
  C   C103      1.0  0.26590  0.54237  0.06061  1.0000
  C   C104      1.0  0.33382  0.72801  0.79044  1.0000
  C   C105      1.0  0.77480  0.72777  0.66643  1.0000
  C   C106      1.0  0.21893  0.95936  0.51357  1.0000
  C   C107      1.0  0.73347  0.96538  0.39232  1.0000
  C   C108      1.0  0.25650  0.19551  0.35472  1.0000
  C   C109      1.0  0.67552  0.19718  0.22943  1.0000
  C   C110      1.0  0.23920  0.84205  0.31374  1.0000
  C   C111      1.0  0.63522  0.83724  0.20083  1.0000
  C   C112      1.0  0.23450  0.97422  0.53949  1.0000
  C   C113      1.0  0.73787  0.98055  0.41825  1.0000
  C   C114      1.0  0.27682  0.22739  0.33464  1.0000
  C   C115      1.0  0.68582  0.22901  0.20896  1.0000
  C   C116      1.0  0.26717  0.79526  0.30808  1.0000
  C   C117      1.0  0.66925  0.79072  0.19513  1.0000
  C   C118      1.0  0.26055  0.04244  0.56057  1.0000
  C   C119      1.0  0.35039  0.22579  0.29086  1.0000
  C   C120      1.0  0.75525  0.22727  0.16502  1.0000
  N   N1        1.0  0.74254  0.65467  0.16230  1.0000
  N   N2        1.0  0.32043  0.65688  0.27767  1.0000
  N   N3        1.0  0.73649  0.15471  0.66168  1.0000
  N   N4        1.0  0.31596  0.16001  0.77576  1.0000
  N   N5        1.0  0.71000  0.34508  0.15636  1.0000
  N   N6        1.0  0.30173  0.34359  0.28199  1.0000
  N   N7        1.0  0.70561  0.84548  0.65806  1.0000
  N   N8        1.0  0.28347  0.84588  0.78153  1.0000
  N   N9        1.0  0.26376  0.34795  0.83798  1.0000
  N   N10       1.0  0.67734  0.34154  0.72483  1.0000
  N   N11       1.0  0.27096  0.84508  0.33953  1.0000
  N   N12       1.0  0.69970  0.84161  0.22537  1.0000
  N   N13       1.0  0.29993  0.65721  0.84457  1.0000
  N   N14       1.0  0.71407  0.65511  0.71879  1.0000
  N   N15       1.0  0.29179  0.15445  0.34375  1.0000
  N   N16       1.0  0.71197  0.15616  0.21872  1.0000
  N   N17       1.0  0.74200  0.50305  0.10637  1.0000
  N   N18       1.0  0.74809  0.50488  0.00210  1.0000
  N   N19       1.0  0.74138  0.00193  0.60676  1.0000
  N   N20       1.0  0.73590  0.00372  0.50239  1.0000
  N   N21       1.0  0.25324  0.49947  0.89422  1.0000
  N   N22       1.0  0.25445  0.49538  0.99844  1.0000
  N   N23       1.0  0.24218  0.99796  0.39431  1.0000
  N   N24       1.0  0.24530  0.99541  0.49846  1.0000
  N   N25       1.0  0.29089  0.49926  0.22782  1.0000
  N   N26       1.0  0.24048  0.49786  0.12349  1.0000
  N   N27       1.0  0.27851  0.00152  0.72768  1.0000
  N   N28       1.0  0.23595  0.99819  0.62348  1.0000
  N   N29       1.0  0.71138  0.50020  0.77289  1.0000
  N   N30       1.0  0.75800  0.50322  0.87703  1.0000
  N   N31       1.0  0.71681  0.00119  0.27308  1.0000
  N   N32       1.0  0.74991  0.00235  0.37732  1.0000
  O   O1        1.0  0.81579  0.57558  0.99486  1.0000
  O   O2        1.0  0.26800  0.57130  0.11528  1.0000
  O   O3        1.0  0.86566  0.62764  0.20001  1.0000
  O   O4        1.0  0.41515  0.63171  0.31744  1.0000
  O   O5        1.0  0.78348  0.29817  0.12386  1.0000
  O   O6        1.0  0.37404  0.29628  0.24973  1.0000
  O   O7        1.0  0.79108  0.07546  0.49492  1.0000
  O   O8        1.0  0.27454  0.07105  0.61526  1.0000
  O   O9        1.0  0.84273  0.12755  0.70025  1.0000
  O   O10       1.0  0.41592  0.13430  0.81502  1.0000
  O   O11       1.0  0.80814  0.80012  0.62631  1.0000
  O   O12       1.0  0.34121  0.79851  0.74875  1.0000
  O   O13       1.0  0.68353  0.43384  0.99495  1.0000
  O   O14       1.0  0.20799  0.42444  0.11645  1.0000
  O   O15       1.0  0.62649  0.37173  0.19509  1.0000
  O   O16       1.0  0.23276  0.37023  0.32132  1.0000
  O   O17       1.0  0.60947  0.70143  0.13174  1.0000
  O   O18       1.0  0.22399  0.70370  0.24489  1.0000
  O   O19       1.0  0.68319  0.93175  0.49504  1.0000
  O   O20       1.0  0.19980  0.92489  0.61655  1.0000
  O   O21       1.0  0.60087  0.87021  0.69619  1.0000
  O   O22       1.0  0.22534  0.87238  0.82131  1.0000
  O   O23       1.0  0.61108  0.20140  0.63056  1.0000
  O   O24       1.0  0.21529  0.20632  0.74307  1.0000
  O   O25       1.0  0.19248  0.42428  0.00623  1.0000
  O   O26       1.0  0.71655  0.43064  0.88490  1.0000
  O   O27       1.0  0.18209  0.37506  0.79837  1.0000
  O   O28       1.0  0.55828  0.36621  0.68628  1.0000
  O   O29       1.0  0.24215  0.70550  0.87722  1.0000
  O   O30       1.0  0.60932  0.70134  0.75000  1.0000
  O   O31       1.0  0.18384  0.92432  0.50627  1.0000
  O   O32       1.0  0.71749  0.92910  0.38496  1.0000
  O   O33       1.0  0.19927  0.87238  0.29969  1.0000
  O   O34       1.0  0.56722  0.86609  0.18757  1.0000
  O   O35       1.0  0.21732  0.20159  0.37612  1.0000
  O   O36       1.0  0.64443  0.20367  0.25114  1.0000
  O   O37       1.0  0.31609  0.56672  0.00521  1.0000
  O   O38       1.0  0.80028  0.57589  0.88372  1.0000
  O   O39       1.0  0.35894  0.63004  0.80499  1.0000
  O   O40       1.0  0.82426  0.62979  0.68108  1.0000
  O   O41       1.0  0.36648  0.30067  0.87019  1.0000
  O   O42       1.0  0.80216  0.29618  0.75650  1.0000
  O   O43       1.0  0.30732  0.06674  0.50514  1.0000
  O   O44       1.0  0.78363  0.07558  0.38463  1.0000
  O   O45       1.0  0.37224  0.12772  0.30493  1.0000
  O   O46       1.0  0.79091  0.12952  0.17976  1.0000
  O   O47       1.0  0.36520  0.79817  0.37227  1.0000
  O   O48       1.0  0.83527  0.79631  0.25633  1.0000
  C   C121      1.0  0.67033  0.54711  0.06074  1.0000
  C   C122      1.0  0.71985  0.51340  0.07734  1.0000
  C  Sn1       1.0  0.79571  0.47415  0.06880  1.0000
  C  Sn2       1.0  0.82239  0.46865  0.04316  1.0000
  C   C123      1.0  0.77251  0.50258  0.02672  1.0000
  C   C124      1.0  0.69666  0.54171  0.03546  1.0000
  H   H25       1.0  0.61173  0.57740  0.06751  1.0000
  O  Te1       1.0  0.84436  0.44080  0.08563  1.0000
  O  Te2       1.0  0.89799  0.42976  0.03413  1.0000
  H   H26       1.0  0.65844  0.56782  0.02261  1.0000
  Mg  Mg1       1.0  0.94238  0.39386  0.06435  1.0000
  C   C125      1.0  0.15591  0.53692  0.18281  1.0000
  C   C126      1.0  0.24116  0.50652  0.19908  1.0000
  C  Sn3       1.0  0.34203  0.47108  0.18997  1.0000
  C  Sn4       1.0  0.35763  0.46606  0.16409  1.0000
  C   C127      1.0  0.27193  0.49667  0.14797  1.0000
  C   C128      1.0  0.17129  0.53201  0.15727  1.0000
  H   H27       1.0  0.07812  0.56428  0.19001  1.0000
  O  Te3       1.0  0.42628  0.44100  0.20649  1.0000
  O  Te4       1.0  0.45766  0.43095  0.15449  1.0000
  H   H28       1.0  0.10539  0.55555  0.14467  1.0000
  Mg  Mg2       1.0  0.54760  0.39859  0.18445  1.0000
  C   C129      1.0  0.63736  0.55163  0.14794  1.0000
  C   C130      1.0  0.71330  0.54181  0.12536  1.0000
  C  Sn5       1.0  0.81753  0.57018  0.11460  1.0000
  C  Sn6       1.0  0.84607  0.60906  0.12671  1.0000
  C   C131      1.0  0.76962  0.61858  0.14929  1.0000
  C   C132      1.0  0.66550  0.58997  0.15989  1.0000
  H   H29       1.0  0.55688  0.52949  0.15615  1.0000
  O  Te5       1.0  0.89235  0.55988  0.09203  1.0000
  O  Te6       1.0  0.94973  0.63798  0.11636  1.0000
  H   H30       1.0  0.60682  0.59757  0.17738  1.0000
  Mg  Mg3       1.0  0.02334  0.60961  0.08532  1.0000
  C   C133      1.0  0.20114  0.55326  0.26800  1.0000
  C   C134      1.0  0.26855  0.54056  0.24528  1.0000
  C  Sn7       1.0  0.37124  0.56700  0.23261  1.0000
  C  Sn8       1.0  0.40690  0.60689  0.24294  1.0000
  C   C135      1.0  0.33895  0.61929  0.26568  1.0000
  C   C136      1.0  0.23631  0.59259  0.27820  1.0000
  H   H31       1.0  0.12180  0.53260  0.27768  1.0000
  O  Te7       1.0  0.43751  0.55383  0.20993  1.0000
  O  Te8       1.0  0.50919  0.63393  0.23068  1.0000
  H   H32       1.0  0.18422  0.60242  0.29579  1.0000
  Mg  Mg4       1.0  0.56997  0.60184  0.20026  1.0000
  C   C137      1.0  0.84090  0.42554  0.15292  1.0000
  C   C138      1.0  0.73866  0.39240  0.14748  1.0000
  C  Sn9       1.0  0.63506  0.39425  0.12598  1.0000
  C  Sn10      1.0  0.63410  0.42999  0.10964  1.0000
  C   C139      1.0  0.73694  0.46298  0.11524  1.0000
  C   C140      1.0  0.84009  0.46080  0.13681  1.0000
  H   H33       1.0  0.92078  0.42385  0.16960  1.0000
  O  Te9       1.0  0.53365  0.36087  0.12084  1.0000
  O  Te10      1.0  0.53182  0.43266  0.08802  1.0000
  H   H34       1.0  0.91931  0.48645  0.14101  1.0000
  Mg  Mg5       1.0  0.41590  0.37915  0.08908  1.0000
  C   C141      1.0  0.40743  0.44757  0.26915  1.0000
  C   C142      1.0  0.32778  0.45874  0.24627  1.0000
  C  Sn11      1.0  0.22151  0.43107  0.23468  1.0000
  C  Sn12      1.0  0.19470  0.39151  0.24626  1.0000
  C   C143      1.0  0.27487  0.38064  0.26917  1.0000
  C   C144      1.0  0.38100  0.40856  0.28060  1.0000
  H   H35       1.0  0.48947  0.46918  0.27801  1.0000
  O  Te11      1.0  0.14298  0.44273  0.21181  1.0000
  O  Te12      1.0  0.08907  0.36326  0.23509  1.0000
  H   H36       1.0  0.44256  0.39991  0.29833  1.0000
  Mg  Mg6       1.0  0.01046  0.39347  0.20393  1.0000
  C   C145      1.0  0.65479  0.04516  0.54726  1.0000
  C   C146      1.0  0.73000  0.01457  0.53115  1.0000
  C  Sn13      1.0  0.41756  0.97541  0.54032  1.0000
  C  Sn14      1.0  0.42120  0.96680  0.56611  1.0000
  C   C147      1.0  0.73703  0.99760  0.58207  1.0000
  C   C148      1.0  0.65826  0.03669  0.57270  1.0000
  H   H37       1.0  0.59376  0.07539  0.54001  1.0000
  O  Te13      1.0  0.49214  0.94521  0.52397  1.0000
  O  Te14      1.0  0.49936  0.92792  0.57576  1.0000
  H   H38       1.0  0.59995  0.06036  0.58518  1.0000
  Mg  Mg7       1.0  0.58336  0.89695  0.54603  1.0000
  C   C149      1.0  0.36591  0.96167  0.66876  1.0000
  C   C150      1.0  0.26207  0.98823  0.65236  1.0000
  C  Sn15      1.0  0.55144  0.02377  0.66109  1.0000
  C  Sn16      1.0  0.55356  0.03281  0.68673  1.0000
  C   C151      1.0  0.65799  0.00606  0.70299  1.0000
  C   C152      1.0  0.36814  0.97057  0.69405  1.0000
  H   H39       1.0  0.44468  0.93422  0.66184  1.0000
  O  Te15      1.0  0.44839  0.04996  0.64446  1.0000
  O  Te16      1.0  0.45275  0.06813  0.69596  1.0000
  H   H40       1.0  0.44861  0.95003  0.70675  1.0000
  Mg  Mg8       1.0  0.33364  0.09431  0.66596  1.0000
  C   C153      1.0  0.85764  0.10440  0.62165  1.0000
  C   C154      1.0  0.76086  0.11725  0.64207  1.0000
  C  Sn17      1.0  0.65514  0.08922  0.65281  1.0000
  C  Sn18      1.0  0.64644  0.04757  0.64289  1.0000
  C   C155      1.0  0.74386  0.03501  0.62246  1.0000
  C   C156      1.0  0.84919  0.06332  0.61185  1.0000
  H   H41       1.0  0.93921  0.12629  0.61344  1.0000
  O  Te17      1.0  0.55926  0.10258  0.67321  1.0000
  O  Te18      1.0  0.54187  0.01891  0.65327  1.0000
  H   H42       1.0  0.92419  0.05335  0.59605  1.0000
  Mg  Mg9       1.0  0.43559  0.05197  0.68088  1.0000
  C   C157      1.0  0.41499  0.10376  0.73699  1.0000
  C   C158      1.0  0.32604  0.12022  0.75741  1.0000
  C  Sn19      1.0  0.21954  0.09488  0.77015  1.0000
  C  Sn20      1.0  0.20207  0.05228  0.76228  1.0000
  C   C159      1.0  0.29170  0.03610  0.74185  1.0000
  C   C160      1.0  0.39788  0.06174  0.72922  1.0000
  H   H43       1.0  0.49722  0.12358  0.72723  1.0000
  O  Te19      1.0  0.13155  0.11183  0.79050  1.0000
  O  Te20      1.0  0.09654  0.02625  0.77469  1.0000
  H   H44       1.0  0.46682  0.04898  0.71343  1.0000
  Mg  Mg10      1.0  0.00304  0.06384  0.80138  1.0000
  C   C161      1.0  0.83516  0.92615  0.65428  1.0000
  C   C162      1.0  0.73135  0.89314  0.64927  1.0000
  C  Sn21      1.0  0.62817  0.89444  0.62773  1.0000
  C  Sn22      1.0  0.62924  0.92947  0.61093  1.0000
  C   C163      1.0  0.73364  0.96232  0.61611  1.0000
  C   C164      1.0  0.83635  0.96070  0.63771  1.0000
  H   H45       1.0  0.91470  0.92489  0.67099  1.0000
  O  Te21      1.0  0.52517  0.86121  0.62302  1.0000
  O  Te22      1.0  0.52742  0.93157  0.58927  1.0000
  H   H46       1.0  0.91680  0.98625  0.64158  1.0000
  Mg  Mg11      1.0  0.40881  0.87854  0.59102  1.0000
  C   C165      1.0  0.15798  0.89935  0.74155  1.0000
  C   C166      1.0  0.26024  0.88475  0.76207  1.0000
  C  Sn23      1.0  0.37133  0.91155  0.77338  1.0000
  C  Sn24      1.0  0.37989  0.95374  0.76393  1.0000
  C   C167      1.0  0.27697  0.96805  0.74340  1.0000
  C   C168      1.0  0.16629  0.94095  0.73222  1.0000
  H   H47       1.0  0.07227  0.87840  0.73290  1.0000
  O  Te23      1.0  0.47265  0.89645  0.79386  1.0000
  O  Te24      1.0  0.48975  0.98120  0.77489  1.0000
  H   H48       1.0  0.08705  0.95227  0.71634  1.0000
  Mg  Mg12      1.0  0.60233  0.94591  0.80240  1.0000
  C   C169      1.0  0.16567  0.53840  0.93945  1.0000
  C   C170      1.0  0.23819  0.50775  0.92315  1.0000
  C  Sn25      1.0  0.31556  0.46826  0.93211  1.0000
  C  Sn26      1.0  0.32017  0.45939  0.95787  1.0000
  C   C171      1.0  0.24714  0.49025  0.97402  1.0000
  C   C172      1.0  0.17009  0.52966  0.96486  1.0000
  H   H49       1.0  0.10597  0.56888  0.93236  1.0000
  O  Te25      1.0  0.38747  0.43801  0.91558  1.0000
  O  Te26      1.0  0.39663  0.42018  0.96732  1.0000
  H   H50       1.0  0.11385  0.55338  0.97748  1.0000
  Mg  Mg13      1.0  0.47716  0.38927  0.93739  1.0000
  C   C173      1.0  0.63231  0.54105  0.83186  1.0000
  C   C174      1.0  0.71822  0.51107  0.84831  1.0000
  C  Sn27      1.0  0.81950  0.47551  0.83942  1.0000
  C  Sn28      1.0  0.83484  0.46996  0.81357  1.0000
  C   C175      1.0  0.74848  0.50015  0.79726  1.0000
  C   C176      1.0  0.64743  0.53561  0.80636  1.0000
  H   H51       1.0  0.55420  0.56850  0.83890  1.0000
  O  Te27      1.0  0.90440  0.44585  0.85611  1.0000
  O  Te28      1.0  0.93527  0.43472  0.80418  1.0000
  H   H52       1.0  0.58102  0.55884  0.79362  1.0000
  Mg  Mg14      1.0  0.02607  0.40306  0.83433  1.0000
  C   C177      1.0  0.35994  0.43176  0.84475  1.0000
  C   C178      1.0  0.28593  0.39375  0.84955  1.0000
  C  Sn29      1.0  0.18170  0.39078  0.86989  1.0000
  C  Sn30      1.0  0.15120  0.42658  0.88568  1.0000
  C   C179      1.0  0.22574  0.46447  0.88071  1.0000
  C   C180      1.0  0.32987  0.46710  0.86031  1.0000
  H   H53       1.0  0.44043  0.43381  0.82896  1.0000
  O  Te29      1.0  0.10881  0.35255  0.87443  1.0000
  O  Te30      1.0  0.04750  0.42449  0.90614  1.0000
  H   H54       1.0  0.38707  0.49654  0.85658  1.0000
  Mg  Mg15      1.0  0.97694  0.36540  0.90462  1.0000
  C   C181      1.0  0.81094  0.44347  0.73445  1.0000
  C   C182      1.0  0.71930  0.46016  0.75457  1.0000
  C  Sn31      1.0  0.60869  0.43525  0.76681  1.0000
  C  Sn32      1.0  0.58979  0.39284  0.75873  1.0000
  C   C183      1.0  0.68213  0.37642  0.73860  1.0000
  C   C184      1.0  0.79241  0.40164  0.72647  1.0000
  H   H55       1.0  0.89634  0.46296  0.72508  1.0000
  O  Te31      1.0  0.51806  0.45243  0.78688  1.0000
  O  Te32      1.0  0.48016  0.36723  0.77064  1.0000
  H   H56       1.0  0.86343  0.38869  0.71091  1.0000
  Mg  Mg16      1.0  0.38424  0.40500  0.79708  1.0000
  C   C185      1.0  0.38930  0.60214  0.88542  1.0000
  C   C186      1.0  0.31983  0.61611  0.86235  1.0000
  C  Sn33      1.0  0.20986  0.59127  0.84923  1.0000
  C  Sn34      1.0  0.16889  0.55172  0.85944  1.0000
  C   C187      1.0  0.23896  0.53805  0.88254  1.0000
  C   C188      1.0  0.34890  0.56315  0.89551  1.0000
  H   H57       1.0  0.47429  0.62157  0.89546  1.0000
  O  Te33      1.0  0.14163  0.60569  0.82620  1.0000
  O  Te34      1.0  0.05928  0.52627  0.84673  1.0000
  H   H58       1.0  0.40258  0.55234  0.91338  1.0000
  Mg  Mg17      1.0  0.99851  0.55965  0.81596  1.0000
  C   C189      1.0  0.60746  0.57197  0.72357  1.0000
  C   C190      1.0  0.68595  0.60893  0.72965  1.0000
  C  Sn35      1.0  0.79036  0.60965  0.75099  1.0000
  C  Sn36      1.0  0.81647  0.57263  0.76648  1.0000
  C   C191      1.0  0.73747  0.53580  0.76022  1.0000
  C   C192      1.0  0.63320  0.53543  0.73884  1.0000
  H   H59       1.0  0.52686  0.57167  0.70702  1.0000
  O  Te35      1.0  0.86776  0.64686  0.75679  1.0000
  O  Te36      1.0  0.92025  0.57248  0.78790  1.0000
  H   H60       1.0  0.57253  0.50680  0.73413  1.0000
  Mg  Mg18      1.0  0.99785  0.63091  0.78797  1.0000
  C   C193      1.0  0.32065  0.95320  0.45363  1.0000
  C   C194      1.0  0.26643  0.98602  0.46985  1.0000
  C  Sn37      1.0  0.57941  0.02525  0.46070  1.0000
  C  Sn38      1.0  0.55481  0.03164  0.43483  1.0000
  C   C195      1.0  0.60940  0.99860  0.41875  1.0000
  C   C196      1.0  0.29638  0.95947  0.42810  1.0000
  H   H61       1.0  0.38132  0.92291  0.46086  1.0000
  O  Te37      1.0  0.52606  0.05770  0.47717  1.0000
  O  Te38      1.0  0.47659  0.07053  0.42519  1.0000
  H   H62       1.0  0.33825  0.93406  0.41554  1.0000
  Mg  Mg19      1.0  0.42592  0.10503  0.45509  1.0000
  C   C197      1.0  0.61643  0.03920  0.31821  1.0000
  C   C198      1.0  0.70832  0.01201  0.30184  1.0000
  C  Sn39      1.0  0.42771  0.97725  0.31080  1.0000
  C  Sn40      1.0  0.44671  0.96964  0.33664  1.0000
  C   C199      1.0  0.74566  0.99701  0.35287  1.0000
  C   C200      1.0  0.63505  0.03171  0.34370  1.0000
  H   H63       1.0  0.53077  0.06603  0.31112  1.0000
  O  Te39      1.0  0.51858  0.95041  0.29418  1.0000
  O  Te40      1.0  0.55666  0.93513  0.34610  1.0000
  H   H64       1.0  0.56384  0.05274  0.35638  1.0000
  Mg  Mg20      1.0  0.65282  0.90760  0.31604  1.0000
  C   C201      1.0  0.14435  0.89412  0.37956  1.0000
  C   C202      1.0  0.22524  0.88439  0.35733  1.0000
  C  Sn41      1.0  0.32725  0.91344  0.34673  1.0000
  C  Sn42      1.0  0.34847  0.95294  0.35864  1.0000
  C   C203      1.0  0.26711  0.96236  0.38088  1.0000
  C   C204      1.0  0.16527  0.93306  0.39132  1.0000
  H   H65       1.0  0.06563  0.87144  0.38765  1.0000
  O  Te41      1.0  0.40709  0.90322  0.32451  1.0000
  O  Te42      1.0  0.44976  0.98255  0.34845  1.0000
  H   H66       1.0  0.10275  0.94059  0.40854  1.0000
  Mg  Mg21      1.0  0.53226  0.95401  0.31789  1.0000
  C   C205      1.0  0.58894  0.92011  0.26948  1.0000
  C   C206      1.0  0.69008  0.95342  0.26447  1.0000
  C  Sn43      1.0  0.79733  0.95095  0.24423  1.0000
  C  Sn44      1.0  0.80312  0.91442  0.22876  1.0000
  C   C207      1.0  0.70134  0.88129  0.23392  1.0000
  C   C208      1.0  0.59452  0.88408  0.25422  1.0000
  H   H67       1.0  0.50621  0.92228  0.28518  1.0000
  O  Te43      1.0  0.89758  0.98451  0.23950  1.0000
  O  Te44      1.0  0.90912  0.91114  0.20841  1.0000
  H   H68       1.0  0.51614  0.85830  0.25809  1.0000
  Mg  Mg22      1.0  0.02166  0.96517  0.20957  1.0000
  C   C209      1.0  0.37705  0.10034  0.38495  1.0000
  C   C210      1.0  0.31024  0.11362  0.36163  1.0000
  C  Sn45      1.0  0.20243  0.08830  0.34845  1.0000
  C  Sn46      1.0  0.16094  0.04896  0.35886  1.0000
  C   C211      1.0  0.22835  0.03597  0.38222  1.0000
  C   C212      1.0  0.33614  0.06155  0.39525  1.0000
  H   H69       1.0  0.46038  0.12014  0.39504  1.0000
  O  Te45      1.0  0.13684  0.10204  0.32516  1.0000
  O  Te46      1.0  0.05346  0.02303  0.34610  1.0000
  H   H70       1.0  0.38777  0.05127  0.41331  1.0000
  Mg  Mg23      1.0  0.99594  0.05554  0.31495  1.0000
  C   C213      1.0  0.83007  0.08350  0.26691  1.0000
  C   C214      1.0  0.73623  0.04835  0.26257  1.0000
  C  Sn47      1.0  0.63188  0.04709  0.24126  1.0000
  C  Sn48      1.0  0.62159  0.08171  0.22401  1.0000
  C   C215      1.0  0.71607  0.11671  0.22851  1.0000
  C   C216      1.0  0.82005  0.11765  0.24989  1.0000
  H   H71       1.0  0.91060  0.08422  0.28344  1.0000
  O  Te47      1.0  0.53893  0.01173  0.23722  1.0000
  O  Te48      1.0  0.51834  0.08127  0.20256  1.0000
  H   H72       1.0  0.89278  0.14485  0.25324  1.0000
  Mg  Mg24      1.0  0.41610  0.02598  0.20528  1.0000
