data_image0
_chemical_formula_structural       P6H72C90N18O12C2Sn2C2HTe2HMgC2Sn2C2HTe2HMgC2Sn2C2HTe2HMgC2Sn2C2HTe2HMgC2Sn2C2HTe2HMgC2Sn2C2HTe2HMgC2Sn2C2HTe2HMgC2Sn2C2HTe2HMgC2Sn2C2HTe2HMgC2Sn2C2HTe2HMgC2Sn2C2HTe2HMgC2Sn2C2HTe2HMg
_chemical_formula_sum              "P6 H96 C138 N18 O12 Sn24 Te24 Mg12"
_cell_length_a       24.5798
_cell_length_b       22.3852
_cell_length_c       11.214
_cell_angle_alpha    89.5099
_cell_angle_beta     94.854
_cell_angle_gamma    113.83

_symmetry_space_group_name_H-M    'P1'
_space_group_IT_number       1

loop_
  _space_group_symop_operation_xyz
  'x, y, z'

loop_
  _atom_site_type_symbol
  _atom_site_label
  _atom_site_symmetry_multiplicity
  _atom_site_fract_x
  _atom_site_fract_y
  _atom_site_fract_z
  _atom_site_occupancy
  P   P1        1.0  0.54979  0.27017  0.33250  1.0000
  P   P2        1.0  0.54145  0.37172  0.44888  1.0000
  P   P3        1.0  0.44471  0.28263  0.32189  1.0000
  P   P4        1.0  0.54941  0.26554  0.83551  1.0000
  P   P5        1.0  0.52608  0.36355  0.93378  1.0000
  P   P6        1.0  0.43647  0.25770  0.82620  1.0000
  H   H1        1.0  0.26564  0.92267  0.04410  1.0000
  H   H2        1.0  0.37316  0.46038  0.05131  1.0000
  H   H3        1.0  0.41488  0.38451  0.97715  1.0000
  H   H4        1.0  0.44281  0.94634  0.10147  1.0000
  H   H5        1.0  0.72721  0.49128  0.16408  1.0000
  H   H6        1.0  0.94444  0.48394  0.32752  1.0000
  H   H7        1.0  0.26847  0.57337  0.37379  1.0000
  H   H8        1.0  0.03573  0.57874  0.95438  1.0000
  H   H9        1.0  0.45860  0.11811  0.18961  1.0000
  H   H10       1.0  0.57350  0.47872  0.21221  1.0000
  H   H11       1.0  0.85779  0.47002  0.29573  1.0000
  H   H12       1.0  0.37561  0.54187  0.18877  1.0000
  H   H13       1.0  0.12988  0.63992  0.06963  1.0000
  H   H14       1.0  0.12885  0.65835  0.22159  1.0000
  H   H15       1.0  0.66594  0.37492  0.40496  1.0000
  H   H16       1.0  0.92919  0.50110  0.94441  1.0000
  H   H17       1.0  0.08770  0.49232  0.08606  1.0000
  H   H18       1.0  0.21644  0.64568  0.31677  1.0000
  H   H19       1.0  0.13851  0.42031  0.14378  1.0000
  H   H20       1.0  0.21781  0.40969  0.12028  1.0000
  H   H21       1.0  0.62368  0.41977  0.09338  1.0000
  H   H22       1.0  0.65041  0.28747  0.05718  1.0000
  H   H23       1.0  0.33670  0.75722  0.05978  1.0000
  H   H24       1.0  0.27537  0.72396  0.95097  1.0000
  H   H25       1.0  0.77468  0.43559  0.39419  1.0000
  H   H26       1.0  0.76086  0.34894  0.04537  1.0000
  H   H27       1.0  0.53167  0.55488  0.28993  1.0000
  H   H28       1.0  0.09599  0.74491  0.93194  1.0000
  H   H29       1.0  0.07129  0.80378  0.97442  1.0000
  H   H30       1.0  0.82946  0.63185  0.99241  1.0000
  H   H31       1.0  0.04897  0.56164  0.33738  1.0000
  H   H32       1.0  0.51874  0.21619  0.07835  1.0000
  H   H33       1.0  0.20798  0.96234  0.45658  1.0000
  H   H34       1.0  0.46088  0.94366  0.59055  1.0000
  H   H35       1.0  0.13522  0.90804  0.94024  1.0000
  H   H36       1.0  0.63689  0.53509  0.77904  1.0000
  H   H37       1.0  0.26705  0.82089  0.86919  1.0000
  H   H38       1.0  0.49695  0.99596  0.94472  1.0000
  H   H39       1.0  0.74237  0.60520  0.84810  1.0000
  H   H40       1.0  0.18939  0.46735  0.91516  1.0000
  H   H41       1.0  0.86083  0.45847  0.77700  1.0000
  H   H42       1.0  0.21237  0.98974  0.82508  1.0000
  H   H43       1.0  0.35670  0.49607  0.73966  1.0000
  H   H44       1.0  0.13303  0.61592  0.56999  1.0000
  H   H45       1.0  0.12616  0.62680  0.72262  1.0000
  H   H46       1.0  0.66706  0.37634  0.89423  1.0000
  H   H47       1.0  0.43733  0.80738  0.89454  1.0000
  H   H48       1.0  0.27702  0.64851  0.78732  1.0000
  H   H49       1.0  0.28591  0.35465  0.88774  1.0000
  H   H50       1.0  0.48015  0.91062  0.78666  1.0000
  H   H51       1.0  0.18729  0.84204  0.55847  1.0000
  H   H52       1.0  0.17612  0.54558  0.50328  1.0000
  H   H53       1.0  0.55663  0.09481  0.83190  1.0000
  H   H54       1.0  0.13979  0.54305  0.87254  1.0000
  H   H55       1.0  0.47059  0.65910  0.97800  1.0000
  H   H56       1.0  0.23922  0.28930  0.51897  1.0000
  H   H57       1.0  0.32267  0.57904  0.70879  1.0000
  H   H58       1.0  0.42391  0.72854  0.05889  1.0000
  H   H59       1.0  0.31024  0.92424  0.75961  1.0000
  H   H60       1.0  0.22359  0.46867  0.54410  1.0000
  H   H61       1.0  0.19978  0.36321  0.59613  1.0000
  H   H62       1.0  0.64723  0.27587  0.55703  1.0000
  H   H63       1.0  0.30860  0.23318  0.53944  1.0000
  H   H64       1.0  0.36283  0.76918  0.60710  1.0000
  H   H65       1.0  0.29708  0.73521  0.51091  1.0000
  H   H66       1.0  0.77581  0.43411  0.87693  1.0000
  H   H67       1.0  0.75678  0.33584  0.53791  1.0000
  H   H68       1.0  0.35337  0.29650  0.90918  1.0000
  H   H69       1.0  0.11293  0.75953  0.67747  1.0000
  H   H70       1.0  0.07929  0.71090  0.41982  1.0000
  H   H71       1.0  0.05222  0.76472  0.47883  1.0000
  H   H72       1.0  0.85153  0.63399  0.51350  1.0000
  C   C1        1.0  0.49559  0.42654  0.09498  1.0000
  C   C2        1.0  0.24282  0.41506  0.20855  1.0000
  C   C3        1.0  0.70719  0.50120  0.08027  1.0000
  C   C4        1.0  0.74196  0.55431  0.01333  1.0000
  C   C5        1.0  0.52993  0.47587  0.17862  1.0000
  C   C6        1.0  0.83754  0.44005  0.21374  1.0000
  C   C7        1.0  0.50656  0.51779  0.22107  1.0000
  C   C8        1.0  0.44252  0.99147  0.13925  1.0000
  C   C9        1.0  0.44901  0.51168  0.17785  1.0000
  C   C10       1.0  0.25888  0.96554  0.07465  1.0000
  C   C11       1.0  0.41716  0.46459  0.08713  1.0000
  C   C12       1.0  0.20906  0.49302  0.25891  1.0000
  C   C13       1.0  0.43986  0.42147  0.04569  1.0000
  C   C14       1.0  0.22905  0.55614  0.31014  1.0000
  C   C15       1.0  0.54133  0.15999  0.95100  1.0000
  C   C16       1.0  0.19986  0.59669  0.27663  1.0000
  C   C17       1.0  0.65235  0.32968  0.22959  1.0000
  C   C18       1.0  0.14967  0.57521  0.19310  1.0000
  C   C19       1.0  0.51438  0.16796  0.05101  1.0000
  C   C20       1.0  0.12836  0.51099  0.14631  1.0000
  C   C21       1.0  0.48086  0.11302  0.11289  1.0000
  C   C22       1.0  0.15709  0.47038  0.17881  1.0000
  C   C23       1.0  0.47480  0.05056  0.07567  1.0000
  C   C24       1.0  0.01540  0.55958  0.03682  1.0000
  C   C25       1.0  0.50259  0.04437  0.97464  1.0000
  C   C26       1.0  0.04970  0.57761  0.14716  1.0000
  C   C27       1.0  0.02257  0.55002  0.25110  1.0000
  C   C28       1.0  0.67860  0.32025  0.12942  1.0000
  C   C29       1.0  0.96327  0.50602  0.24551  1.0000
  C   C30       1.0  0.73969  0.35450  0.12341  1.0000
  C   C31       1.0  0.92830  0.48874  0.13463  1.0000
  C   C32       1.0  0.77479  0.39783  0.21747  1.0000
  C   C33       1.0  0.95554  0.51562  0.03036  1.0000
  C   C34       1.0  0.74766  0.40343  0.31968  1.0000
  C   C35       1.0  0.11633  0.61765  0.15616  1.0000
  C   C36       1.0  0.68656  0.36977  0.32641  1.0000
  C   C37       1.0  0.34612  0.75744  0.51213  1.0000
  C   C38       1.0  0.42063  0.55042  0.22914  1.0000
  C   C39       1.0  0.05923  0.74554  0.39380  1.0000
  C   C40       1.0  0.80335  0.59678  0.05673  1.0000
  C   C41       1.0  0.62332  0.47361  0.93148  1.0000
  C   C42       1.0  0.64867  0.46095  0.04044  1.0000
  C   C43       1.0  0.22653  0.36952  0.68262  1.0000
  C   C44       1.0  0.71593  0.56562  0.90347  1.0000
  C   C45       1.0  0.65692  0.52614  0.86344  1.0000
  C   C46       1.0  0.83708  0.42794  0.69702  1.0000
  C   C47       1.0  0.45618  0.98745  0.62282  1.0000
  C   C48       1.0  0.24712  0.98833  0.52020  1.0000
  C   C49       1.0  0.20624  0.45895  0.73177  1.0000
  C   C50       1.0  0.18489  0.48339  0.82437  1.0000
  C   C51       1.0  0.15752  0.52640  0.79993  1.0000
  C   C52       1.0  0.65118  0.32312  0.72569  1.0000
  C   C53       1.0  0.15254  0.54833  0.68339  1.0000
  C   C54       1.0  0.17766  0.52747  0.59336  1.0000
  C   C55       1.0  0.20395  0.48326  0.61598  1.0000
  C   C56       1.0  0.53594  0.09886  0.91159  1.0000
  C   C57       1.0  0.67606  0.31065  0.62594  1.0000
  C   C58       1.0  0.73686  0.34415  0.61566  1.0000
  C   C59       1.0  0.77353  0.38969  0.70519  1.0000
  C   C60       1.0  0.74770  0.39962  0.80628  1.0000
  C   C61       1.0  0.11755  0.58937  0.65218  1.0000
  C   C62       1.0  0.68657  0.36716  0.81692  1.0000
  C   C63       1.0  0.40012  0.61414  0.83839  1.0000
  C   C64       1.0  0.42788  0.65679  0.93785  1.0000
  C   C65       1.0  0.40146  0.69556  0.98240  1.0000
  C   C66       1.0  0.34748  0.69461  0.92778  1.0000
  C   C67       1.0  0.31913  0.65071  0.83085  1.0000
  C   C68       1.0  0.34454  0.61068  0.78699  1.0000
  C   C69       1.0  0.31409  0.84050  0.85275  1.0000
  C   C70       1.0  0.34938  0.80686  0.89260  1.0000
  C   C71       1.0  0.40927  0.83299  0.86664  1.0000
  C   C72       1.0  0.43333  0.89061  0.80438  1.0000
  C   C73       1.0  0.39797  0.92447  0.76551  1.0000
  C   C74       1.0  0.33790  0.89874  0.79128  1.0000
  C   C75       1.0  0.32439  0.74453  0.96362  1.0000
  C   C76       1.0  0.33679  0.26394  0.72424  1.0000
  C   C77       1.0  0.32816  0.29492  0.82438  1.0000
  C   C78       1.0  0.28987  0.32675  0.81255  1.0000
  C   C79       1.0  0.25851  0.32705  0.70179  1.0000
  C   C80       1.0  0.26368  0.29041  0.60519  1.0000
  C   C81       1.0  0.30277  0.25912  0.61549  1.0000
  C   C82       1.0  0.14656  0.89327  0.85687  1.0000
  C   C83       1.0  0.11886  0.82759  0.81809  1.0000
  C   C84       1.0  0.13421  0.81022  0.70971  1.0000
  C   C85       1.0  0.17588  0.85654  0.64200  1.0000
  C   C86       1.0  0.20440  0.92207  0.68336  1.0000
  C   C87       1.0  0.18944  0.93938  0.79252  1.0000
  C   C88       1.0  0.40533  0.52417  0.74149  1.0000
  C   C89       1.0  0.07598  0.77800  0.89519  1.0000
  C   C90       1.0  0.82249  0.60563  0.58139  1.0000
  N   N1        1.0  0.44575  0.59009  0.31980  1.0000
  N   N2        1.0  0.82454  0.59207  0.16439  1.0000
  N   N3        1.0  0.24274  0.45608  0.28905  1.0000
  N   N4        1.0  0.86769  0.44521  0.12230  1.0000
  N   N5        1.0  0.41676  0.99067  0.23548  1.0000
  N   N6        1.0  0.22104  0.96309  0.15004  1.0000
  N   N7        1.0  0.48171  0.24384  0.27716  1.0000
  N   N8        1.0  0.56381  0.31982  0.93908  1.0000
  N   N9        1.0  0.48073  0.35634  0.36852  1.0000
  N   N10       1.0  0.43210  0.58160  0.79146  1.0000
  N   N11       1.0  0.83996  0.61114  0.69446  1.0000
  N   N12       1.0  0.23184  0.41416  0.76077  1.0000
  N   N13       1.0  0.86508  0.42719  0.60480  1.0000
  N   N14       1.0  0.42215  0.98396  0.70685  1.0000
  N   N15       1.0  0.25012  0.97221  0.63044  1.0000
  N   N16       1.0  0.48136  0.22918  0.78004  1.0000
  N   N17       1.0  0.56932  0.31865  0.44787  1.0000
  N   N18       1.0  0.46271  0.33393  0.85804  1.0000
  O   O1        1.0  0.39537  0.28150  0.21573  1.0000
  O   O2        1.0  0.40470  0.24408  0.42817  1.0000
  O   O3        1.0  0.58701  0.44204  0.40480  1.0000
  O   O4        1.0  0.51897  0.37996  0.06968  1.0000
  O   O5        1.0  0.57551  0.21343  0.88388  1.0000
  O   O6        1.0  0.58968  0.30041  0.22233  1.0000
  O   O7        1.0  0.38088  0.23905  0.72488  1.0000
  O   O8        1.0  0.40576  0.22012  0.94295  1.0000
  O   O9        1.0  0.56478  0.43521  0.88301  1.0000
  O   O10       1.0  0.53497  0.38555  0.58658  1.0000
  O   O11       1.0  0.57145  0.21224  0.36031  1.0000
  O   O12       1.0  0.58874  0.29166  0.72351  1.0000
  C   C91       1.0  0.41165  0.67367  0.54057  1.0000
  C   C92       1.0  0.37929  0.70612  0.48270  1.0000
  C  Sn1       1.0  0.36312  0.69665  0.35962  1.0000
  C  Sn2       1.0  0.37972  0.65385  0.29349  1.0000
  C   C93       1.0  0.41205  0.62158  0.35222  1.0000
  C   C94       1.0  0.42801  0.63143  0.47541  1.0000
  H   H73       1.0  0.42397  0.68126  0.63589  1.0000
  O  Te1       1.0  0.33081  0.72948  0.30321  1.0000
  O  Te2       1.0  0.36412  0.64348  0.17039  1.0000
  H   H74       1.0  0.45303  0.60626  0.52020  1.0000
  Mg  Mg1       1.0  0.32001  0.69936  0.13386  1.0000
  C   C95       1.0  0.96347  0.66650  0.89920  1.0000
  C   C96       1.0  0.00706  0.72106  0.85158  1.0000
  C  Sn3       1.0  0.99408  0.74599  0.74340  1.0000
  C  Sn4       1.0  0.93635  0.71566  0.68198  1.0000
  C   C97       1.0  0.89304  0.66114  0.73041  1.0000
  C   C98       1.0  0.90651  0.63657  0.83871  1.0000
  H   H75       1.0  0.97388  0.64751  0.98303  1.0000
  O  Te3       1.0  0.03816  0.80052  0.69705  1.0000
  O  Te4       1.0  0.92218  0.73959  0.57372  1.0000
  H   H76       1.0  0.87274  0.59436  0.87560  1.0000
  Mg  Mg2       1.0  0.99732  0.81503  0.54672  1.0000
  C   C99       1.0  0.49958  0.12704  0.60210  1.0000
  C   C100      1.0  0.48666  0.06197  0.57199  1.0000
  C  Sn5       1.0  0.50738  0.04656  0.46933  1.0000
  C  Sn6       1.0  0.54168  0.09734  0.39563  1.0000
  C   C101      1.0  0.55440  0.16228  0.42658  1.0000
  C   C102      1.0  0.53343  0.17716  0.52949  1.0000
  H   H77       1.0  0.48339  0.13856  0.68176  1.0000
  O  Te5       1.0  0.86199  0.98129  0.44053  1.0000
  O  Te6       1.0  0.56296  0.08331  0.29254  1.0000
  H   H78       1.0  0.54348  0.22754  0.55282  1.0000
  Mg  Mg3       1.0  0.90100  0.98683  0.29089  1.0000
  C   C103      1.0  0.51555  0.52373  0.67259  1.0000
  C   C104      1.0  0.45421  0.50170  0.68198  1.0000
  C  Sn7       1.0  0.41635  0.43657  0.65404  1.0000
  C  Sn8       1.0  0.44048  0.39280  0.61604  1.0000
  C   C105      1.0  0.50191  0.41530  0.60702  1.0000
  C   C106      1.0  0.53939  0.48058  0.63516  1.0000
  H   H79       1.0  0.54456  0.57423  0.69442  1.0000
  O  Te7       1.0  0.35516  0.41538  0.66387  1.0000
  O  Te8       1.0  0.40365  0.32745  0.58760  1.0000
  H   H80       1.0  0.58689  0.49761  0.62796  1.0000
  Mg  Mg4       1.0  0.32321  0.32179  0.61503  1.0000
  C   C107      1.0  0.71026  0.50093  0.61774  1.0000
  C   C108      1.0  0.75504  0.54658  0.55544  1.0000
  C  Sn9       1.0  0.74260  0.55986  0.43672  1.0000
  C  Sn10      1.0  0.68420  0.52676  0.37957  1.0000
  C   C109      1.0  0.63970  0.48121  0.44270  1.0000
  C   C110      1.0  0.65264  0.46828  0.56145  1.0000
  H   H81       1.0  0.72026  0.49095  0.70964  1.0000
  O  Te9       1.0  0.78786  0.60560  0.37577  1.0000
  O  Te10      1.0  0.67054  0.53912  0.26101  1.0000
  H   H82       1.0  0.61795  0.43296  0.60970  1.0000
  Mg  Mg5       1.0  0.74732  0.60566  0.21544  1.0000
  C   C111      1.0  0.29756  0.30100  0.11880  1.0000
  C   C112      1.0  0.34707  0.30972  0.19895  1.0000
  C  Sn11      1.0  0.36069  0.35140  0.29934  1.0000
  C  Sn12      1.0  0.32398  0.38490  0.31966  1.0000
  C   C113      1.0  0.27452  0.37581  0.23899  1.0000
  C   C114      1.0  0.26131  0.33400  0.13879  1.0000
  H   H83       1.0  0.28731  0.26862  0.04131  1.0000
  O  Te11      1.0  0.41034  0.35957  0.37850  1.0000
  O  Te12      1.0  0.33656  0.42683  0.41930  1.0000
  H   H84       1.0  0.22295  0.32723  0.07679  1.0000
  Mg  Mg6       1.0  0.40914  0.42194  0.50141  1.0000
  C   C115      1.0  0.43791  0.88378  0.32825  1.0000
  C   C116      1.0  0.40726  0.92332  0.29852  1.0000
  C  Sn13      1.0  0.35351  0.91187  0.34697  1.0000
  C  Sn14      1.0  0.33012  0.85985  0.42666  1.0000
  C   C117      1.0  0.36114  0.82060  0.45590  1.0000
  C   C118      1.0  0.41488  0.83248  0.40687  1.0000
  H   H85       1.0  0.47950  0.89298  0.29037  1.0000
  O  Te13      1.0  0.32346  0.95182  0.31628  1.0000
  O  Te14      1.0  0.27650  0.84734  0.47640  1.0000
  H   H86       1.0  0.43862  0.80189  0.42997  1.0000
  Mg  Mg7       1.0  0.25199  0.91531  0.40725  1.0000
  C   C119      1.0  0.01539  0.46870  0.57392  1.0000
  C   C120      1.0  0.04570  0.53364  0.61434  1.0000
  C  Sn15      1.0  0.01429  0.56784  0.65656  1.0000
  C  Sn16      1.0  0.95137  0.53630  0.65827  1.0000
  C   C121      1.0  0.92147  0.47130  0.61772  1.0000
  C   C122      1.0  0.95334  0.43754  0.57562  1.0000
  H   H87       1.0  0.04005  0.44257  0.54141  1.0000
  O  Te15      1.0  0.04527  0.63271  0.69657  1.0000
  O  Te16      1.0  0.91888  0.56932  0.70004  1.0000
  H   H88       1.0  0.92986  0.38725  0.54440  1.0000
  Mg  Mg8       1.0  0.98120  0.65715  0.74518  1.0000
  C   C123      1.0  0.37776  0.13336  0.55827  1.0000
  C   C124      1.0  0.37837  0.16885  0.45489  1.0000
  C  Sn17      1.0  0.33368  0.14257  0.36110  1.0000
  C  Sn18      1.0  0.28756  0.07960  0.37127  1.0000
  C   C125      1.0  0.28732  0.04450  0.47510  1.0000
  C   C126      1.0  0.33228  0.07125  0.56839  1.0000
  H   H89       1.0  0.41252  0.15406  0.63049  1.0000
  O  Te17      1.0  0.33498  0.17868  0.25842  1.0000
  O  Te18      1.0  0.24233  0.05218  0.27890  1.0000
  H   H90       1.0  0.33177  0.04378  0.64846  1.0000
  Mg  Mg9       1.0  0.26347  0.12041  0.15680  1.0000
  C   C127      1.0  0.94466  0.63524  0.37672  1.0000
  C   C128      1.0  0.99061  0.69109  0.33861  1.0000
  C  Sn19      1.0  0.98130  0.72126  0.23393  1.0000
  C  Sn20      1.0  0.92490  0.69492  0.16637  1.0000
  C   C129      1.0  0.87920  0.63906  0.20531  1.0000
  C   C130      1.0  0.88900  0.60925  0.31016  1.0000
  H   H91       1.0  0.95222  0.61219  0.45789  1.0000
  O  Te19      1.0  0.02771  0.77701  0.19711  1.0000
  O  Te20      1.0  0.91438  0.72411  0.06144  1.0000
  H   H92       1.0  0.85340  0.56603  0.33969  1.0000
  Mg  Mg10      1.0  0.99162  0.79926  0.04797  1.0000
  C   C131      1.0  0.35358  0.04896  0.93560  1.0000
  C   C132      1.0  0.26281  0.01475  0.01027  1.0000
  C  Sn21      1.0  0.24378  0.06086  0.05312  1.0000
  C  Sn22      1.0  0.27192  0.12704  0.02044  1.0000
  C   C133      1.0  0.36264  0.16075  0.94562  1.0000
  C   C134      1.0  0.38135  0.11422  0.90328  1.0000
  H   H93       1.0  0.73599  0.01295  0.90278  1.0000
  O  Te21      1.0  0.19725  0.04119  0.12768  1.0000
  O  Te22      1.0  0.25377  0.17413  0.06196  1.0000
  H   H94       1.0  0.41734  0.12883  0.84540  1.0000
  Mg  Mg11      1.0  0.18843  0.12339  0.16140  1.0000
  C   C135      1.0  0.16735  0.80471  0.26914  1.0000
  C   C136      1.0  0.11716  0.80102  0.32407  1.0000
  C  Sn23      1.0  0.09900  0.85266  0.31644  1.0000
  C  Sn24      1.0  0.13177  0.90898  0.25255  1.0000
  C   C137      1.0  0.18189  0.91218  0.19784  1.0000
  C   C138      1.0  0.19968  0.86023  0.20607  1.0000
  H   H95       1.0  0.18109  0.76450  0.27544  1.0000
  O  Te23      1.0  0.04877  0.84818  0.37188  1.0000
  O  Te24      1.0  0.11459  0.96130  0.24348  1.0000
  H   H96       1.0  0.23851  0.86309  0.16347  1.0000
  Mg  Mg12      1.0  0.04304  0.93217  0.33429  1.0000
