data_image0
_chemical_formula_structural       P6H36C48N18O12C2Sn2C2HTe2HMgC2Sn2C2HTe2HMgC2Sn2C2HTe2HMgC2Sn2C2HTe2HMgC2Sn2C2HTe2HMgC2Sn2C2HTe2HMg
_chemical_formula_sum              "P6 H48 C72 N18 O12 Sn12 Te12 Mg6"
_cell_length_a       18.672
_cell_length_b       18.3257
_cell_length_c       10.9151
_cell_angle_alpha    92.1853
_cell_angle_beta     103.759
_cell_angle_gamma    120.664

_symmetry_space_group_name_H-M    'P1'
_space_group_IT_number       1

loop_
  _space_group_symop_operation_xyz
  'x, y, z'

loop_
  _atom_site_type_symbol
  _atom_site_label
  _atom_site_symmetry_multiplicity
  _atom_site_fract_x
  _atom_site_fract_y
  _atom_site_fract_z
  _atom_site_occupancy
  P   P1        1.0  0.54751  0.38473  0.45461  1.0000
  P   P2        1.0  0.53737  0.52688  0.47304  1.0000
  P   P3        1.0  0.41845  0.36402  0.03982  1.0000
  P   P4        1.0  0.54680  0.37478  0.94775  1.0000
  P   P5        1.0  0.53050  0.51242  0.97299  1.0000
  P   P6        1.0  0.41992  0.38312  0.54111  1.0000
  H   H1        1.0  0.70118  0.42411  0.38800  1.0000
  H   H2        1.0  0.50307  0.98020  0.17013  1.0000
  H   H3        1.0  0.98862  0.31681  0.95161  1.0000
  H   H4        1.0  0.98444  0.88058  0.32976  1.0000
  H   H5        1.0  0.26385  0.28301  0.23175  1.0000
  H   H6        1.0  0.68931  0.66407  0.28742  1.0000
  H   H7        1.0  0.14587  0.13044  0.23023  1.0000
  H   H8        1.0  0.84965  0.77200  0.36961  1.0000
  H   H9        1.0  0.40267  0.18956  0.09138  1.0000
  H   H10       1.0  0.02017  0.53099  0.17755  1.0000
  H   H11       1.0  0.38639  0.81078  0.41591  1.0000
  H   H12       1.0  0.85215  0.45831  0.42199  1.0000
  H   H13       1.0  0.17093  0.28397  0.28612  1.0000
  H   H14       1.0  0.30227  0.06296  0.61989  1.0000
  H   H15       1.0  0.06031  0.31738  0.30004  1.0000
  H   H16       1.0  0.14583  0.94886  0.61311  1.0000
  H   H17       1.0  0.51621  0.97638  0.67228  1.0000
  H   H18       1.0  0.01024  0.38849  0.39551  1.0000
  H   H19       1.0  0.96646  0.94497  0.79605  1.0000
  H   H20       1.0  0.46596  0.19885  0.95318  1.0000
  H   H21       1.0  0.24144  0.29361  0.68765  1.0000
  H   H22       1.0  0.43935  0.05101  0.91551  1.0000
  H   H23       1.0  0.23288  0.49469  0.65801  1.0000
  H   H24       1.0  0.12819  0.13844  0.68077  1.0000
  H   H25       1.0  0.41242  0.21629  0.62210  1.0000
  H   H26       1.0  0.34498  0.46326  0.64214  1.0000
  H   H27       1.0  0.00005  0.47238  0.74121  1.0000
  H   H28       1.0  0.38817  0.80729  0.91213  1.0000
  H   H29       1.0  0.59522  0.26624  0.66102  1.0000
  H   H30       1.0  0.56749  0.11814  0.62111  1.0000
  H   H31       1.0  0.88212  0.45196  0.82433  1.0000
  H   H32       1.0  0.28529  0.03822  0.08223  1.0000
  H   H33       1.0  0.70477  0.65598  0.90047  1.0000
  H   H34       1.0  0.73018  0.41701  0.79059  1.0000
  H   H35       1.0  0.86562  0.76372  0.98235  1.0000
  H   H36       1.0  0.13753  0.93354  0.09129  1.0000
  C   C1        1.0  0.68892  0.65707  0.08968  1.0000
  C   C2        1.0  0.82693  0.74091  0.04863  1.0000
  C   C3        1.0  0.86805  0.77696  0.18087  1.0000
  C   C4        1.0  0.81846  0.74600  0.26702  1.0000
  C   C5        1.0  0.72865  0.68586  0.22191  1.0000
  C   C6        1.0  0.33889  0.24387  0.16395  1.0000
  C   C7        1.0  0.12255  0.34920  0.37547  1.0000
  C   C8        1.0  0.18459  0.33038  0.36668  1.0000
  C   C9        1.0  0.26692  0.22804  0.20190  1.0000
  C   C10       1.0  0.20238  0.14400  0.20043  1.0000
  C   C11       1.0  0.20771  0.07405  0.15657  1.0000
  C   C12       1.0  0.28039  0.09153  0.11691  1.0000
  C   C13       1.0  0.34652  0.17629  0.12113  1.0000
  C   C14       1.0  0.41362  0.80244  0.34169  1.0000
  C   C15       1.0  0.95692  0.85237  0.22685  1.0000
  C   C16       1.0  0.05317  0.37045  0.01006  1.0000
  C   C17       1.0  0.96376  0.47035  0.11691  1.0000
  C   C18       1.0  0.47798  0.99268  0.24435  1.0000
  C   C19       1.0  0.13630  0.98523  0.14264  1.0000
  C   C20       1.0  0.73756  0.68133  0.00268  1.0000
  C   C21       1.0  0.26500  0.37161  0.46264  1.0000
  C   C22       1.0  0.33376  0.26271  0.65963  1.0000
  C   C23       1.0  0.28263  0.43118  0.56756  1.0000
  C   C24       1.0  0.21939  0.44885  0.57618  1.0000
  C   C25       1.0  0.13816  0.40829  0.48002  1.0000
  C   C26       1.0  0.53424  0.24149  0.81153  1.0000
  C   C27       1.0  0.70629  0.41590  0.58719  1.0000
  C   C28       1.0  0.25380  0.24252  0.67413  1.0000
  C   C29       1.0  0.48936  0.18108  0.88277  1.0000
  C   C30       1.0  0.19174  0.15700  0.67148  1.0000
  C   C31       1.0  0.47375  0.09835  0.86031  1.0000
  C   C32       1.0  0.20843  0.09098  0.65500  1.0000
  C   C33       1.0  0.50198  0.07418  0.76640  1.0000
  C   C34       1.0  0.28814  0.11277  0.63498  1.0000
  C   C35       1.0  0.54593  0.13583  0.69502  1.0000
  C   C36       1.0  0.35074  0.19854  0.63706  1.0000
  C   C37       1.0  0.56214  0.21901  0.71688  1.0000
  C   C38       1.0  0.41902  0.79887  0.84349  1.0000
  C   C39       1.0  0.74076  0.43050  0.48329  1.0000
  C   C40       1.0  0.95468  0.88961  0.73263  1.0000
  C   C41       1.0  0.82556  0.45019  0.50262  1.0000
  C   C42       1.0  0.87733  0.45660  0.62489  1.0000
  C   C43       1.0  0.84275  0.44648  0.72896  1.0000
  C   C44       1.0  0.06791  0.42180  0.48057  1.0000
  C   C45       1.0  0.75767  0.42638  0.71088  1.0000
  C   C46       1.0  0.96248  0.46724  0.64369  1.0000
  C   C47       1.0  0.48949  0.98927  0.74372  1.0000
  C   C48       1.0  0.14222  0.00196  0.65451  1.0000
  N   N1        1.0  0.44211  0.86022  0.27068  1.0000
  N   N2        1.0  0.99817  0.88803  0.14470  1.0000
  N   N3        1.0  0.05720  0.43376  0.07684  1.0000
  N   N4        1.0  0.45556  0.33200  0.48108  1.0000
  N   N5        1.0  0.97213  0.41412  0.05654  1.0000
  N   N6        1.0  0.43943  0.93242  0.30742  1.0000
  N   N7        1.0  0.58236  0.48073  0.42884  1.0000
  N   N8        1.0  0.07116  0.96875  0.18486  1.0000
  N   N9        1.0  0.47301  0.46668  0.06668  1.0000
  N   N10       1.0  0.45363  0.85769  0.77642  1.0000
  N   N11       1.0  0.01244  0.89988  0.67624  1.0000
  N   N12       1.0  0.06772  0.46701  0.57509  1.0000
  N   N13       1.0  0.45469  0.31679  0.97192  1.0000
  N   N14       1.0  0.98932  0.46406  0.54556  1.0000
  N   N15       1.0  0.45037  0.93014  0.80794  1.0000
  N   N16       1.0  0.57730  0.47009  0.92349  1.0000
  N   N17       1.0  0.07872  0.98691  0.70012  1.0000
  N   N18       1.0  0.47908  0.48588  0.56751  1.0000
  O   O1        1.0  0.32306  0.34851  0.44442  1.0000
  O   O2        1.0  0.40301  0.33210  0.17186  1.0000
  O   O3        1.0  0.59764  0.61128  0.04446  1.0000
  O   O4        1.0  0.48345  0.53717  0.34224  1.0000
  O   O5        1.0  0.54812  0.33199  0.33385  1.0000
  O   O6        1.0  0.61810  0.37738  0.07046  1.0000
  O   O7        1.0  0.31884  0.32341  0.94965  1.0000
  O   O8        1.0  0.39833  0.35127  0.67072  1.0000
  O   O9        1.0  0.60414  0.62704  0.53823  1.0000
  O   O10       1.0  0.47323  0.52302  0.84623  1.0000
  O   O11       1.0  0.55271  0.32628  0.82736  1.0000
  O   O12       1.0  0.61848  0.38520  0.57499  1.0000
  C   C49       1.0  0.73424  0.33690  0.02094  1.0000
  C   C50       1.0  0.70458  0.38462  0.06965  1.0000
  C  Sn1       1.0  0.76347  0.47051  0.13267  1.0000
  C  Sn2       1.0  0.85370  0.50917  0.14701  1.0000
  C   C51       1.0  0.88271  0.46090  0.09786  1.0000
  C   C52       1.0  0.82321  0.37499  0.03500  1.0000
  H   H37       1.0  0.89148  0.39879  0.97224  1.0000
  O  Te1       1.0  0.73274  0.51726  0.18080  1.0000
  O  Te2       1.0  0.91398  0.59491  0.20954  1.0000
  H   H38       1.0  0.04946  0.46642  0.99722  1.0000
  Mg  Mg1       1.0  0.84030  0.63204  0.25866  1.0000
  C   C53       1.0  0.48966  0.67524  0.24074  1.0000
  C   C54       1.0  0.47156  0.61360  0.31954  1.0000
  C  Sn3       1.0  0.42346  0.60733  0.40342  1.0000
  C  Sn4       1.0  0.39298  0.66390  0.40826  1.0000
  C   C55       1.0  0.41138  0.72531  0.32897  1.0000
  C   C56       1.0  0.45959  0.73103  0.24542  1.0000
  H   H39       1.0  0.52692  0.67965  0.17604  1.0000
  O  Te3       1.0  0.40599  0.54540  0.48151  1.0000
  O  Te4       1.0  0.34474  0.65902  0.49118  1.0000
  H   H40       1.0  0.47354  0.77873  0.18436  1.0000
  Mg  Mg2       1.0  0.33771  0.56391  0.57870  1.0000
  C   C57       1.0  0.73338  0.77291  0.71069  1.0000
  C   C58       1.0  0.69537  0.69792  0.61921  1.0000
  C  Sn5       1.0  0.74780  0.67640  0.57490  1.0000
  C  Sn6       1.0  0.83997  0.73109  0.62328  1.0000
  C   C59       1.0  0.87736  0.80595  0.71484  1.0000
  C   C60       1.0  0.82429  0.82688  0.75849  1.0000
  H   H41       1.0  0.69233  0.78909  0.74452  1.0000
  O  Te5       1.0  0.70875  0.60124  0.48345  1.0000
  O  Te6       1.0  0.89390  0.71111  0.58069  1.0000
  H   H42       1.0  0.85374  0.88492  0.82938  1.0000
  Mg  Mg3       1.0  0.80987  0.60164  0.45519  1.0000
  C   C61       1.0  0.23731  0.42943  0.09008  1.0000
  C   C62       1.0  0.14849  0.38137  0.02194  1.0000
  C  Sn7       1.0  0.31709  0.43448  0.93293  1.0000
  C  Sn8       1.0  0.37254  0.40701  0.91199  1.0000
  C   C63       1.0  0.46130  0.45551  0.98071  1.0000
  C   C64       1.0  0.29204  0.40236  0.06952  1.0000
  H   H43       1.0  0.26363  0.48759  0.15885  1.0000
  O  Te7       1.0  0.22821  0.38725  0.86564  1.0000
  O  Te8       1.0  0.33960  0.33205  0.82363  1.0000
  H   H44       1.0  0.36080  0.43952  0.12232  1.0000
  Mg  Mg4       1.0  0.21405  0.28960  0.75536  1.0000
  C   C65       1.0  0.49166  0.66674  0.75011  1.0000
  C   C66       1.0  0.46728  0.60302  0.82529  1.0000
  C  Sn9       1.0  0.41616  0.59750  0.90377  1.0000
  C  Sn10      1.0  0.38903  0.65695  0.90681  1.0000
  C   C67       1.0  0.41371  0.72043  0.83116  1.0000
  C   C68       1.0  0.46490  0.72539  0.75301  1.0000
  H   H45       1.0  0.53122  0.67056  0.68958  1.0000
  O  Te9       1.0  0.39242  0.53346  0.97831  1.0000
  O  Te10      1.0  0.33789  0.65288  0.98434  1.0000
  H   H46       1.0  0.48371  0.77470  0.69474  1.0000
  Mg  Mg5       1.0  0.11895  0.42578  0.06856  1.0000
  C   C69       1.0  0.55202  0.16367  0.19769  1.0000
  C   C70       1.0  0.50922  0.09427  0.25728  1.0000
  C  Sn11      1.0  0.47265  0.10234  0.35075  1.0000
  C  Sn12      1.0  0.47914  0.18144  0.38497  1.0000
  C   C71       1.0  0.52204  0.25047  0.32472  1.0000
  C   C72       1.0  0.55842  0.24169  0.23135  1.0000
  H   H47       1.0  0.58014  0.15687  0.12539  1.0000
  O  Te11      1.0  0.93068  0.03237  0.40937  1.0000
  O  Te12      1.0  0.44315  0.19126  0.47804  1.0000
  H   H48       1.0  0.59151  0.29542  0.18516  1.0000
  Mg  Mg6       1.0  0.39164  0.07734  0.53072  1.0000
