data_image0
_chemical_formula_structural       P6H12C12N18O12SnCSn2CSnTe4Mg2SnCSn2CSnTe4Mg2SnCSn2CSnTe4Mg2SnCSn2CSnTe4Mg2SnCSn2CSnTe4Mg2SnCSn2CSnTe4Mg2SnCSn2CSnTe4Mg2SnCSn2CSnTe4Mg2SnCSn2CSnTe4Mg2SnCSn2CSnTe4Mg2SnCSn2CSnTe4Mg2SnCSn2CSnTe4Mg2
_chemical_formula_sum              "P6 H12 C36 N18 O12 Sn48 Te48 Mg24"
_cell_length_a       18.672
_cell_length_b       18.3257
_cell_length_c       10.9151
_cell_angle_alpha    92.1853
_cell_angle_beta     103.759
_cell_angle_gamma    120.664

_symmetry_space_group_name_H-M    'P1'
_space_group_IT_number       1

loop_
  _space_group_symop_operation_xyz
  'x, y, z'

loop_
  _atom_site_type_symbol
  _atom_site_label
  _atom_site_symmetry_multiplicity
  _atom_site_fract_x
  _atom_site_fract_y
  _atom_site_fract_z
  _atom_site_occupancy
  P   P1        1.0  0.54751  0.38473  0.45461  1.0000
  P   P2        1.0  0.53737  0.52688  0.47304  1.0000
  P   P3        1.0  0.41845  0.36402  0.03982  1.0000
  P   P4        1.0  0.54680  0.37478  0.94775  1.0000
  P   P5        1.0  0.53050  0.51242  0.97299  1.0000
  P   P6        1.0  0.41992  0.38312  0.54111  1.0000
  H   H1        1.0  0.50307  0.98020  0.17013  1.0000
  H   H2        1.0  0.98862  0.31681  0.95161  1.0000
  H   H3        1.0  0.98444  0.88058  0.32976  1.0000
  H   H4        1.0  0.02017  0.53099  0.17755  1.0000
  H   H5        1.0  0.38639  0.81078  0.41591  1.0000
  H   H6        1.0  0.14583  0.94886  0.61311  1.0000
  H   H7        1.0  0.51621  0.97638  0.67228  1.0000
  H   H8        1.0  0.01024  0.38849  0.39551  1.0000
  H   H9        1.0  0.96646  0.94497  0.79605  1.0000
  H   H10       1.0  0.00005  0.47238  0.74121  1.0000
  H   H11       1.0  0.38817  0.80729  0.91213  1.0000
  H   H12       1.0  0.13753  0.93354  0.09129  1.0000
  C   C1        1.0  0.41362  0.80244  0.34169  1.0000
  C   C2        1.0  0.95692  0.85237  0.22685  1.0000
  C   C3        1.0  0.05317  0.37045  0.01006  1.0000
  C   C4        1.0  0.96376  0.47035  0.11691  1.0000
  C   C5        1.0  0.47798  0.99268  0.24435  1.0000
  C   C6        1.0  0.13630  0.98523  0.14264  1.0000
  C   C7        1.0  0.41902  0.79887  0.84349  1.0000
  C   C8        1.0  0.95468  0.88961  0.73263  1.0000
  C   C9        1.0  0.06791  0.42180  0.48057  1.0000
  C   C10       1.0  0.96248  0.46724  0.64369  1.0000
  C   C11       1.0  0.48949  0.98927  0.74372  1.0000
  C   C12       1.0  0.14222  0.00196  0.65451  1.0000
  N   N1        1.0  0.44211  0.86022  0.27068  1.0000
  N   N2        1.0  0.99817  0.88803  0.14470  1.0000
  N   N3        1.0  0.05720  0.43376  0.07684  1.0000
  N   N4        1.0  0.45556  0.33200  0.48108  1.0000
  N   N5        1.0  0.97213  0.41412  0.05654  1.0000
  N   N6        1.0  0.43943  0.93242  0.30742  1.0000
  N   N7        1.0  0.58236  0.48073  0.42884  1.0000
  N   N8        1.0  0.07116  0.96875  0.18486  1.0000
  N   N9        1.0  0.47301  0.46668  0.06668  1.0000
  N   N10       1.0  0.45363  0.85769  0.77642  1.0000
  N   N11       1.0  0.01244  0.89988  0.67624  1.0000
  N   N12       1.0  0.06772  0.46701  0.57509  1.0000
  N   N13       1.0  0.45469  0.31679  0.97192  1.0000
  N   N14       1.0  0.98932  0.46406  0.54556  1.0000
  N   N15       1.0  0.45037  0.93014  0.80794  1.0000
  N   N16       1.0  0.57730  0.47009  0.92349  1.0000
  N   N17       1.0  0.07872  0.98691  0.70012  1.0000
  N   N18       1.0  0.47908  0.48588  0.56751  1.0000
  O   O1        1.0  0.32306  0.34851  0.44442  1.0000
  O   O2        1.0  0.40301  0.33210  0.17186  1.0000
  O   O3        1.0  0.59764  0.61128  0.04446  1.0000
  O   O4        1.0  0.48345  0.53717  0.34224  1.0000
  O   O5        1.0  0.54812  0.33199  0.33385  1.0000
  O   O6        1.0  0.61810  0.37738  0.07046  1.0000
  O   O7        1.0  0.31884  0.32341  0.94965  1.0000
  O   O8        1.0  0.39833  0.35127  0.67072  1.0000
  O   O9        1.0  0.60414  0.62704  0.53823  1.0000
  O   O10       1.0  0.47323  0.52302  0.84623  1.0000
  O   O11       1.0  0.55271  0.32628  0.82736  1.0000
  O   O12       1.0  0.61848  0.38520  0.57499  1.0000
  C  Sn1       1.0  0.77848  0.66739  0.60898  1.0000
  C   C13       1.0  0.70619  0.66573  0.62758  1.0000
  C  Sn2       1.0  0.71418  0.74164  0.67802  1.0000
  C  Sn3       1.0  0.79612  0.82087  0.71047  1.0000
  C   C14       1.0  0.86834  0.82251  0.69185  1.0000
  C  Sn4       1.0  0.86042  0.74663  0.64143  1.0000
  O  Te1       1.0  0.76900  0.59073  0.55841  1.0000
  O  Te2       1.0  0.64098  0.73835  0.69579  1.0000
  O  Te3       1.0  0.80555  0.89757  0.76107  1.0000
  O  Te4       1.0  0.93355  0.74989  0.62364  1.0000
  Mg  Mg1       1.0  0.68679  0.86003  0.76753  1.0000
  Mg  Mg2       1.0  0.88781  0.62827  0.55184  1.0000
  C  Sn5       1.0  0.80406  0.74755  0.02681  1.0000
  C   C15       1.0  0.85576  0.78491  0.15437  1.0000
  C  Sn6       1.0  0.82382  0.74959  0.25493  1.0000
  C  Sn7       1.0  0.73844  0.67533  0.22743  1.0000
  C   C16       1.0  0.68680  0.63800  0.09993  1.0000
  C  Sn8       1.0  0.92196  0.80163  0.99931  1.0000
  O  Te5       1.0  0.04061  0.91229  0.92780  1.0000
  O  Te6       1.0  0.87671  0.78810  0.38168  1.0000
  O  Te7       1.0  0.70519  0.63895  0.32657  1.0000
  O  Te8       1.0  0.86912  0.76316  0.87262  1.0000
  Mg  Mg3       1.0  0.80218  0.71469  0.48344  1.0000
  Mg  Mg4       1.0  0.94360  0.83648  0.77079  1.0000
  C  Sn9       1.0  0.41512  0.66646  0.44531  1.0000
  C   C17       1.0  0.43822  0.73054  0.37063  1.0000
  C  Sn10      1.0  0.46618  0.72331  0.26550  1.0000
  C  Sn11      1.0  0.47112  0.65048  0.23429  1.0000
  C   C18       1.0  0.44802  0.58644  0.30892  1.0000
  C  Sn12      1.0  0.42005  0.59363  0.41410  1.0000
  O  Te9       1.0  0.38734  0.67503  0.54998  1.0000
  O  Te10      1.0  0.48896  0.78822  0.19230  1.0000
  O  Te11      1.0  0.49893  0.64196  0.12952  1.0000
  O  Te12      1.0  0.39728  0.52877  0.48726  1.0000
  Mg  Mg5       1.0  0.52287  0.74732  0.05897  1.0000
  Mg  Mg6       1.0  0.36331  0.56957  0.62056  1.0000
  C  Sn13      1.0  0.11305  0.26922  0.94230  1.0000
  C   C19       1.0  0.91816  0.20994  0.01723  1.0000
  C  Sn14      1.0  0.99968  0.28626  0.06891  1.0000
  C  Sn15      1.0  0.07439  0.29374  0.04514  1.0000
  C   C20       1.0  0.26926  0.35306  0.97023  1.0000
  C  Sn16      1.0  0.18775  0.27671  0.91853  1.0000
  O  Te13      1.0  0.03091  0.19353  0.89160  1.0000
  O  Te14      1.0  0.00643  0.35441  0.14355  1.0000
  O  Te15      1.0  0.15657  0.36951  0.09592  1.0000
  O  Te16      1.0  0.18098  0.20860  0.84391  1.0000
  Mg  Mg7       1.0  0.13244  0.44437  0.19149  1.0000
  Mg  Mg8       1.0  0.05500  0.11862  0.79587  1.0000
  C  Sn17      1.0  0.17770  0.34985  0.34086  1.0000
  C   C21       1.0  0.25963  0.38159  0.42894  1.0000
  C  Sn18      1.0  0.28015  0.42322  0.55347  1.0000
  C  Sn19      1.0  0.21745  0.43331  0.59076  1.0000
  C   C22       1.0  0.13558  0.40157  0.50271  1.0000
  C  Sn20      1.0  0.11501  0.35994  0.37815  1.0000
  O  Te17      1.0  0.15860  0.30844  0.21688  1.0000
  O  Te18      1.0  0.36249  0.45443  0.63982  1.0000
  O  Te19      1.0  0.23663  0.47476  0.71485  1.0000
  O  Te20      1.0  0.03271  0.32873  0.29184  1.0000
  Mg  Mg9       1.0  0.35764  0.50616  0.79785  1.0000
  Mg  Mg10      1.0  0.03748  0.27695  0.13381  1.0000
  C  Sn21      1.0  0.31004  0.10844  0.15129  1.0000
  C   C23       1.0  0.23233  0.08020  0.18126  1.0000
  C  Sn22      1.0  0.20336  0.13621  0.19287  1.0000
  C  Sn23      1.0  0.25307  0.22223  0.17406  1.0000
  C   C24       1.0  0.33072  0.25043  0.14408  1.0000
  C  Sn24      1.0  0.35975  0.19446  0.13247  1.0000
  O  Te21      1.0  0.33775  0.05133  0.14015  1.0000
  O  Te22      1.0  0.12548  0.10651  0.22295  1.0000
  O  Te23      1.0  0.22529  0.27935  0.18522  1.0000
  O  Te24      1.0  0.43757  0.22411  0.10239  1.0000
  Mg  Mg11      1.0  0.11489  0.20865  0.22764  1.0000
  Mg  Mg12      1.0  0.44819  0.12202  0.09762  1.0000
  C  Sn25      1.0  0.49725  0.17427  0.41771  1.0000
  C   C25       1.0  0.54208  0.24325  0.35869  1.0000
  C  Sn26      1.0  0.55830  0.22880  0.24451  1.0000
  C  Sn27      1.0  0.52905  0.14361  0.18809  1.0000
  C   C26       1.0  0.48424  0.07468  0.24709  1.0000
  C  Sn28      1.0  0.46800  0.08908  0.36129  1.0000
  O  Te25      1.0  0.48176  0.19022  0.53182  1.0000
  O  Te26      1.0  0.60328  0.29880  0.18732  1.0000
  O  Te27      1.0  0.54459  0.12770  0.07390  1.0000
  O  Te28      1.0  0.92359  0.01914  0.41846  1.0000
  Mg  Mg13      1.0  0.60853  0.24418  0.03242  1.0000
  Mg  Mg14      1.0  0.41771  0.07367  0.57332  1.0000
  C  Sn29      1.0  0.78207  0.36204  0.00117  1.0000
  C   C27       1.0  0.85903  0.44171  0.05892  1.0000
  C  Sn30      1.0  0.85867  0.50291  0.13864  1.0000
  C  Sn31      1.0  0.77974  0.48407  0.16119  1.0000
  C   C28       1.0  0.70284  0.40444  0.10348  1.0000
  C  Sn32      1.0  0.70314  0.34320  0.02371  1.0000
  O  Te29      1.0  0.98722  0.43016  0.92182  1.0000
  O  Te30      1.0  0.93643  0.58212  0.19528  1.0000
  O  Te31      1.0  0.77792  0.54437  0.24061  1.0000
  O  Te32      1.0  0.82871  0.39237  0.96712  1.0000
  Mg  Mg15      1.0  0.90062  0.64310  0.29589  1.0000
  Mg  Mg16      1.0  0.86445  0.33133  0.86655  1.0000
  C  Sn33      1.0  0.51200  0.67925  0.78907  1.0000
  C   C29       1.0  0.47927  0.61101  0.85498  1.0000
  C  Sn34      1.0  0.41042  0.59311  0.90368  1.0000
  C  Sn35      1.0  0.37346  0.64445  0.88608  1.0000
  C   C30       1.0  0.40617  0.71264  0.82019  1.0000
  C  Sn36      1.0  0.47504  0.73059  0.77147  1.0000
  O  Te33      1.0  0.58087  0.69597  0.74120  1.0000
  O  Te34      1.0  0.37883  0.52456  0.96928  1.0000
  O  Te35      1.0  0.30454  0.62768  0.93402  1.0000
  O  Te36      1.0  0.50661  0.79908  0.70589  1.0000
  Mg  Mg17      1.0  0.08083  0.39892  0.01660  1.0000
  Mg  Mg18      1.0  0.60131  0.79641  0.65848  1.0000
  C  Sn37      1.0  0.31567  0.13281  0.67215  1.0000
  C   C31       1.0  0.23235  0.09943  0.68494  1.0000
  C  Sn38      1.0  0.19430  0.14859  0.67141  1.0000
  C  Sn39      1.0  0.24046  0.23285  0.64445  1.0000
  C   C32       1.0  0.32372  0.26618  0.63166  1.0000
  C  Sn40      1.0  0.36183  0.21707  0.64520  1.0000
  O  Te37      1.0  0.85299  0.08252  0.68606  1.0000
  O  Te38      1.0  0.11094  0.11384  0.68466  1.0000
  O  Te39      1.0  0.20361  0.28313  0.63055  1.0000
  O  Te40      1.0  0.44513  0.25177  0.63194  1.0000
  Mg  Mg19      1.0  0.08846  0.20740  0.65716  1.0000
  Mg  Mg20      1.0  0.46766  0.15825  0.65935  1.0000
  C  Sn41      1.0  0.53865  0.19496  0.67894  1.0000
  C   C33       1.0  0.51756  0.22980  0.77035  1.0000
  C  Sn42      1.0  0.49454  0.18838  0.87204  1.0000
  C  Sn43      1.0  0.99315  0.11054  0.88265  1.0000
  C   C34       1.0  0.01424  0.07574  0.79129  1.0000
  C  Sn44      1.0  0.53671  0.11711  0.68955  1.0000
  O  Te41      1.0  0.56148  0.23746  0.57809  1.0000
  O  Te42      1.0  0.47369  0.22445  0.96223  1.0000
  O  Te43      1.0  0.97029  0.06805  0.98361  1.0000
  O  Te44      1.0  0.55756  0.08110  0.59942  1.0000
  Mg  Mg21      1.0  0.24345  0.01421  0.08239  1.0000
  Mg  Mg22      1.0  0.58458  0.16296  0.47926  1.0000
  C  Sn45      1.0  0.78537  0.45593  0.73124  1.0000
  C   C35       1.0  0.72449  0.44322  0.61615  1.0000
  C  Sn46      1.0  0.73722  0.42974  0.49837  1.0000
  C  Sn47      1.0  0.81234  0.42889  0.49554  1.0000
  C   C36       1.0  0.87317  0.44158  0.61058  1.0000
  C  Sn48      1.0  0.86050  0.45508  0.72842  1.0000
  O  Te45      1.0  0.77132  0.46928  0.84788  1.0000
  O  Te46      1.0  0.67545  0.41722  0.38458  1.0000
  O  Te47      1.0  0.82635  0.41553  0.37877  1.0000
  O  Te48      1.0  0.92220  0.46758  0.84215  1.0000
  Mg  Mg23      1.0  0.72358  0.40151  0.24967  1.0000
  Mg  Mg24      1.0  0.87412  0.48325  0.97711  1.0000
