data_image0
_chemical_formula_structural       P6H12C12N18O12C2Sn2C2HTe2HMgC2Sn2C2HTe2HMgC2Sn2C2HTe2HMgC2Sn2C2HTe2HMgC2Sn2C2HTe2HMgC2Sn2C2HTe2HMgC2Sn2C2HTe2HMgC2Sn2C2HTe2HMgC2Sn2C2HTe2HMgC2Sn2C2HTe2HMgC2Sn2C2HTe2HMgC2Sn2C2HTe2HMgC2Sn2C2HTe2HMgC2Sn2C2HTe2HMgC2Sn2C2HTe2HMgC2Sn2C2HTe2HMgC2Sn2C2HTe2HMgC2Sn2C2HTe2HMg
_chemical_formula_sum              "P6 H48 C84 N18 O12 Sn36 Te36 Mg18"
_cell_length_a       23.0352
_cell_length_b       22.4875
_cell_length_c       8.81206
_cell_angle_alpha    89.2846
_cell_angle_beta     83.49
_cell_angle_gamma    117.268

_symmetry_space_group_name_H-M    'P1'
_space_group_IT_number       1

loop_
  _space_group_symop_operation_xyz
  'x, y, z'

loop_
  _atom_site_type_symbol
  _atom_site_label
  _atom_site_symmetry_multiplicity
  _atom_site_fract_x
  _atom_site_fract_y
  _atom_site_fract_z
  _atom_site_occupancy
  P   P1        1.0  0.29731  0.37374  0.51586  1.0000
  P   P2        1.0  0.30783  0.26814  0.51372  1.0000
  P   P3        1.0  0.44122  0.43048  0.47862  1.0000
  P   P4        1.0  0.30503  0.37821  0.01812  1.0000
  P   P5        1.0  0.31050  0.26954  0.00935  1.0000
  P   P6        1.0  0.44893  0.43211  0.96392  1.0000
  H   H1        1.0  0.68217  0.79280  0.91462  1.0000
  H   H2        1.0  0.72921  0.37421  0.26168  1.0000
  H   H3        1.0  0.98866  0.98046  0.23265  1.0000
  H   H4        1.0  0.95218  0.27661  0.11106  1.0000
  H   H5        1.0  0.30662  0.70223  0.49145  1.0000
  H   H6        1.0  0.48230  0.06083  0.09704  1.0000
  H   H7        1.0  0.65692  0.80000  0.46841  1.0000
  H   H8        1.0  0.75189  0.40697  0.75794  1.0000
  H   H9        1.0  0.99111  0.97011  0.69757  1.0000
  H   H10       1.0  0.94979  0.28499  0.63609  1.0000
  H   H11       1.0  0.31678  0.70869  0.02032  1.0000
  H   H12       1.0  0.46410  0.04575  0.60615  1.0000
  C   C1        1.0  0.67402  0.75182  0.99750  1.0000
  C   C2        1.0  0.69504  0.35990  0.36917  1.0000
  C   C3        1.0  0.99582  0.01375  0.13203  1.0000
  C   C4        1.0  0.98465  0.31590  0.02122  1.0000
  C   C5        1.0  0.34945  0.69845  0.52506  1.0000
  C   C6        1.0  0.43529  0.04724  0.51603  1.0000
  C   C7        1.0  0.66390  0.75662  0.50206  1.0000
  C   C8        1.0  0.71072  0.37799  0.84821  1.0000
  C   C9        1.0  0.99447  0.01114  0.62201  1.0000
  C   C10       1.0  0.98003  0.31878  0.53532  1.0000
  C   C11       1.0  0.36097  0.70406  0.03981  1.0000
  C   C12       1.0  0.44484  0.05454  0.02295  1.0000
  N   N1        1.0  0.36642  0.38651  0.39981  1.0000
  N   N2        1.0  0.27678  0.30777  0.11207  1.0000
  N   N3        1.0  0.36756  0.32054  0.39121  1.0000
  N   N4        1.0  0.71569  0.75933  0.09178  1.0000
  N   N5        1.0  0.71610  0.34106  0.95425  1.0000
  N   N6        1.0  0.94876  0.00343  0.05197  1.0000
  N   N7        1.0  0.96584  0.35136  0.94291  1.0000
  N   N8        1.0  0.40569  0.75086  0.52673  1.0000
  N   N9        1.0  0.41311  0.00094  0.42115  1.0000
  N   N10       1.0  0.37172  0.38764  0.89662  1.0000
  N   N11       1.0  0.27187  0.30481  0.61493  1.0000
  N   N12       1.0  0.36901  0.32032  0.88203  1.0000
  N   N13       1.0  0.71596  0.76351  0.55814  1.0000
  N   N14       1.0  0.70822  0.33787  0.49075  1.0000
  N   N15       1.0  0.94503  0.00800  0.55955  1.0000
  N   N16       1.0  0.95937  0.34979  0.44849  1.0000
  N   N17       1.0  0.41791  0.75624  0.03479  1.0000
  N   N18       1.0  0.41741  0.00319  0.94333  1.0000
  O   O1        1.0  0.49234  0.43090  0.32532  1.0000
  O   O2        1.0  0.44807  0.50708  0.42932  1.0000
  O   O3        1.0  0.25516  0.21154  0.92109  1.0000
  O   O4        1.0  0.33121  0.22753  0.12179  1.0000
  O   O5        1.0  0.32245  0.43836  0.12727  1.0000
  O   O6        1.0  0.24707  0.37336  0.40269  1.0000
  O   O7        1.0  0.49749  0.43290  0.80650  1.0000
  O   O8        1.0  0.45305  0.50777  0.91741  1.0000
  O   O9        1.0  0.25338  0.21078  0.42216  1.0000
  O   O10       1.0  0.32836  0.22489  0.62257  1.0000
  O   O11       1.0  0.30949  0.43337  0.62332  1.0000
  O   O12       1.0  0.25559  0.38351  0.91115  1.0000
  C   C13       1.0  0.10807  0.38767  0.36139  1.0000
  C   C14       1.0  0.05756  0.34029  0.46730  1.0000
  C  Sn1       1.0  0.07095  0.30123  0.56844  1.0000
  C  Sn2       1.0  0.13617  0.30989  0.56320  1.0000
  C   C15       1.0  0.18637  0.35745  0.45690  1.0000
  C   C16       1.0  0.17242  0.39625  0.35619  1.0000
  H   H13       1.0  0.09729  0.41772  0.28352  1.0000
  O  Te1       1.0  0.01990  0.25411  0.67350  1.0000
  O  Te2       1.0  0.15093  0.27153  0.66300  1.0000
  H   H14       1.0  0.21155  0.43296  0.27427  1.0000
  Mg  Mg1       1.0  0.06460  0.21380  0.78568  1.0000
  C   C17       1.0  0.15187  0.40500  0.85940  1.0000
  C   C18       1.0  0.18483  0.37499  0.92736  1.0000
  C  Sn3       1.0  0.20729  0.34983  0.02829  1.0000
  C  Sn4       1.0  0.13779  0.32234  0.06154  1.0000
  C   C19       1.0  0.04760  0.32075  0.99287  1.0000
  C   C20       1.0  0.08332  0.37791  0.89209  1.0000
  H   H15       1.0  0.17950  0.44920  0.78136  1.0000
  O  Te3       1.0  0.24100  0.32049  0.09523  1.0000
  O  Te4       1.0  0.10138  0.26528  0.16194  1.0000
  H   H16       1.0  0.05778  0.40110  0.83941  1.0000
  Mg  Mg2       1.0  0.16964  0.24335  0.22458  1.0000
  C   C21       1.0  0.40241  0.60920  0.14420  1.0000
  C   C22       1.0  0.36510  0.63398  0.07643  1.0000
  C  Sn5       1.0  0.30425  0.58985  0.03306  1.0000
  C  Sn6       1.0  0.28043  0.51963  0.05819  1.0000
  C   C23       1.0  0.31811  0.49535  0.12618  1.0000
  C   C24       1.0  0.37894  0.53995  0.16909  1.0000
  H   H17       1.0  0.44946  0.64371  0.17749  1.0000
  O  Te5       1.0  0.20995  0.58350  0.96543  1.0000
  O  Te6       1.0  0.21977  0.47441  0.01600  1.0000
  H   H18       1.0  0.40780  0.52075  0.22165  1.0000
  Mg  Mg3       1.0  0.13024  0.50172  0.92771  1.0000
  C   C25       1.0  0.37545  0.56622  0.67775  1.0000
  C   C26       1.0  0.32555  0.50795  0.63057  1.0000
  C  Sn7       1.0  0.28105  0.51200  0.54083  1.0000
  C  Sn8       1.0  0.28675  0.57564  0.49766  1.0000
  C   C27       1.0  0.33686  0.63365  0.54535  1.0000
  C   C28       1.0  0.38111  0.62902  0.63517  1.0000
  H   H19       1.0  0.40971  0.56265  0.74718  1.0000
  O  Te7       1.0  0.23148  0.45328  0.49473  1.0000
  O  Te8       1.0  0.24295  0.58114  0.40797  1.0000
  H   H20       1.0  0.41977  0.67415  0.67160  1.0000
  Mg  Mg4       1.0  0.18366  0.48669  0.37352  1.0000
  C   C29       1.0  0.87983  0.86245  0.11739  1.0000
  C   C30       1.0  0.89187  0.92784  0.07765  1.0000
  C  Sn9       1.0  0.83988  0.94100  0.05295  1.0000
  C  Sn10      1.0  0.77467  0.88762  0.06844  1.0000
  C   C31       1.0  0.76313  0.82239  0.10834  1.0000
  C   C32       1.0  0.81552  0.80977  0.13275  1.0000
  H   H21       1.0  0.92036  0.85269  0.13636  1.0000
  O  Te9       1.0  0.40552  0.00662  0.01327  1.0000
  O  Te10      1.0  0.72179  0.89938  0.04446  1.0000
  H   H22       1.0  0.80618  0.75915  0.16361  1.0000
  Mg  Mg5       1.0  0.70670  0.96540  0.99232  1.0000
  C   C33       1.0  0.56228  0.67455  0.85137  1.0000
  C   C34       1.0  0.60371  0.68994  0.96484  1.0000
  C  Sn11      1.0  0.65519  0.67142  0.06930  1.0000
  C  Sn12      1.0  0.60660  0.60434  0.05967  1.0000
  C   C35       1.0  0.50776  0.55751  0.94565  1.0000
  C   C36       1.0  0.51435  0.60840  0.84174  1.0000
  H   H23       1.0  0.56740  0.71392  0.77091  1.0000
  O  Te11      1.0  0.69697  0.68767  0.18200  1.0000
  O  Te12      1.0  0.59937  0.55292  0.16257  1.0000
  H   H24       1.0  0.48230  0.59647  0.75383  1.0000
  Mg  Mg6       1.0  0.66797  0.60013  0.29594  1.0000
  C   C37       1.0  0.85636  0.41018  0.88731  1.0000
  C   C38       1.0  0.79284  0.35953  0.93865  1.0000
  C  Sn13      1.0  0.84131  0.33103  0.00790  1.0000
  C  Sn14      1.0  0.89684  0.32125  0.02598  1.0000
  C   C39       1.0  0.90253  0.34030  0.97434  1.0000
  C   C40       1.0  0.91116  0.40059  0.90516  1.0000
  H   H25       1.0  0.86305  0.45685  0.83386  1.0000
  O  Te13      1.0  0.77751  0.28094  0.05848  1.0000
  O  Te14      1.0  0.88907  0.26133  0.09485  1.0000
  H   H26       1.0  0.96035  0.43981  0.86552  1.0000
  Mg  Mg7       1.0  0.79225  0.20804  0.14513  1.0000
  C   C41       1.0  0.50432  0.64385  0.42696  1.0000
  C   C42       1.0  0.50062  0.58012  0.43746  1.0000
  C  Sn15      1.0  0.55344  0.57208  0.47944  1.0000
  C  Sn16      1.0  0.61096  0.62899  0.51148  1.0000
  C   C43       1.0  0.61415  0.69253  0.50076  1.0000
  C   C44       1.0  0.56102  0.70001  0.45860  1.0000
  H   H27       1.0  0.46320  0.64964  0.39443  1.0000
  O  Te15      1.0  0.54893  0.50804  0.48932  1.0000
  O  Te16      1.0  0.66446  0.62238  0.55375  1.0000
  H   H28       1.0  0.56388  0.74936  0.45058  1.0000
  Mg  Mg8       1.0  0.63480  0.52471  0.55140  1.0000
  C   C45       1.0  0.53673  0.35117  0.47971  1.0000
  C   C46       1.0  0.53365  0.39565  0.37260  1.0000
  C  Sn17      1.0  0.58408  0.42659  0.25028  1.0000
  C  Sn18      1.0  0.63853  0.41263  0.23520  1.0000
  C   C47       1.0  0.64112  0.36802  0.34291  1.0000
  C   C48       1.0  0.59040  0.33736  0.46489  1.0000
  H   H29       1.0  0.49747  0.32741  0.57405  1.0000
  O  Te17      1.0  0.58024  0.47092  0.14433  1.0000
  O  Te18      1.0  0.68959  0.44284  0.11402  1.0000
  H   H30       1.0  0.59278  0.30289  0.54775  1.0000
  Mg  Mg9       1.0  0.60434  0.46768  0.99895  1.0000
  C   C49       1.0  0.44329  0.16876  0.63387  1.0000
  C   C50       1.0  0.42262  0.11223  0.54891  1.0000
  C  Sn19      1.0  0.37055  0.09584  0.46323  1.0000
  C  Sn20      1.0  0.33868  0.13690  0.46280  1.0000
  C   C51       1.0  0.35976  0.19337  0.54809  1.0000
  C   C52       1.0  0.41190  0.20930  0.63346  1.0000
  H   H31       1.0  0.48366  0.18111  0.69985  1.0000
  O  Te19      1.0  0.35051  0.03918  0.37904  1.0000
  O  Te20      1.0  0.28652  0.12169  0.37813  1.0000
  H   H32       1.0  0.42792  0.25309  0.69915  1.0000
  Mg  Mg10      1.0  0.27710  0.03921  0.28179  1.0000
  C   C53       1.0  0.43638  0.20174  0.13934  1.0000
  C   C54       1.0  0.38112  0.19876  0.08162  1.0000
  C  Sn21      1.0  0.28631  0.11331  0.99747  1.0000
  C  Sn22      1.0  0.30494  0.06192  0.97083  1.0000
  C   C55       1.0  0.41794  0.09730  0.02916  1.0000
  C   C56       1.0  0.45477  0.15106  0.11318  1.0000
  H   H33       1.0  0.46486  0.24332  0.20442  1.0000
  O  Te21      1.0  0.23125  0.11112  0.94057  1.0000
  O  Te22      1.0  0.26868  0.00788  0.88715  1.0000
  H   H34       1.0  0.49753  0.15334  0.15794  1.0000
  Mg  Mg11      1.0  0.19761  0.02727  0.83322  1.0000
  C   C57       1.0  0.47704  0.92720  0.06092  1.0000
  C   C58       1.0  0.38631  0.91581  0.96589  1.0000
  C  Sn23      1.0  0.33953  0.86932  0.88307  1.0000
  C  Sn24      1.0  0.32568  0.80100  0.89590  1.0000
  C   C59       1.0  0.35899  0.78092  0.99137  1.0000
  C   C60       1.0  0.46339  0.85982  0.07369  1.0000
  H   H35       1.0  0.51317  0.96351  0.12469  1.0000
  O  Te23      1.0  0.30697  0.89072  0.78860  1.0000
  O  Te24      1.0  0.27914  0.75348  0.81446  1.0000
  H   H36       1.0  0.48895  0.84387  0.14735  1.0000
  Mg  Mg12      1.0  0.24771  0.80712  0.70063  1.0000
  C   C61       1.0  0.08676  0.13224  0.94295  1.0000
  C   C62       1.0  0.12196  0.11072  0.05375  1.0000
  C  Sn25      1.0  0.16595  0.10381  0.14047  1.0000
  C  Sn26      1.0  0.23366  0.15141  0.11559  1.0000
  C   C63       1.0  0.25563  0.20476  0.00455  1.0000
  C   C64       1.0  0.15353  0.17923  0.91838  1.0000
  H   H37       1.0  0.05237  0.13724  0.87633  1.0000
  O  Te25      1.0  0.14268  0.05007  0.25066  1.0000
  O  Te26      1.0  0.27869  0.14572  0.20069  1.0000
  H   H38       1.0  0.17093  0.22066  0.83268  1.0000
  Mg  Mg13      1.0  0.22317  0.06381  0.33762  1.0000
  C   C65       1.0  0.36453  0.86829  0.36384  1.0000
  C   C66       1.0  0.40645  0.92842  0.42166  1.0000
  C  Sn27      1.0  0.45572  0.93131  0.50483  1.0000
  C  Sn28      1.0  0.46306  0.87283  0.53037  1.0000
  C   C67       1.0  0.42090  0.81293  0.47195  1.0000
  C   C68       1.0  0.37174  0.81060  0.38892  1.0000
  H   H39       1.0  0.32652  0.86649  0.29952  1.0000
  O  Te27      1.0  0.04991  0.99179  0.56184  1.0000
  O  Te28      1.0  0.51190  0.87431  0.61306  1.0000
  H   H40       1.0  0.33932  0.76404  0.34408  1.0000
  Mg  Mg14      1.0  0.55630  0.96858  0.66759  1.0000
  C   C69       1.0  0.79462  0.90162  0.45228  1.0000
  C   C70       1.0  0.77173  0.83994  0.53520  1.0000
  C  Sn29      1.0  0.80459  0.83378  0.65358  1.0000
  C  Sn30      1.0  0.86140  0.89051  0.68937  1.0000
  C   C71       1.0  0.88387  0.95200  0.60581  1.0000
  C   C72       1.0  0.85063  0.95761  0.48755  1.0000
  H   H41       1.0  0.76888  0.90597  0.36083  1.0000
  O  Te29      1.0  0.78108  0.77178  0.73524  1.0000
  O  Te30      1.0  0.89517  0.88576  0.80716  1.0000
  H   H42       1.0  0.42108  0.00538  0.42343  1.0000
  Mg  Mg15      1.0  0.84402  0.79049  0.88554  1.0000
  C   C73       1.0  0.78841  0.28342  0.57770  1.0000
  C   C74       1.0  0.77285  0.33085  0.51492  1.0000
  C  Sn31      1.0  0.82084  0.38550  0.41999  1.0000
  C  Sn32      1.0  0.88557  0.39266  0.38749  1.0000
  C   C75       1.0  0.90063  0.34491  0.45078  1.0000
  C   C76       1.0  0.85223  0.29043  0.54566  1.0000
  H   H43       1.0  0.75096  0.24125  0.65105  1.0000
  O  Te31      1.0  0.80446  0.43244  0.35825  1.0000
  O  Te32      1.0  0.93448  0.44678  0.29293  1.0000
  H   H44       1.0  0.86429  0.25369  0.59418  1.0000
  Mg  Mg16      1.0  0.88813  0.49758  0.23600  1.0000
  C   C77       1.0  0.54125  0.34176  0.89837  1.0000
  C   C78       1.0  0.54242  0.40067  0.84171  1.0000
  C  Sn33      1.0  0.60182  0.45447  0.77673  1.0000
  C  Sn34      1.0  0.66106  0.44904  0.76844  1.0000
  C   C79       1.0  0.65936  0.38987  0.82536  1.0000
  C   C80       1.0  0.59966  0.33634  0.89019  1.0000
  H   H45       1.0  0.49505  0.30033  0.94846  1.0000
  O  Te33      1.0  0.60211  0.51298  0.72071  1.0000
  O  Te34      1.0  0.72111  0.50203  0.70403  1.0000
  H   H46       1.0  0.59876  0.29072  0.93397  1.0000
  Mg  Mg17      1.0  0.69621  0.57145  0.64335  1.0000
  C   C81       1.0  0.13204  0.06638  0.62912  1.0000
  C   C82       1.0  0.07299  0.06629  0.60593  1.0000
  C  Sn35      1.0  0.07370  0.11781  0.51421  1.0000
  C  Sn36      1.0  0.13475  0.17032  0.44453  1.0000
  C   C83       1.0  0.19355  0.16992  0.46835  1.0000
  C   C84       1.0  0.19227  0.11813  0.56038  1.0000
  H   H47       1.0  0.13105  0.02629  0.70025  1.0000
  O  Te35      1.0  0.01425  0.11697  0.49229  1.0000
  O  Te36      1.0  0.13688  0.22242  0.35227  1.0000
  H   H48       1.0  0.23800  0.11818  0.57823  1.0000
  Mg  Mg18      1.0  0.04270  0.19910  0.35684  1.0000
