data_image0
_chemical_formula_structural       P6H12C12N18O12C2Sn2C2HTe2HMgC2Sn2C2HTe2HMgC2Sn2C2HTe2HMgC2Sn2C2HTe2HMgC2Sn2C2HTe2HMgC2Sn2C2HTe2HMgC2Sn2C2HTe2HMgC2Sn2C2HTe2HMgC2Sn2C2HTe2HMgC2Sn2C2HTe2HMgC2Sn2C2HTe2HMgC2Sn2C2HTe2HMgC2Sn2C2HTe2HMgC2Sn2C2HTe2HMgC2Sn2C2HTe2HMgC2Sn2C2HTe2HMgC2Sn2C2HTe2HMgC2Sn2C2HTe2HMgC2Sn2C2HTe2HMgC2Sn2C2HTe2HMgC2Sn2C2HTe2HMgC2Sn2C2HTe2HMgC2Sn2C2HTe2HMgC2Sn2C2HTe2HMg
_chemical_formula_sum              "P6 H60 C108 N18 O12 Sn48 Te48 Mg24"
_cell_length_a       26.7376
_cell_length_b       27.2555
_cell_length_c       9.81848
_cell_angle_alpha    80.6299
_cell_angle_beta     74.4298
_cell_angle_gamma    119.165

_symmetry_space_group_name_H-M    'P1'
_space_group_IT_number       1

loop_
  _space_group_symop_operation_xyz
  'x, y, z'

loop_
  _atom_site_type_symbol
  _atom_site_label
  _atom_site_symmetry_multiplicity
  _atom_site_fract_x
  _atom_site_fract_y
  _atom_site_fract_z
  _atom_site_occupancy
  P   P1        1.0  0.62769  0.44092  0.02576  1.0000
  P   P2        1.0  0.73331  0.53456  0.01922  1.0000
  P   P3        1.0  0.65996  0.55971  0.44067  1.0000
  P   P4        1.0  0.66161  0.46063  0.51558  1.0000
  P   P5        1.0  0.75560  0.56745  0.50794  1.0000
  P   P6        1.0  0.65161  0.55190  0.94106  1.0000
  H   H1        1.0  0.04987  0.58547  0.34331  1.0000
  H   H2        1.0  0.96170  0.86676  0.47493  1.0000
  H   H3        1.0  0.71015  0.22215  0.01027  1.0000
  H   H4        1.0  0.37134  0.16767  0.72641  1.0000
  H   H5        1.0  0.61512  0.80110  0.26690  1.0000
  H   H6        1.0  0.32012  0.42231  0.22430  1.0000
  H   H7        1.0  0.98953  0.48689  0.84626  1.0000
  H   H8        1.0  0.96355  0.83028  0.96666  1.0000
  H   H9        1.0  0.68188  0.20323  0.61318  1.0000
  H   H10       1.0  0.33619  0.14968  0.23648  1.0000
  H   H11       1.0  0.67052  0.83316  0.69099  1.0000
  H   H12       1.0  0.33492  0.48682  0.75985  1.0000
  C   C1        1.0  0.35702  0.46989  0.15877  1.0000
  C   C2        1.0  0.64964  0.79919  0.30402  1.0000
  C   C3        1.0  0.38310  0.21167  0.66311  1.0000
  C   C4        1.0  0.96791  0.83142  0.52057  1.0000
  C   C5        1.0  0.00171  0.54531  0.39113  1.0000
  C   C6        1.0  0.66811  0.21384  0.99308  1.0000
  C   C7        1.0  0.36494  0.48933  0.65366  1.0000
  C   C8        1.0  0.67949  0.81401  0.78189  1.0000
  C   C9        1.0  0.35785  0.19116  0.14152  1.0000
  C   C10       1.0  0.97010  0.79349  0.99114  1.0000
  C   C11       1.0  0.95040  0.47011  0.95441  1.0000
  C   C12       1.0  0.67311  0.21708  0.51515  1.0000
  N   N1        1.0  0.63971  0.49584  0.42832  1.0000
  N   N2        1.0  0.67790  0.46536  0.09807  1.0000
  N   N3        1.0  0.34747  0.50619  0.08568  1.0000
  N   N4        1.0  0.68219  0.83757  0.35799  1.0000
  N   N5        1.0  0.71805  0.58003  0.95012  1.0000
  N   N6        1.0  0.35128  0.21685  0.58992  1.0000
  N   N7        1.0  0.01690  0.84299  0.54546  1.0000
  N   N8        1.0  0.95071  0.44718  0.08026  1.0000
  N   N9        1.0  0.62938  0.16479  0.97841  1.0000
  N   N10       1.0  0.61842  0.48679  0.92971  1.0000
  N   N11       1.0  0.71414  0.49603  0.57510  1.0000
  N   N12       1.0  0.35247  0.49148  0.53550  1.0000
  N   N13       1.0  0.68715  0.83585  0.88776  1.0000
  N   N14       1.0  0.72506  0.59988  0.45161  1.0000
  N   N15       1.0  0.33827  0.19138  0.03464  1.0000
  N   N16       1.0  0.01675  0.80051  0.02168  1.0000
  N   N17       1.0  0.98861  0.49358  0.46395  1.0000
  N   N18       1.0  0.65963  0.18634  0.42786  1.0000
  O   O1        1.0  0.65784  0.59616  0.29753  1.0000
  O   O2        1.0  0.60562  0.55348  0.08641  1.0000
  O   O3        1.0  0.82110  0.59421  0.36660  1.0000
  O   O4        1.0  0.76565  0.55873  0.13172  1.0000
  O   O5        1.0  0.56374  0.38885  0.17073  1.0000
  O   O6        1.0  0.68307  0.43212  0.39940  1.0000
  O   O7        1.0  0.65677  0.59598  0.79910  1.0000
  O   O8        1.0  0.60684  0.55367  0.58444  1.0000
  O   O9        1.0  0.79035  0.54058  0.88621  1.0000
  O   O10       1.0  0.77909  0.59073  0.63269  1.0000
  O   O11       1.0  0.60398  0.40297  0.66068  1.0000
  O   O12       1.0  0.63882  0.40652  0.91455  1.0000
  C   C13       1.0  0.19282  0.43848  0.65890  1.0000
  C   C14       1.0  0.19152  0.47910  0.55522  1.0000
  C  Sn1       1.0  0.24670  0.52605  0.43401  1.0000
  C  Sn2       1.0  0.30418  0.53232  0.41655  1.0000
  C   C15       1.0  0.30498  0.49143  0.52083  1.0000
  C   C16       1.0  0.24949  0.44462  0.64173  1.0000
  H   H13       1.0  0.14989  0.40224  0.75241  1.0000
  O  Te1       1.0  0.24457  0.56625  0.33149  1.0000
  O  Te2       1.0  0.36002  0.57883  0.29641  1.0000
  H   H14       1.0  0.25051  0.41315  0.72194  1.0000
  Mg  Mg1       1.0  0.33309  0.62226  0.18630  1.0000
  C   C17       1.0  0.21306  0.43674  0.22703  1.0000
  C   C18       1.0  0.27420  0.47419  0.11646  1.0000
  C  Sn3       1.0  0.11939  0.37301  0.97891  1.0000
  C  Sn4       1.0  0.06983  0.37296  0.95191  1.0000
  C   C19       1.0  0.17631  0.47408  0.06330  1.0000
  C   C20       1.0  0.16416  0.43669  0.20052  1.0000
  H   H15       1.0  0.20366  0.40784  0.33323  1.0000
  O  Te3       1.0  0.18073  0.41013  0.86965  1.0000
  O  Te4       1.0  0.08117  0.41005  0.81547  1.0000
  H   H16       1.0  0.11682  0.40773  0.28614  1.0000
  Mg  Mg2       1.0  0.17263  0.45262  0.70165  1.0000
  C   C21       1.0  0.21217  0.95640  0.99779  1.0000
  C   C22       1.0  0.17948  0.97626  0.94386  1.0000
  C  Sn5       1.0  0.14394  0.94573  0.86841  1.0000
  C  Sn6       1.0  0.14115  0.89437  0.84677  1.0000
  C   C23       1.0  0.67075  0.87485  0.90126  1.0000
  C   C24       1.0  0.20942  0.90574  0.97655  1.0000
  H   H17       1.0  0.40704  0.11900  0.05613  1.0000
  O  Te5       1.0  0.11160  0.96618  0.81520  1.0000
  O  Te6       1.0  0.60273  0.86300  0.77181  1.0000
  H   H18       1.0  0.40216  0.02906  0.01839  1.0000
  Mg  Mg3       1.0  0.07007  0.90834  0.71997  1.0000
  C   C25       1.0  0.22781  0.97235  0.41093  1.0000
  C   C26       1.0  0.18086  0.98154  0.40965  1.0000
  C  Sn7       1.0  0.62361  0.93729  0.40077  1.0000
  C  Sn8       1.0  0.61660  0.88288  0.39310  1.0000
  C   C27       1.0  0.66382  0.87411  0.39457  1.0000
  C   C28       1.0  0.71769  0.91869  0.40343  1.0000
  H   H19       1.0  0.26948  0.00683  0.41788  1.0000
  O  Te7       1.0  0.08040  0.94721  0.39955  1.0000
  O  Te8       1.0  0.56308  0.83790  0.38420  1.0000
  H   H20       1.0  0.75402  0.91155  0.40452  1.0000
  Mg  Mg4       1.0  0.51281  0.87245  0.38604  1.0000
  C   C29       1.0  0.51763  0.57694  0.06109  1.0000
  C   C30       1.0  0.54142  0.54438  0.10523  1.0000
  C  Sn9       1.0  0.50271  0.48189  0.16971  1.0000
  C  Sn10      1.0  0.43903  0.45156  0.19020  1.0000
  C   C31       1.0  0.41569  0.48454  0.14557  1.0000
  C   C32       1.0  0.45483  0.54706  0.08120  1.0000
  H   H21       1.0  0.54792  0.62531  0.01121  1.0000
  O  Te9       1.0  0.52724  0.45006  0.21324  1.0000
  O  Te10      1.0  0.39932  0.38913  0.25431  1.0000
  H   H22       1.0  0.43641  0.57225  0.04695  1.0000
  Mg  Mg5       1.0  0.45456  0.36554  0.29553  1.0000
  C   C33       1.0  0.24712  0.16129  0.52012  1.0000
  C   C34       1.0  0.29225  0.16572  0.57286  1.0000
  C  Sn11      1.0  0.30044  0.11867  0.59777  1.0000
  C  Sn12      1.0  0.26269  0.06630  0.56921  1.0000
  C   C35       1.0  0.21770  0.06233  0.51637  1.0000
  C   C36       1.0  0.20988  0.10966  0.49187  1.0000
  H   H23       1.0  0.24109  0.19793  0.50109  1.0000
  O  Te11      1.0  0.34574  0.12382  0.65053  1.0000
  O  Te12      1.0  0.26991  0.01862  0.59309  1.0000
  H   H24       1.0  0.17496  0.10624  0.45095  1.0000
  Mg  Mg6       1.0  0.33792  0.04682  0.66580  1.0000
  C   C37       1.0  0.59746  0.65452  0.28951  1.0000
  C   C38       1.0  0.64566  0.64675  0.28622  1.0000
  C  Sn13      1.0  0.70023  0.69217  0.29048  1.0000
  C  Sn14      1.0  0.70651  0.74631  0.29823  1.0000
  C   C39       1.0  0.65800  0.75362  0.30158  1.0000
  C   C40       1.0  0.60360  0.70790  0.29721  1.0000
  H   H25       1.0  0.55536  0.61913  0.28621  1.0000
  O  Te13      1.0  0.74795  0.68368  0.28705  1.0000
  O  Te14      1.0  0.76053  0.79242  0.30268  1.0000
  H   H26       1.0  0.56627  0.71391  0.29986  1.0000
  Mg  Mg7       1.0  0.81259  0.75963  0.29540  1.0000
  C   C41       1.0  0.14154  0.92315  0.48189  1.0000
  C   C42       1.0  0.07794  0.90097  0.53103  1.0000
  C  Sn15      1.0  0.56047  0.93747  0.56478  1.0000
  C  Sn16      1.0  0.60437  0.99728  0.54889  1.0000
  C   C43       1.0  0.66791  0.01906  0.49955  1.0000
  C   C44       1.0  0.68811  0.98213  0.46613  1.0000
  H   H27       1.0  0.15719  0.89459  0.45595  1.0000
  O  Te15      1.0  0.99352  0.91459  0.61380  1.0000
  O  Te16      1.0  0.58495  0.03474  0.58179  1.0000
  H   H28       1.0  0.73737  0.99933  0.42799  1.0000
  Mg  Mg8       1.0  0.49318  0.98302  0.64480  1.0000
  C   C45       1.0  0.89549  0.64071  0.02012  1.0000
  C   C46       1.0  0.83219  0.61923  0.06448  1.0000
  C  Sn17      1.0  0.81321  0.65871  0.06875  1.0000
  C  Sn18      1.0  0.85857  0.72081  0.02774  1.0000
  C   C47       1.0  0.75431  0.60314  0.98341  1.0000
  C   C48       1.0  0.77278  0.56325  0.97959  1.0000
  H   H29       1.0  0.90980  0.60985  0.01708  1.0000
  O  Te17      1.0  0.74977  0.63649  0.11340  1.0000
  O  Te18      1.0  0.84089  0.76125  0.03093  1.0000
  H   H30       1.0  0.82181  0.57989  0.94514  1.0000
  Mg  Mg9       1.0  0.74882  0.70933  0.09964  1.0000
  C   C49       1.0  0.89484  0.67468  0.62029  1.0000
  C   C50       1.0  0.83584  0.65187  0.61717  1.0000
  C  Sn19      1.0  0.81874  0.69067  0.57191  1.0000
  C  Sn20      1.0  0.86162  0.75344  0.52900  1.0000
  C   C51       1.0  0.92055  0.77581  0.53240  1.0000
  C   C52       1.0  0.93717  0.73658  0.57792  1.0000
  H   H31       1.0  0.90772  0.64433  0.65543  1.0000
  O  Te19      1.0  0.75958  0.66714  0.56951  1.0000
  O  Te20      1.0  0.84574  0.79323  0.48324  1.0000
  H   H32       1.0  0.98288  0.75425  0.58023  1.0000
  Mg  Mg10      1.0  0.75964  0.73950  0.49879  1.0000
  C   C53       1.0  0.14000  0.52391  0.33957  1.0000
  C   C54       1.0  0.14332  0.49765  0.46864  1.0000
  C  Sn21      1.0  0.09039  0.46351  0.60481  1.0000
  C  Sn22      1.0  0.03313  0.45558  0.61154  1.0000
  C   C55       1.0  0.03028  0.48200  0.48177  1.0000
  C   C56       1.0  0.08354  0.51609  0.34610  1.0000
  H   H33       1.0  0.18119  0.55026  0.23458  1.0000
  O  Te21      1.0  0.09453  0.43761  0.73270  1.0000
  O  Te22      1.0  0.97951  0.42166  0.74617  1.0000
  H   H34       1.0  0.08094  0.53638  0.24617  1.0000
  Mg  Mg11      1.0  0.00865  0.39534  0.88997  1.0000
  C   C57       1.0  0.90325  0.51269  0.77384  1.0000
  C   C58       1.0  0.90566  0.48690  0.90509  1.0000
  C  Sn23      1.0  0.02825  0.60933  0.04656  1.0000
  C  Sn24      1.0  0.98009  0.61909  0.05645  1.0000
  C   C59       1.0  0.81058  0.50617  0.92448  1.0000
  C   C60       1.0  0.85575  0.52231  0.78350  1.0000
  H   H35       1.0  0.93817  0.52516  0.66476  1.0000
  O  Te23      1.0  0.03136  0.58363  0.17655  1.0000
  O  Te24      1.0  0.93461  0.60322  0.19639  1.0000
  H   H36       1.0  0.85384  0.54225  0.68190  1.0000
  Mg  Mg12      1.0  0.95871  0.56960  0.34126  1.0000
  C   C61       1.0  0.03950  0.40008  0.18283  1.0000
  C   C62       1.0  0.10204  0.44548  0.09058  1.0000
  C  Sn25      1.0  0.94986  0.35967  0.99113  1.0000
  C  Sn26      1.0  0.90156  0.36713  0.98419  1.0000
  C   C63       1.0  0.00661  0.46018  0.07703  1.0000
  C   C64       1.0  0.99183  0.40742  0.17610  1.0000
  H   H37       1.0  0.02805  0.35927  0.25954  1.0000
  O  Te25      1.0  0.01258  0.40457  0.89973  1.0000
  O  Te26      1.0  0.91554  0.41956  0.88586  1.0000
  H   H38       1.0  0.94340  0.37229  0.24757  1.0000
  Mg  Mg13      1.0  0.00804  0.46787  0.78397  1.0000
  C   C65       1.0  0.85188  0.50926  0.41343  1.0000
  C   C66       1.0  0.85741  0.56400  0.38612  1.0000
  C  Sn27      1.0  0.91537  0.61729  0.34462  1.0000
  C  Sn28      1.0  0.96871  0.61561  0.33025  1.0000
  C   C67       1.0  0.96269  0.56063  0.35771  1.0000
  C   C68       1.0  0.90446  0.50757  0.39922  1.0000
  H   H39       1.0  0.80683  0.46821  0.44547  1.0000
  O  Te27      1.0  0.92007  0.67159  0.31781  1.0000
  O  Te28      1.0  0.02721  0.66820  0.28888  1.0000
  H   H40       1.0  0.90020  0.46520  0.42026  1.0000
  Mg  Mg14      1.0  0.00988  0.73119  0.26428  1.0000
  C   C69       1.0  0.69875  0.35137  0.57397  1.0000
  C   C70       1.0  0.68955  0.37939  0.45979  1.0000
  C  Sn29      1.0  0.67069  0.35153  0.35891  1.0000
  C  Sn30      1.0  0.66088  0.29456  0.37289  1.0000
  C   C71       1.0  0.67017  0.26689  0.48757  1.0000
  C   C72       1.0  0.68907  0.29517  0.58788  1.0000
  H   H41       1.0  0.71334  0.37324  0.65164  1.0000
  O  Te29      1.0  0.66172  0.38016  0.24545  1.0000
  O  Te30      1.0  0.64200  0.26570  0.27362  1.0000
  H   H42       1.0  0.69615  0.27345  0.67633  1.0000
  Mg  Mg15      1.0  0.63592  0.32280  0.13753  1.0000
  C   C73       1.0  0.70828  0.12048  0.94920  1.0000
  C   C74       1.0  0.65668  0.12372  0.96277  1.0000
  C  Sn31      1.0  0.60003  0.07330  0.98197  1.0000
  C  Sn32      1.0  0.59507  0.01869  0.98768  1.0000
  C   C75       1.0  0.64695  0.01590  0.97410  1.0000
  C   C76       1.0  0.70343  0.06662  0.95489  1.0000
  H   H43       1.0  0.75197  0.15971  0.93441  1.0000
  O  Te31      1.0  0.54894  0.07733  0.99528  1.0000
  O  Te32      1.0  0.70648  0.10633  0.00683  1.0000
  H   H44       1.0  0.74336  0.06408  0.94448  1.0000
  Mg  Mg16      1.0  0.65001  0.13421  0.01963  1.0000
  C   C77       1.0  0.71167  0.36272  0.94731  1.0000
  C   C78       1.0  0.66138  0.36397  0.93518  1.0000
  C  Sn33      1.0  0.60639  0.31113  0.95660  1.0000
  C  Sn34      1.0  0.60179  0.25608  0.99084  1.0000
  C   C79       1.0  0.81983  0.39401  0.00283  1.0000
  C   C80       1.0  0.70717  0.30844  0.98113  1.0000
  H   H45       1.0  0.75408  0.40384  0.93060  1.0000
  O  Te33      1.0  0.55659  0.31318  0.94401  1.0000
  O  Te34      1.0  0.71484  0.34131  0.01285  1.0000
  H   H46       1.0  0.74609  0.30746  0.99063  1.0000
  Mg  Mg17      1.0  0.49222  0.22840  0.98380  1.0000
  C   C81       1.0  0.49474  0.36397  0.60615  1.0000
  C   C82       1.0  0.53816  0.36184  0.65605  1.0000
  C  Sn35      1.0  0.53263  0.30762  0.70428  1.0000
  C  Sn36      1.0  0.48268  0.25462  0.70234  1.0000
  C   C83       1.0  0.43951  0.25723  0.65211  1.0000
  C   C84       1.0  0.44547  0.31173  0.60414  1.0000
  H   H47       1.0  0.49937  0.40614  0.56896  1.0000
  O  Te35      1.0  0.57641  0.30628  0.75384  1.0000
  O  Te36      1.0  0.47606  0.19984  0.74987  1.0000
  H   H48       1.0  0.41187  0.31337  0.56542  1.0000
  Mg  Mg18      1.0  0.54753  0.22087  0.80757  1.0000
  C   C85       1.0  0.69173  0.07729  0.52761  1.0000
  C   C86       1.0  0.66232  0.03603  0.46155  1.0000
  C  Sn37      1.0  0.63176  0.04590  0.37614  1.0000
  C  Sn38      1.0  0.63071  0.09808  0.35667  1.0000
  C   C87       1.0  0.66031  0.13910  0.42313  1.0000
  C   C88       1.0  0.69074  0.12878  0.50841  1.0000
  H   H49       1.0  0.71531  0.06932  0.59353  1.0000
  O  Te37      1.0  0.60259  0.00421  0.31096  1.0000
  O  Te38      1.0  0.60052  0.10906  0.27181  1.0000
  H   H50       1.0  0.71355  0.16075  0.55947  1.0000
  Mg  Mg19      1.0  0.56751  0.03902  0.20539  1.0000
  C   C89       1.0  0.45107  0.31904  0.02639  1.0000
  C   C90       1.0  0.41817  0.25842  0.11327  1.0000
  C  Sn39      1.0  0.43184  0.24083  0.23251  1.0000
  C  Sn40      1.0  0.47934  0.28485  0.26514  1.0000
  C   C91       1.0  0.51195  0.34538  0.17762  1.0000
  C   C92       1.0  0.49790  0.36248  0.05853  1.0000
  H   H51       1.0  0.27270  0.19357  0.93430  1.0000
  O  Te39      1.0  0.39855  0.18007  0.31814  1.0000
  O  Te40      1.0  0.49394  0.26851  0.38369  1.0000
  H   H52       1.0  0.35587  0.27071  0.99135  1.0000
  Mg  Mg20      1.0  0.43553  0.18008  0.46798  1.0000
  C   C93       1.0  0.50624  0.49860  0.49402  1.0000
  C   C94       1.0  0.54093  0.52434  0.57608  1.0000
  C  Sn41      1.0  0.51393  0.53353  0.70394  1.0000
  C  Sn42      1.0  0.45101  0.51656  0.75025  1.0000
  C   C95       1.0  0.41669  0.49080  0.66745  1.0000
  C   C96       1.0  0.44417  0.48183  0.53965  1.0000
  H   H53       1.0  0.52749  0.49162  0.39519  1.0000
  O  Te41      1.0  0.54926  0.55933  0.78460  1.0000
  O  Te42      1.0  0.42286  0.52522  0.87764  1.0000
  H   H54       1.0  0.41729  0.46186  0.47619  1.0000
  Mg  Mg21      1.0  0.49018  0.56204  0.95040  1.0000
  C   C97       1.0  0.26220  0.03884  0.07713  1.0000
  C   C98       1.0  0.21160  0.02599  0.03855  1.0000
  C  Sn43      1.0  0.03642  0.93289  0.98603  1.0000
  C  Sn44      1.0  0.08028  0.99244  0.97195  1.0000
  C   C99       1.0  0.29824  0.14355  0.01074  1.0000
  C   C100      1.0  0.30549  0.09756  0.06322  1.0000
  H   H55       1.0  0.26783  0.00326  0.11765  1.0000
  O  Te43      1.0  0.98559  0.91927  0.94803  1.0000
  O  Te44      1.0  0.07371  0.03889  0.91971  1.0000
  H   H56       1.0  0.34469  0.10753  0.09299  1.0000
  Mg  Mg22      1.0  0.99674  0.99791  0.88216  1.0000
  C   C101      1.0  0.64776  0.68785  0.67557  1.0000
  C   C102      1.0  0.66597  0.65800  0.75899  1.0000
  C  Sn45      1.0  0.69140  0.68070  0.85885  1.0000
  C  Sn46      1.0  0.69867  0.73428  0.87529  1.0000
  C   C103      1.0  0.68026  0.76378  0.79140  1.0000
  C   C104      1.0  0.65488  0.74068  0.69176  1.0000
  H   H57       1.0  0.62809  0.66996  0.59854  1.0000
  O  Te45      1.0  0.70937  0.65033  0.94129  1.0000
  O  Te46      1.0  0.72393  0.75794  0.97434  1.0000
  H   H58       1.0  0.64075  0.76378  0.62726  1.0000
  Mg  Mg23      1.0  0.90894  0.83901  0.06185  1.0000
  C   C105      1.0  0.62468  0.95757  0.88270  1.0000
  C   C106      1.0  0.64849  0.96985  0.99231  1.0000
  C  Sn47      1.0  0.79901  0.06171  0.11631  1.0000
  C  Sn48      1.0  0.75745  0.00148  0.13052  1.0000
  C   C107      1.0  0.23068  0.98966  0.02020  1.0000
  C   C108      1.0  0.58370  0.89818  0.89659  1.0000
  H   H59       1.0  0.63805  0.99410  0.78702  1.0000
  O  Te47      1.0  0.82321  0.07478  0.22481  1.0000
  O  Te48      1.0  0.23651  0.95380  0.25328  1.0000
  H   H60       1.0  0.56529  0.88865  0.81170  1.0000
  Mg  Mg24      1.0  0.78519  0.99443  0.37168  1.0000
