data_image0
_chemical_formula_structural       P6H72C90N18O12SnCSn2CSnTe4Mg2SnCSn2CSnTe4Mg2SnCSn2CSnTe4Mg2SnCSn2CSnTe4Mg2SnCSn2CSnTe4Mg2SnCSn2CSnTe4Mg2SnCSn2CSnTe4Mg2SnCSn2CSnTe4Mg2SnCSn2CSnTe4Mg2SnCSn2CSnTe4Mg2SnCSn2CSnTe4Mg2SnCSn2CSnTe4Mg2
_chemical_formula_sum              "P6 H72 C114 N18 O12 Sn48 Te48 Mg24"
_cell_length_a       24.5798
_cell_length_b       22.3852
_cell_length_c       11.214
_cell_angle_alpha    89.5099
_cell_angle_beta     94.854
_cell_angle_gamma    113.83

_symmetry_space_group_name_H-M    'P1'
_space_group_IT_number       1

loop_
  _space_group_symop_operation_xyz
  'x, y, z'

loop_
  _atom_site_type_symbol
  _atom_site_label
  _atom_site_symmetry_multiplicity
  _atom_site_fract_x
  _atom_site_fract_y
  _atom_site_fract_z
  _atom_site_occupancy
  P   P1        1.0  0.54979  0.27017  0.33250  1.0000
  P   P2        1.0  0.54145  0.37172  0.44888  1.0000
  P   P3        1.0  0.44471  0.28263  0.32189  1.0000
  P   P4        1.0  0.54941  0.26554  0.83551  1.0000
  P   P5        1.0  0.52608  0.36355  0.93378  1.0000
  P   P6        1.0  0.43647  0.25770  0.82620  1.0000
  H   H1        1.0  0.26564  0.92267  0.04410  1.0000
  H   H2        1.0  0.37316  0.46038  0.05131  1.0000
  H   H3        1.0  0.41488  0.38451  0.97715  1.0000
  H   H4        1.0  0.44281  0.94634  0.10147  1.0000
  H   H5        1.0  0.66450  0.52803  0.28626  1.0000
  H   H6        1.0  0.28928  0.84164  0.47585  1.0000
  H   H7        1.0  0.51322  0.99699  0.42810  1.0000
  H   H8        1.0  0.76894  0.59928  0.35782  1.0000
  H   H9        1.0  0.57350  0.47872  0.21221  1.0000
  H   H10       1.0  0.85779  0.47002  0.29573  1.0000
  H   H11       1.0  0.37561  0.54187  0.18877  1.0000
  H   H12       1.0  0.12988  0.63992  0.06963  1.0000
  H   H13       1.0  0.12885  0.65835  0.22159  1.0000
  H   H14       1.0  0.66594  0.37492  0.40496  1.0000
  H   H15       1.0  0.44530  0.81434  0.39189  1.0000
  H   H16       1.0  0.47547  0.91330  0.27114  1.0000
  H   H17       1.0  0.24443  0.07537  0.10498  1.0000
  H   H18       1.0  0.56193  0.09703  0.30861  1.0000
  H   H19       1.0  0.32040  0.94223  0.35582  1.0000
  H   H20       1.0  0.21781  0.40969  0.12028  1.0000
  H   H21       1.0  0.65041  0.28747  0.05718  1.0000
  H   H22       1.0  0.33670  0.75722  0.05978  1.0000
  H   H23       1.0  0.27537  0.72396  0.95097  1.0000
  H   H24       1.0  0.77468  0.43559  0.39419  1.0000
  H   H25       1.0  0.76086  0.34894  0.04537  1.0000
  H   H26       1.0  0.53167  0.55488  0.28993  1.0000
  H   H27       1.0  0.09599  0.74491  0.93194  1.0000
  H   H28       1.0  0.07129  0.80378  0.97442  1.0000
  H   H29       1.0  0.82946  0.63185  0.99241  1.0000
  H   H30       1.0  0.20798  0.96234  0.45658  1.0000
  H   H31       1.0  0.36154  0.40054  0.65780  1.0000
  H   H32       1.0  0.41926  0.33934  0.58923  1.0000
  H   H33       1.0  0.46088  0.94366  0.59055  1.0000
  H   H34       1.0  0.31072  0.18731  0.04529  1.0000
  H   H35       1.0  0.26705  0.82089  0.86919  1.0000
  H   H36       1.0  0.89326  0.59740  0.89248  1.0000
  H   H37       1.0  0.74263  0.50895  0.70111  1.0000
  H   H38       1.0  0.91732  0.55284  0.68635  1.0000
  H   H39       1.0  0.05874  0.46537  0.55375  1.0000
  H   H40       1.0  0.47407  0.11206  0.68524  1.0000
  H   H41       1.0  0.57978  0.51381  0.62626  1.0000
  H   H42       1.0  0.86083  0.45847  0.77700  1.0000
  H   H43       1.0  0.35670  0.49607  0.73966  1.0000
  H   H44       1.0  0.13303  0.61592  0.56999  1.0000
  H   H45       1.0  0.12616  0.62680  0.72262  1.0000
  H   H46       1.0  0.66706  0.37634  0.89423  1.0000
  H   H47       1.0  0.43733  0.80738  0.89454  1.0000
  H   H48       1.0  0.27702  0.64851  0.78732  1.0000
  H   H49       1.0  0.48015  0.91062  0.78666  1.0000
  H   H50       1.0  0.35137  0.99730  0.92991  1.0000
  H   H51       1.0  0.94955  0.39742  0.52815  1.0000
  H   H52       1.0  0.99499  0.66777  0.98051  1.0000
  H   H53       1.0  0.47059  0.65910  0.97800  1.0000
  H   H54       1.0  0.01736  0.79563  0.68318  1.0000
  H   H55       1.0  0.32267  0.57904  0.70879  1.0000
  H   H56       1.0  0.42391  0.72854  0.05889  1.0000
  H   H57       1.0  0.31024  0.92424  0.75961  1.0000
  H   H58       1.0  0.19978  0.36321  0.59613  1.0000
  H   H59       1.0  0.63911  0.43589  0.62865  1.0000
  H   H60       1.0  0.64723  0.27587  0.55703  1.0000
  H   H61       1.0  0.91560  0.72581  0.59548  1.0000
  H   H62       1.0  0.36283  0.76918  0.60710  1.0000
  H   H63       1.0  0.29708  0.73521  0.51091  1.0000
  H   H64       1.0  0.77581  0.43411  0.87693  1.0000
  H   H65       1.0  0.75678  0.33584  0.53791  1.0000
  H   H66       1.0  0.52337  0.57495  0.70539  1.0000
  H   H67       1.0  0.41578  0.10777  0.86729  1.0000
  H   H68       1.0  0.07929  0.71090  0.41982  1.0000
  H   H69       1.0  0.05222  0.76472  0.47883  1.0000
  H   H70       1.0  0.85153  0.63399  0.51350  1.0000
  H   H71       1.0  0.02537  0.62172  0.70696  1.0000
  H   H72       1.0  0.52560  0.21223  0.56957  1.0000
  C   C1        1.0  0.64536  0.47889  0.45346  1.0000
  C   C2        1.0  0.49559  0.42654  0.09498  1.0000
  C   C3        1.0  0.66703  0.47213  0.57011  1.0000
  C   C4        1.0  0.24282  0.41506  0.20855  1.0000
  C   C5        1.0  0.74028  0.56483  0.41842  1.0000
  C   C6        1.0  0.68182  0.52468  0.37731  1.0000
  C   C7        1.0  0.52993  0.47587  0.17862  1.0000
  C   C8        1.0  0.83754  0.44005  0.21374  1.0000
  C   C9        1.0  0.50656  0.51779  0.22107  1.0000
  C   C10       1.0  0.44252  0.99147  0.13925  1.0000
  C   C11       1.0  0.44901  0.51168  0.17785  1.0000
  C   C12       1.0  0.25888  0.96554  0.07465  1.0000
  C   C13       1.0  0.41716  0.46459  0.08713  1.0000
  C   C14       1.0  0.43986  0.42147  0.04569  1.0000
  C   C15       1.0  0.65235  0.32968  0.22959  1.0000
  C   C16       1.0  0.54318  0.09927  0.39194  1.0000
  C   C17       1.0  0.67860  0.32025  0.12942  1.0000
  C   C18       1.0  0.73969  0.35450  0.12341  1.0000
  C   C19       1.0  0.77479  0.39783  0.21747  1.0000
  C   C20       1.0  0.74766  0.40343  0.31968  1.0000
  C   C21       1.0  0.11633  0.61765  0.15616  1.0000
  C   C22       1.0  0.68656  0.36977  0.32641  1.0000
  C   C23       1.0  0.33003  0.85692  0.43033  1.0000
  C   C24       1.0  0.36451  0.81976  0.44129  1.0000
  C   C25       1.0  0.41732  0.84164  0.38349  1.0000
  C   C26       1.0  0.43392  0.89681  0.31390  1.0000
  C   C27       1.0  0.39858  0.93322  0.30071  1.0000
  C   C28       1.0  0.34702  0.91335  0.36289  1.0000
  C   C29       1.0  0.34612  0.75744  0.51213  1.0000
  C   C30       1.0  0.28223  0.08324  0.05379  1.0000
  C   C31       1.0  0.42063  0.55042  0.22914  1.0000
  C   C32       1.0  0.05923  0.74554  0.39380  1.0000
  C   C33       1.0  0.80335  0.59678  0.05673  1.0000
  C   C34       1.0  0.50220  0.42310  0.60980  1.0000
  C   C35       1.0  0.22653  0.36952  0.68262  1.0000
  C   C36       1.0  0.72521  0.51328  0.61069  1.0000
  C   C37       1.0  0.76239  0.56067  0.53677  1.0000
  C   C38       1.0  0.53226  0.48984  0.63627  1.0000
  C   C39       1.0  0.83708  0.42794  0.69702  1.0000
  C   C40       1.0  0.50070  0.52371  0.67782  1.0000
  C   C41       1.0  0.45618  0.98745  0.62282  1.0000
  C   C42       1.0  0.43891  0.49158  0.68863  1.0000
  C   C43       1.0  0.24712  0.98833  0.52020  1.0000
  C   C44       1.0  0.40928  0.42560  0.65163  1.0000
  C   C45       1.0  0.44087  0.39097  0.61324  1.0000
  C   C46       1.0  0.54424  0.15855  0.43200  1.0000
  C   C47       1.0  0.65118  0.32312  0.72569  1.0000
  C   C48       1.0  0.52146  0.16464  0.53874  1.0000
  C   C49       1.0  0.49334  0.10879  0.60311  1.0000
  C   C50       1.0  0.48881  0.04764  0.56240  1.0000
  C   C51       1.0  0.02778  0.48507  0.58148  1.0000
  C   C52       1.0  0.51589  0.04413  0.45855  1.0000
  C   C53       1.0  0.05049  0.54821  0.63380  1.0000
  C   C54       1.0  0.00958  0.57230  0.66901  1.0000
  C   C55       1.0  0.67606  0.31065  0.62594  1.0000
  C   C56       1.0  0.94835  0.53355  0.65794  1.0000
  C   C57       1.0  0.73686  0.34415  0.61566  1.0000
  C   C58       1.0  0.92607  0.46930  0.61035  1.0000
  C   C59       1.0  0.77353  0.38969  0.70519  1.0000
  C   C60       1.0  0.96659  0.44652  0.56752  1.0000
  C   C61       1.0  0.74770  0.39962  0.80628  1.0000
  C   C62       1.0  0.11755  0.58937  0.65218  1.0000
  C   C63       1.0  0.68657  0.36716  0.81692  1.0000
  C   C64       1.0  0.40012  0.61414  0.83839  1.0000
  C   C65       1.0  0.42788  0.65679  0.93785  1.0000
  C   C66       1.0  0.40146  0.69556  0.98240  1.0000
  C   C67       1.0  0.34748  0.69461  0.92778  1.0000
  C   C68       1.0  0.31913  0.65071  0.83085  1.0000
  C   C69       1.0  0.34454  0.61068  0.78699  1.0000
  C   C70       1.0  0.31409  0.84050  0.85275  1.0000
  C   C71       1.0  0.34938  0.80686  0.89260  1.0000
  C   C72       1.0  0.40927  0.83299  0.86664  1.0000
  C   C73       1.0  0.43333  0.89061  0.80438  1.0000
  C   C74       1.0  0.39797  0.92447  0.76551  1.0000
  C   C75       1.0  0.33790  0.89874  0.79128  1.0000
  C   C76       1.0  0.32439  0.74453  0.96362  1.0000
  C   C77       1.0  0.89754  0.65537  0.73676  1.0000
  C   C78       1.0  0.36747  0.15430  0.95557  1.0000
  C   C79       1.0  0.92075  0.64104  0.84719  1.0000
  C   C80       1.0  0.97813  0.68041  0.89546  1.0000
  C   C81       1.0  0.01417  0.73628  0.83687  1.0000
  C   C82       1.0  0.99041  0.75183  0.72871  1.0000
  C   C83       1.0  0.93306  0.71225  0.67893  1.0000
  C   C84       1.0  0.31851  0.14510  0.01983  1.0000
  C   C85       1.0  0.29447  0.02900  0.02567  1.0000
  C   C86       1.0  0.34152  0.03858  0.95436  1.0000
  C   C87       1.0  0.37819  0.10104  0.91834  1.0000
  C   C88       1.0  0.40533  0.52417  0.74149  1.0000
  C   C89       1.0  0.07598  0.77800  0.89519  1.0000
  C   C90       1.0  0.82249  0.60563  0.58139  1.0000
  N   N1        1.0  0.44575  0.59009  0.31980  1.0000
  N   N2        1.0  0.82454  0.59207  0.16439  1.0000
  N   N3        1.0  0.24274  0.45608  0.28905  1.0000
  N   N4        1.0  0.86769  0.44521  0.12230  1.0000
  N   N5        1.0  0.41676  0.99067  0.23548  1.0000
  N   N6        1.0  0.22104  0.96309  0.15004  1.0000
  N   N7        1.0  0.48171  0.24384  0.27716  1.0000
  N   N8        1.0  0.56381  0.31982  0.93908  1.0000
  N   N9        1.0  0.48073  0.35634  0.36852  1.0000
  N   N10       1.0  0.43210  0.58160  0.79146  1.0000
  N   N11       1.0  0.83996  0.61114  0.69446  1.0000
  N   N12       1.0  0.23184  0.41416  0.76077  1.0000
  N   N13       1.0  0.86508  0.42719  0.60480  1.0000
  N   N14       1.0  0.42215  0.98396  0.70685  1.0000
  N   N15       1.0  0.25012  0.97221  0.63044  1.0000
  N   N16       1.0  0.48136  0.22918  0.78004  1.0000
  N   N17       1.0  0.56932  0.31865  0.44787  1.0000
  N   N18       1.0  0.46271  0.33393  0.85804  1.0000
  O   O1        1.0  0.39537  0.28150  0.21573  1.0000
  O   O2        1.0  0.40470  0.24408  0.42817  1.0000
  O   O3        1.0  0.58701  0.44204  0.40480  1.0000
  O   O4        1.0  0.51897  0.37996  0.06968  1.0000
  O   O5        1.0  0.57551  0.21343  0.88388  1.0000
  O   O6        1.0  0.58968  0.30041  0.22233  1.0000
  O   O7        1.0  0.38088  0.23905  0.72488  1.0000
  O   O8        1.0  0.40576  0.22012  0.94295  1.0000
  O   O9        1.0  0.56478  0.43521  0.88301  1.0000
  O   O10       1.0  0.53497  0.38555  0.58658  1.0000
  O   O11       1.0  0.57145  0.21224  0.36031  1.0000
  O   O12       1.0  0.58874  0.29166  0.72351  1.0000
  C  Sn1       1.0  0.13267  0.91001  0.29656  1.0000
  C   C91       1.0  0.18391  0.91342  0.24621  1.0000
  C  Sn2       1.0  0.19318  0.85677  0.22730  1.0000
  C  Sn3       1.0  0.15032  0.79541  0.25932  1.0000
  C   C92       1.0  0.09911  0.79202  0.30962  1.0000
  C  Sn4       1.0  0.08981  0.84865  0.32858  1.0000
  O  Te1       1.0  0.12432  0.96727  0.31465  1.0000
  O  Te2       1.0  0.24477  0.86141  0.17686  1.0000
  O  Te3       1.0  0.15871  0.73813  0.24119  1.0000
  O  Te4       1.0  0.03825  0.84402  0.37897  1.0000
  Mg  Mg1       1.0  0.23604  0.76961  0.16973  1.0000
  Mg  Mg2       1.0  0.04692  0.93579  0.38608  1.0000
  C  Sn5       1.0  0.52120  0.16113  0.09112  1.0000
  C   C93       1.0  0.59469  0.17906  0.98836  1.0000
  C  Sn6       1.0  0.58152  0.12245  0.91944  1.0000
  C  Sn7       1.0  0.53819  0.06198  0.95390  1.0000
  C   C94       1.0  0.46472  0.04406  0.05658  1.0000
  C  Sn8       1.0  0.47787  0.10066  0.12558  1.0000
  O  Te5       1.0  0.53508  0.21834  0.15867  1.0000
  O  Te6       1.0  0.61136  0.12625  0.81711  1.0000
  O  Te7       1.0  0.89229  0.00474  0.88625  1.0000
  O  Te8       1.0  0.44806  0.09687  0.22784  1.0000
  Mg  Mg3       1.0  0.57695  0.03489  0.75434  1.0000
  Mg  Mg4       1.0  0.48240  0.18821  0.29064  1.0000
  C  Sn9       1.0  0.30236  0.13406  0.36250  1.0000
  C   C95       1.0  0.35279  0.17613  0.43306  1.0000
  C  Sn10      1.0  0.37953  0.15165  0.52450  1.0000
  C  Sn11      1.0  0.35539  0.08369  0.54582  1.0000
  C   C96       1.0  0.30500  0.04166  0.47527  1.0000
  C  Sn12      1.0  0.27822  0.06611  0.38381  1.0000
  O  Te9       1.0  0.27636  0.15961  0.27157  1.0000
  O  Te10      1.0  0.42991  0.19467  0.59389  1.0000
  O  Te11      1.0  0.38144  0.05817  0.63684  1.0000
  O  Te12      1.0  0.22788  0.02313  0.31444  1.0000
  Mg  Mg5       1.0  0.44943  0.13640  0.70718  1.0000
  Mg  Mg6       1.0  0.20834  0.08133  0.20109  1.0000
  C  Sn13      1.0  0.30753  0.28702  0.83991  1.0000
  C   C97       1.0  0.32023  0.25163  0.75239  1.0000
  C  Sn14      1.0  0.30524  0.25774  0.63130  1.0000
  C  Sn15      1.0  0.27700  0.30014  0.59695  1.0000
  C   C98       1.0  0.26433  0.33550  0.68444  1.0000
  C  Sn16      1.0  0.27930  0.32942  0.80556  1.0000
  O  Te13      1.0  0.32292  0.28016  0.96044  1.0000
  O  Te14      1.0  0.31836  0.22184  0.54544  1.0000
  O  Te15      1.0  0.26161  0.30697  0.47631  1.0000
  O  Te16      1.0  0.26620  0.36529  0.89139  1.0000
  Mg  Mg7       1.0  0.28870  0.24781  0.39263  1.0000
  Mg  Mg8       1.0  0.25161  0.32404  0.04422  1.0000
  C  Sn17      1.0  0.34364  0.39707  0.30839  1.0000
  C   C99       1.0  0.29609  0.38984  0.22386  1.0000
  C  Sn18      1.0  0.27359  0.33696  0.14212  1.0000
  C  Sn19      1.0  0.29912  0.29030  0.14496  1.0000
  C   C100      1.0  0.34663  0.29753  0.22946  1.0000
  C  Sn20      1.0  0.36917  0.35041  0.31123  1.0000
  O  Te17      1.0  0.36541  0.45032  0.38925  1.0000
  O  Te18      1.0  0.22603  0.33079  0.05842  1.0000
  O  Te19      1.0  0.27730  0.23703  0.06400  1.0000
  O  Te20      1.0  0.41669  0.35659  0.39490  1.0000
  Mg  Mg9       1.0  0.25619  0.26518  0.96698  1.0000
  Mg  Mg10      1.0  0.43079  0.43750  0.48642  1.0000
  C  Sn21      1.0  0.34602  0.66733  0.32936  1.0000
  C   C101      1.0  0.35353  0.69039  0.44763  1.0000
  C  Sn22      1.0  0.39876  0.68661  0.52747  1.0000
  C  Sn23      1.0  0.43733  0.65925  0.48825  1.0000
  C   C102      1.0  0.42983  0.63622  0.37003  1.0000
  C  Sn24      1.0  0.38459  0.63997  0.29014  1.0000
  O  Te21      1.0  0.30050  0.67161  0.25109  1.0000
  O  Te22      1.0  0.40538  0.70996  0.64529  1.0000
  O  Te23      1.0  0.48288  0.65499  0.56664  1.0000
  O  Te24      1.0  0.37797  0.61665  0.17238  1.0000
  Mg  Mg11      1.0  0.47403  0.69342  0.71826  1.0000
  Mg  Mg12      1.0  0.30936  0.63319  0.09931  1.0000
  C  Sn25      1.0  0.15329  0.84701  0.63199  1.0000
  C   C103      1.0  0.18600  0.91342  0.65970  1.0000
  C  Sn26      1.0  0.18964  0.93796  0.77559  1.0000
  C  Sn27      1.0  0.16000  0.89522  0.86568  1.0000
  C   C104      1.0  0.12732  0.82885  0.83796  1.0000
  C  Sn28      1.0  0.12365  0.80427  0.72208  1.0000
  O  Te25      1.0  0.15026  0.82355  0.51554  1.0000
  O  Te26      1.0  0.22259  0.00455  0.80113  1.0000
  O  Te27      1.0  0.16305  0.91875  0.98219  1.0000
  O  Te28      1.0  0.09073  0.73773  0.69653  1.0000
  Mg  Mg13      1.0  0.21344  0.01321  0.97305  1.0000
  Mg  Mg14      1.0  0.09987  0.72900  0.52467  1.0000
  C  Sn29      1.0  0.12117  0.49240  0.17563  1.0000
  C   C105      1.0  0.13730  0.55740  0.21145  1.0000
  C  Sn30      1.0  0.19430  0.59417  0.26644  1.0000
  C  Sn31      1.0  0.23607  0.56538  0.28596  1.0000
  C   C106      1.0  0.21994  0.50042  0.25013  1.0000
  C  Sn32      1.0  0.16294  0.46361  0.19515  1.0000
  O  Te29      1.0  0.06394  0.45656  0.12082  1.0000
  O  Te30      1.0  0.20938  0.65907  0.30151  1.0000
  O  Te31      1.0  0.29333  0.60128  0.34083  1.0000
  O  Te32      1.0  0.14785  0.39876  0.16007  1.0000
  Mg  Mg15      1.0  0.29280  0.68788  0.37262  1.0000
  Mg  Mg16      1.0  0.06446  0.36991  0.08891  1.0000
  C  Sn33      1.0  0.01533  0.52530  0.25446  1.0000
  C   C107      1.0  0.04824  0.55866  0.16098  1.0000
  C  Sn34      1.0  0.01928  0.56169  0.04986  1.0000
  C  Sn35      1.0  0.95611  0.53076  0.03182  1.0000
  C   C108      1.0  0.92324  0.49743  0.12527  1.0000
  C  Sn36      1.0  0.95216  0.49437  0.23642  1.0000
  O  Te33      1.0  0.04521  0.52290  0.36481  1.0000
  O  Te34      1.0  0.09739  0.61066  0.95774  1.0000
  O  Te35      1.0  0.97050  0.54852  0.92136  1.0000
  O  Te36      1.0  0.91834  0.46078  0.32851  1.0000
  Mg  Mg17      1.0  0.03620  0.60024  0.82358  1.0000
  Mg  Mg18      1.0  0.97948  0.47119  0.46272  1.0000
  C  Sn37      1.0  0.67523  0.52488  0.84722  1.0000
  C   C109      1.0  0.63434  0.47261  0.90543  1.0000
  C  Sn38      1.0  0.60136  0.44783  0.02676  1.0000
  C  Sn39      1.0  0.65461  0.49158  0.09129  1.0000
  C   C110      1.0  0.69546  0.54381  0.03309  1.0000
  C  Sn40      1.0  0.72847  0.56862  0.91175  1.0000
  O  Te37      1.0  0.66303  0.53337  0.72587  1.0000
  O  Te38      1.0  0.55982  0.39521  0.08301  1.0000
  O  Te39      1.0  0.66678  0.48304  0.21273  1.0000
  O  Te40      1.0  0.76998  0.62121  0.85552  1.0000
  Mg  Mg19      1.0  0.59650  0.40415  0.24964  1.0000
  Mg  Mg20      1.0  0.73334  0.61234  0.68891  1.0000
  C  Sn41      1.0  0.16236  0.47689  0.81994  1.0000
  C   C111      1.0  0.19027  0.45256  0.74150  1.0000
  C  Sn42      1.0  0.20502  0.48133  0.63115  1.0000
  C  Sn43      1.0  0.19163  0.53558  0.59853  1.0000
  C   C112      1.0  0.16375  0.55988  0.67695  1.0000
  C  Sn44      1.0  0.14897  0.53113  0.78732  1.0000
  O  Te41      1.0  0.14803  0.44736  0.92981  1.0000
  O  Te42      1.0  0.23289  0.45614  0.55421  1.0000
  O  Te43      1.0  0.20599  0.56510  0.48856  1.0000
  O  Te44      1.0  0.12113  0.55631  0.86424  1.0000
  Mg  Mg21      1.0  0.24363  0.51313  0.41438  1.0000
  Mg  Mg22      1.0  0.06614  0.48403  0.00411  1.0000
  C  Sn45      1.0  0.90755  0.62742  0.35628  1.0000
  C   C113      1.0  0.88153  0.64008  0.24877  1.0000
  C  Sn46      1.0  0.91659  0.68538  0.17034  1.0000
  C  Sn47      1.0  0.97897  0.71869  0.19994  1.0000
  C   C114      1.0  0.00497  0.70602  0.30738  1.0000
  C  Sn48      1.0  0.96993  0.66074  0.38588  1.0000
  O  Te45      1.0  0.87164  0.58194  0.43334  1.0000
  O  Te46      1.0  0.88956  0.69723  0.06339  1.0000
  O  Te47      1.0  0.01488  0.76420  0.12277  1.0000
  O  Te48      1.0  0.99694  0.64887  0.49275  1.0000
  Mg  Mg23      1.0  0.00158  0.77889  0.98766  1.0000
  Mg  Mg24      1.0  0.92922  0.58254  0.56852  1.0000
