data_image0
_chemical_formula_structural       P6H60C84N18O12C2Sn2C2HTe2HMgC2Sn2C2HTe2HMgC2Sn2C2HTe2HMgC2Sn2C2HTe2HMgC2Sn2C2HTe2HMgC2Sn2C2HTe2HMgC2Sn2C2HTe2HMgC2Sn2C2HTe2HMgC2Sn2C2HTe2HMgC2Sn2C2HTe2HMgC2Sn2C2HTe2HMgC2Sn2C2HTe2HMg
_chemical_formula_sum              "P6 H84 C132 N18 O12 Sn24 Te24 Mg12"
_cell_length_a       26.7376
_cell_length_b       27.2555
_cell_length_c       9.81848
_cell_angle_alpha    80.6299
_cell_angle_beta     74.4298
_cell_angle_gamma    119.165

_symmetry_space_group_name_H-M    'P1'
_space_group_IT_number       1

loop_
  _space_group_symop_operation_xyz
  'x, y, z'

loop_
  _atom_site_type_symbol
  _atom_site_label
  _atom_site_symmetry_multiplicity
  _atom_site_fract_x
  _atom_site_fract_y
  _atom_site_fract_z
  _atom_site_occupancy
  P   P1        1.0  0.62769  0.44092  0.02576  1.0000
  P   P2        1.0  0.73331  0.53456  0.01922  1.0000
  P   P3        1.0  0.65996  0.55971  0.44067  1.0000
  P   P4        1.0  0.66161  0.46063  0.51558  1.0000
  P   P5        1.0  0.75560  0.56745  0.50794  1.0000
  P   P6        1.0  0.65161  0.55190  0.94106  1.0000
  H   H1        1.0  0.00826  0.93722  0.58385  1.0000
  H   H2        1.0  0.50959  0.43932  0.20649  1.0000
  H   H3        1.0  0.39972  0.40233  0.24236  1.0000
  H   H4        1.0  0.72648  0.99315  0.04818  1.0000
  H   H5        1.0  0.35331  0.56454  0.33188  1.0000
  H   H6        1.0  0.04987  0.58547  0.34331  1.0000
  H   H7        1.0  0.85742  0.79200  0.49276  1.0000
  H   H8        1.0  0.96170  0.86676  0.47493  1.0000
  H   H9        1.0  0.71015  0.22215  0.01027  1.0000
  H   H10       1.0  0.64608  0.26374  0.30520  1.0000
  H   H11       1.0  0.13098  0.87746  0.47669  1.0000
  H   H12       1.0  0.73943  0.91106  0.01409  1.0000
  H   H13       1.0  0.18115  0.12225  0.47682  1.0000
  H   H14       1.0  0.26375  0.56691  0.31862  1.0000
  H   H15       1.0  0.57913  0.84232  0.38238  1.0000
  H   H16       1.0  0.26066  0.02410  0.58215  1.0000
  H   H17       1.0  0.71169  0.66615  0.95010  1.0000
  H   H18       1.0  0.34074  0.11008  0.61645  1.0000
  H   H19       1.0  0.21957  0.97497  0.45462  1.0000
  H   H20       1.0  0.54737  0.50124  0.41128  1.0000
  H   H21       1.0  0.65104  0.36016  0.25898  1.0000
  H   H22       1.0  0.09468  0.03230  0.57536  1.0000
  H   H23       1.0  0.44040  0.47375  0.44580  1.0000
  H   H24       1.0  0.26072  0.20819  0.51982  1.0000
  H   H25       1.0  0.37134  0.16767  0.72641  1.0000
  H   H26       1.0  0.60839  0.11448  0.29933  1.0000
  H   H27       1.0  0.60806  0.02409  0.28780  1.0000
  H   H28       1.0  0.71826  0.76088  0.94706  1.0000
  H   H29       1.0  0.57115  0.92629  0.41287  1.0000
  H   H30       1.0  0.61512  0.80110  0.26690  1.0000
  H   H31       1.0  0.32012  0.42231  0.22430  1.0000
  H   H32       1.0  0.64498  0.75074  0.60528  1.0000
  H   H33       1.0  0.06975  0.90993  0.81031  1.0000
  H   H34       1.0  0.70669  0.04905  0.58004  1.0000
  H   H35       1.0  0.70711  0.29526  0.66410  1.0000
  H   H36       1.0  0.52817  0.55028  0.80899  1.0000
  H   H37       1.0  0.70779  0.13916  0.58874  1.0000
  H   H38       1.0  0.71155  0.39011  0.61850  1.0000
  H   H39       1.0  0.41982  0.52006  0.84681  1.0000
  H   H40       1.0  0.75437  0.01835  0.41840  1.0000
  H   H41       1.0  0.98953  0.48689  0.84626  1.0000
  H   H42       1.0  0.23102  0.41243  0.74319  1.0000
  H   H43       1.0  0.96355  0.83028  0.96666  1.0000
  H   H44       1.0  0.77415  0.68649  0.53956  1.0000
  H   H45       1.0  0.14031  0.41124  0.72526  1.0000
  H   H46       1.0  0.68188  0.20323  0.61318  1.0000
  H   H47       1.0  0.63152  0.65226  0.62082  1.0000
  H   H48       1.0  0.88335  0.62731  0.66208  1.0000
  H   H49       1.0  0.06610  0.81852  0.21738  1.0000
  H   H50       1.0  0.76255  0.93348  0.38647  1.0000
  H   H51       1.0  0.61279  0.86258  0.79194  1.0000
  H   H52       1.0  0.96709  0.73298  0.61508  1.0000
  H   H53       1.0  0.14574  0.91634  0.22025  1.0000
  H   H54       1.0  0.56556  0.62099  0.02136  1.0000
  H   H55       1.0  0.14841  0.00702  0.81397  1.0000
  H   H56       1.0  0.45496  0.58414  0.05807  1.0000
  H   H57       1.0  0.33619  0.14968  0.23648  1.0000
  H   H58       1.0  0.60094  0.94476  0.82212  1.0000
  H   H59       1.0  0.67052  0.83316  0.69099  1.0000
  H   H60       1.0  0.33492  0.48682  0.75985  1.0000
  C   C1        1.0  0.35702  0.46989  0.15877  1.0000
  C   C2        1.0  0.64964  0.79919  0.30402  1.0000
  C   C3        1.0  0.67884  0.88230  0.89718  1.0000
  C   C4        1.0  0.30645  0.53189  0.41873  1.0000
  C   C5        1.0  0.25567  0.53253  0.41184  1.0000
  C   C6        1.0  0.71006  0.91967  0.97051  1.0000
  C   C7        1.0  0.54347  0.53186  0.10747  1.0000
  C   C8        1.0  0.70280  0.96569  0.98851  1.0000
  C   C9        1.0  0.66293  0.97539  0.93678  1.0000
  C   C10       1.0  0.61364  0.92857  0.40514  1.0000
  C   C11       1.0  0.61831  0.88122  0.38702  1.0000
  C   C12       1.0  0.38310  0.21167  0.66311  1.0000
  C   C13       1.0  0.68141  0.37953  0.43556  1.0000
  C   C14       1.0  0.52874  0.57340  0.06853  1.0000
  C   C15       1.0  0.30544  0.16527  0.57583  1.0000
  C   C16       1.0  0.46740  0.55280  0.08952  1.0000
  C   C17       1.0  0.25985  0.16732  0.53422  1.0000
  C   C18       1.0  0.42016  0.49097  0.14931  1.0000
  C   C19       1.0  0.21512  0.11867  0.51081  1.0000
  C   C20       1.0  0.43571  0.45028  0.19349  1.0000
  C   C21       1.0  0.21386  0.06564  0.52700  1.0000
  C   C22       1.0  0.49722  0.47045  0.17283  1.0000
  C   C23       1.0  0.26057  0.06448  0.56548  1.0000
  C   C24       1.0  0.30530  0.11289  0.58848  1.0000
  C   C25       1.0  0.16429  0.01170  0.51445  1.0000
  C   C26       1.0  0.10394  0.99973  0.54703  1.0000
  C   C27       1.0  0.05477  0.94577  0.55277  1.0000
  C   C28       1.0  0.06385  0.90062  0.52804  1.0000
  C   C29       1.0  0.12426  0.91261  0.49400  1.0000
  C   C30       1.0  0.17343  0.96713  0.48413  1.0000
  C   C31       1.0  0.91838  0.76969  0.54936  1.0000
  C   C32       1.0  0.86360  0.75609  0.52866  1.0000
  C   C33       1.0  0.96791  0.83142  0.52057  1.0000
  C   C34       1.0  0.66310  0.34469  0.34625  1.0000
  C   C35       1.0  0.00171  0.54531  0.39113  1.0000
  C   C36       1.0  0.66065  0.29190  0.37208  1.0000
  C   C37       1.0  0.62917  0.09912  0.36145  1.0000
  C   C38       1.0  0.62870  0.04823  0.35664  1.0000
  C   C39       1.0  0.66811  0.21384  0.99308  1.0000
  C   C40       1.0  0.36494  0.48933  0.65366  1.0000
  C   C41       1.0  0.67949  0.81401  0.78189  1.0000
  C   C42       1.0  0.29869  0.48917  0.53911  1.0000
  C   C43       1.0  0.67274  0.88285  0.37712  1.0000
  C   C44       1.0  0.19420  0.48916  0.52055  1.0000
  C   C45       1.0  0.18686  0.44621  0.64001  1.0000
  C   C46       1.0  0.23796  0.44634  0.65056  1.0000
  C   C47       1.0  0.72090  0.93257  0.39214  1.0000
  C   C48       1.0  0.54473  0.52987  0.60506  1.0000
  C   C49       1.0  0.71589  0.97974  0.41083  1.0000
  C   C50       1.0  0.66860  0.65273  0.79050  1.0000
  C   C51       1.0  0.66237  0.97912  0.41662  1.0000
  C   C52       1.0  0.82483  0.65141  0.60142  1.0000
  C   C53       1.0  0.63104  0.93735  0.86549  1.0000
  C   C54       1.0  0.63859  0.89161  0.84595  1.0000
  C   C55       1.0  0.35785  0.19116  0.14152  1.0000
  C   C56       1.0  0.51962  0.50572  0.50565  1.0000
  C   C57       1.0  0.45954  0.48986  0.52585  1.0000
  C   C58       1.0  0.42359  0.49652  0.64584  1.0000
  C   C59       1.0  0.44782  0.51614  0.75117  1.0000
  C   C60       1.0  0.50841  0.53324  0.73073  1.0000
  C   C61       1.0  0.69563  0.68409  0.87824  1.0000
  C   C62       1.0  0.70024  0.73735  0.87445  1.0000
  C   C63       1.0  0.15391  0.96922  0.01620  1.0000
  C   C64       1.0  0.68040  0.76113  0.77905  1.0000
  C   C65       1.0  0.13021  0.96607  0.90377  1.0000
  C   C66       1.0  0.65798  0.73119  0.68351  1.0000
  C   C67       1.0  0.08540  0.91128  0.90197  1.0000
  C   C68       1.0  0.65095  0.67659  0.69036  1.0000
  C   C69       1.0  0.06199  0.85740  0.01517  1.0000
  C   C70       1.0  0.87853  0.66378  0.62452  1.0000
  C   C71       1.0  0.08537  0.86011  0.12815  1.0000
  C   C72       1.0  0.92482  0.72239  0.59872  1.0000
  C   C73       1.0  0.13008  0.91498  0.12879  1.0000
  C   C74       1.0  0.97010  0.79349  0.99114  1.0000
  C   C75       1.0  0.81651  0.69711  0.55498  1.0000
  C   C76       1.0  0.95040  0.47011  0.95441  1.0000
  C   C77       1.0  0.67640  0.27318  0.48719  1.0000
  C   C78       1.0  0.68567  0.06361  0.51669  1.0000
  C   C79       1.0  0.69516  0.30931  0.57446  1.0000
  C   C80       1.0  0.68568  0.11428  0.52294  1.0000
  C   C81       1.0  0.69811  0.36284  0.54910  1.0000
  C   C82       1.0  0.65816  0.13363  0.44268  1.0000
  C   C83       1.0  0.67311  0.21708  0.51515  1.0000
  C   C84       1.0  0.65814  0.03005  0.43187  1.0000
  N   N1        1.0  0.63971  0.49584  0.42832  1.0000
  N   N2        1.0  0.67790  0.46536  0.09807  1.0000
  N   N3        1.0  0.34747  0.50619  0.08568  1.0000
  N   N4        1.0  0.68219  0.83757  0.35799  1.0000
  N   N5        1.0  0.71805  0.58003  0.95012  1.0000
  N   N6        1.0  0.35128  0.21685  0.58992  1.0000
  N   N7        1.0  0.01690  0.84299  0.54546  1.0000
  N   N8        1.0  0.95071  0.44718  0.08026  1.0000
  N   N9        1.0  0.62938  0.16479  0.97841  1.0000
  N   N10       1.0  0.61842  0.48679  0.92971  1.0000
  N   N11       1.0  0.71414  0.49603  0.57510  1.0000
  N   N12       1.0  0.35247  0.49148  0.53550  1.0000
  N   N13       1.0  0.68715  0.83585  0.88776  1.0000
  N   N14       1.0  0.72506  0.59988  0.45161  1.0000
  N   N15       1.0  0.33827  0.19138  0.03464  1.0000
  N   N16       1.0  0.01675  0.80051  0.02168  1.0000
  N   N17       1.0  0.98861  0.49358  0.46395  1.0000
  N   N18       1.0  0.65963  0.18634  0.42786  1.0000
  O   O1        1.0  0.65784  0.59616  0.29753  1.0000
  O   O2        1.0  0.60562  0.55348  0.08641  1.0000
  O   O3        1.0  0.82110  0.59421  0.36660  1.0000
  O   O4        1.0  0.76565  0.55873  0.13172  1.0000
  O   O5        1.0  0.56374  0.38885  0.17073  1.0000
  O   O6        1.0  0.68307  0.43212  0.39940  1.0000
  O   O7        1.0  0.65677  0.59598  0.79910  1.0000
  O   O8        1.0  0.60684  0.55367  0.58444  1.0000
  O   O9        1.0  0.79035  0.54058  0.88621  1.0000
  O   O10       1.0  0.77909  0.59073  0.63269  1.0000
  O   O11       1.0  0.60398  0.40297  0.66068  1.0000
  O   O12       1.0  0.63882  0.40652  0.91455  1.0000
  C   C85       1.0  0.28434  0.06713  0.08868  1.0000
  C   C86       1.0  0.29693  0.12442  0.03533  1.0000
  C  Sn1       1.0  0.09100  0.99407  0.97621  1.0000
  C  Sn2       1.0  0.03899  0.94405  0.97058  1.0000
  C   C87       1.0  0.19425  0.02562  0.02433  1.0000
  C   C88       1.0  0.23305  0.01777  0.08322  1.0000
  H   H61       1.0  0.31434  0.06104  0.13432  1.0000
  O  Te1       1.0  0.10426  0.05162  0.92335  1.0000
  O  Te2       1.0  0.99978  0.95112  0.91212  1.0000
  H   H62       1.0  0.72003  0.97340  0.12460  1.0000
  Mg  Mg1       1.0  0.03714  0.03843  0.85386  1.0000
  C   C89       1.0  0.87562  0.50262  0.42262  1.0000
  C   C90       1.0  0.93989  0.54308  0.37801  1.0000
  C  Sn3       1.0  0.96622  0.60472  0.33267  1.0000
  C  Sn4       1.0  0.92735  0.62612  0.33214  1.0000
  C   C91       1.0  0.86310  0.58529  0.37707  1.0000
  C   C92       1.0  0.83724  0.52370  0.42218  1.0000
  H   H63       1.0  0.85560  0.45497  0.45761  1.0000
  O  Te3       1.0  0.03053  0.64452  0.28839  1.0000
  O  Te4       1.0  0.95244  0.68750  0.28740  1.0000
  H   H64       1.0  0.78747  0.49239  0.45681  1.0000
  Mg  Mg2       1.0  0.04274  0.72402  0.23682  1.0000
  C   C93       1.0  0.58780  0.28513  0.97565  1.0000
  C   C94       1.0  0.62924  0.34391  0.96445  1.0000
  C  Sn5       1.0  0.68922  0.36300  0.95613  1.0000
  C  Sn6       1.0  0.70794  0.32240  0.95905  1.0000
  C   C95       1.0  0.66616  0.26371  0.97017  1.0000
  C   C96       1.0  0.60624  0.24507  0.97848  1.0000
  H   H65       1.0  0.54146  0.27072  0.98199  1.0000
  O  Te5       1.0  0.73002  0.42186  0.94504  1.0000
  O  Te6       1.0  0.76762  0.34030  0.95085  1.0000
  H   H66       1.0  0.57419  0.19957  0.98705  1.0000
  Mg  Mg3       1.0  0.80643  0.42510  0.93692  1.0000
  C   C97       1.0  0.70828  0.12048  0.94920  1.0000
  C   C98       1.0  0.65668  0.12372  0.96277  1.0000
  C  Sn7       1.0  0.60003  0.07330  0.98197  1.0000
  C  Sn8       1.0  0.59507  0.01869  0.98768  1.0000
  C   C99       1.0  0.64695  0.01590  0.97410  1.0000
  C   C100      1.0  0.70343  0.06662  0.95489  1.0000
  H   H67       1.0  0.75197  0.15971  0.93441  1.0000
  O  Te7       1.0  0.54894  0.07733  0.99528  1.0000
  O  Te8       1.0  0.70648  0.10633  0.00683  1.0000
  H   H68       1.0  0.74336  0.06408  0.94448  1.0000
  Mg  Mg4       1.0  0.65001  0.13421  0.01963  1.0000
  C   C101      1.0  0.92248  0.67166  0.00906  1.0000
  C   C102      1.0  0.75701  0.58589  0.99103  1.0000
  C  Sn9       1.0  0.86959  0.72306  0.01850  1.0000
  C  Sn10      1.0  0.81168  0.66740  0.06490  1.0000
  C   C103      1.0  0.81016  0.61468  0.08271  1.0000
  C   C104      1.0  0.86538  0.61674  0.05488  1.0000
  H   H69       1.0  0.79771  0.53454  0.98760  1.0000
  O  Te9       1.0  0.70496  0.63766  0.99989  1.0000
  O  Te10      1.0  0.75611  0.66456  0.09317  1.0000
  H   H70       1.0  0.86380  0.57574  0.06894  1.0000
  Mg  Mg5       1.0  0.78404  0.74942  0.05203  1.0000
  C   C105      1.0  0.03950  0.40008  0.18283  1.0000
  C   C106      1.0  0.10204  0.44548  0.09058  1.0000
  C  Sn11      1.0  0.94986  0.35967  0.99113  1.0000
  C  Sn12      1.0  0.90156  0.36713  0.98419  1.0000
  C   C107      1.0  0.00661  0.46018  0.07703  1.0000
  C   C108      1.0  0.99183  0.40742  0.17610  1.0000
  H   H71       1.0  0.02805  0.35927  0.25954  1.0000
  O  Te11      1.0  0.01258  0.40457  0.89973  1.0000
  O  Te12      1.0  0.91554  0.41956  0.88586  1.0000
  H   H72       1.0  0.94340  0.37229  0.24757  1.0000
  Mg  Mg6       1.0  0.00804  0.46787  0.78397  1.0000
  C   C109      1.0  0.59746  0.65452  0.28951  1.0000
  C   C110      1.0  0.64566  0.64675  0.28622  1.0000
  C  Sn13      1.0  0.70023  0.69217  0.29048  1.0000
  C  Sn14      1.0  0.70651  0.74631  0.29823  1.0000
  C   C111      1.0  0.65800  0.75362  0.30158  1.0000
  C   C112      1.0  0.60360  0.70790  0.29721  1.0000
  H   H73       1.0  0.55536  0.61913  0.28621  1.0000
  O  Te13      1.0  0.74795  0.68368  0.28705  1.0000
  O  Te14      1.0  0.76053  0.79242  0.30268  1.0000
  H   H74       1.0  0.56627  0.71391  0.29986  1.0000
  Mg  Mg7       1.0  0.81259  0.75963  0.29540  1.0000
  C   C113      1.0  0.46291  0.33765  0.61634  1.0000
  C   C114      1.0  0.44357  0.27809  0.63947  1.0000
  C  Sn15      1.0  0.47823  0.25766  0.67966  1.0000
  C  Sn16      1.0  0.53324  0.29771  0.69695  1.0000
  C   C115      1.0  0.55217  0.35720  0.67365  1.0000
  C   C116      1.0  0.51714  0.37717  0.63343  1.0000
  H   H75       1.0  0.43580  0.35310  0.58529  1.0000
  O  Te15      1.0  0.45826  0.19802  0.70229  1.0000
  O  Te16      1.0  0.56875  0.27847  0.73709  1.0000
  H   H76       1.0  0.53211  0.42327  0.61562  1.0000
  Mg  Mg8       1.0  0.52242  0.19302  0.75565  1.0000
  C   C117      1.0  0.14000  0.52391  0.33957  1.0000
  C   C118      1.0  0.14332  0.49765  0.46864  1.0000
  C  Sn17      1.0  0.09039  0.46351  0.60481  1.0000
  C  Sn18      1.0  0.03313  0.45558  0.61154  1.0000
  C   C119      1.0  0.03028  0.48200  0.48177  1.0000
  C   C120      1.0  0.08354  0.51609  0.34610  1.0000
  H   H77       1.0  0.18119  0.55026  0.23458  1.0000
  O  Te17      1.0  0.09453  0.43761  0.73270  1.0000
  O  Te18      1.0  0.97951  0.42166  0.74617  1.0000
  H   H78       1.0  0.08094  0.53638  0.24617  1.0000
  Mg  Mg9       1.0  0.00865  0.39534  0.88997  1.0000
  C   C121      1.0  0.81429  0.47296  0.08052  1.0000
  C   C122      1.0  0.64991  0.36774  0.95083  1.0000
  C  Sn19      1.0  0.69543  0.38489  0.80954  1.0000
  C  Sn20      1.0  0.73856  0.36812  0.79823  1.0000
  C   C123      1.0  0.73504  0.33457  0.92864  1.0000
  C   C124      1.0  0.85680  0.45638  0.06947  1.0000
  H   H79       1.0  0.77890  0.45985  0.18948  1.0000
  O  Te19      1.0  0.69788  0.41837  0.68111  1.0000
  O  Te20      1.0  0.78450  0.38465  0.65843  1.0000
  H   H80       1.0  0.85439  0.43041  0.16985  1.0000
  Mg  Mg10      1.0  0.76895  0.43019  0.51596  1.0000
  C   C125      1.0  0.48089  0.34544  0.02477  1.0000
  C   C126      1.0  0.50600  0.34815  0.13328  1.0000
  C  Sn21      1.0  0.48295  0.29589  0.24974  1.0000
  C  Sn22      1.0  0.43385  0.23994  0.25738  1.0000
  C   C127      1.0  0.40907  0.23770  0.14821  1.0000
  C   C128      1.0  0.43248  0.29028  0.03219  1.0000
  H   H81       1.0  0.33154  0.24740  0.93495  1.0000
  O  Te21      1.0  0.50856  0.29940  0.35726  1.0000
  O  Te22      1.0  0.40995  0.18701  0.37254  1.0000
  H   H82       1.0  0.24557  0.14944  0.94814  1.0000
  Mg  Mg11      1.0  0.46023  0.21487  0.49260  1.0000
  C   C129      1.0  0.25084  0.52198  0.93916  1.0000
  C   C130      1.0  0.35658  0.61483  0.03637  1.0000
  C  Sn23      1.0  0.34384  0.57618  0.17215  1.0000
  C  Sn24      1.0  0.39393  0.58372  0.21104  1.0000
  C   C131      1.0  0.45552  0.62978  0.11306  1.0000
  C   C132      1.0  0.30026  0.52947  0.97745  1.0000
  H   H83       1.0  0.26030  0.55172  0.83427  1.0000
  O  Te23      1.0  0.28189  0.53057  0.26795  1.0000
  O  Te24      1.0  0.38252  0.54575  0.34606  1.0000
  H   H84       1.0  0.34806  0.56501  0.90225  1.0000
  Mg  Mg12      1.0  0.29014  0.49022  0.43935  1.0000
