data_image0
_chemical_formula_structural       P6H24C18N18O12C2Sn2C2HTe2HMgC2Sn2C2HTe2HMgC2Sn2C2HTe2HMgC2Sn2C2HTe2HMgC2Sn2C2HTe2HMgC2Sn2C2HTe2HMgC2Sn2C2HTe2HMgC2Sn2C2HTe2HMgC2Sn2C2HTe2HMgC2Sn2C2HTe2HMgC2Sn2C2HTe2HMgC2Sn2C2HTe2HMgC2Sn2C2HTe2HMgC2Sn2C2HTe2HMgC2Sn2C2HTe2HMgC2Sn2C2HTe2HMgC2Sn2C2HTe2HMgC2Sn2C2HTe2HMgC2Sn2C2HTe2HMgC2Sn2C2HTe2HMgC2Sn2C2HTe2HMgC2Sn2C2HTe2HMgC2Sn2C2HTe2HMgC2Sn2C2HTe2HMg
_chemical_formula_sum              "P6 H72 C114 N18 O12 Sn48 Te48 Mg24"
_cell_length_a       24.5798
_cell_length_b       22.3852
_cell_length_c       11.214
_cell_angle_alpha    89.5099
_cell_angle_beta     94.854
_cell_angle_gamma    113.83

_symmetry_space_group_name_H-M    'P1'
_space_group_IT_number       1

loop_
  _space_group_symop_operation_xyz
  'x, y, z'

loop_
  _atom_site_type_symbol
  _atom_site_label
  _atom_site_symmetry_multiplicity
  _atom_site_fract_x
  _atom_site_fract_y
  _atom_site_fract_z
  _atom_site_occupancy
  P   P1        1.0  0.54979  0.27017  0.33250  1.0000
  P   P2        1.0  0.54145  0.37172  0.44888  1.0000
  P   P3        1.0  0.44471  0.28263  0.32189  1.0000
  P   P4        1.0  0.54941  0.26554  0.83551  1.0000
  P   P5        1.0  0.52608  0.36355  0.93378  1.0000
  P   P6        1.0  0.43647  0.25770  0.82620  1.0000
  H   H1        1.0  0.26564  0.92267  0.04410  1.0000
  H   H2        1.0  0.44281  0.94634  0.10147  1.0000
  H   H3        1.0  0.85779  0.47002  0.29573  1.0000
  H   H4        1.0  0.37561  0.54187  0.18877  1.0000
  H   H5        1.0  0.12988  0.63992  0.06963  1.0000
  H   H6        1.0  0.12885  0.65835  0.22159  1.0000
  H   H7        1.0  0.21781  0.40969  0.12028  1.0000
  H   H8        1.0  0.33670  0.75722  0.05978  1.0000
  H   H9        1.0  0.27537  0.72396  0.95097  1.0000
  H   H10       1.0  0.09599  0.74491  0.93194  1.0000
  H   H11       1.0  0.07129  0.80378  0.97442  1.0000
  H   H12       1.0  0.82946  0.63185  0.99241  1.0000
  H   H13       1.0  0.20798  0.96234  0.45658  1.0000
  H   H14       1.0  0.46088  0.94366  0.59055  1.0000
  H   H15       1.0  0.86083  0.45847  0.77700  1.0000
  H   H16       1.0  0.35670  0.49607  0.73966  1.0000
  H   H17       1.0  0.13303  0.61592  0.56999  1.0000
  H   H18       1.0  0.12616  0.62680  0.72262  1.0000
  H   H19       1.0  0.19978  0.36321  0.59613  1.0000
  H   H20       1.0  0.36283  0.76918  0.60710  1.0000
  H   H21       1.0  0.29708  0.73521  0.51091  1.0000
  H   H22       1.0  0.07929  0.71090  0.41982  1.0000
  H   H23       1.0  0.05222  0.76472  0.47883  1.0000
  H   H24       1.0  0.85153  0.63399  0.51350  1.0000
  C   C1        1.0  0.24282  0.41506  0.20855  1.0000
  C   C2        1.0  0.83754  0.44005  0.21374  1.0000
  C   C3        1.0  0.44252  0.99147  0.13925  1.0000
  C   C4        1.0  0.25888  0.96554  0.07465  1.0000
  C   C5        1.0  0.11633  0.61765  0.15616  1.0000
  C   C6        1.0  0.34612  0.75744  0.51213  1.0000
  C   C7        1.0  0.42063  0.55042  0.22914  1.0000
  C   C8        1.0  0.05923  0.74554  0.39380  1.0000
  C   C9        1.0  0.80335  0.59678  0.05673  1.0000
  C   C10       1.0  0.22653  0.36952  0.68262  1.0000
  C   C11       1.0  0.83708  0.42794  0.69702  1.0000
  C   C12       1.0  0.45618  0.98745  0.62282  1.0000
  C   C13       1.0  0.24712  0.98833  0.52020  1.0000
  C   C14       1.0  0.11755  0.58937  0.65218  1.0000
  C   C15       1.0  0.32439  0.74453  0.96362  1.0000
  C   C16       1.0  0.40533  0.52417  0.74149  1.0000
  C   C17       1.0  0.07598  0.77800  0.89519  1.0000
  C   C18       1.0  0.82249  0.60563  0.58139  1.0000
  N   N1        1.0  0.44575  0.59009  0.31980  1.0000
  N   N2        1.0  0.82454  0.59207  0.16439  1.0000
  N   N3        1.0  0.24274  0.45608  0.28905  1.0000
  N   N4        1.0  0.86769  0.44521  0.12230  1.0000
  N   N5        1.0  0.41676  0.99067  0.23548  1.0000
  N   N6        1.0  0.22104  0.96309  0.15004  1.0000
  N   N7        1.0  0.48171  0.24384  0.27716  1.0000
  N   N8        1.0  0.56381  0.31982  0.93908  1.0000
  N   N9        1.0  0.48073  0.35634  0.36852  1.0000
  N   N10       1.0  0.43210  0.58160  0.79146  1.0000
  N   N11       1.0  0.83996  0.61114  0.69446  1.0000
  N   N12       1.0  0.23184  0.41416  0.76077  1.0000
  N   N13       1.0  0.86508  0.42719  0.60480  1.0000
  N   N14       1.0  0.42215  0.98396  0.70685  1.0000
  N   N15       1.0  0.25012  0.97221  0.63044  1.0000
  N   N16       1.0  0.48136  0.22918  0.78004  1.0000
  N   N17       1.0  0.56932  0.31865  0.44787  1.0000
  N   N18       1.0  0.46271  0.33393  0.85804  1.0000
  O   O1        1.0  0.39537  0.28150  0.21573  1.0000
  O   O2        1.0  0.40470  0.24408  0.42817  1.0000
  O   O3        1.0  0.58701  0.44204  0.40480  1.0000
  O   O4        1.0  0.51897  0.37996  0.06968  1.0000
  O   O5        1.0  0.57551  0.21343  0.88388  1.0000
  O   O6        1.0  0.58968  0.30041  0.22233  1.0000
  O   O7        1.0  0.38088  0.23905  0.72488  1.0000
  O   O8        1.0  0.40576  0.22012  0.94295  1.0000
  O   O9        1.0  0.56478  0.43521  0.88301  1.0000
  O   O10       1.0  0.53497  0.38555  0.58658  1.0000
  O   O11       1.0  0.57145  0.21224  0.36031  1.0000
  O   O12       1.0  0.58874  0.29166  0.72351  1.0000
  C   C19       1.0  0.69591  0.53907  0.37203  1.0000
  C   C20       1.0  0.65355  0.48769  0.42936  1.0000
  C  Sn1       1.0  0.66625  0.47381  0.54756  1.0000
  C  Sn2       1.0  0.72241  0.51218  0.60929  1.0000
  C   C21       1.0  0.76447  0.56351  0.55117  1.0000
  C   C22       1.0  0.75131  0.57696  0.43287  1.0000
  H   H25       1.0  0.68572  0.54951  0.28052  1.0000
  O  Te1       1.0  0.62343  0.42229  0.60348  1.0000
  O  Te2       1.0  0.73626  0.49939  0.72748  1.0000
  H   H26       1.0  0.78409  0.61677  0.38853  1.0000
  Mg  Mg1       1.0  0.66324  0.42395  0.76531  1.0000
  C   C23       1.0  0.70354  0.56083  0.87888  1.0000
  C   C24       1.0  0.73623  0.55987  0.98654  1.0000
  C  Sn3       1.0  0.66706  0.49602  0.06908  1.0000
  C  Sn4       1.0  0.60832  0.44764  0.04309  1.0000
  C   C25       1.0  0.62025  0.46434  0.93510  1.0000
  C   C26       1.0  0.64561  0.51311  0.85316  1.0000
  H   H27       1.0  0.72317  0.59854  0.81545  1.0000
  O  Te3       1.0  0.70034  0.49580  0.17623  1.0000
  O  Te4       1.0  0.58235  0.39859  0.12397  1.0000
  H   H28       1.0  0.62030  0.51382  0.76978  1.0000
  Mg  Mg2       1.0  0.64552  0.41895  0.25793  1.0000
  C   C27       1.0  0.41583  0.45171  0.06460  1.0000
  C   C28       1.0  0.43939  0.49911  0.15689  1.0000
  C  Sn5       1.0  0.49586  0.51251  0.21477  1.0000
  C  Sn6       1.0  0.52925  0.47774  0.17939  1.0000
  C   C29       1.0  0.50529  0.43045  0.08691  1.0000
  C   C30       1.0  0.44874  0.41742  0.02962  1.0000
  H   H29       1.0  0.37209  0.44165  0.02022  1.0000
  O  Te5       1.0  0.51872  0.56000  0.30683  1.0000
  O  Te6       1.0  0.58580  0.49018  0.23570  1.0000
  H   H30       1.0  0.47478  0.39610  0.95811  1.0000
  Mg  Mg3       1.0  0.59780  0.55944  0.35636  1.0000
  C   C31       1.0  0.21147  0.59381  0.29673  1.0000
  C   C32       1.0  0.16313  0.58275  0.21192  1.0000
  C  Sn7       1.0  0.13411  0.52209  0.15230  1.0000
  C  Sn8       1.0  0.15395  0.47164  0.17829  1.0000
  C   C33       1.0  0.20233  0.48318  0.26335  1.0000
  C   C34       1.0  0.23105  0.54407  0.32245  1.0000
  H   H31       1.0  0.23368  0.64091  0.34252  1.0000
  O  Te7       1.0  0.08590  0.51188  0.06779  1.0000
  O  Te8       1.0  0.12575  0.41054  0.12005  1.0000
  H   H32       1.0  0.26846  0.55260  0.38817  1.0000
  Mg  Mg4       1.0  0.06201  0.42032  0.01205  1.0000
  C   C35       1.0  0.51053  0.05113  0.94734  1.0000
  C   C36       1.0  0.43972  0.03232  0.05402  1.0000
  C  Sn9       1.0  0.44042  0.08884  0.10733  1.0000
  C  Sn10      1.0  0.46825  0.14988  0.05261  1.0000
  C   C37       1.0  0.53891  0.16817  0.94584  1.0000
  C   C38       1.0  0.53796  0.11131  0.89328  1.0000
  H   H33       1.0  0.87773  0.00714  0.90662  1.0000
  O  Te9       1.0  0.41370  0.08451  0.21394  1.0000
  O  Te10      1.0  0.46957  0.20712  0.10396  1.0000
  H   H34       1.0  0.55850  0.11400  0.81064  1.0000
  Mg  Mg5       1.0  0.42709  0.17616  0.24954  1.0000
  C   C39       1.0  0.00918  0.54043  0.26739  1.0000
  C   C40       1.0  0.04469  0.56918  0.17437  1.0000
  C  Sn11      1.0  0.01978  0.55878  0.05571  1.0000
  C  Sn12      1.0  0.95815  0.51885  0.02998  1.0000
  C   C41       1.0  0.92299  0.49035  0.12368  1.0000
  C   C42       1.0  0.94839  0.50106  0.24209  1.0000
  H   H35       1.0  0.02881  0.54874  0.35901  1.0000
  O  Te11      1.0  0.10016  0.60320  0.96385  1.0000
  O  Te12      1.0  0.97635  0.52301  0.91220  1.0000
  H   H36       1.0  0.92087  0.47883  0.31410  1.0000
  Mg  Mg6       1.0  0.04403  0.57335  0.81781  1.0000
  C   C43       1.0  0.49958  0.12704  0.60210  1.0000
  C   C44       1.0  0.48666  0.06197  0.57199  1.0000
  C  Sn13      1.0  0.50738  0.04656  0.46933  1.0000
  C  Sn14      1.0  0.54168  0.09734  0.39563  1.0000
  C   C45       1.0  0.55440  0.16228  0.42658  1.0000
  C   C46       1.0  0.53343  0.17716  0.52949  1.0000
  H   H37       1.0  0.48339  0.13856  0.68176  1.0000
  O  Te13      1.0  0.86199  0.98129  0.44053  1.0000
  O  Te14      1.0  0.56296  0.08331  0.29254  1.0000
  H   H38       1.0  0.54348  0.22754  0.55282  1.0000
  Mg  Mg7       1.0  0.90100  0.98683  0.29089  1.0000
  C   C47       1.0  0.69161  0.32538  0.11081  1.0000
  C   C48       1.0  0.65741  0.32188  0.20613  1.0000
  C  Sn15      1.0  0.68355  0.35995  0.31034  1.0000
  C  Sn16      1.0  0.74507  0.40228  0.31899  1.0000
  C   C49       1.0  0.77889  0.40546  0.22309  1.0000
  C   C50       1.0  0.75229  0.36714  0.11925  1.0000
  H   H39       1.0  0.67102  0.29576  0.03044  1.0000
  O  Te15      1.0  0.64873  0.35583  0.40475  1.0000
  O  Te16      1.0  0.77233  0.44088  0.42208  1.0000
  H   H40       1.0  0.77877  0.36989  0.04543  1.0000
  Mg  Mg8       1.0  0.70620  0.41812  0.52667  1.0000
  C   C51       1.0  0.36061  0.68431  0.31342  1.0000
  C   C52       1.0  0.36234  0.70250  0.43305  1.0000
  C  Sn17      1.0  0.39536  0.68411  0.52215  1.0000
  C  Sn18      1.0  0.42720  0.64684  0.49062  1.0000
  C   C53       1.0  0.42522  0.62892  0.37068  1.0000
  C   C54       1.0  0.39202  0.64757  0.28224  1.0000
  H   H41       1.0  0.33496  0.69876  0.24498  1.0000
  O  Te17      1.0  0.39659  0.70267  0.64124  1.0000
  O  Te18      1.0  0.46057  0.62782  0.57787  1.0000
  H   H42       1.0  0.39072  0.63352  0.18962  1.0000
  Mg  Mg9       1.0  0.44841  0.66498  0.72787  1.0000
  C   C55       1.0  0.43791  0.88378  0.32825  1.0000
  C   C56       1.0  0.40726  0.92332  0.29852  1.0000
  C  Sn19      1.0  0.35351  0.91187  0.34697  1.0000
  C  Sn20      1.0  0.33012  0.85985  0.42666  1.0000
  C   C57       1.0  0.36114  0.82060  0.45590  1.0000
  C   C58       1.0  0.41488  0.83248  0.40687  1.0000
  H   H43       1.0  0.47950  0.89298  0.29037  1.0000
  O  Te19      1.0  0.32346  0.95182  0.31628  1.0000
  O  Te20      1.0  0.27650  0.84734  0.47640  1.0000
  H   H44       1.0  0.43862  0.80189  0.42997  1.0000
  Mg  Mg10      1.0  0.25199  0.91531  0.40725  1.0000
  C   C59       1.0  0.91523  0.61375  0.34277  1.0000
  C   C60       1.0  0.88592  0.62875  0.24230  1.0000
  C  Sn21      1.0  0.91547  0.68479  0.17835  1.0000
  C  Sn22      1.0  0.97548  0.72648  0.21589  1.0000
  C   C61       1.0  0.00443  0.71102  0.31647  1.0000
  C   C62       1.0  0.97443  0.65483  0.37983  1.0000
  H   H45       1.0  0.89204  0.57026  0.39176  1.0000
  O  Te21      1.0  0.88552  0.69907  0.07820  1.0000
  O  Te22      1.0  0.00608  0.78279  0.15359  1.0000
  H   H46       1.0  0.99714  0.64320  0.45757  1.0000
  Mg  Mg11      1.0  0.94617  0.78141  0.02277  1.0000
  C   C63       1.0  0.27909  0.32125  0.11447  1.0000
  C   C64       1.0  0.27351  0.36239  0.20119  1.0000
  C  Sn23      1.0  0.31339  0.38144  0.30403  1.0000
  C  Sn24      1.0  0.35968  0.35881  0.32008  1.0000
  C   C65       1.0  0.36491  0.31770  0.23275  1.0000
  C   C66       1.0  0.32474  0.29892  0.13020  1.0000
  H   H47       1.0  0.24804  0.30675  0.03509  1.0000
  O  Te23      1.0  0.30716  0.42255  0.38980  1.0000
  O  Te24      1.0  0.40016  0.37711  0.42199  1.0000
  H   H48       1.0  0.32910  0.26710  0.06304  1.0000
  Mg  Mg12      1.0  0.37330  0.43388  0.51354  1.0000
  C   C67       1.0  0.11925  0.90336  0.26408  1.0000
  C   C68       1.0  0.17381  0.91059  0.22395  1.0000
  C  Sn25      1.0  0.19246  0.85934  0.23321  1.0000
  C  Sn26      1.0  0.15569  0.79979  0.28359  1.0000
  C   C69       1.0  0.10116  0.79302  0.32340  1.0000
  C   C70       1.0  0.08294  0.84463  0.31374  1.0000
  H   H49       1.0  0.10513  0.94327  0.25655  1.0000
  O  Te25      1.0  0.24712  0.86740  0.19272  1.0000
  O  Te26      1.0  0.17323  0.74776  0.29388  1.0000
  H   H50       1.0  0.04067  0.83899  0.34474  1.0000
  Mg  Mg13      1.0  0.25158  0.78238  0.22601  1.0000
  C   C71       1.0  0.28831  0.09188  0.35386  1.0000
  C   C72       1.0  0.29408  0.05237  0.44695  1.0000
  C  Sn27      1.0  0.33958  0.07813  0.53945  1.0000
  C  Sn28      1.0  0.37997  0.14472  0.53850  1.0000
  C   C73       1.0  0.37379  0.18386  0.44501  1.0000
  C   C74       1.0  0.32811  0.15757  0.35288  1.0000
  H   H51       1.0  0.25295  0.07155  0.28261  1.0000
  O  Te27      1.0  0.34473  0.03797  0.63175  1.0000
  O  Te28      1.0  0.42584  0.17174  0.62984  1.0000
  H   H52       1.0  0.32363  0.18818  0.28086  1.0000
  Mg  Mg14      1.0  0.41455  0.09731  0.73608  1.0000
  C   C75       1.0  0.37575  0.08347  0.92107  1.0000
  C   C76       1.0  0.36910  0.14207  0.93501  1.0000
  C  Sn29      1.0  0.32367  0.14413  0.99957  1.0000
  C  Sn30      1.0  0.24000  0.07104  0.05106  1.0000
  C   C77       1.0  0.24706  0.01267  0.03668  1.0000
  C   C78       1.0  0.33690  0.02650  0.97186  1.0000
  H   H53       1.0  0.41104  0.08230  0.87098  1.0000
  O  Te29      1.0  0.27339  0.18774  0.01260  1.0000
  O  Te30      1.0  0.19423  0.07172  0.11607  1.0000
  H   H54       1.0  0.71002  0.98113  0.96115  1.0000
  Mg  Mg15      1.0  0.20410  0.16392  0.10906  1.0000
  C   C79       1.0  0.53227  0.50589  0.64539  1.0000
  C   C80       1.0  0.51195  0.43958  0.61461  1.0000
  C  Sn31      1.0  0.45158  0.39844  0.61680  1.0000
  C  Sn32      1.0  0.41091  0.42432  0.65045  1.0000
  C   C81       1.0  0.43167  0.49074  0.68100  1.0000
  C   C82       1.0  0.49218  0.53147  0.67854  1.0000
  H   H55       1.0  0.57907  0.53741  0.64343  1.0000
  O  Te31      1.0  0.43204  0.33230  0.58583  1.0000
  O  Te32      1.0  0.35033  0.38431  0.65336  1.0000
  H   H56       1.0  0.50789  0.58282  0.70230  1.0000
  Mg  Mg16      1.0  0.34524  0.29743  0.60353  1.0000
  C   C83       1.0  0.18674  0.51892  0.58268  1.0000
  C   C84       1.0  0.15706  0.54241  0.65845  1.0000
  C  Sn33      1.0  0.15549  0.52647  0.77920  1.0000
  C  Sn34      1.0  0.18422  0.48627  0.82470  1.0000
  C   C85       1.0  0.21382  0.46305  0.74818  1.0000
  C   C86       1.0  0.21510  0.47928  0.62749  1.0000
  H   H57       1.0  0.18776  0.53150  0.48931  1.0000
  O  Te33      1.0  0.12563  0.55034  0.85365  1.0000
  O  Te34      1.0  0.18336  0.46960  0.94503  1.0000
  H   H58       1.0  0.23811  0.46112  0.56886  1.0000
  Mg  Mg17      1.0  0.09261  0.49874  0.01103  1.0000
  C   C87       1.0  0.99404  0.57114  0.67069  1.0000
  C   C88       1.0  0.04135  0.55492  0.64661  1.0000
  C  Sn35      1.0  0.03005  0.49391  0.59539  1.0000
  C  Sn36      1.0  0.97023  0.44841  0.56783  1.0000
  C   C89       1.0  0.92321  0.46512  0.59219  1.0000
  C   C90       1.0  0.93502  0.52629  0.64349  1.0000
  H   H59       1.0  0.00317  0.61848  0.71032  1.0000
  O  Te35      1.0  0.07784  0.47849  0.57196  1.0000
  O  Te36      1.0  0.95767  0.38710  0.51656  1.0000
  H   H60       1.0  0.89838  0.53885  0.66205  1.0000
  Mg  Mg18      1.0  0.03796  0.38880  0.50145  1.0000
  C   C91       1.0  0.68877  0.31505  0.60668  1.0000
  C   C92       1.0  0.65600  0.31500  0.70264  1.0000
  C  Sn37      1.0  0.68353  0.35633  0.80253  1.0000
  C  Sn38      1.0  0.74501  0.39844  0.80614  1.0000
  C   C93       1.0  0.77739  0.39816  0.70964  1.0000
  C   C94       1.0  0.74941  0.35660  0.61015  1.0000
  H   H61       1.0  0.66712  0.28292  0.52966  1.0000
  O  Te37      1.0  0.65013  0.35564  0.89765  1.0000
  O  Te38      1.0  0.77363  0.44026  0.90485  1.0000
  H   H62       1.0  0.77479  0.35668  0.53583  1.0000
  Mg  Mg19      1.0  0.66489  0.40617  0.01241  1.0000
  C   C95       1.0  0.33121  0.61479  0.78683  1.0000
  C   C96       1.0  0.38671  0.61343  0.82086  1.0000
  C  Sn39      1.0  0.42274  0.65181  0.91822  1.0000
  C  Sn40      1.0  0.40270  0.69223  0.98255  1.0000
  C   C97       1.0  0.34709  0.69321  0.94785  1.0000
  C   C98       1.0  0.31140  0.65463  0.85026  1.0000
  H   H63       1.0  0.30358  0.58492  0.71136  1.0000
  O  Te39      1.0  0.47808  0.64988  0.95099  1.0000
  O  Te40      1.0  0.39355  0.71572  0.08024  1.0000
  H   H64       1.0  0.26841  0.65566  0.82398  1.0000
  Mg  Mg20      1.0  0.46556  0.69630  0.09040  1.0000
  C   C99       1.0  0.32428  0.88525  0.80136  1.0000
  C   C100      1.0  0.38341  0.92110  0.77690  1.0000
  C  Sn41      1.0  0.42688  0.89694  0.80713  1.0000
  C  Sn42      1.0  0.41072  0.83572  0.86284  1.0000
  C   C101      1.0  0.35143  0.80021  0.88685  1.0000
  C   C102      1.0  0.30829  0.82486  0.85626  1.0000
  H   H65       1.0  0.29089  0.90430  0.77763  1.0000
  O  Te41      1.0  0.48576  0.93339  0.78210  1.0000
  O  Te42      1.0  0.45326  0.81041  0.89396  1.0000
  H   H66       1.0  0.26250  0.79708  0.87514  1.0000
  Mg  Mg21      1.0  0.52767  0.87830  0.84155  1.0000
  C   C103      1.0  0.94657  0.72798  0.67827  1.0000
  C   C104      1.0  0.90629  0.66818  0.71702  1.0000
  C  Sn43      1.0  0.91964  0.64265  0.82419  1.0000
  C  Sn44      1.0  0.97436  0.67775  0.89369  1.0000
  C   C105      1.0  0.01435  0.73755  0.85419  1.0000
  C   C106      1.0  0.00055  0.76265  0.74678  1.0000
  H   H67       1.0  0.93588  0.74742  0.59521  1.0000
  O  Te43      1.0  0.87890  0.58282  0.86157  1.0000
  O  Te44      1.0  0.94457  0.63802  0.00118  1.0000
  H   H68       1.0  0.03173  0.80897  0.71685  1.0000
  Mg  Mg22      1.0  0.87455  0.55446  0.01443  1.0000
  C   C107      1.0  0.32286  0.30673  0.83747  1.0000
  C   C108      1.0  0.33159  0.26561  0.75516  1.0000
  C  Sn45      1.0  0.30368  0.25669  0.63892  1.0000
  C  Sn46      1.0  0.26637  0.28962  0.60471  1.0000
  C   C109      1.0  0.25796  0.33069  0.68770  1.0000
  C   C110      1.0  0.28609  0.33925  0.80379  1.0000
  H   H69       1.0  0.34465  0.31339  0.92728  1.0000
  O  Te45      1.0  0.31287  0.21541  0.55782  1.0000
  O  Te46      1.0  0.23795  0.28160  0.48910  1.0000
  H   H70       1.0  0.27935  0.37112  0.86747  1.0000
  Mg  Mg23      1.0  0.26437  0.22022  0.41068  1.0000
  C   C111      1.0  0.14140  0.81440  0.68090  1.0000
  C   C112      1.0  0.12474  0.82125  0.79437  1.0000
  C  Sn47      1.0  0.14745  0.88245  0.85269  1.0000
  C  Sn48      1.0  0.18757  0.93774  0.79612  1.0000
  C   C113      1.0  0.20394  0.93039  0.68254  1.0000
  C   C114      1.0  0.18096  0.86891  0.62501  1.0000
  H   H71       1.0  0.12360  0.76685  0.63634  1.0000
  O  Te47      1.0  0.13035  0.88842  0.96607  1.0000
  O  Te48      1.0  0.21093  0.99949  0.85236  1.0000
  H   H72       1.0  0.19384  0.86364  0.53712  1.0000
  Mg  Mg24      1.0  0.12999  0.96744  0.00649  1.0000
