data_image0
_chemical_formula_structural       P6H12C12N18O12C2Sn2C2HTe2HMgC2Sn2C2HTe2HMgC2Sn2C2HTe2HMgC2Sn2C2HTe2HMgC2Sn2C2HTe2HMgC2Sn2C2HTe2HMgC2Sn2C2HTe2HMgC2Sn2C2HTe2HMgC2Sn2C2HTe2HMgC2Sn2C2HTe2HMgC2Sn2C2HTe2HMgC2Sn2C2HTe2HMg
_chemical_formula_sum              "P6 H36 C60 N18 O12 Sn24 Te24 Mg12"
_cell_length_a       18.672
_cell_length_b       18.3257
_cell_length_c       10.9151
_cell_angle_alpha    92.1853
_cell_angle_beta     103.759
_cell_angle_gamma    120.664

_symmetry_space_group_name_H-M    'P1'
_space_group_IT_number       1

loop_
  _space_group_symop_operation_xyz
  'x, y, z'

loop_
  _atom_site_type_symbol
  _atom_site_label
  _atom_site_symmetry_multiplicity
  _atom_site_fract_x
  _atom_site_fract_y
  _atom_site_fract_z
  _atom_site_occupancy
  P   P1        1.0  0.54751  0.38473  0.45461  1.0000
  P   P2        1.0  0.53737  0.52688  0.47304  1.0000
  P   P3        1.0  0.41845  0.36402  0.03982  1.0000
  P   P4        1.0  0.54680  0.37478  0.94775  1.0000
  P   P5        1.0  0.53050  0.51242  0.97299  1.0000
  P   P6        1.0  0.41992  0.38312  0.54111  1.0000
  H   H1        1.0  0.50307  0.98020  0.17013  1.0000
  H   H2        1.0  0.98862  0.31681  0.95161  1.0000
  H   H3        1.0  0.98444  0.88058  0.32976  1.0000
  H   H4        1.0  0.02017  0.53099  0.17755  1.0000
  H   H5        1.0  0.38639  0.81078  0.41591  1.0000
  H   H6        1.0  0.14583  0.94886  0.61311  1.0000
  H   H7        1.0  0.51621  0.97638  0.67228  1.0000
  H   H8        1.0  0.01024  0.38849  0.39551  1.0000
  H   H9        1.0  0.96646  0.94497  0.79605  1.0000
  H   H10       1.0  0.00005  0.47238  0.74121  1.0000
  H   H11       1.0  0.38817  0.80729  0.91213  1.0000
  H   H12       1.0  0.13753  0.93354  0.09129  1.0000
  C   C1        1.0  0.41362  0.80244  0.34169  1.0000
  C   C2        1.0  0.95692  0.85237  0.22685  1.0000
  C   C3        1.0  0.05317  0.37045  0.01006  1.0000
  C   C4        1.0  0.96376  0.47035  0.11691  1.0000
  C   C5        1.0  0.47798  0.99268  0.24435  1.0000
  C   C6        1.0  0.13630  0.98523  0.14264  1.0000
  C   C7        1.0  0.41902  0.79887  0.84349  1.0000
  C   C8        1.0  0.95468  0.88961  0.73263  1.0000
  C   C9        1.0  0.06791  0.42180  0.48057  1.0000
  C   C10       1.0  0.96248  0.46724  0.64369  1.0000
  C   C11       1.0  0.48949  0.98927  0.74372  1.0000
  C   C12       1.0  0.14222  0.00196  0.65451  1.0000
  N   N1        1.0  0.44211  0.86022  0.27068  1.0000
  N   N2        1.0  0.99817  0.88803  0.14470  1.0000
  N   N3        1.0  0.05720  0.43376  0.07684  1.0000
  N   N4        1.0  0.45556  0.33200  0.48108  1.0000
  N   N5        1.0  0.97213  0.41412  0.05654  1.0000
  N   N6        1.0  0.43943  0.93242  0.30742  1.0000
  N   N7        1.0  0.58236  0.48073  0.42884  1.0000
  N   N8        1.0  0.07116  0.96875  0.18486  1.0000
  N   N9        1.0  0.47301  0.46668  0.06668  1.0000
  N   N10       1.0  0.45363  0.85769  0.77642  1.0000
  N   N11       1.0  0.01244  0.89988  0.67624  1.0000
  N   N12       1.0  0.06772  0.46701  0.57509  1.0000
  N   N13       1.0  0.45469  0.31679  0.97192  1.0000
  N   N14       1.0  0.98932  0.46406  0.54556  1.0000
  N   N15       1.0  0.45037  0.93014  0.80794  1.0000
  N   N16       1.0  0.57730  0.47009  0.92349  1.0000
  N   N17       1.0  0.07872  0.98691  0.70012  1.0000
  N   N18       1.0  0.47908  0.48588  0.56751  1.0000
  O   O1        1.0  0.32306  0.34851  0.44442  1.0000
  O   O2        1.0  0.40301  0.33210  0.17186  1.0000
  O   O3        1.0  0.59764  0.61128  0.04446  1.0000
  O   O4        1.0  0.48345  0.53717  0.34224  1.0000
  O   O5        1.0  0.54812  0.33199  0.33385  1.0000
  O   O6        1.0  0.61810  0.37738  0.07046  1.0000
  O   O7        1.0  0.31884  0.32341  0.94965  1.0000
  O   O8        1.0  0.39833  0.35127  0.67072  1.0000
  O   O9        1.0  0.60414  0.62704  0.53823  1.0000
  O   O10       1.0  0.47323  0.52302  0.84623  1.0000
  O   O11       1.0  0.55271  0.32628  0.82736  1.0000
  O   O12       1.0  0.61848  0.38520  0.57499  1.0000
  C   C13       1.0  0.73338  0.77291  0.71069  1.0000
  C   C14       1.0  0.69537  0.69792  0.61921  1.0000
  C  Sn1       1.0  0.74780  0.67640  0.57490  1.0000
  C  Sn2       1.0  0.83997  0.73109  0.62328  1.0000
  C   C15       1.0  0.87736  0.80595  0.71484  1.0000
  C   C16       1.0  0.82429  0.82688  0.75849  1.0000
  H   H13       1.0  0.69233  0.78909  0.74452  1.0000
  O  Te1       1.0  0.70875  0.60124  0.48345  1.0000
  O  Te2       1.0  0.89390  0.71111  0.58069  1.0000
  H   H14       1.0  0.85374  0.88492  0.82938  1.0000
  Mg  Mg1       1.0  0.80987  0.60164  0.45519  1.0000
  C   C17       1.0  0.80763  0.72518  0.02088  1.0000
  C   C18       1.0  0.85915  0.77002  0.14616  1.0000
  C  Sn3       1.0  0.82271  0.75187  0.24749  1.0000
  C  Sn4       1.0  0.73302  0.68759  0.22264  1.0000
  C   C19       1.0  0.68205  0.64305  0.09698  1.0000
  C   C20       1.0  0.92244  0.79008  0.99629  1.0000
  H   H15       1.0  0.03963  0.86794  0.94297  1.0000
  O  Te3       1.0  0.87511  0.79731  0.37208  1.0000
  O  Te4       1.0  0.69494  0.66815  0.32214  1.0000
  H   H16       1.0  0.88255  0.75532  0.89931  1.0000
  Mg  Mg2       1.0  0.79323  0.74764  0.47559  1.0000
  C   C21       1.0  0.48966  0.67524  0.24074  1.0000
  C   C22       1.0  0.47156  0.61360  0.31954  1.0000
  C  Sn5       1.0  0.42346  0.60733  0.40342  1.0000
  C  Sn6       1.0  0.39298  0.66390  0.40826  1.0000
  C   C23       1.0  0.41138  0.72531  0.32897  1.0000
  C   C24       1.0  0.45959  0.73103  0.24542  1.0000
  H   H17       1.0  0.52692  0.67965  0.17604  1.0000
  O  Te5       1.0  0.40599  0.54540  0.48151  1.0000
  O  Te6       1.0  0.34474  0.65902  0.49118  1.0000
  H   H18       1.0  0.47354  0.77873  0.18436  1.0000
  Mg  Mg3       1.0  0.33771  0.56391  0.57870  1.0000
  C   C25       1.0  0.14773  0.26917  0.90094  1.0000
  C   C26       1.0  0.23797  0.32345  0.95595  1.0000
  C  Sn7       1.0  0.06952  0.27102  0.04353  1.0000
  C  Sn8       1.0  0.01278  0.29280  0.07649  1.0000
  C   C27       1.0  0.92258  0.23803  0.02099  1.0000
  C   C28       1.0  0.09171  0.29058  0.93343  1.0000
  H   H19       1.0  0.12130  0.21050  0.83325  1.0000
  O  Te7       1.0  0.15984  0.32454  0.09755  1.0000
  O  Te8       1.0  0.04583  0.36826  0.16378  1.0000
  H   H20       1.0  0.02183  0.24854  0.89092  1.0000
  Mg  Mg4       1.0  0.17358  0.42037  0.21168  1.0000
  C   C29       1.0  0.16162  0.32495  0.35398  1.0000
  C   C30       1.0  0.24712  0.36230  0.43366  1.0000
  C  Sn9       1.0  0.27822  0.42328  0.54457  1.0000
  C  Sn10      1.0  0.22253  0.44716  0.57605  1.0000
  C   C31       1.0  0.13709  0.40937  0.49576  1.0000
  C   C32       1.0  0.10665  0.34844  0.38499  1.0000
  H   H21       1.0  0.13804  0.27777  0.26831  1.0000
  O  Te9       1.0  0.36382  0.45999  0.62309  1.0000
  O  Te10      1.0  0.25193  0.50792  0.68635  1.0000
  H   H22       1.0  0.04043  0.31949  0.32336  1.0000
  Mg  Mg5       1.0  0.37383  0.53986  0.76297  1.0000
  C   C33       1.0  0.33899  0.15285  0.11642  1.0000
  C   C34       1.0  0.34237  0.22944  0.14760  1.0000
  C  Sn11      1.0  0.27658  0.22774  0.18972  1.0000
  C  Sn12      1.0  0.20620  0.14779  0.20076  1.0000
  C   C35       1.0  0.20345  0.07153  0.16942  1.0000
  C   C36       1.0  0.26961  0.07397  0.12733  1.0000
  H   H23       1.0  0.39020  0.15473  0.08392  1.0000
  O  Te11      1.0  0.28095  0.30486  0.22042  1.0000
  O  Te12      1.0  0.13959  0.14424  0.24266  1.0000
  H   H24       1.0  0.26701  0.01466  0.10328  1.0000
  Mg  Mg6       1.0  0.17457  0.26673  0.27314  1.0000
  C   C37       1.0  0.46284  0.11903  0.38359  1.0000
  C   C38       1.0  0.48254  0.08230  0.29248  1.0000
  C  Sn13      1.0  0.53193  0.13311  0.21650  1.0000
  C  Sn14      1.0  0.56208  0.22232  0.23226  1.0000
  C   C39       1.0  0.54207  0.25847  0.32374  1.0000
  C   C40       1.0  0.49258  0.20703  0.39923  1.0000
  H   H25       1.0  0.42459  0.07925  0.44205  1.0000
  O  Te13      1.0  0.55100  0.09537  0.12589  1.0000
  O  Te14      1.0  0.61159  0.27460  0.15763  1.0000
  H   H26       1.0  0.47738  0.23550  0.46982  1.0000
  Mg  Mg7       1.0  0.62060  0.19331  0.04699  1.0000
  C   C41       1.0  0.73424  0.33690  0.02094  1.0000
  C   C42       1.0  0.70458  0.38462  0.06965  1.0000
  C  Sn15      1.0  0.76347  0.47051  0.13267  1.0000
  C  Sn16      1.0  0.85370  0.50917  0.14701  1.0000
  C   C43       1.0  0.88271  0.46090  0.09786  1.0000
  C   C44       1.0  0.82321  0.37499  0.03500  1.0000
  H   H27       1.0  0.89148  0.39879  0.97224  1.0000
  O  Te15      1.0  0.73274  0.51726  0.18080  1.0000
  O  Te16      1.0  0.91398  0.59491  0.20954  1.0000
  H   H28       1.0  0.04946  0.46642  0.99722  1.0000
  Mg  Mg8       1.0  0.84030  0.63204  0.25866  1.0000
  C   C45       1.0  0.48714  0.70551  0.75285  1.0000
  C   C46       1.0  0.43390  0.71950  0.80822  1.0000
  C  Sn17      1.0  0.39141  0.66503  0.88719  1.0000
  C  Sn18      1.0  0.40256  0.59534  0.91103  1.0000
  C   C47       1.0  0.45601  0.58193  0.85527  1.0000
  C   C48       1.0  0.49821  0.63681  0.77636  1.0000
  H   H29       1.0  0.51983  0.74799  0.69186  1.0000
  O  Te17      1.0  0.33843  0.67991  0.94170  1.0000
  O  Te18      1.0  0.36088  0.53994  0.98962  1.0000
  H   H30       1.0  0.53947  0.62599  0.73358  1.0000
  Mg  Mg9       1.0  0.09209  0.45833  0.04195  1.0000
  C   C49       1.0  0.30919  0.12839  0.62884  1.0000
  C   C50       1.0  0.22941  0.09477  0.65451  1.0000
  C  Sn19      1.0  0.19929  0.14852  0.67604  1.0000
  C  Sn20      1.0  0.25013  0.23756  0.67168  1.0000
  C   C51       1.0  0.32983  0.27056  0.64583  1.0000
  C   C52       1.0  0.35936  0.21620  0.62448  1.0000
  H   H31       1.0  0.33203  0.08633  0.61225  1.0000
  O  Te19      1.0  0.11945  0.11388  0.70160  1.0000
  O  Te20      1.0  0.22157  0.29273  0.69279  1.0000
  H   H32       1.0  0.42111  0.24224  0.60452  1.0000
  Mg  Mg10      1.0  0.10835  0.21508  0.72399  1.0000
  C   C53       1.0  0.56646  0.20388  0.70075  1.0000
  C   C54       1.0  0.53823  0.23740  0.78201  1.0000
  C  Sn21      1.0  0.49313  0.18764  0.86290  1.0000
  C  Sn22      1.0  0.97665  0.10278  0.86224  1.0000
  C   C55       1.0  0.00521  0.06986  0.78065  1.0000
  C   C56       1.0  0.54971  0.12020  0.70007  1.0000
  H   H33       1.0  0.60135  0.24284  0.63844  1.0000
  O  Te21      1.0  0.46537  0.22212  0.94346  1.0000
  O  Te22      1.0  0.93174  0.05166  0.94214  1.0000
  H   H34       1.0  0.57160  0.09425  0.63722  1.0000
  Mg  Mg11      1.0  0.70387  0.99900  0.03479  1.0000
  C   C57       1.0  0.75953  0.43741  0.47001  1.0000
  C   C58       1.0  0.71101  0.41715  0.55698  1.0000
  C  Sn23      1.0  0.74943  0.42117  0.68567  1.0000
  C  Sn24      1.0  0.83810  0.44598  0.72778  1.0000
  C   C59       1.0  0.88610  0.46619  0.64004  1.0000
  C   C60       1.0  0.84700  0.46193  0.51148  1.0000
  H   H35       1.0  0.72930  0.43416  0.37055  1.0000
  O  Te23      1.0  0.70000  0.40067  0.77128  1.0000
  O  Te24      1.0  0.87813  0.45056  0.85587  1.0000
  H   H36       1.0  0.88460  0.47768  0.44417  1.0000
  Mg  Mg12      1.0  0.78368  0.41647  0.93611  1.0000
