data_image0
_chemical_formula_structural       P6H36C48N18O12SnCSn2CSnTe4Mg2SnCSn2CSnTe4Mg2SnCSn2CSnTe4Mg2SnCSn2CSnTe4Mg2SnCSn2CSnTe4Mg2SnCSn2CSnTe4Mg2
_chemical_formula_sum              "P6 H36 C60 N18 O12 Sn24 Te24 Mg12"
_cell_length_a       18.672
_cell_length_b       18.3257
_cell_length_c       10.9151
_cell_angle_alpha    92.1853
_cell_angle_beta     103.759
_cell_angle_gamma    120.664

_symmetry_space_group_name_H-M    'P1'
_space_group_IT_number       1

loop_
  _space_group_symop_operation_xyz
  'x, y, z'

loop_
  _atom_site_type_symbol
  _atom_site_label
  _atom_site_symmetry_multiplicity
  _atom_site_fract_x
  _atom_site_fract_y
  _atom_site_fract_z
  _atom_site_occupancy
  P   P1        1.0  0.54751  0.38473  0.45461  1.0000
  P   P2        1.0  0.53737  0.52688  0.47304  1.0000
  P   P3        1.0  0.41845  0.36402  0.03982  1.0000
  P   P4        1.0  0.54680  0.37478  0.94775  1.0000
  P   P5        1.0  0.53050  0.51242  0.97299  1.0000
  P   P6        1.0  0.41992  0.38312  0.54111  1.0000
  H   H1        1.0  0.70118  0.42411  0.38800  1.0000
  H   H2        1.0  0.50307  0.98020  0.17013  1.0000
  H   H3        1.0  0.98862  0.31681  0.95161  1.0000
  H   H4        1.0  0.98444  0.88058  0.32976  1.0000
  H   H5        1.0  0.45570  0.20336  0.45548  1.0000
  H   H6        1.0  0.26385  0.28301  0.23175  1.0000
  H   H7        1.0  0.42463  0.05423  0.41343  1.0000
  H   H8        1.0  0.68931  0.66407  0.28742  1.0000
  H   H9        1.0  0.14587  0.13044  0.23023  1.0000
  H   H10       1.0  0.84965  0.77200  0.36961  1.0000
  H   H11       1.0  0.40267  0.18956  0.09138  1.0000
  H   H12       1.0  0.02017  0.53099  0.17755  1.0000
  H   H13       1.0  0.38639  0.81078  0.41591  1.0000
  H   H14       1.0  0.59996  0.27454  0.18153  1.0000
  H   H15       1.0  0.85215  0.45831  0.42199  1.0000
  H   H16       1.0  0.17093  0.28397  0.28612  1.0000
  H   H17       1.0  0.56592  0.12434  0.13456  1.0000
  H   H18       1.0  0.73602  0.60973  0.50876  1.0000
  H   H19       1.0  0.06031  0.31738  0.30004  1.0000
  H   H20       1.0  0.89401  0.72793  0.59850  1.0000
  H   H21       1.0  0.14583  0.94886  0.61311  1.0000
  H   H22       1.0  0.51621  0.97638  0.67228  1.0000
  H   H23       1.0  0.01024  0.38849  0.39551  1.0000
  H   H24       1.0  0.96646  0.94497  0.79605  1.0000
  H   H25       1.0  0.66579  0.75880  0.70855  1.0000
  H   H26       1.0  0.23288  0.49469  0.65801  1.0000
  H   H27       1.0  0.82318  0.87523  0.80157  1.0000
  H   H28       1.0  0.34498  0.46326  0.64214  1.0000
  H   H29       1.0  0.00005  0.47238  0.74121  1.0000
  H   H30       1.0  0.38817  0.80729  0.91213  1.0000
  H   H31       1.0  0.88212  0.45196  0.82433  1.0000
  H   H32       1.0  0.28529  0.03822  0.08223  1.0000
  H   H33       1.0  0.70477  0.65598  0.90047  1.0000
  H   H34       1.0  0.73018  0.41701  0.79059  1.0000
  H   H35       1.0  0.86562  0.76372  0.98235  1.0000
  H   H36       1.0  0.13753  0.93354  0.09129  1.0000
  C   C1        1.0  0.68892  0.65707  0.08968  1.0000
  C   C2        1.0  0.75620  0.66822  0.57240  1.0000
  C   C3        1.0  0.82693  0.74091  0.04863  1.0000
  C   C4        1.0  0.86805  0.77696  0.18087  1.0000
  C   C5        1.0  0.81846  0.74600  0.26702  1.0000
  C   C6        1.0  0.72865  0.68586  0.22191  1.0000
  C   C7        1.0  0.33889  0.24387  0.16395  1.0000
  C   C8        1.0  0.12255  0.34920  0.37547  1.0000
  C   C9        1.0  0.53135  0.24779  0.32247  1.0000
  C   C10       1.0  0.18459  0.33038  0.36668  1.0000
  C   C11       1.0  0.26692  0.22804  0.20190  1.0000
  C   C12       1.0  0.48181  0.18636  0.38852  1.0000
  C   C13       1.0  0.20238  0.14400  0.20043  1.0000
  C   C14       1.0  0.46352  0.10262  0.36322  1.0000
  C   C15       1.0  0.20771  0.07405  0.15657  1.0000
  C   C16       1.0  0.49337  0.07859  0.27165  1.0000
  C   C17       1.0  0.28039  0.09153  0.11691  1.0000
  C   C18       1.0  0.54302  0.14184  0.20670  1.0000
  C   C19       1.0  0.34652  0.17629  0.12113  1.0000
  C   C20       1.0  0.56278  0.22605  0.23251  1.0000
  C   C21       1.0  0.41362  0.80244  0.34169  1.0000
  C   C22       1.0  0.95692  0.85237  0.22685  1.0000
  C   C23       1.0  0.05317  0.37045  0.01006  1.0000
  C   C24       1.0  0.96376  0.47035  0.11691  1.0000
  C   C25       1.0  0.47798  0.99268  0.24435  1.0000
  C   C26       1.0  0.13630  0.98523  0.14264  1.0000
  C   C27       1.0  0.69309  0.68012  0.60081  1.0000
  C   C28       1.0  0.73756  0.68133  0.00268  1.0000
  C   C29       1.0  0.84390  0.73403  0.62314  1.0000
  C   C30       1.0  0.86887  0.81093  0.70201  1.0000
  C   C31       1.0  0.80419  0.81709  0.73786  1.0000
  C   C32       1.0  0.71649  0.75246  0.68697  1.0000
  C   C33       1.0  0.26500  0.37161  0.46264  1.0000
  C   C34       1.0  0.28263  0.43118  0.56756  1.0000
  C   C35       1.0  0.21939  0.44885  0.57618  1.0000
  C   C36       1.0  0.13816  0.40829  0.48002  1.0000
  C   C37       1.0  0.70629  0.41590  0.58719  1.0000
  C   C38       1.0  0.41902  0.79887  0.84349  1.0000
  C   C39       1.0  0.74076  0.43050  0.48329  1.0000
  C   C40       1.0  0.95468  0.88961  0.73263  1.0000
  C   C41       1.0  0.82556  0.45019  0.50262  1.0000
  C   C42       1.0  0.87733  0.45660  0.62489  1.0000
  C   C43       1.0  0.84275  0.44648  0.72896  1.0000
  C   C44       1.0  0.06791  0.42180  0.48057  1.0000
  C   C45       1.0  0.75767  0.42638  0.71088  1.0000
  C   C46       1.0  0.96248  0.46724  0.64369  1.0000
  C   C47       1.0  0.48949  0.98927  0.74372  1.0000
  C   C48       1.0  0.14222  0.00196  0.65451  1.0000
  N   N1        1.0  0.44211  0.86022  0.27068  1.0000
  N   N2        1.0  0.99817  0.88803  0.14470  1.0000
  N   N3        1.0  0.05720  0.43376  0.07684  1.0000
  N   N4        1.0  0.45556  0.33200  0.48108  1.0000
  N   N5        1.0  0.97213  0.41412  0.05654  1.0000
  N   N6        1.0  0.43943  0.93242  0.30742  1.0000
  N   N7        1.0  0.58236  0.48073  0.42884  1.0000
  N   N8        1.0  0.07116  0.96875  0.18486  1.0000
  N   N9        1.0  0.47301  0.46668  0.06668  1.0000
  N   N10       1.0  0.45363  0.85769  0.77642  1.0000
  N   N11       1.0  0.01244  0.89988  0.67624  1.0000
  N   N12       1.0  0.06772  0.46701  0.57509  1.0000
  N   N13       1.0  0.45469  0.31679  0.97192  1.0000
  N   N14       1.0  0.98932  0.46406  0.54556  1.0000
  N   N15       1.0  0.45037  0.93014  0.80794  1.0000
  N   N16       1.0  0.57730  0.47009  0.92349  1.0000
  N   N17       1.0  0.07872  0.98691  0.70012  1.0000
  N   N18       1.0  0.47908  0.48588  0.56751  1.0000
  O   O1        1.0  0.32306  0.34851  0.44442  1.0000
  O   O2        1.0  0.40301  0.33210  0.17186  1.0000
  O   O3        1.0  0.59764  0.61128  0.04446  1.0000
  O   O4        1.0  0.48345  0.53717  0.34224  1.0000
  O   O5        1.0  0.54812  0.33199  0.33385  1.0000
  O   O6        1.0  0.61810  0.37738  0.07046  1.0000
  O   O7        1.0  0.31884  0.32341  0.94965  1.0000
  O   O8        1.0  0.39833  0.35127  0.67072  1.0000
  O   O9        1.0  0.60414  0.62704  0.53823  1.0000
  O   O10       1.0  0.47323  0.52302  0.84623  1.0000
  O   O11       1.0  0.55271  0.32628  0.82736  1.0000
  O   O12       1.0  0.61848  0.38520  0.57499  1.0000
  C  Sn1       1.0  0.45551  0.69472  0.21856  1.0000
  C   C49       1.0  0.41052  0.71114  0.28986  1.0000
  C  Sn2       1.0  0.39485  0.67318  0.39690  1.0000
  C  Sn3       1.0  0.42482  0.61770  0.43348  1.0000
  C   C50       1.0  0.46980  0.60132  0.36222  1.0000
  C  Sn4       1.0  0.48549  0.63924  0.25515  1.0000
  O  Te1       1.0  0.47045  0.73337  0.11191  1.0000
  O  Te2       1.0  0.34969  0.69054  0.46665  1.0000
  O  Te3       1.0  0.40985  0.57905  0.54023  1.0000
  O  Te4       1.0  0.53063  0.62192  0.18543  1.0000
  Mg  Mg1       1.0  0.34539  0.62261  0.60454  1.0000
  Mg  Mg2       1.0  0.53500  0.68985  0.04757  1.0000
  C  Sn5       1.0  0.84348  0.50390  0.18515  1.0000
  C   C51       1.0  0.87204  0.45268  0.14454  1.0000
  C  Sn6       1.0  0.81364  0.37563  0.05527  1.0000
  C  Sn7       1.0  0.72484  0.34925  0.00548  1.0000
  C   C52       1.0  0.69633  0.40045  0.04608  1.0000
  C  Sn8       1.0  0.75469  0.47751  0.13537  1.0000
  O  Te5       1.0  0.90301  0.58067  0.27447  1.0000
  O  Te6       1.0  0.84371  0.32550  0.01614  1.0000
  O  Te7       1.0  0.86858  0.40074  0.91610  1.0000
  O  Te8       1.0  0.72466  0.52763  0.17447  1.0000
  Mg  Mg3       1.0  0.94089  0.35460  0.89248  1.0000
  Mg  Mg4       1.0  0.83070  0.62690  0.29807  1.0000
  C  Sn9       1.0  0.15676  0.28922  0.87590  1.0000
  C   C53       1.0  0.24583  0.34003  0.94217  1.0000
  C  Sn10      1.0  0.07280  0.27284  0.05242  1.0000
  C  Sn11      1.0  0.01275  0.28339  0.09744  1.0000
  C   C54       1.0  0.92374  0.23259  0.03120  1.0000
  C  Sn12      1.0  0.09671  0.29977  0.92092  1.0000
  O  Te9       1.0  0.12798  0.22849  0.76590  1.0000
  O  Te10      1.0  0.16215  0.32290  0.11702  1.0000
  O  Te11      1.0  0.04161  0.34419  0.20753  1.0000
  O  Te12      1.0  0.00742  0.24972  0.85635  1.0000
  Mg  Mg5       1.0  0.16952  0.39699  0.26234  1.0000
  Mg  Mg6       1.0  0.99997  0.17558  0.71106  1.0000
  C  Sn13      1.0  0.50648  0.17034  0.91153  1.0000
  C   C55       1.0  0.54630  0.23781  0.84711  1.0000
  C  Sn14      1.0  0.55880  0.22173  0.73025  1.0000
  C  Sn15      1.0  0.53088  0.13644  0.67662  1.0000
  C   C56       1.0  0.99164  0.06903  0.74101  1.0000
  C  Sn16      1.0  0.97912  0.08505  0.85789  1.0000
  O  Te13      1.0  0.29137  0.05956  0.02823  1.0000
  O  Te14      1.0  0.59879  0.29024  0.66765  1.0000
  O  Te15      1.0  0.54276  0.11892  0.55982  1.0000
  O  Te16      1.0  0.93915  0.01660  0.92047  1.0000
  Mg  Mg7       1.0  0.60042  0.23373  0.51098  1.0000
  Mg  Mg8       1.0  0.73417  0.94468  0.07710  1.0000
  C  Sn17      1.0  0.24651  0.22938  0.71322  1.0000
  C   C57       1.0  0.32878  0.26240  0.69650  1.0000
  C  Sn18      1.0  0.34931  0.20727  0.64401  1.0000
  C  Sn19      1.0  0.28628  0.11726  0.60739  1.0000
  C   C58       1.0  0.20406  0.08428  0.62409  1.0000
  C  Sn20      1.0  0.18347  0.13937  0.67660  1.0000
  O  Te17      1.0  0.22740  0.28569  0.76588  1.0000
  O  Te18      1.0  0.43201  0.24180  0.62827  1.0000
  O  Te19      1.0  0.80601  0.06095  0.55470  1.0000
  O  Te20      1.0  0.10083  0.10489  0.69232  1.0000
  Mg  Mg9       1.0  0.42702  0.13887  0.55224  1.0000
  Mg  Mg10      1.0  0.10573  0.20776  0.76828  1.0000
  C  Sn21      1.0  0.45977  0.68849  0.72573  1.0000
  C   C59       1.0  0.41348  0.70611  0.79272  1.0000
  C  Sn22      1.0  0.39192  0.66607  0.89609  1.0000
  C  Sn23      1.0  0.41720  0.60724  0.93334  1.0000
  C   C60       1.0  0.46347  0.58966  0.86638  1.0000
  C  Sn24      1.0  0.48505  0.62966  0.76298  1.0000
  O  Te21      1.0  0.48062  0.72926  0.62269  1.0000
  O  Te22      1.0  0.34558  0.68469  0.96156  1.0000
  O  Te23      1.0  0.19302  0.43812  0.03646  1.0000
  O  Te24      1.0  0.53137  0.61109  0.69754  1.0000
  Mg  Mg11      1.0  0.12921  0.48455  0.09559  1.0000
  Mg  Mg12      1.0  0.54453  0.68287  0.56355  1.0000
