data_image0
_chemical_formula_structural       P6H48C66N18O12SnCSn2CSnTe4Mg2SnCSn2CSnTe4Mg2SnCSn2CSnTe4Mg2SnCSn2CSnTe4Mg2SnCSn2CSnTe4Mg2SnCSn2CSnTe4Mg2SnCSn2CSnTe4Mg2SnCSn2CSnTe4Mg2SnCSn2CSnTe4Mg2
_chemical_formula_sum              "P6 H48 C84 N18 O12 Sn36 Te36 Mg18"
_cell_length_a       23.0352
_cell_length_b       22.4875
_cell_length_c       8.81206
_cell_angle_alpha    89.2846
_cell_angle_beta     83.49
_cell_angle_gamma    117.268

_symmetry_space_group_name_H-M    'P1'
_space_group_IT_number       1

loop_
  _space_group_symop_operation_xyz
  'x, y, z'

loop_
  _atom_site_type_symbol
  _atom_site_label
  _atom_site_symmetry_multiplicity
  _atom_site_fract_x
  _atom_site_fract_y
  _atom_site_fract_z
  _atom_site_occupancy
  P   P1        1.0  0.29731  0.37374  0.51586  1.0000
  P   P2        1.0  0.30783  0.26814  0.51372  1.0000
  P   P3        1.0  0.44122  0.43048  0.47862  1.0000
  P   P4        1.0  0.30503  0.37821  0.01812  1.0000
  P   P5        1.0  0.31050  0.26954  0.00935  1.0000
  P   P6        1.0  0.44893  0.43211  0.96392  1.0000
  H   H1        1.0  0.07207  0.40311  0.31548  1.0000
  H   H2        1.0  0.04297  0.24615  0.13905  1.0000
  H   H3        1.0  0.16170  0.27489  0.09526  1.0000
  H   H4        1.0  0.68217  0.79280  0.91462  1.0000
  H   H5        1.0  0.72921  0.37421  0.26168  1.0000
  H   H6        1.0  0.73724  0.24730  0.07721  1.0000
  H   H7        1.0  0.54681  0.73273  0.42084  1.0000
  H   H8        1.0  0.84476  0.24648  0.07849  1.0000
  H   H9        1.0  0.45244  0.62208  0.39412  1.0000
  H   H10       1.0  0.93142  0.43232  0.31952  1.0000
  H   H11       1.0  0.82309  0.43309  0.33697  1.0000
  H   H12       1.0  0.98866  0.98046  0.23265  1.0000
  H   H13       1.0  0.29525  0.13295  0.40789  1.0000
  H   H14       1.0  0.95218  0.27661  0.11106  1.0000
  H   H15       1.0  0.34373  0.05477  0.36656  1.0000
  H   H16       1.0  0.30662  0.70223  0.49145  1.0000
  H   H17       1.0  0.50204  0.86859  0.13038  1.0000
  H   H18       1.0  0.50676  0.98019  0.09569  1.0000
  H   H19       1.0  0.03465  0.11337  0.91101  1.0000
  H   H20       1.0  0.10541  0.03636  0.25716  1.0000
  H   H21       1.0  0.21992  0.12262  0.16782  1.0000
  H   H22       1.0  0.18970  0.42548  0.25993  1.0000
  H   H23       1.0  0.48230  0.06083  0.09704  1.0000
  H   H24       1.0  0.08114  0.41651  0.84107  1.0000
  H   H25       1.0  0.04061  0.26040  0.68459  1.0000
  H   H26       1.0  0.15808  0.28395  0.63140  1.0000
  H   H27       1.0  0.65692  0.80000  0.46841  1.0000
  H   H28       1.0  0.75189  0.40697  0.75794  1.0000
  H   H29       1.0  0.79747  0.79105  0.75584  1.0000
  H   H30       1.0  0.89732  0.89733  0.77356  1.0000
  H   H31       1.0  0.56466  0.52341  0.51454  1.0000
  H   H32       1.0  0.85540  0.98562  0.39096  1.0000
  H   H33       1.0  0.65871  0.63478  0.54583  1.0000
  H   H34       1.0  0.75425  0.87920  0.37560  1.0000
  H   H35       1.0  0.73588  0.25381  0.63960  1.0000
  H   H36       1.0  0.84417  0.25420  0.62603  1.0000
  H   H37       1.0  0.94350  0.44282  0.84262  1.0000
  H   H38       1.0  0.83681  0.44527  0.84924  1.0000
  H   H39       1.0  0.99111  0.97011  0.69757  1.0000
  H   H40       1.0  0.94979  0.28499  0.63609  1.0000
  H   H41       1.0  0.31678  0.70869  0.02032  1.0000
  H   H42       1.0  0.48263  0.15818  0.67783  1.0000
  H   H43       1.0  0.43319  0.23622  0.72100  1.0000
  H   H44       1.0  0.15091  0.20105  0.82162  1.0000
  H   H45       1.0  0.35325  0.89890  0.80773  1.0000
  H   H46       1.0  0.34987  0.78710  0.83924  1.0000
  H   H47       1.0  0.20090  0.44485  0.79477  1.0000
  H   H48       1.0  0.46410  0.04575  0.60615  1.0000
  C   C1        1.0  0.09129  0.37703  0.38293  1.0000
  C   C2        1.0  0.04827  0.33013  0.50279  1.0000
  C   C3        1.0  0.07709  0.28977  0.06298  1.0000
  C   C4        1.0  0.13874  0.30921  0.56218  1.0000
  C   C5        1.0  0.67402  0.75182  0.99750  1.0000
  C   C6        1.0  0.69504  0.35990  0.36917  1.0000
  C   C7        1.0  0.50251  0.56615  0.45179  1.0000
  C   C8        1.0  0.36032  0.18720  0.57193  1.0000
  C   C9        1.0  0.77864  0.34435  0.95587  1.0000
  C   C10       1.0  0.19152  0.16577  0.98788  1.0000
  C   C11       1.0  0.17991  0.35589  0.44278  1.0000
  C   C12       1.0  0.78277  0.28974  0.02517  1.0000
  C   C13       1.0  0.55117  0.68709  0.44056  1.0000
  C   C14       1.0  0.84324  0.28970  0.02605  1.0000
  C   C15       1.0  0.49793  0.62531  0.42529  1.0000
  C   C16       1.0  0.90214  0.34484  0.95760  1.0000
  C   C17       1.0  0.89786  0.40021  0.89330  1.0000
  C   C18       1.0  0.83795  0.40081  0.89534  1.0000
  C   C19       1.0  0.99582  0.01375  0.13203  1.0000
  C   C20       1.0  0.33572  0.13794  0.46756  1.0000
  C   C21       1.0  0.98465  0.31590  0.02122  1.0000
  C   C22       1.0  0.36333  0.09492  0.44294  1.0000
  C   C23       1.0  0.34945  0.69845  0.52506  1.0000
  C   C24       1.0  0.41551  0.10037  0.52082  1.0000
  C   C25       1.0  0.46974  0.87578  0.05953  1.0000
  C   C26       1.0  0.13961  0.16477  0.91718  1.0000
  C   C27       1.0  0.07550  0.11652  0.96743  1.0000
  C   C28       1.0  0.06215  0.06882  0.08891  1.0000
  C   C29       1.0  0.11481  0.07202  0.16125  1.0000
  C   C30       1.0  0.17954  0.12025  0.11124  1.0000
  C   C31       1.0  0.15635  0.38948  0.35219  1.0000
  C   C32       1.0  0.43529  0.04724  0.51603  1.0000
  C   C33       1.0  0.09942  0.38605  0.89576  1.0000
  C   C34       1.0  0.05393  0.32989  0.99343  1.0000
  C   C35       1.0  0.07289  0.29636  0.59057  1.0000
  C   C36       1.0  0.14379  0.30530  0.03919  1.0000
  C   C37       1.0  0.66390  0.75662  0.50206  1.0000
  C   C38       1.0  0.71072  0.37799  0.84821  1.0000
  C   C39       1.0  0.76864  0.82723  0.56558  1.0000
  C   C40       1.0  0.77088  0.34110  0.48315  1.0000
  C   C41       1.0  0.81046  0.83414  0.67684  1.0000
  C   C42       1.0  0.86680  0.89395  0.68527  1.0000
  C   C43       1.0  0.18746  0.36190  0.94405  1.0000
  C   C44       1.0  0.88468  0.94898  0.57884  1.0000
  C   C45       1.0  0.56072  0.56919  0.49450  1.0000
  C   C46       1.0  0.84131  0.94309  0.47260  1.0000
  C   C47       1.0  0.61347  0.63122  0.51088  1.0000
  C   C48       1.0  0.78447  0.88341  0.46508  1.0000
  C   C49       1.0  0.60979  0.69118  0.48355  1.0000
  C   C50       1.0  0.77887  0.29245  0.56874  1.0000
  C   C51       1.0  0.83987  0.29320  0.56131  1.0000
  C   C52       1.0  0.89570  0.34351  0.46941  1.0000
  C   C53       1.0  0.88796  0.39325  0.38820  1.0000
  C   C54       1.0  0.82733  0.39293  0.39673  1.0000
  C   C55       1.0  0.99447  0.01114  0.62201  1.0000
  C   C56       1.0  0.98003  0.31878  0.53532  1.0000
  C   C57       1.0  0.36097  0.70406  0.03981  1.0000
  C   C58       1.0  0.44212  0.15307  0.61721  1.0000
  C   C59       1.0  0.42248  0.81916  0.99702  1.0000
  C   C60       1.0  0.41502  0.19682  0.64240  1.0000
  C   C61       1.0  0.47192  0.93823  0.03994  1.0000
  C   C62       1.0  0.42731  0.94643  0.95502  1.0000
  C   C63       1.0  0.38477  0.89115  0.88020  1.0000
  C   C64       1.0  0.38224  0.82868  0.90021  1.0000
  C   C65       1.0  0.16551  0.40183  0.87031  1.0000
  C   C66       1.0  0.44484  0.05454  0.02295  1.0000
  N   N1        1.0  0.36642  0.38651  0.39981  1.0000
  N   N2        1.0  0.27678  0.30777  0.11207  1.0000
  N   N3        1.0  0.36756  0.32054  0.39121  1.0000
  N   N4        1.0  0.71569  0.75933  0.09178  1.0000
  N   N5        1.0  0.71610  0.34106  0.95425  1.0000
  N   N6        1.0  0.94876  0.00343  0.05197  1.0000
  N   N7        1.0  0.96584  0.35136  0.94291  1.0000
  N   N8        1.0  0.40569  0.75086  0.52673  1.0000
  N   N9        1.0  0.41311  0.00094  0.42115  1.0000
  N   N10       1.0  0.37172  0.38764  0.89662  1.0000
  N   N11       1.0  0.27187  0.30481  0.61493  1.0000
  N   N12       1.0  0.36901  0.32032  0.88203  1.0000
  N   N13       1.0  0.71596  0.76351  0.55814  1.0000
  N   N14       1.0  0.70822  0.33787  0.49075  1.0000
  N   N15       1.0  0.94503  0.00800  0.55955  1.0000
  N   N16       1.0  0.95937  0.34979  0.44849  1.0000
  N   N17       1.0  0.41791  0.75624  0.03479  1.0000
  N   N18       1.0  0.41741  0.00319  0.94333  1.0000
  O   O1        1.0  0.49234  0.43090  0.32532  1.0000
  O   O2        1.0  0.44807  0.50708  0.42932  1.0000
  O   O3        1.0  0.25516  0.21154  0.92109  1.0000
  O   O4        1.0  0.33121  0.22753  0.12179  1.0000
  O   O5        1.0  0.32245  0.43836  0.12727  1.0000
  O   O6        1.0  0.24707  0.37336  0.40269  1.0000
  O   O7        1.0  0.49749  0.43290  0.80650  1.0000
  O   O8        1.0  0.45305  0.50777  0.91741  1.0000
  O   O9        1.0  0.25338  0.21078  0.42216  1.0000
  O   O10       1.0  0.32836  0.22489  0.62257  1.0000
  O   O11       1.0  0.30949  0.43337  0.62332  1.0000
  O   O12       1.0  0.25559  0.38351  0.91115  1.0000
  C  Sn1       1.0  0.65832  0.46414  0.80396  1.0000
  C   C67       1.0  0.65556  0.40416  0.85851  1.0000
  C  Sn2       1.0  0.59541  0.34574  0.88472  1.0000
  C  Sn3       1.0  0.53678  0.34729  0.85573  1.0000
  C   C68       1.0  0.53955  0.40724  0.80120  1.0000
  C  Sn4       1.0  0.59969  0.46569  0.77497  1.0000
  O  Te1       1.0  0.71900  0.52194  0.77856  1.0000
  O  Te2       1.0  0.59389  0.28637  0.93932  1.0000
  O  Te3       1.0  0.47607  0.28942  0.88119  1.0000
  O  Te4       1.0  0.60122  0.52502  0.72039  1.0000
  Mg  Mg1       1.0  0.49933  0.22077  0.95601  1.0000
  Mg  Mg2       1.0  0.69575  0.59064  0.70358  1.0000
  C  Sn5       1.0  0.35529  0.86759  0.41238  1.0000
  C   C69       1.0  0.40207  0.92838  0.45794  1.0000
  C  Sn6       1.0  0.46042  0.93374  0.50287  1.0000
  C  Sn7       1.0  0.47229  0.87717  0.50215  1.0000
  C   C70       1.0  0.42554  0.81643  0.45658  1.0000
  C  Sn8       1.0  0.36717  0.81102  0.41166  1.0000
  O  Te5       1.0  0.29731  0.86338  0.36791  1.0000
  O  Te6       1.0  0.05918  0.99503  0.54800  1.0000
  O  Te7       1.0  0.53033  0.88143  0.54667  1.0000
  O  Te8       1.0  0.32118  0.74977  0.36652  1.0000
  Mg  Mg3       1.0  0.57798  0.97574  0.59860  1.0000
  Mg  Mg4       1.0  0.24963  0.76901  0.31582  1.0000
  C  Sn9       1.0  0.78547  0.89764  0.01363  1.0000
  C   C71       1.0  0.77516  0.83238  0.04758  1.0000
  C  Sn10      1.0  0.82293  0.82147  0.10966  1.0000
  C  Sn11      1.0  0.88223  0.87693  0.13851  1.0000
  C   C72       1.0  0.89251  0.94214  0.10460  1.0000
  C  Sn12      1.0  0.84477  0.95311  0.04248  1.0000
  O  Te9       1.0  0.67937  0.87542  0.95162  1.0000
  O  Te10      1.0  0.81152  0.75577  0.14260  1.0000
  O  Te11      1.0  0.93068  0.86714  0.20056  1.0000
  O  Te12      1.0  0.40889  0.01876  0.00957  1.0000
  Mg  Mg5       1.0  0.89232  0.76826  0.22604  1.0000
  Mg  Mg6       1.0  0.27046  0.97437  0.92620  1.0000
  C  Sn13      1.0  0.55941  0.32959  0.45291  1.0000
  C   C73       1.0  0.61949  0.35258  0.35799  1.0000
  C  Sn14      1.0  0.64158  0.40856  0.25471  1.0000
  C  Sn15      1.0  0.60284  0.44230  0.24618  1.0000
  C   C74       1.0  0.54281  0.41931  0.34107  1.0000
  C  Sn16      1.0  0.52067  0.36333  0.44437  1.0000
  O  Te13      1.0  0.53830  0.27353  0.55531  1.0000
  O  Te14      1.0  0.70180  0.43059  0.16097  1.0000
  O  Te15      1.0  0.62401  0.49840  0.14366  1.0000
  O  Te16      1.0  0.46050  0.34130  0.53809  1.0000
  Mg  Mg7       1.0  0.70950  0.50926  0.03999  1.0000
  Mg  Mg8       1.0  0.45277  0.26267  0.65916  1.0000
  C  Sn17      1.0  0.28747  0.52770  0.46694  1.0000
  C   C75       1.0  0.32001  0.50271  0.55273  1.0000
  C  Sn18      1.0  0.35889  0.54140  0.66001  1.0000
  C  Sn19      1.0  0.36535  0.60641  0.68208  1.0000
  C   C76       1.0  0.33281  0.63137  0.59635  1.0000
  C  Sn20      1.0  0.29393  0.59271  0.48902  1.0000
  O  Te17      1.0  0.24886  0.48815  0.36033  1.0000
  O  Te18      1.0  0.39096  0.51534  0.74438  1.0000
  O  Te19      1.0  0.40400  0.64596  0.78880  1.0000
  O  Te20      1.0  0.26186  0.61873  0.40470  1.0000
  Mg  Mg9       1.0  0.43795  0.58840  0.87605  1.0000
  Mg  Mg10      1.0  0.21483  0.54571  0.27306  1.0000
  C  Sn21      1.0  0.43897  0.16455  0.15634  1.0000
  C   C77       1.0  0.41792  0.10699  0.07487  1.0000
  C  Sn22      1.0  0.31334  0.06169  0.97536  1.0000
  C  Sn23      1.0  0.28694  0.10684  0.95681  1.0000
  C   C78       1.0  0.36566  0.19632  0.03823  1.0000
  C  Sn24      1.0  0.41257  0.20970  0.13779  1.0000
  O  Te21      1.0  0.48593  0.17688  0.25519  1.0000
  O  Te22      1.0  0.29304  0.00381  0.89519  1.0000
  O  Te23      1.0  0.23995  0.09446  0.85787  1.0000
  O  Te24      1.0  0.43288  0.26755  0.21791  1.0000
  Mg  Mg11      1.0  0.22798  0.00894  0.77391  1.0000
  Mg  Mg12      1.0  0.49796  0.26248  0.33915  1.0000
  C  Sn25      1.0  0.12865  0.07908  0.66496  1.0000
  C   C79       1.0  0.07036  0.07672  0.62712  1.0000
  C  Sn26      1.0  0.07204  0.11782  0.50476  1.0000
  C  Sn27      1.0  0.13325  0.16218  0.41834  1.0000
  C   C80       1.0  0.19148  0.16452  0.45617  1.0000
  C  Sn28      1.0  0.18985  0.12344  0.57854  1.0000
  O  Te25      1.0  0.12580  0.03753  0.78775  1.0000
  O  Te26      1.0  0.01313  0.11458  0.46914  1.0000
  O  Te27      1.0  0.13605  0.20374  0.29548  1.0000
  O  Te28      1.0  0.24872  0.12665  0.61415  1.0000
  Mg  Mg13      1.0  0.04249  0.18110  0.29150  1.0000
  Mg  Mg14      1.0  0.21941  0.06013  0.79171  1.0000
  C  Sn29      1.0  0.54391  0.63493  0.81847  1.0000
  C   C81       1.0  0.52115  0.57293  0.89987  1.0000
  C  Sn30      1.0  0.60009  0.60103  0.04022  1.0000
  C  Sn31      1.0  0.64502  0.66037  0.10054  1.0000
  C   C82       1.0  0.66775  0.72232  0.01918  1.0000
  C  Sn32      1.0  0.58885  0.69428  0.87879  1.0000
  O  Te29      1.0  0.52198  0.63761  0.67837  1.0000
  O  Te30      1.0  0.57666  0.53847  0.11948  1.0000
  O  Te31      1.0  0.66695  0.65765  0.24076  1.0000
  O  Te32      1.0  0.61224  0.75679  0.79957  1.0000
  Mg  Mg15      1.0  0.62094  0.56071  0.30582  1.0000
  Mg  Mg16      1.0  0.56797  0.73461  0.61326  1.0000
  C  Sn33      1.0  0.27532  0.56478  0.08418  1.0000
  C   C83       1.0  0.33045  0.62329  0.11218  1.0000
  C  Sn34      1.0  0.38948  0.62213  0.12938  1.0000
  C  Sn35      1.0  0.39350  0.56123  0.11829  1.0000
  C   C84       1.0  0.33840  0.50276  0.09029  1.0000
  C  Sn36      1.0  0.27935  0.50387  0.07309  1.0000
  O  Te33      1.0  0.21682  0.56710  0.06736  1.0000
  O  Te34      1.0  0.44392  0.68127  0.15735  1.0000
  O  Te35      1.0  0.45207  0.55895  0.13515  1.0000
  O  Te36      1.0  0.22493  0.44478  0.04511  1.0000
  Mg  Mg17      1.0  0.51271  0.65264  0.17184  1.0000
  Mg  Mg18      1.0  0.15614  0.47336  0.03052  1.0000
