data_image0
_chemical_formula_structural       P6H84C96N18O12SnCSn2CSnTe4Mg2SnCSn2CSnTe4Mg2SnCSn2CSnTe4Mg2SnCSn2CSnTe4Mg2SnCSn2CSnTe4Mg2SnCSn2CSnTe4Mg2SnCSn2CSnTe4Mg2SnCSn2CSnTe4Mg2SnCSn2CSnTe4Mg2SnCSn2CSnTe4Mg2SnCSn2CSnTe4Mg2SnCSn2CSnTe4Mg2
_chemical_formula_sum              "P6 H84 C120 N18 O12 Sn48 Te48 Mg24"
_cell_length_a       26.9726
_cell_length_b       27.0979
_cell_length_c       9.83657
_cell_angle_alpha    90.0895
_cell_angle_beta     108.474
_cell_angle_gamma    120.47

_symmetry_space_group_name_H-M    'P1'
_space_group_IT_number       1

loop_
  _space_group_symop_operation_xyz
  'x, y, z'

loop_
  _atom_site_type_symbol
  _atom_site_label
  _atom_site_symmetry_multiplicity
  _atom_site_fract_x
  _atom_site_fract_y
  _atom_site_fract_z
  _atom_site_occupancy
  P   P1        1.0  0.43734  0.29923  0.56822  1.0000
  P   P2        1.0  0.53258  0.30944  0.50145  1.0000
  P   P3        1.0  0.50622  0.36955  0.05554  1.0000
  P   P4        1.0  0.41810  0.26135  0.06215  1.0000
  P   P5        1.0  0.51622  0.27699  0.99577  1.0000
  P   P6        1.0  0.52306  0.40389  0.53648  1.0000
  H   H1        1.0  0.97878  0.27990  0.26826  1.0000
  H   H2        1.0  0.82381  0.39266  0.48374  1.0000
  H   H3        1.0  0.35867  0.92704  0.37275  1.0000
  H   H4        1.0  0.33499  0.85058  0.87105  1.0000
  H   H5        1.0  0.39061  0.92417  0.96737  1.0000
  H   H6        1.0  0.08007  0.24642  0.04580  1.0000
  H   H7        1.0  0.37437  0.74341  0.28179  1.0000
  H   H8        1.0  0.99187  0.82939  0.28416  1.0000
  H   H9        1.0  0.10557  0.43956  0.13263  1.0000
  H   H10       1.0  0.91955  0.58300  0.24618  1.0000
  H   H11       1.0  0.99614  0.64629  0.32684  1.0000
  H   H12       1.0  0.93484  0.63933  0.37392  1.0000
  H   H13       1.0  0.17424  0.88492  0.13946  1.0000
  H   H14       1.0  0.55811  0.06114  0.36295  1.0000
  H   H15       1.0  0.90748  0.40755  0.04841  1.0000
  H   H16       1.0  0.41681  0.60590  0.38882  1.0000
  H   H17       1.0  0.08603  0.93473  0.17652  1.0000
  H   H18       1.0  0.01513  0.91648  0.18955  1.0000
  H   H19       1.0  0.08479  0.98498  0.28846  1.0000
  H   H20       1.0  0.51812  0.98385  0.16951  1.0000
  H   H21       1.0  0.51932  0.89366  0.15152  1.0000
  H   H22       1.0  0.37820  0.79711  0.83748  1.0000
  H   H23       1.0  0.99783  0.25295  0.08803  1.0000
  H   H24       1.0  0.02594  0.72358  0.20050  1.0000
  H   H25       1.0  0.00059  0.41734  0.02773  1.0000
  H   H26       1.0  0.38024  0.65565  0.28473  1.0000
  H   H27       1.0  0.55795  0.84361  0.27401  1.0000
  H   H28       1.0  0.12925  0.26362  0.87826  1.0000
  H   H29       1.0  0.83204  0.69071  0.37871  1.0000
  H   H30       1.0  0.91949  0.77817  0.34784  1.0000
  H   H31       1.0  0.20319  0.45002  0.97180  1.0000
  H   H32       1.0  0.20784  0.48810  0.12766  1.0000
  H   H33       1.0  0.24497  0.44789  0.14794  1.0000
  H   H34       1.0  0.09263  0.78967  0.15804  1.0000
  H   H35       1.0  0.56534  0.72573  0.16700  1.0000
  H   H36       1.0  0.61260  0.80036  0.25871  1.0000
  H   H37       1.0  0.60119  0.74326  0.35927  1.0000
  H   H38       1.0  0.89774  0.23217  0.35267  1.0000
  H   H39       1.0  0.87745  0.27935  0.41068  1.0000
  H   H40       1.0  0.82758  0.22748  0.24560  1.0000
  H   H41       1.0  0.77343  0.63770  0.07181  1.0000
  H   H42       1.0  0.18564  0.98335  0.19231  1.0000
  H   H43       1.0  0.99014  0.30634  0.74600  1.0000
  H   H44       1.0  0.83819  0.40253  0.12756  1.0000
  H   H45       1.0  0.35228  0.90983  0.77642  1.0000
  H   H46       1.0  0.36573  0.87679  0.48302  1.0000
  H   H47       1.0  0.42019  0.95317  0.54243  1.0000
  H   H48       1.0  0.09785  0.27184  0.55206  1.0000
  H   H49       1.0  0.41201  0.74486  0.96377  1.0000
  H   H50       1.0  0.95673  0.80741  0.82415  1.0000
  H   H51       1.0  0.11089  0.46085  0.57405  1.0000
  H   H52       1.0  0.93323  0.60220  0.67475  1.0000
  H   H53       1.0  0.01030  0.66223  0.77254  1.0000
  H   H54       1.0  0.94818  0.65030  0.82433  1.0000
  H   H55       1.0  0.18535  0.93944  0.71882  1.0000
  H   H56       1.0  0.52062  0.02660  0.70223  1.0000
  H   H57       1.0  0.92511  0.43880  0.53162  1.0000
  H   H58       1.0  0.40708  0.57700  0.94959  1.0000
  H   H59       1.0  0.06222  0.92699  0.70998  1.0000
  H   H60       1.0  0.98429  0.88398  0.70128  1.0000
  H   H61       1.0  0.03929  0.95010  0.83328  1.0000
  H   H62       1.0  0.56531  0.97483  0.82258  1.0000
  H   H63       1.0  0.55823  0.88025  0.80833  1.0000
  H   H64       1.0  0.40931  0.82865  0.42027  1.0000
  H   H65       1.0  0.01597  0.27866  0.59618  1.0000
  H   H66       1.0  0.04590  0.74690  0.67202  1.0000
  H   H67       1.0  0.01220  0.44082  0.49410  1.0000
  H   H68       1.0  0.41060  0.65415  0.97241  1.0000
  H   H69       1.0  0.51627  0.79076  0.68159  1.0000
  H   H70       1.0  0.13878  0.28106  0.36196  1.0000
  H   H71       1.0  0.80877  0.64968  0.89056  1.0000
  H   H72       1.0  0.89184  0.73234  0.83697  1.0000
  H   H73       1.0  0.20827  0.50826  0.54571  1.0000
  H   H74       1.0  0.24993  0.47211  0.57537  1.0000
  H   H75       1.0  0.19947  0.46274  0.39768  1.0000
  H   H76       1.0  0.10615  0.83991  0.71833  1.0000
  H   H77       1.0  0.50720  0.65353  0.63178  1.0000
  H   H78       1.0  0.53820  0.72568  0.59461  1.0000
  H   H79       1.0  0.57644  0.71198  0.75995  1.0000
  H   H80       1.0  0.84629  0.24537  0.69792  1.0000
  H   H81       1.0  0.91458  0.26858  0.85361  1.0000
  H   H82       1.0  0.86839  0.29874  0.84542  1.0000
  H   H83       1.0  0.79994  0.67327  0.57076  1.0000
  H   H84       1.0  0.25372  0.99786  0.59932  1.0000
  C   C1        1.0  0.47286  0.69933  0.28287  1.0000
  C   C2        1.0  0.86937  0.64088  0.07939  1.0000
  C   C3        1.0  0.52270  0.75285  0.27443  1.0000
  C   C4        1.0  0.51886  0.80227  0.27627  1.0000
  C   C5        1.0  0.46682  0.80089  0.28268  1.0000
  C   C6        1.0  0.41659  0.74673  0.28438  1.0000
  C   C7        1.0  0.41978  0.69712  0.28496  1.0000
  C   C8        1.0  0.93173  0.65986  0.16131  1.0000
  C   C9        1.0  0.97844  0.70798  0.13094  1.0000
  C   C10       1.0  0.96655  0.73733  0.01863  1.0000
  C   C11       1.0  0.92868  0.75298  0.42669  1.0000
  C   C12       1.0  0.87927  0.70437  0.44561  1.0000
  C   C13       1.0  0.17627  0.29381  0.95845  1.0000
  C   C14       1.0  0.13925  0.33908  0.06181  1.0000
  C   C15       1.0  0.14637  0.39432  0.08654  1.0000
  C   C16       1.0  0.09943  0.39696  0.11147  1.0000
  C   C17       1.0  0.04572  0.34682  0.11526  1.0000
  C   C18       1.0  0.03939  0.29249  0.08868  1.0000
  C   C19       1.0  0.08503  0.28866  0.06218  1.0000
  C   C20       1.0  0.99614  0.34849  0.14435  1.0000
  C   C21       1.0  0.97689  0.38641  0.08941  1.0000
  C   C22       1.0  0.92424  0.38079  0.10120  1.0000
  C   C23       1.0  0.88950  0.33776  0.16998  1.0000
  C   C24       1.0  0.91044  0.30154  0.23349  1.0000
  C   C25       1.0  0.96286  0.30766  0.21904  1.0000
  C   C26       1.0  0.81148  0.35797  0.14617  1.0000
  C   C27       1.0  0.49639  0.89933  0.21784  1.0000
  C   C28       1.0  0.49603  0.95032  0.22826  1.0000
  C   C29       1.0  0.46386  0.95781  0.30641  1.0000
  C   C30       1.0  0.42936  0.91194  0.37025  1.0000
  C   C31       1.0  0.43228  0.86212  0.36255  1.0000
  C   C32       1.0  0.51439  0.05854  0.34580  1.0000
  C   C33       1.0  0.46529  0.85448  0.28744  1.0000
  C   C34       1.0  0.07963  0.81364  0.08129  1.0000
  C   C35       1.0  0.12610  0.86756  0.07134  1.0000
  C   C36       1.0  0.11190  0.90064  0.97439  1.0000
  C   C37       1.0  0.07751  0.91077  0.38068  1.0000
  C   C38       1.0  0.03399  0.85342  0.38103  1.0000
  C   C39       1.0  0.19329  0.99397  0.08988  1.0000
  C   C40       1.0  0.01695  0.79093  0.99658  1.0000
  C   C41       1.0  0.57879  0.75608  0.26489  1.0000
  C   C42       1.0  0.37213  0.89321  0.86560  1.0000
  C   C43       1.0  0.20364  0.44833  0.08398  1.0000
  C   C44       1.0  0.44995  0.60815  0.34255  1.0000
  C   C45       1.0  0.87649  0.25749  0.31490  1.0000
  C   C46       1.0  0.77538  0.59989  0.10651  1.0000
  C   C47       1.0  0.94677  0.63062  0.28366  1.0000
  C   C48       1.0  0.06497  0.93833  0.25200  1.0000
  C   C49       1.0  0.46373  0.67009  0.83398  1.0000
  C   C50       1.0  0.88895  0.67120  0.54898  1.0000
  C   C51       1.0  0.49514  0.71040  0.75396  1.0000
  C   C52       1.0  0.49383  0.76123  0.74740  1.0000
  C   C53       1.0  0.46420  0.77511  0.82116  1.0000
  C   C54       1.0  0.43353  0.73476  0.90085  1.0000
  C   C55       1.0  0.43307  0.68335  0.90620  1.0000
  C   C56       1.0  0.95006  0.68556  0.62758  1.0000
  C   C57       1.0  0.99904  0.73543  0.60847  1.0000
  C   C58       1.0  0.99011  0.77082  0.51090  1.0000
  C   C59       1.0  0.90400  0.71409  0.93093  1.0000
  C   C60       1.0  0.85664  0.66728  0.96105  1.0000
  C   C61       1.0  0.18614  0.31436  0.43499  1.0000
  C   C62       1.0  0.14951  0.36170  0.53276  1.0000
  C   C63       1.0  0.15331  0.41581  0.53972  1.0000
  C   C64       1.0  0.10712  0.41890  0.56718  1.0000
  C   C65       1.0  0.05712  0.37041  0.58943  1.0000
  C   C66       1.0  0.05452  0.31719  0.58214  1.0000
  C   C67       1.0  0.09964  0.31287  0.55429  1.0000
  C   C68       1.0  0.00759  0.37302  0.61588  1.0000
  C   C69       1.0  0.98872  0.41093  0.55793  1.0000
  C   C70       1.0  0.93862  0.40883  0.57621  1.0000
  C   C71       1.0  0.90433  0.36786  0.64970  1.0000
  C   C72       1.0  0.92337  0.33004  0.71060  1.0000
  C   C73       1.0  0.97493  0.33437  0.69493  1.0000
  C   C74       1.0  0.81677  0.37578  0.58219  1.0000
  C   C75       1.0  0.51961  0.88210  0.81428  1.0000
  C   C76       1.0  0.52370  0.93539  0.82232  1.0000
  C   C77       1.0  0.47595  0.93984  0.83809  1.0000
  C   C78       1.0  0.42295  0.88906  0.84536  1.0000
  C   C79       1.0  0.41949  0.83602  0.83431  1.0000
  C   C80       1.0  0.50386  0.03297  0.78539  1.0000
  C   C81       1.0  0.46734  0.83109  0.82077  1.0000
  C   C82       1.0  0.09893  0.85789  0.62046  1.0000
  C   C83       1.0  0.14398  0.91440  0.62088  1.0000
  C   C84       1.0  0.13368  0.94229  0.50370  1.0000
  C   C85       1.0  0.04977  0.87724  0.88069  1.0000
  C   C86       1.0  0.00420  0.82352  0.89480  1.0000
  C   C87       1.0  0.23371  0.02485  0.56950  1.0000
  C   C88       1.0  0.04198  0.82646  0.50172  1.0000
  C   C89       1.0  0.53090  0.69980  0.68002  1.0000
  C   C90       1.0  0.39147  0.91732  0.44654  1.0000
  C   C91       1.0  0.20567  0.46797  0.51404  1.0000
  C   C92       1.0  0.43779  0.57792  0.89675  1.0000
  C   C93       1.0  0.88636  0.28324  0.78190  1.0000
  C   C94       1.0  0.79605  0.63102  0.57952  1.0000
  C   C95       1.0  0.96139  0.64825  0.73065  1.0000
  C   C96       1.0  0.03280  0.91128  0.77537  1.0000
  N   N1        1.0  0.45849  0.32931  0.12962  1.0000
  N   N2        1.0  0.82245  0.59620  0.11841  1.0000
  N   N3        1.0  0.47099  0.26955  0.53279  1.0000
  N   N4        1.0  0.54979  0.37275  0.47253  1.0000
  N   N5        1.0  0.18803  0.33616  0.04978  1.0000
  N   N6        1.0  0.83252  0.32412  0.17215  1.0000
  N   N7        1.0  0.46329  0.00894  0.32036  1.0000
  N   N8        1.0  0.15777  0.95640  0.96823  1.0000
  N   N9        1.0  0.48013  0.65164  0.28625  1.0000
  N   N10       1.0  0.47606  0.36848  0.61634  1.0000
  N   N11       1.0  0.83941  0.62396  0.57463  1.0000
  N   N12       1.0  0.45028  0.23409  0.00691  1.0000
  N   N13       1.0  0.53621  0.34273  0.98811  1.0000
  N   N14       1.0  0.19778  0.35904  0.51720  1.0000
  N   N15       1.0  0.85259  0.36176  0.66999  1.0000
  N   N16       1.0  0.47949  0.99284  0.85645  1.0000
  N   N17       1.0  0.17459  0.00178  0.51174  1.0000
  N   N18       1.0  0.46738  0.62033  0.83692  1.0000
  O   O1        1.0  0.55720  0.42717  0.18169  1.0000
  O   O2        1.0  0.49489  0.42566  0.39713  1.0000
  O   O3        1.0  0.53156  0.27541  0.36543  1.0000
  O   O4        1.0  0.59076  0.31509  0.63609  1.0000
  O   O5        1.0  0.37417  0.27809  0.42562  1.0000
  O   O6        1.0  0.39145  0.22666  0.17998  1.0000
  O   O7        1.0  0.57656  0.46299  0.65770  1.0000
  O   O8        1.0  0.47651  0.39160  0.91974  1.0000
  O   O9        1.0  0.52091  0.24942  0.85787  1.0000
  O   O10       1.0  0.56933  0.27463  0.12763  1.0000
  O   O11       1.0  0.35377  0.24440  0.93000  1.0000
  O   O12       1.0  0.40832  0.26926  0.68793  1.0000
  C  Sn1       1.0  0.43639  0.50891  0.45925  1.0000
  C   C97       1.0  0.46652  0.55912  0.40495  1.0000
  C  Sn2       1.0  0.50338  0.56281  0.32782  1.0000
  C  Sn3       1.0  0.51023  0.51531  0.30439  1.0000
  C   C98       1.0  0.48010  0.46513  0.35865  1.0000
  C  Sn4       1.0  0.44324  0.46140  0.43581  1.0000
  O  Te1       1.0  0.39977  0.50617  0.53604  1.0000
  O  Te2       1.0  0.53307  0.61347  0.27464  1.0000
  O  Te3       1.0  0.54689  0.51808  0.22753  1.0000
  O  Te4       1.0  0.41356  0.41078  0.48896  1.0000
  Mg  Mg1       1.0  0.57794  0.59634  0.17656  1.0000
  Mg  Mg2       1.0  0.36865  0.42785  0.58698  1.0000
  C  Sn5       1.0  0.68361  0.48055  0.25304  1.0000
  C   C99       1.0  0.62860  0.47931  0.22054  1.0000
  C  Sn6       1.0  0.61733  0.51544  0.13168  1.0000
  C  Sn7       1.0  0.66195  0.55359  0.07402  1.0000
  C   C100      1.0  0.71691  0.55482  0.10650  1.0000
  C  Sn8       1.0  0.72823  0.51871  0.19537  1.0000
  O  Te5       1.0  0.69390  0.44405  0.34210  1.0000
  O  Te6       1.0  0.56201  0.51343  0.10077  1.0000
  O  Te7       1.0  0.80756  0.66939  0.98490  1.0000
  O  Te8       1.0  0.78351  0.52069  0.22627  1.0000
  Mg  Mg3       1.0  0.72517  0.65081  0.97403  1.0000
  Mg  Mg4       1.0  0.77632  0.46260  0.35293  1.0000
  C  Sn9       1.0  0.71619  0.37732  0.13286  1.0000
  C   C101      1.0  0.74896  0.34956  0.17122  1.0000
  C  Sn10      1.0  0.71795  0.28978  0.17149  1.0000
  C  Sn11      1.0  0.65282  0.25704  0.13251  1.0000
  C   C102      1.0  0.62008  0.28479  0.09415  1.0000
  C  Sn12      1.0  0.65106  0.34458  0.09388  1.0000
  O  Te9       1.0  0.74814  0.43713  0.13335  1.0000
  O  Te10      1.0  0.75171  0.26300  0.21029  1.0000
  O  Te11      1.0  0.62088  0.19718  0.13205  1.0000
  O  Te12      1.0  0.61733  0.37135  0.05509  1.0000
  Mg  Mg5       1.0  0.68731  0.18047  0.19305  1.0000
  Mg  Mg6       1.0  0.68168  0.45386  0.07222  1.0000
  C  Sn13      1.0  0.66856  0.35573  0.47959  1.0000
  C   C103      1.0  0.64532  0.33054  0.58658  1.0000
  C  Sn14      1.0  0.68380  0.32773  0.71626  1.0000
  C  Sn15      1.0  0.74684  0.35063  0.73954  1.0000
  C   C104      1.0  0.77006  0.37582  0.63261  1.0000
  C  Sn16      1.0  0.73161  0.37863  0.50288  1.0000
  O  Te13      1.0  0.62926  0.35807  0.35079  1.0000
  O  Te14      1.0  0.65950  0.30232  0.82159  1.0000
  O  Te15      1.0  0.78614  0.34827  0.86848  1.0000
  O  Te16      1.0  0.75588  0.40403  0.39761  1.0000
  Mg  Mg7       1.0  0.73144  0.30943  0.97920  1.0000
  Mg  Mg8       1.0  0.68399  0.39697  0.24000  1.0000
  C  Sn17      1.0  0.58047  0.20954  0.35140  1.0000
  C   C105      1.0  0.53369  0.22017  0.33742  1.0000
  C  Sn18      1.0  0.47798  0.17689  0.34754  1.0000
  C  Sn19      1.0  0.46884  0.12183  0.37224  1.0000
  C   C106      1.0  0.51560  0.11122  0.38623  1.0000
  C  Sn20      1.0  0.57133  0.15448  0.37610  1.0000
  O  Te17      1.0  0.63579  0.25345  0.34091  1.0000
  O  Te18      1.0  0.43188  0.18854  0.33316  1.0000
  O  Te19      1.0  0.41346  0.07792  0.38271  1.0000
  O  Te20      1.0  0.61741  0.14286  0.39049  1.0000
  Mg  Mg9       1.0  0.36458  0.11474  0.35577  1.0000
  Mg  Mg10      1.0  0.68474  0.21663  0.36797  1.0000
  C  Sn21      1.0  0.45139  0.20081  0.98276  1.0000
  C   C107      1.0  0.32788  0.16590  0.10687  1.0000
  C  Sn22      1.0  0.32173  0.15286  0.24016  1.0000
  C  Sn23      1.0  0.28238  0.09424  0.24964  1.0000
  C   C108      1.0  0.24999  0.04991  0.12560  1.0000
  C  Sn24      1.0  0.41204  0.14220  0.99224  1.0000
  O  Te21      1.0  0.45824  0.21486  0.85064  1.0000
  O  Te22      1.0  0.35461  0.19796  0.36273  1.0000
  O  Te23      1.0  0.27555  0.08023  0.38191  1.0000
  O  Te24      1.0  0.37920  0.09713  0.86974  1.0000
  Mg  Mg11      1.0  0.33000  0.15686  0.51823  1.0000
  Mg  Mg12      1.0  0.40380  0.13818  0.71420  1.0000
  C  Sn25      1.0  0.30123  0.32592  0.03999  1.0000
  C   C109      1.0  0.39471  0.37611  0.94949  1.0000
  C  Sn26      1.0  0.36550  0.32082  0.86406  1.0000
  C  Sn27      1.0  0.39943  0.29402  0.86925  1.0000
  C   C110      1.0  0.46185  0.32310  0.95974  1.0000
  C  Sn28      1.0  0.33516  0.29913  0.04519  1.0000
  O  Te25      1.0  0.32948  0.38117  0.12446  1.0000
  O  Te26      1.0  0.30301  0.29260  0.77438  1.0000
  O  Te27      1.0  0.37112  0.23873  0.78468  1.0000
  O  Te28      1.0  0.39760  0.32734  0.13484  1.0000
  Mg  Mg13      1.0  0.28509  0.21783  0.67982  1.0000
  Mg  Mg14      1.0  0.41556  0.40209  0.22950  1.0000
  C  Sn29      1.0  0.26125  0.26300  0.29317  1.0000
  C   C111      1.0  0.32272  0.29304  0.39074  1.0000
  C  Sn30      1.0  0.34039  0.32743  0.52345  1.0000
  C  Sn31      1.0  0.29567  0.33185  0.55946  1.0000
  C   C112      1.0  0.23424  0.30181  0.46195  1.0000
  C  Sn32      1.0  0.21654  0.26742  0.32918  1.0000
  O  Te29      1.0  0.24463  0.22887  0.16111  1.0000
  O  Te30      1.0  0.40212  0.35707  0.61920  1.0000
  O  Te31      1.0  0.31235  0.36601  0.69165  1.0000
  O  Te32      1.0  0.15484  0.23778  0.23349  1.0000
  Mg  Mg15      1.0  0.40210  0.39805  0.78597  1.0000
  Mg  Mg16      1.0  0.15481  0.19677  0.06673  1.0000
  C  Sn33      1.0  0.40708  0.43637  0.95105  1.0000
  C   C113      1.0  0.44352  0.42720  0.89320  1.0000
  C  Sn34      1.0  0.48638  0.47224  0.84609  1.0000
  C  Sn35      1.0  0.49301  0.52763  0.85712  1.0000
  C   C114      1.0  0.45660  0.53679  0.91496  1.0000
  C  Sn36      1.0  0.41371  0.49176  0.96207  1.0000
  O  Te33      1.0  0.36453  0.39072  0.99747  1.0000
  O  Te34      1.0  0.52227  0.46201  0.78859  1.0000
  O  Te35      1.0  0.53560  0.57329  0.81063  1.0000
  O  Te36      1.0  0.22190  0.42269  0.01956  1.0000
  Mg  Mg17      1.0  0.57390  0.53797  0.74015  1.0000
  Mg  Mg18      1.0  0.17028  0.34678  0.06811  1.0000
  C  Sn37      1.0  0.64407  0.56478  0.57399  1.0000
  C   C115      1.0  0.62618  0.50834  0.59802  1.0000
  C  Sn38      1.0  0.66939  0.49186  0.63938  1.0000
  C  Sn39      1.0  0.73180  0.53266  0.65719  1.0000
  C   C116      1.0  0.74967  0.58906  0.63319  1.0000
  C  Sn40      1.0  0.70648  0.60558  0.59180  1.0000
  O  Te37      1.0  0.60009  0.58030  0.53271  1.0000
  O  Te38      1.0  0.65040  0.43517  0.66273  1.0000
  O  Te39      1.0  0.77579  0.51708  0.69850  1.0000
  O  Te40      1.0  0.72545  0.66223  0.56848  1.0000
  Mg  Mg19      1.0  0.72744  0.43478  0.71771  1.0000
  Mg  Mg20      1.0  0.64847  0.66267  0.51358  1.0000
  C  Sn41      1.0  0.52320  0.16795  0.70572  1.0000
  C   C117      1.0  0.50589  0.18726  0.80377  1.0000
  C  Sn42      1.0  0.49463  0.15877  0.91879  1.0000
  C  Sn43      1.0  0.50082  0.10998  0.93625  1.0000
  C   C118      1.0  0.51812  0.09070  0.83825  1.0000
  C  Sn44      1.0  0.52939  0.11917  0.72317  1.0000
  O  Te41      1.0  0.53423  0.19710  0.59153  1.0000
  O  Te42      1.0  0.32141  0.09958  0.01540  1.0000
  O  Te43      1.0  0.84326  0.00155  0.05055  1.0000
  O  Te44      1.0  0.54665  0.09910  0.62662  1.0000
  Mg  Mg21      1.0  0.31143  0.04538  0.15377  1.0000
  Mg  Mg22      1.0  0.55668  0.15329  0.48826  1.0000
  C  Sn45      1.0  0.37448  0.15416  0.60390  1.0000
  C   C119      1.0  0.36369  0.19944  0.60419  1.0000
  C  Sn46      1.0  0.30923  0.18962  0.61579  1.0000
  C  Sn47      1.0  0.26463  0.13337  0.62742  1.0000
  C   C120      1.0  0.27544  0.08813  0.62715  1.0000
  C  Sn48      1.0  0.32988  0.09791  0.61553  1.0000
  O  Te45      1.0  0.42925  0.16497  0.59220  1.0000
  O  Te46      1.0  0.29947  0.23557  0.61579  1.0000
  O  Te47      1.0  0.20983  0.12259  0.63912  1.0000
  O  Te48      1.0  0.33965  0.05200  0.61555  1.0000
  Mg  Mg23      1.0  0.21768  0.19919  0.63422  1.0000
  Mg  Mg24      1.0  0.42144  0.08833  0.59720  1.0000
