data_image0
_chemical_formula_structural       P6H12C12N18O12SnCSn2CSnTe4Mg2SnCSn2CSnTe4Mg2SnCSn2CSnTe4Mg2SnCSn2CSnTe4Mg2SnCSn2CSnTe4Mg2SnCSn2CSnTe4Mg2SnCSn2CSnTe4Mg2SnCSn2CSnTe4Mg2SnCSn2CSnTe4Mg2SnCSn2CSnTe4Mg2SnCSn2CSnTe4Mg2SnCSn2CSnTe4Mg2SnCSn2CSnTe4Mg2SnCSn2CSnTe4Mg2SnCSn2CSnTe4Mg2SnCSn2CSnTe4Mg2SnCSn2CSnTe4Mg2SnCSn2CSnTe4Mg2SnCSn2CSnTe4Mg2SnCSn2CSnTe4Mg2SnCSn2CSnTe4Mg2SnCSn2CSnTe4Mg2SnCSn2CSnTe4Mg2SnCSn2CSnTe4Mg2
_chemical_formula_sum              "P6 H12 C60 N18 O12 Sn96 Te96 Mg48"
_cell_length_a       26.7376
_cell_length_b       27.2555
_cell_length_c       9.81848
_cell_angle_alpha    80.6299
_cell_angle_beta     74.4298
_cell_angle_gamma    119.165

_symmetry_space_group_name_H-M    'P1'
_space_group_IT_number       1

loop_
  _space_group_symop_operation_xyz
  'x, y, z'

loop_
  _atom_site_type_symbol
  _atom_site_label
  _atom_site_symmetry_multiplicity
  _atom_site_fract_x
  _atom_site_fract_y
  _atom_site_fract_z
  _atom_site_occupancy
  P   P1        1.0  0.62769  0.44092  0.02576  1.0000
  P   P2        1.0  0.73331  0.53456  0.01922  1.0000
  P   P3        1.0  0.65996  0.55971  0.44067  1.0000
  P   P4        1.0  0.66161  0.46063  0.51558  1.0000
  P   P5        1.0  0.75560  0.56745  0.50794  1.0000
  P   P6        1.0  0.65161  0.55190  0.94106  1.0000
  H   H1        1.0  0.04987  0.58547  0.34331  1.0000
  H   H2        1.0  0.96170  0.86676  0.47493  1.0000
  H   H3        1.0  0.71015  0.22215  0.01027  1.0000
  H   H4        1.0  0.37134  0.16767  0.72641  1.0000
  H   H5        1.0  0.61512  0.80110  0.26690  1.0000
  H   H6        1.0  0.32012  0.42231  0.22430  1.0000
  H   H7        1.0  0.98953  0.48689  0.84626  1.0000
  H   H8        1.0  0.96355  0.83028  0.96666  1.0000
  H   H9        1.0  0.68188  0.20323  0.61318  1.0000
  H   H10       1.0  0.33619  0.14968  0.23648  1.0000
  H   H11       1.0  0.67052  0.83316  0.69099  1.0000
  H   H12       1.0  0.33492  0.48682  0.75985  1.0000
  C   C1        1.0  0.35702  0.46989  0.15877  1.0000
  C   C2        1.0  0.64964  0.79919  0.30402  1.0000
  C   C3        1.0  0.38310  0.21167  0.66311  1.0000
  C   C4        1.0  0.96791  0.83142  0.52057  1.0000
  C   C5        1.0  0.00171  0.54531  0.39113  1.0000
  C   C6        1.0  0.66811  0.21384  0.99308  1.0000
  C   C7        1.0  0.36494  0.48933  0.65366  1.0000
  C   C8        1.0  0.67949  0.81401  0.78189  1.0000
  C   C9        1.0  0.35785  0.19116  0.14152  1.0000
  C   C10       1.0  0.97010  0.79349  0.99114  1.0000
  C   C11       1.0  0.95040  0.47011  0.95441  1.0000
  C   C12       1.0  0.67311  0.21708  0.51515  1.0000
  N   N1        1.0  0.63971  0.49584  0.42832  1.0000
  N   N2        1.0  0.67790  0.46536  0.09807  1.0000
  N   N3        1.0  0.34747  0.50619  0.08568  1.0000
  N   N4        1.0  0.68219  0.83757  0.35799  1.0000
  N   N5        1.0  0.71805  0.58003  0.95012  1.0000
  N   N6        1.0  0.35128  0.21685  0.58992  1.0000
  N   N7        1.0  0.01690  0.84299  0.54546  1.0000
  N   N8        1.0  0.95071  0.44718  0.08026  1.0000
  N   N9        1.0  0.62938  0.16479  0.97841  1.0000
  N   N10       1.0  0.61842  0.48679  0.92971  1.0000
  N   N11       1.0  0.71414  0.49603  0.57510  1.0000
  N   N12       1.0  0.35247  0.49148  0.53550  1.0000
  N   N13       1.0  0.68715  0.83585  0.88776  1.0000
  N   N14       1.0  0.72506  0.59988  0.45161  1.0000
  N   N15       1.0  0.33827  0.19138  0.03464  1.0000
  N   N16       1.0  0.01675  0.80051  0.02168  1.0000
  N   N17       1.0  0.98861  0.49358  0.46395  1.0000
  N   N18       1.0  0.65963  0.18634  0.42786  1.0000
  O   O1        1.0  0.65784  0.59616  0.29753  1.0000
  O   O2        1.0  0.60562  0.55348  0.08641  1.0000
  O   O3        1.0  0.82110  0.59421  0.36660  1.0000
  O   O4        1.0  0.76565  0.55873  0.13172  1.0000
  O   O5        1.0  0.56374  0.38885  0.17073  1.0000
  O   O6        1.0  0.68307  0.43212  0.39940  1.0000
  O   O7        1.0  0.65677  0.59598  0.79910  1.0000
  O   O8        1.0  0.60684  0.55367  0.58444  1.0000
  O   O9        1.0  0.79035  0.54058  0.88621  1.0000
  O   O10       1.0  0.77909  0.59073  0.63269  1.0000
  O   O11       1.0  0.60398  0.40297  0.66068  1.0000
  O   O12       1.0  0.63882  0.40652  0.91455  1.0000
  C  Sn1       1.0  0.30097  0.54635  0.43328  1.0000
  C   C13       1.0  0.30098  0.50516  0.53865  1.0000
  C  Sn2       1.0  0.24516  0.45053  0.63402  1.0000
  C  Sn3       1.0  0.18814  0.43676  0.62382  1.0000
  C   C14       1.0  0.18816  0.47794  0.51848  1.0000
  C  Sn4       1.0  0.24396  0.53259  0.42307  1.0000
  O  Te1       1.0  0.35733  0.60070  0.33906  1.0000
  O  Te2       1.0  0.24634  0.41007  0.73850  1.0000
  O  Te3       1.0  0.13176  0.38237  0.71816  1.0000
  O  Te4       1.0  0.24280  0.57303  0.31863  1.0000
  Mg  Mg1       1.0  0.15743  0.34190  0.84211  1.0000
  Mg  Mg2       1.0  0.33168  0.64120  0.21492  1.0000
  C  Sn5       1.0  0.27992  0.53617  0.97053  1.0000
  C   C15       1.0  0.45531  0.64684  0.08764  1.0000
  C  Sn6       1.0  0.40497  0.59186  0.19772  1.0000
  C  Sn7       1.0  0.34549  0.56431  0.19056  1.0000
  C   C16       1.0  0.33760  0.59234  0.07349  1.0000
  C  Sn8       1.0  0.22044  0.50862  0.96337  1.0000
  O  Te5       1.0  0.33090  0.59113  0.86170  1.0000
  O  Te6       1.0  0.41402  0.56470  0.31374  1.0000
  O  Te7       1.0  0.29449  0.50931  0.29952  1.0000
  O  Te8       1.0  0.21141  0.53577  0.84739  1.0000
  Mg  Mg3       1.0  0.33022  0.48994  0.43540  1.0000
  Mg  Mg4       1.0  0.29518  0.61051  0.72563  1.0000
  C  Sn9       1.0  0.22503  0.96845  0.94920  1.0000
  C   C17       1.0  0.18686  0.98355  0.90782  1.0000
  C  Sn10      1.0  0.13956  0.94358  0.87081  1.0000
  C  Sn11      1.0  0.13017  0.88734  0.87534  1.0000
  C   C18       1.0  0.66508  0.87227  0.91672  1.0000
  C  Sn12      1.0  0.21565  0.91221  0.95373  1.0000
  O  Te9       1.0  0.27204  0.00910  0.98576  1.0000
  O  Te10      1.0  0.10201  0.95968  0.82974  1.0000
  O  Te11      1.0  0.57989  0.84669  0.83873  1.0000
  O  Te12      1.0  0.25318  0.89614  0.99481  1.0000
  Mg  Mg5       1.0  0.54087  0.88909  0.78983  1.0000
  Mg  Mg6       1.0  0.47855  0.10539  0.03481  1.0000
  C  Sn13      1.0  0.60278  0.90844  0.44683  1.0000
  C   C19       1.0  0.15069  0.96208  0.45461  1.0000
  C  Sn14      1.0  0.21286  0.97962  0.41065  1.0000
  C  Sn15      1.0  0.72753  0.94279  0.35772  1.0000
  C   C20       1.0  0.68288  0.88920  0.34994  1.0000
  C  Sn16      1.0  0.62070  0.87162  0.39390  1.0000
  O  Te13      1.0  0.54090  0.89180  0.49136  1.0000
  O  Te14      1.0  0.25667  0.03343  0.41948  1.0000
  O  Te15      1.0  0.29271  0.95948  0.31318  1.0000
  O  Te16      1.0  0.57690  0.81785  0.38507  1.0000
  Mg  Mg7       1.0  0.33525  0.03681  0.34580  1.0000
  Mg  Mg8       1.0  0.49832  0.81443  0.45864  1.0000
  C  Sn17      1.0  0.48529  0.56021  0.03914  1.0000
  C   C21       1.0  0.43285  0.50108  0.10292  1.0000
  C  Sn18      1.0  0.43474  0.45578  0.18635  1.0000
  C  Sn19      1.0  0.49018  0.46988  0.20654  1.0000
  C   C22       1.0  0.54257  0.52898  0.14280  1.0000
  C  Sn20      1.0  0.54073  0.57431  0.05932  1.0000
  O  Te17      1.0  0.31488  0.46607  0.95617  1.0000
  O  Te18      1.0  0.38172  0.39700  0.24899  1.0000
  O  Te19      1.0  0.49308  0.42525  0.28958  1.0000
  O  Te20      1.0  0.42622  0.49435  0.99673  1.0000
  Mg  Mg9       1.0  0.40872  0.35192  0.35276  1.0000
  Mg  Mg10      1.0  0.39927  0.53946  0.89301  1.0000
  C  Sn21      1.0  0.30862  0.10662  0.54236  1.0000
  C   C23       1.0  0.31611  0.16174  0.53185  1.0000
  C  Sn22      1.0  0.26759  0.16862  0.53256  1.0000
  C  Sn23      1.0  0.21036  0.11936  0.54410  1.0000
  C   C24       1.0  0.20288  0.06428  0.55463  1.0000
  C  Sn24      1.0  0.25139  0.05736  0.55390  1.0000
  O  Te21      1.0  0.35776  0.10076  0.54145  1.0000
  O  Te22      1.0  0.27619  0.22417  0.52187  1.0000
  O  Te23      1.0  0.16121  0.12527  0.54500  1.0000
  O  Te24      1.0  0.24281  0.00185  0.56460  1.0000
  Mg  Mg11      1.0  0.19545  0.20987  0.52791  1.0000
  Mg  Mg12      1.0  0.32350  0.01609  0.55866  1.0000
  C  Sn25      1.0  0.59372  0.67944  0.33059  1.0000
  C   C25       1.0  0.64032  0.73450  0.32795  1.0000
  C  Sn26      1.0  0.70105  0.74878  0.29427  1.0000
  C  Sn27      1.0  0.71552  0.70717  0.26247  1.0000
  C   C26       1.0  0.66894  0.65214  0.26509  1.0000
  C  Sn28      1.0  0.60819  0.63782  0.29879  1.0000
  O  Te25      1.0  0.53333  0.66611  0.36453  1.0000
  O  Te26      1.0  0.74684  0.80410  0.29236  1.0000
  O  Te27      1.0  0.77597  0.72054  0.22852  1.0000
  O  Te28      1.0  0.56242  0.58254  0.30068  1.0000
  Mg  Mg13      1.0  0.82225  0.80164  0.23983  1.0000
  Mg  Mg14      1.0  0.48701  0.58497  0.35312  1.0000
  C  Sn29      1.0  0.13380  0.91630  0.53288  1.0000
  C   C27       1.0  0.07159  0.89742  0.56725  1.0000
  C  Sn30      1.0  0.55850  0.93898  0.56034  1.0000
  C  Sn31      1.0  0.60534  0.00072  0.51811  1.0000
  C   C28       1.0  0.66750  0.01957  0.48374  1.0000
  C  Sn32      1.0  0.68387  0.97803  0.49065  1.0000
  O  Te29      1.0  0.14905  0.87396  0.54052  1.0000
  O  Te30      1.0  0.49600  0.91903  0.59526  1.0000
  O  Te31      1.0  0.59003  0.04306  0.51049  1.0000
  O  Te32      1.0  0.74633  0.99796  0.45573  1.0000
  Mg  Mg15      1.0  0.49849  0.99389  0.56842  1.0000
  Mg  Mg16      1.0  0.24066  0.92315  0.48246  1.0000
  C  Sn33      1.0  0.82035  0.68215  0.01465  1.0000
  C   C29       1.0  0.81982  0.63002  0.02913  1.0000
  C  Sn34      1.0  0.87051  0.62932  0.04007  1.0000
  C  Sn35      1.0  0.92281  0.68182  0.03657  1.0000
  C   C30       1.0  0.92331  0.73391  0.02213  1.0000
  C  Sn36      1.0  0.87264  0.73464  0.01115  1.0000
  O  Te33      1.0  0.76916  0.68182  0.00390  1.0000
  O  Te34      1.0  0.86892  0.57667  0.05441  1.0000
  O  Te35      1.0  0.97401  0.68211  0.04733  1.0000
  O  Te36      1.0  0.70673  0.64853  0.99685  1.0000
  Mg  Mg17      1.0  0.94989  0.59943  0.06531  1.0000
  Mg  Mg18      1.0  0.62579  0.62582  0.98601  1.0000
  C  Sn37      1.0  0.83226  0.71310  0.50307  1.0000
  C   C31       1.0  0.83087  0.66135  0.55446  1.0000
  C  Sn38      1.0  0.87190  0.66254  0.61900  1.0000
  C  Sn39      1.0  0.91520  0.71658  0.63254  1.0000
  C   C32       1.0  0.91656  0.76829  0.58120  1.0000
  C  Sn40      1.0  0.87555  0.76714  0.51662  1.0000
  O  Te37      1.0  0.79080  0.71088  0.43894  1.0000
  O  Te38      1.0  0.86965  0.61023  0.66951  1.0000
  O  Te39      1.0  0.95667  0.71876  0.69674  1.0000
  O  Te40      1.0  0.87778  0.81940  0.46615  1.0000
  Mg  Mg19      1.0  0.93562  0.63582  0.74886  1.0000
  Mg  Mg20      1.0  0.81182  0.79386  0.38685  1.0000
  C  Sn41      1.0  0.06335  0.43885  0.61948  1.0000
  C   C33       1.0  0.12528  0.47059  0.51418  1.0000
  C  Sn42      1.0  0.14658  0.51654  0.38227  1.0000
  C  Sn43      1.0  0.10511  0.53111  0.35507  1.0000
  C   C34       1.0  0.04322  0.49939  0.46034  1.0000
  C  Sn44      1.0  0.02188  0.45342  0.59228  1.0000
  O  Te41      1.0  0.04307  0.39308  0.75058  1.0000
  O  Te42      1.0  0.20869  0.54762  0.27864  1.0000
  O  Te43      1.0  0.12544  0.57692  0.22384  1.0000
  O  Te44      1.0  0.95981  0.42236  0.69587  1.0000
  Mg  Mg21      1.0  0.21426  0.60632  0.11680  1.0000
  Mg  Mg22      1.0  0.95420  0.36368  0.85778  1.0000
  C  Sn45      1.0  0.82841  0.49237  0.07264  1.0000
  C   C35       1.0  0.66112  0.38176  0.93990  1.0000
  C  Sn46      1.0  0.69512  0.38391  0.80077  1.0000
  C  Sn47      1.0  0.72963  0.35738  0.79418  1.0000
  C   C36       1.0  0.72943  0.32929  0.92686  1.0000
  C  Sn48      1.0  0.86292  0.46584  0.06604  1.0000
  O  Te45      1.0  0.79408  0.49075  0.21048  1.0000
  O  Te46      1.0  0.69461  0.41227  0.66959  1.0000
  O  Te47      1.0  0.76398  0.35902  0.65619  1.0000
  O  Te48      1.0  0.86341  0.43749  0.19716  1.0000
  Mg  Mg23      1.0  0.74866  0.40279  0.50879  1.0000
  Mg  Mg24      1.0  0.80936  0.44692  0.35803  1.0000
  C  Sn49      1.0  0.04333  0.39687  0.13852  1.0000
  C   C37       1.0  0.10552  0.44535  0.05644  1.0000
  C  Sn50      1.0  0.95217  0.36374  0.99062  1.0000
  C  Sn51      1.0  0.07058  0.51130  0.00726  1.0000
  C   C38       1.0  0.00843  0.46284  0.08932  1.0000
  C  Sn52      1.0  0.99426  0.40571  0.15516  1.0000
  O  Te49      1.0  0.03030  0.34017  0.20336  1.0000
  O  Te50      1.0  0.01470  0.41151  0.90903  1.0000
  O  Te51      1.0  0.91618  0.42933  0.94232  1.0000
  O  Te52      1.0  0.93177  0.35796  0.23672  1.0000
  Mg  Mg25      1.0  0.00872  0.48028  0.84186  1.0000
  Mg  Mg26      1.0  0.93771  0.28919  0.30401  1.0000
  C  Sn53      1.0  0.88420  0.50801  0.37186  1.0000
  C   C39       1.0  0.94701  0.54908  0.34158  1.0000
  C  Sn54      1.0  0.96829  0.60766  0.33683  1.0000
  C  Sn55      1.0  0.92590  0.62556  0.36298  1.0000
  C   C40       1.0  0.86314  0.58449  0.39326  1.0000
  C  Sn56      1.0  0.84182  0.52590  0.39801  1.0000
  O  Te53      1.0  0.86396  0.44967  0.37606  1.0000
  O  Te54      1.0  0.03130  0.64793  0.30629  1.0000
  O  Te55      1.0  0.94620  0.68395  0.35874  1.0000
  O  Te56      1.0  0.77885  0.48565  0.42855  1.0000
  Mg  Mg27      1.0  0.03642  0.72242  0.31268  1.0000
  Mg  Mg28      1.0  0.77367  0.41114  0.42226  1.0000
  C  Sn57      1.0  0.67898  0.31209  0.60701  1.0000
  C   C41       1.0  0.66354  0.27239  0.52799  1.0000
  C  Sn58      1.0  0.66224  0.28984  0.38777  1.0000
  C  Sn59      1.0  0.67672  0.34820  0.32517  1.0000
  C   C42       1.0  0.69216  0.38787  0.40416  1.0000
  C  Sn60      1.0  0.69346  0.37045  0.54441  1.0000
  O  Te57      1.0  0.67999  0.29369  0.74701  1.0000
  O  Te58      1.0  0.64665  0.24936  0.31092  1.0000
  O  Te59      1.0  0.67570  0.36658  0.18505  1.0000
  O  Te60      1.0  0.70905  0.41090  0.62123  1.0000
  Mg  Mg29      1.0  0.65170  0.29535  0.12371  1.0000
  Mg  Mg30      1.0  0.70405  0.36497  0.80840  1.0000
  C  Sn61      1.0  0.70885  0.12467  0.90209  1.0000
  C   C43       1.0  0.65484  0.12488  0.93136  1.0000
  C  Sn62      1.0  0.59598  0.07098  0.99008  1.0000
  C  Sn63      1.0  0.75845  0.15443  0.02027  1.0000
  C   C44       1.0  0.64495  0.01552  0.99103  1.0000
  C  Sn64      1.0  0.70384  0.06941  0.93228  1.0000
  O  Te61      1.0  0.76721  0.17910  0.84340  1.0000
  O  Te62      1.0  0.71014  0.21103  0.01836  1.0000
  O  Te63      1.0  0.70003  0.09998  0.07900  1.0000
  O  Te64      1.0  0.75713  0.06808  0.90403  1.0000
  Mg  Mg31      1.0  0.64110  0.12508  0.09858  1.0000
  Mg  Mg32      1.0  0.82619  0.15400  0.82388  1.0000
  C  Sn65      1.0  0.87295  0.46867  0.00043  1.0000
  C   C45       1.0  0.82879  0.40888  0.02474  1.0000
  C  Sn66      1.0  0.60807  0.25457  0.99603  1.0000
  C  Sn67      1.0  0.59879  0.29967  0.94180  1.0000
  C   C46       1.0  0.64293  0.35942  0.91749  1.0000
  C  Sn68      1.0  0.69619  0.37505  0.94620  1.0000
  O  Te65      1.0  0.92583  0.48323  0.02988  1.0000
  O  Te66      1.0  0.73205  0.33321  0.02125  1.0000
  O  Te67      1.0  0.54585  0.28506  0.91236  1.0000
  O  Te68      1.0  0.73967  0.43508  0.92098  1.0000
  Mg  Mg33      1.0  0.50001  0.19704  0.96429  1.0000
  Mg  Mg34      1.0  0.80427  0.43260  0.97782  1.0000
  C  Sn69      1.0  0.48453  0.25719  0.75007  1.0000
  C   C47       1.0  0.43774  0.25938  0.71742  1.0000
  C  Sn70      1.0  0.44994  0.31386  0.63604  1.0000
  C  Sn71      1.0  0.51017  0.36726  0.58617  1.0000
  C   C48       1.0  0.55691  0.36505  0.61879  1.0000
  C  Sn72      1.0  0.54476  0.31059  0.70019  1.0000
  O  Te69      1.0  0.47129  0.20223  0.83157  1.0000
  O  Te70      1.0  0.40240  0.31493  0.60482  1.0000
  O  Te71      1.0  0.52337  0.42224  0.50460  1.0000
  O  Te72      1.0  0.59225  0.30951  0.73138  1.0000
  Mg  Mg35      1.0  0.44327  0.40069  0.49006  1.0000
  Mg  Mg36      1.0  0.55145  0.22377  0.84606  1.0000
  C  Sn73      1.0  0.67150  0.06478  0.56083  1.0000
  C   C49       1.0  0.64731  0.02761  0.48092  1.0000
  C  Sn74      1.0  0.63253  0.04657  0.36571  1.0000
  C  Sn75      1.0  0.64217  0.10389  0.32954  1.0000
  C   C50       1.0  0.66635  0.14104  0.40940  1.0000
  C  Sn76      1.0  0.68114  0.12211  0.52466  1.0000
  O  Te73      1.0  0.68594  0.04491  0.67556  1.0000
  O  Te74      1.0  0.60838  0.00860  0.28745  1.0000
  O  Te75      1.0  0.62770  0.12375  0.21470  1.0000
  O  Te76      1.0  0.70528  0.16005  0.60288  1.0000
  Mg  Mg37      1.0  0.59596  0.05584  0.14046  1.0000
  Mg  Mg38      1.0  0.71775  0.11287  0.74983  1.0000
  C  Sn77      1.0  0.48257  0.27022  0.24627  1.0000
  C   C51       1.0  0.51675  0.33021  0.15312  1.0000
  C  Sn78      1.0  0.49334  0.34932  0.06089  1.0000
  C  Sn79      1.0  0.43453  0.30760  0.06183  1.0000
  C   C52       1.0  0.40038  0.24766  0.15495  1.0000
  C  Sn80      1.0  0.42376  0.22850  0.24721  1.0000
  O  Te77      1.0  0.50687  0.25211  0.33756  1.0000
  O  Te78      1.0  0.36090  0.27080  0.96869  1.0000
  O  Te79      1.0  0.24277  0.18705  0.97043  1.0000
  O  Te80      1.0  0.38876  0.16835  0.33938  1.0000
  Mg  Mg39      1.0  0.30795  0.27377  0.86450  1.0000
  Mg  Mg40      1.0  0.44164  0.16533  0.44367  1.0000
  C  Sn81      1.0  0.51456  0.51846  0.47546  1.0000
  C   C53       1.0  0.54588  0.53835  0.56825  1.0000
  C  Sn82      1.0  0.51300  0.53190  0.71435  1.0000
  C  Sn83      1.0  0.44745  0.50496  0.76889  1.0000
  C   C54       1.0  0.41617  0.48508  0.67613  1.0000
  C  Sn84      1.0  0.44901  0.49153  0.53000  1.0000
  O  Te81      1.0  0.54836  0.52537  0.32980  1.0000
  O  Te82      1.0  0.54534  0.55215  0.80499  1.0000
  O  Te83      1.0  0.41366  0.49807  0.91468  1.0000
  O  Te84      1.0  0.41670  0.47128  0.43939  1.0000
  Mg  Mg41      1.0  0.47863  0.53272  0.99525  1.0000
  Mg  Mg42      1.0  0.48335  0.49066  0.24916  1.0000
  C  Sn85      1.0  0.39473  0.25897  0.00931  1.0000
  C   C55       1.0  0.44299  0.26997  0.05617  1.0000
  C  Sn86      1.0  0.45993  0.22898  0.07159  1.0000
  C  Sn87      1.0  0.42800  0.17590  0.03941  1.0000
  C   C56       1.0  0.21230  0.02621  0.99256  1.0000
  C  Sn88      1.0  0.19532  0.06717  0.97713  1.0000
  O  Te85      1.0  0.21111  0.16186  0.99465  1.0000
  O  Te86      1.0  0.50831  0.24095  0.11866  1.0000
  O  Te87      1.0  0.44419  0.13428  0.05411  1.0000
  O  Te88      1.0  0.14698  0.05523  0.93007  1.0000
  Mg  Mg43      1.0  0.51322  0.17063  0.12166  1.0000
  Mg  Mg44      1.0  0.14205  0.12552  0.92695  1.0000
  C  Sn89      1.0  0.63732  0.71068  0.71144  1.0000
  C   C57       1.0  0.66394  0.74878  0.78718  1.0000
  C  Sn90      1.0  0.69981  0.74118  0.85799  1.0000
  C  Sn91      1.0  0.70932  0.69454  0.85294  1.0000
  C   C58       1.0  0.68272  0.65647  0.77722  1.0000
  C  Sn92      1.0  0.64683  0.66404  0.70639  1.0000
  O  Te89      1.0  0.60163  0.71911  0.64144  1.0000
  O  Te90      1.0  0.72593  0.77982  0.93305  1.0000
  O  Te91      1.0  0.74504  0.68613  0.92303  1.0000
  O  Te92      1.0  0.62073  0.62544  0.63134  1.0000
  Mg  Mg45      1.0  0.93839  0.88900  0.01109  1.0000
  Mg  Mg46      1.0  0.57576  0.65495  0.55321  1.0000
  C  Sn93      1.0  0.61200  0.92377  0.86829  1.0000
  C   C59       1.0  0.58242  0.86656  0.97300  1.0000
  C  Sn94      1.0  0.75229  0.99837  0.11477  1.0000
  C  Sn95      1.0  0.78489  0.04970  0.15272  1.0000
  C   C60       1.0  0.81444  0.10686  0.04806  1.0000
  C  Sn96      1.0  0.64460  0.97510  0.90624  1.0000
  O  Te93      1.0  0.60900  0.92962  0.72723  1.0000
  O  Te94      1.0  0.21913  0.94072  0.21754  1.0000
  O  Te95      1.0  0.78788  0.04380  0.29391  1.0000
  O  Te96      1.0  0.67449  0.03270  0.80351  1.0000
  Mg  Mg47      1.0  0.73969  0.95590  0.39545  1.0000
  Mg  Mg48      1.0  0.65717  0.01757  0.62561  1.0000
