data_image0
_chemical_formula_structural       P6H84C96N18O12C2Sn2C2HTe2HMgC2Sn2C2HTe2HMgC2Sn2C2HTe2HMgC2Sn2C2HTe2HMgC2Sn2C2HTe2HMgC2Sn2C2HTe2HMgC2Sn2C2HTe2HMgC2Sn2C2HTe2HMgC2Sn2C2HTe2HMgC2Sn2C2HTe2HMgC2Sn2C2HTe2HMgC2Sn2C2HTe2HMg
_chemical_formula_sum              "P6 H108 C144 N18 O12 Sn24 Te24 Mg12"
_cell_length_a       26.9726
_cell_length_b       27.0979
_cell_length_c       9.83657
_cell_angle_alpha    90.0895
_cell_angle_beta     108.474
_cell_angle_gamma    120.47

_symmetry_space_group_name_H-M    'P1'
_space_group_IT_number       1

loop_
  _space_group_symop_operation_xyz
  'x, y, z'

loop_
  _atom_site_type_symbol
  _atom_site_label
  _atom_site_symmetry_multiplicity
  _atom_site_fract_x
  _atom_site_fract_y
  _atom_site_fract_z
  _atom_site_occupancy
  P   P1        1.0  0.43734  0.29923  0.56822  1.0000
  P   P2        1.0  0.53258  0.30944  0.50145  1.0000
  P   P3        1.0  0.50622  0.36955  0.05554  1.0000
  P   P4        1.0  0.41810  0.26135  0.06215  1.0000
  P   P5        1.0  0.51622  0.27699  0.99577  1.0000
  P   P6        1.0  0.52306  0.40389  0.53648  1.0000
  H   H1        1.0  0.97878  0.27990  0.26826  1.0000
  H   H2        1.0  0.82381  0.39266  0.48374  1.0000
  H   H3        1.0  0.35867  0.92704  0.37275  1.0000
  H   H4        1.0  0.33499  0.85058  0.87105  1.0000
  H   H5        1.0  0.39061  0.92417  0.96737  1.0000
  H   H6        1.0  0.08007  0.24642  0.04580  1.0000
  H   H7        1.0  0.37437  0.74341  0.28179  1.0000
  H   H8        1.0  0.99187  0.82939  0.28416  1.0000
  H   H9        1.0  0.10557  0.43956  0.13263  1.0000
  H   H10       1.0  0.91955  0.58300  0.24618  1.0000
  H   H11       1.0  0.99614  0.64629  0.32684  1.0000
  H   H12       1.0  0.93484  0.63933  0.37392  1.0000
  H   H13       1.0  0.17424  0.88492  0.13946  1.0000
  H   H14       1.0  0.55811  0.06114  0.36295  1.0000
  H   H15       1.0  0.90748  0.40755  0.04841  1.0000
  H   H16       1.0  0.41681  0.60590  0.38882  1.0000
  H   H17       1.0  0.08603  0.93473  0.17652  1.0000
  H   H18       1.0  0.01513  0.91648  0.18955  1.0000
  H   H19       1.0  0.08479  0.98498  0.28846  1.0000
  H   H20       1.0  0.51812  0.98385  0.16951  1.0000
  H   H21       1.0  0.51932  0.89366  0.15152  1.0000
  H   H22       1.0  0.37820  0.79711  0.83748  1.0000
  H   H23       1.0  0.99783  0.25295  0.08803  1.0000
  H   H24       1.0  0.02594  0.72358  0.20050  1.0000
  H   H25       1.0  0.00059  0.41734  0.02773  1.0000
  H   H26       1.0  0.38024  0.65565  0.28473  1.0000
  H   H27       1.0  0.55795  0.84361  0.27401  1.0000
  H   H28       1.0  0.12925  0.26362  0.87826  1.0000
  H   H29       1.0  0.83204  0.69071  0.37871  1.0000
  H   H30       1.0  0.91949  0.77817  0.34784  1.0000
  H   H31       1.0  0.20319  0.45002  0.97180  1.0000
  H   H32       1.0  0.20784  0.48810  0.12766  1.0000
  H   H33       1.0  0.24497  0.44789  0.14794  1.0000
  H   H34       1.0  0.09263  0.78967  0.15804  1.0000
  H   H35       1.0  0.56534  0.72573  0.16700  1.0000
  H   H36       1.0  0.61260  0.80036  0.25871  1.0000
  H   H37       1.0  0.60119  0.74326  0.35927  1.0000
  H   H38       1.0  0.89774  0.23217  0.35267  1.0000
  H   H39       1.0  0.87745  0.27935  0.41068  1.0000
  H   H40       1.0  0.82758  0.22748  0.24560  1.0000
  H   H41       1.0  0.77343  0.63770  0.07181  1.0000
  H   H42       1.0  0.18564  0.98335  0.19231  1.0000
  H   H43       1.0  0.99014  0.30634  0.74600  1.0000
  H   H44       1.0  0.83819  0.40253  0.12756  1.0000
  H   H45       1.0  0.35228  0.90983  0.77642  1.0000
  H   H46       1.0  0.36573  0.87679  0.48302  1.0000
  H   H47       1.0  0.42019  0.95317  0.54243  1.0000
  H   H48       1.0  0.09785  0.27184  0.55206  1.0000
  H   H49       1.0  0.41201  0.74486  0.96377  1.0000
  H   H50       1.0  0.95673  0.80741  0.82415  1.0000
  H   H51       1.0  0.11089  0.46085  0.57405  1.0000
  H   H52       1.0  0.93323  0.60220  0.67475  1.0000
  H   H53       1.0  0.01030  0.66223  0.77254  1.0000
  H   H54       1.0  0.94818  0.65030  0.82433  1.0000
  H   H55       1.0  0.18535  0.93944  0.71882  1.0000
  H   H56       1.0  0.52062  0.02660  0.70223  1.0000
  H   H57       1.0  0.92511  0.43880  0.53162  1.0000
  H   H58       1.0  0.40708  0.57700  0.94959  1.0000
  H   H59       1.0  0.06222  0.92699  0.70998  1.0000
  H   H60       1.0  0.98429  0.88398  0.70128  1.0000
  H   H61       1.0  0.03929  0.95010  0.83328  1.0000
  H   H62       1.0  0.56531  0.97483  0.82258  1.0000
  H   H63       1.0  0.55823  0.88025  0.80833  1.0000
  H   H64       1.0  0.40931  0.82865  0.42027  1.0000
  H   H65       1.0  0.01597  0.27866  0.59618  1.0000
  H   H66       1.0  0.04590  0.74690  0.67202  1.0000
  H   H67       1.0  0.01220  0.44082  0.49410  1.0000
  H   H68       1.0  0.41060  0.65415  0.97241  1.0000
  H   H69       1.0  0.51627  0.79076  0.68159  1.0000
  H   H70       1.0  0.13878  0.28106  0.36196  1.0000
  H   H71       1.0  0.80877  0.64968  0.89056  1.0000
  H   H72       1.0  0.89184  0.73234  0.83697  1.0000
  H   H73       1.0  0.20827  0.50826  0.54571  1.0000
  H   H74       1.0  0.24993  0.47211  0.57537  1.0000
  H   H75       1.0  0.19947  0.46274  0.39768  1.0000
  H   H76       1.0  0.10615  0.83991  0.71833  1.0000
  H   H77       1.0  0.50720  0.65353  0.63178  1.0000
  H   H78       1.0  0.53820  0.72568  0.59461  1.0000
  H   H79       1.0  0.57644  0.71198  0.75995  1.0000
  H   H80       1.0  0.84629  0.24537  0.69792  1.0000
  H   H81       1.0  0.91458  0.26858  0.85361  1.0000
  H   H82       1.0  0.86839  0.29874  0.84542  1.0000
  H   H83       1.0  0.79994  0.67327  0.57076  1.0000
  H   H84       1.0  0.25372  0.99786  0.59932  1.0000
  C   C1        1.0  0.47286  0.69933  0.28287  1.0000
  C   C2        1.0  0.86937  0.64088  0.07939  1.0000
  C   C3        1.0  0.52270  0.75285  0.27443  1.0000
  C   C4        1.0  0.51886  0.80227  0.27627  1.0000
  C   C5        1.0  0.46682  0.80089  0.28268  1.0000
  C   C6        1.0  0.41659  0.74673  0.28438  1.0000
  C   C7        1.0  0.41978  0.69712  0.28496  1.0000
  C   C8        1.0  0.93173  0.65986  0.16131  1.0000
  C   C9        1.0  0.97844  0.70798  0.13094  1.0000
  C   C10       1.0  0.96655  0.73733  0.01863  1.0000
  C   C11       1.0  0.92868  0.75298  0.42669  1.0000
  C   C12       1.0  0.87927  0.70437  0.44561  1.0000
  C   C13       1.0  0.17627  0.29381  0.95845  1.0000
  C   C14       1.0  0.13925  0.33908  0.06181  1.0000
  C   C15       1.0  0.14637  0.39432  0.08654  1.0000
  C   C16       1.0  0.09943  0.39696  0.11147  1.0000
  C   C17       1.0  0.04572  0.34682  0.11526  1.0000
  C   C18       1.0  0.03939  0.29249  0.08868  1.0000
  C   C19       1.0  0.08503  0.28866  0.06218  1.0000
  C   C20       1.0  0.99614  0.34849  0.14435  1.0000
  C   C21       1.0  0.97689  0.38641  0.08941  1.0000
  C   C22       1.0  0.92424  0.38079  0.10120  1.0000
  C   C23       1.0  0.88950  0.33776  0.16998  1.0000
  C   C24       1.0  0.91044  0.30154  0.23349  1.0000
  C   C25       1.0  0.96286  0.30766  0.21904  1.0000
  C   C26       1.0  0.81148  0.35797  0.14617  1.0000
  C   C27       1.0  0.49639  0.89933  0.21784  1.0000
  C   C28       1.0  0.49603  0.95032  0.22826  1.0000
  C   C29       1.0  0.46386  0.95781  0.30641  1.0000
  C   C30       1.0  0.42936  0.91194  0.37025  1.0000
  C   C31       1.0  0.43228  0.86212  0.36255  1.0000
  C   C32       1.0  0.51439  0.05854  0.34580  1.0000
  C   C33       1.0  0.46529  0.85448  0.28744  1.0000
  C   C34       1.0  0.07963  0.81364  0.08129  1.0000
  C   C35       1.0  0.12610  0.86756  0.07134  1.0000
  C   C36       1.0  0.11190  0.90064  0.97439  1.0000
  C   C37       1.0  0.07751  0.91077  0.38068  1.0000
  C   C38       1.0  0.03399  0.85342  0.38103  1.0000
  C   C39       1.0  0.19329  0.99397  0.08988  1.0000
  C   C40       1.0  0.01695  0.79093  0.99658  1.0000
  C   C41       1.0  0.57879  0.75608  0.26489  1.0000
  C   C42       1.0  0.37213  0.89321  0.86560  1.0000
  C   C43       1.0  0.20364  0.44833  0.08398  1.0000
  C   C44       1.0  0.44995  0.60815  0.34255  1.0000
  C   C45       1.0  0.87649  0.25749  0.31490  1.0000
  C   C46       1.0  0.77538  0.59989  0.10651  1.0000
  C   C47       1.0  0.94677  0.63062  0.28366  1.0000
  C   C48       1.0  0.06497  0.93833  0.25200  1.0000
  C   C49       1.0  0.46373  0.67009  0.83398  1.0000
  C   C50       1.0  0.88895  0.67120  0.54898  1.0000
  C   C51       1.0  0.49514  0.71040  0.75396  1.0000
  C   C52       1.0  0.49383  0.76123  0.74740  1.0000
  C   C53       1.0  0.46420  0.77511  0.82116  1.0000
  C   C54       1.0  0.43353  0.73476  0.90085  1.0000
  C   C55       1.0  0.43307  0.68335  0.90620  1.0000
  C   C56       1.0  0.95006  0.68556  0.62758  1.0000
  C   C57       1.0  0.99904  0.73543  0.60847  1.0000
  C   C58       1.0  0.99011  0.77082  0.51090  1.0000
  C   C59       1.0  0.90400  0.71409  0.93093  1.0000
  C   C60       1.0  0.85664  0.66728  0.96105  1.0000
  C   C61       1.0  0.18614  0.31436  0.43499  1.0000
  C   C62       1.0  0.14951  0.36170  0.53276  1.0000
  C   C63       1.0  0.15331  0.41581  0.53972  1.0000
  C   C64       1.0  0.10712  0.41890  0.56718  1.0000
  C   C65       1.0  0.05712  0.37041  0.58943  1.0000
  C   C66       1.0  0.05452  0.31719  0.58214  1.0000
  C   C67       1.0  0.09964  0.31287  0.55429  1.0000
  C   C68       1.0  0.00759  0.37302  0.61588  1.0000
  C   C69       1.0  0.98872  0.41093  0.55793  1.0000
  C   C70       1.0  0.93862  0.40883  0.57621  1.0000
  C   C71       1.0  0.90433  0.36786  0.64970  1.0000
  C   C72       1.0  0.92337  0.33004  0.71060  1.0000
  C   C73       1.0  0.97493  0.33437  0.69493  1.0000
  C   C74       1.0  0.81677  0.37578  0.58219  1.0000
  C   C75       1.0  0.51961  0.88210  0.81428  1.0000
  C   C76       1.0  0.52370  0.93539  0.82232  1.0000
  C   C77       1.0  0.47595  0.93984  0.83809  1.0000
  C   C78       1.0  0.42295  0.88906  0.84536  1.0000
  C   C79       1.0  0.41949  0.83602  0.83431  1.0000
  C   C80       1.0  0.50386  0.03297  0.78539  1.0000
  C   C81       1.0  0.46734  0.83109  0.82077  1.0000
  C   C82       1.0  0.09893  0.85789  0.62046  1.0000
  C   C83       1.0  0.14398  0.91440  0.62088  1.0000
  C   C84       1.0  0.13368  0.94229  0.50370  1.0000
  C   C85       1.0  0.04977  0.87724  0.88069  1.0000
  C   C86       1.0  0.00420  0.82352  0.89480  1.0000
  C   C87       1.0  0.23371  0.02485  0.56950  1.0000
  C   C88       1.0  0.04198  0.82646  0.50172  1.0000
  C   C89       1.0  0.53090  0.69980  0.68002  1.0000
  C   C90       1.0  0.39147  0.91732  0.44654  1.0000
  C   C91       1.0  0.20567  0.46797  0.51404  1.0000
  C   C92       1.0  0.43779  0.57792  0.89675  1.0000
  C   C93       1.0  0.88636  0.28324  0.78190  1.0000
  C   C94       1.0  0.79605  0.63102  0.57952  1.0000
  C   C95       1.0  0.96139  0.64825  0.73065  1.0000
  C   C96       1.0  0.03280  0.91128  0.77537  1.0000
  N   N1        1.0  0.45849  0.32931  0.12962  1.0000
  N   N2        1.0  0.82245  0.59620  0.11841  1.0000
  N   N3        1.0  0.47099  0.26955  0.53279  1.0000
  N   N4        1.0  0.54979  0.37275  0.47253  1.0000
  N   N5        1.0  0.18803  0.33616  0.04978  1.0000
  N   N6        1.0  0.83252  0.32412  0.17215  1.0000
  N   N7        1.0  0.46329  0.00894  0.32036  1.0000
  N   N8        1.0  0.15777  0.95640  0.96823  1.0000
  N   N9        1.0  0.48013  0.65164  0.28625  1.0000
  N   N10       1.0  0.47606  0.36848  0.61634  1.0000
  N   N11       1.0  0.83941  0.62396  0.57463  1.0000
  N   N12       1.0  0.45028  0.23409  0.00691  1.0000
  N   N13       1.0  0.53621  0.34273  0.98811  1.0000
  N   N14       1.0  0.19778  0.35904  0.51720  1.0000
  N   N15       1.0  0.85259  0.36176  0.66999  1.0000
  N   N16       1.0  0.47949  0.99284  0.85645  1.0000
  N   N17       1.0  0.17459  0.00178  0.51174  1.0000
  N   N18       1.0  0.46738  0.62033  0.83692  1.0000
  O   O1        1.0  0.55720  0.42717  0.18169  1.0000
  O   O2        1.0  0.49489  0.42566  0.39713  1.0000
  O   O3        1.0  0.53156  0.27541  0.36543  1.0000
  O   O4        1.0  0.59076  0.31509  0.63609  1.0000
  O   O5        1.0  0.37417  0.27809  0.42562  1.0000
  O   O6        1.0  0.39145  0.22666  0.17998  1.0000
  O   O7        1.0  0.57656  0.46299  0.65770  1.0000
  O   O8        1.0  0.47651  0.39160  0.91974  1.0000
  O   O9        1.0  0.52091  0.24942  0.85787  1.0000
  O   O10       1.0  0.56933  0.27463  0.12763  1.0000
  O   O11       1.0  0.35377  0.24440  0.93000  1.0000
  O   O12       1.0  0.40832  0.26926  0.68793  1.0000
  C   C97       1.0  0.42812  0.47381  0.43580  1.0000
  C   C98       1.0  0.46907  0.46606  0.39418  1.0000
  C  Sn1       1.0  0.50951  0.50916  0.33796  1.0000
  C  Sn2       1.0  0.50886  0.56092  0.32329  1.0000
  C   C99       1.0  0.46774  0.56827  0.36533  1.0000
  C   C100      1.0  0.42746  0.52486  0.42143  1.0000
  H   H85       1.0  0.39697  0.44024  0.47928  1.0000
  O  Te1       1.0  0.55011  0.50070  0.29685  1.0000
  O  Te2       1.0  0.54880  0.60470  0.26746  1.0000
  H   H86       1.0  0.39579  0.53089  0.45373  1.0000
  Mg  Mg1       1.0  0.59563  0.57296  0.22654  1.0000
  C   C101      1.0  0.67907  0.46941  0.21136  1.0000
  C   C102      1.0  0.62600  0.47015  0.19404  1.0000
  C  Sn3       1.0  0.62017  0.51540  0.14039  1.0000
  C  Sn4       1.0  0.66843  0.56068  0.10346  1.0000
  C   C103      1.0  0.72131  0.55952  0.12109  1.0000
  C   C104      1.0  0.72668  0.51404  0.17491  1.0000
  H   H87       1.0  0.68321  0.43420  0.25293  1.0000
  O  Te3       1.0  0.56685  0.51549  0.12381  1.0000
  O  Te4       1.0  0.66379  0.60642  0.04956  1.0000
  H   H88       1.0  0.76775  0.51345  0.18822  1.0000
  Mg  Mg2       1.0  0.58210  0.58724  0.04630  1.0000
  C   C105      1.0  0.70864  0.37211  0.08356  1.0000
  C   C106      1.0  0.74449  0.34801  0.13595  1.0000
  C  Sn5       1.0  0.71867  0.29341  0.17536  1.0000
  C  Sn6       1.0  0.65578  0.26247  0.16191  1.0000
  C   C107      1.0  0.62029  0.28694  0.10929  1.0000
  C   C108      1.0  0.64659  0.34161  0.07021  1.0000
  H   H89       1.0  0.72898  0.41440  0.05325  1.0000
  O  Te5       1.0  0.75515  0.26998  0.22755  1.0000
  O  Te6       1.0  0.62880  0.20782  0.20046  1.0000
  H   H90       1.0  0.61881  0.36024  0.02956  1.0000
  Mg  Mg3       1.0  0.69743  0.19413  0.26607  1.0000
  C   C109      1.0  0.70250  0.32406  0.74219  1.0000
  C   C110      1.0  0.65927  0.33694  0.65978  1.0000
  C  Sn7       1.0  0.66716  0.36443  0.54154  1.0000
  C  Sn8       1.0  0.71933  0.37924  0.50536  1.0000
  C   C111      1.0  0.76229  0.36614  0.58842  1.0000
  C   C112      1.0  0.75396  0.33863  0.70655  1.0000
  H   H91       1.0  0.69603  0.30275  0.83354  1.0000
  O  Te7       1.0  0.62354  0.37700  0.46039  1.0000
  O  Te8       1.0  0.72834  0.40672  0.38771  1.0000
  H   H92       1.0  0.78741  0.32863  0.77028  1.0000
  Mg  Mg4       1.0  0.65610  0.41484  0.31008  1.0000
  C   C113      1.0  0.58502  0.18244  0.38793  1.0000
  C   C114      1.0  0.53420  0.12691  0.37439  1.0000
  C  Sn9       1.0  0.47677  0.11912  0.35333  1.0000
  C  Sn10      1.0  0.47024  0.16792  0.34571  1.0000
  C   C115      1.0  0.52135  0.22329  0.35928  1.0000
  C   C116      1.0  0.57861  0.23059  0.38037  1.0000
  H   H93       1.0  0.62932  0.18809  0.40417  1.0000
  O  Te9       1.0  0.42648  0.06334  0.34007  1.0000
  O  Te10      1.0  0.41336  0.16137  0.32468  1.0000
  H   H94       1.0  0.61794  0.27358  0.39075  1.0000
  Mg  Mg5       1.0  0.35847  0.07662  0.31275  1.0000
  C   C117      1.0  0.27896  0.08379  0.97787  1.0000
  C   C118      1.0  0.60414  0.97688  0.07548  1.0000
  C  Sn11      1.0  0.62203  0.00837  0.21284  1.0000
  C  Sn12      1.0  0.15971  0.06864  0.25289  1.0000
  C   C119      1.0  0.18772  0.09589  0.15441  1.0000
  C   C120      1.0  0.16948  0.06396  0.01727  1.0000
  H   H95       1.0  0.77427  0.05910  0.87173  1.0000
  O  Te11      1.0  0.59327  0.98008  0.30905  1.0000
  O  Te12      1.0  0.17847  0.10115  0.38945  1.0000
  H   H96       1.0  0.34733  0.16465  0.94168  1.0000
  Mg  Mg6       1.0  0.12543  0.04304  0.48275  1.0000
  C   C121      1.0  0.21121  0.22720  0.83259  1.0000
  C   C122      1.0  0.21678  0.26792  0.93315  1.0000
  C  Sn13      1.0  0.11763  0.22643  0.04572  1.0000
  C  Sn14      1.0  0.16973  0.22330  0.05753  1.0000
  C   C123      1.0  0.31963  0.26171  0.95632  1.0000
  C   C124      1.0  0.26258  0.22409  0.84413  1.0000
  H   H97       1.0  0.16707  0.19811  0.74574  1.0000
  O  Te13      1.0  0.12238  0.26684  0.14529  1.0000
  O  Te14      1.0  0.22705  0.26056  0.16895  1.0000
  H   H98       1.0  0.25829  0.19259  0.76623  1.0000
  Mg  Mg7       1.0  0.21030  0.30823  0.27813  1.0000
  C   C125      1.0  0.31168  0.34472  0.55827  1.0000
  C   C126      1.0  0.25099  0.31757  0.45734  1.0000
  C  Sn15      1.0  0.22867  0.27216  0.34328  1.0000
  C  Sn16      1.0  0.26794  0.25366  0.33033  1.0000
  C   C127      1.0  0.32857  0.28107  0.43192  1.0000
  C   C128      1.0  0.35044  0.32648  0.54561  1.0000
  H   H99       1.0  0.32860  0.37983  0.64628  1.0000
  O  Te15      1.0  0.16792  0.24553  0.24336  1.0000
  O  Te16      1.0  0.24681  0.20836  0.21741  1.0000
  H   H100      1.0  0.39741  0.34746  0.62379  1.0000
  Mg  Mg8       1.0  0.16042  0.18571  0.10832  1.0000
  C   C129      1.0  0.49241  0.49088  0.81941  1.0000
  C   C130      1.0  0.47403  0.44670  0.89975  1.0000
  C  Sn17      1.0  0.43654  0.44170  0.97632  1.0000
  C  Sn18      1.0  0.41717  0.48174  0.97216  1.0000
  C   C131      1.0  0.43577  0.52576  0.89138  1.0000
  C   C132      1.0  0.47330  0.53037  0.81520  1.0000
  H   H101      1.0  0.52142  0.49444  0.76040  1.0000
  O  Te17      1.0  0.26267  0.31804  0.05609  1.0000
  O  Te18      1.0  0.22373  0.39845  0.04764  1.0000
  H   H102      1.0  0.48749  0.56456  0.75293  1.0000
  Mg  Mg9       1.0  0.21144  0.33050  0.14092  1.0000
  C   C133      1.0  0.68944  0.49295  0.63541  1.0000
  C   C134      1.0  0.64316  0.49938  0.65094  1.0000
  C  Sn19      1.0  0.64492  0.55140  0.63473  1.0000
  C  Sn20      1.0  0.69398  0.59776  0.60234  1.0000
  C   C135      1.0  0.74003  0.59088  0.58692  1.0000
  C   C136      1.0  0.73783  0.53865  0.60341  1.0000
  H   H103      1.0  0.68772  0.45253  0.64809  1.0000
  O  Te19      1.0  0.59832  0.55709  0.65065  1.0000
  O  Te20      1.0  0.69686  0.65021  0.58552  1.0000
  H   H104      1.0  0.77364  0.53368  0.59129  1.0000
  Mg  Mg10      1.0  0.62254  0.63700  0.61761  1.0000
  C   C137      1.0  0.53796  0.14563  0.71634  1.0000
  C   C138      1.0  0.51865  0.09991  0.79193  1.0000
  C  Sn21      1.0  0.49501  0.10173  0.89805  1.0000
  C  Sn22      1.0  0.49067  0.15028  0.92879  1.0000
  C   C139      1.0  0.51008  0.19578  0.85250  1.0000
  C   C140      1.0  0.53367  0.19352  0.74656  1.0000
  H   H105      1.0  0.55619  0.14387  0.63432  1.0000
  O  Te21      1.0  0.98539  0.05569  0.97258  1.0000
  O  Te22      1.0  0.31126  0.07392  0.03427  1.0000
  H   H106      1.0  0.54859  0.22890  0.68799  1.0000
  Mg  Mg11      1.0  0.80070  0.00045  0.10668  1.0000
  C   C141      1.0  0.28545  0.17581  0.60471  1.0000
  C   C142      1.0  0.34980  0.20546  0.64921  1.0000
  C  Sn23      1.0  0.37881  0.17433  0.66006  1.0000
  C  Sn24      1.0  0.34260  0.11237  0.62562  1.0000
  C   C143      1.0  0.27825  0.08312  0.58111  1.0000
  C   C144      1.0  0.24970  0.11470  0.57067  1.0000
  H   H107      1.0  0.26335  0.20024  0.59656  1.0000
  O  Te23      1.0  0.44315  0.20465  0.70473  1.0000
  O  Te24      1.0  0.37040  0.08018  0.63547  1.0000
  H   H108      1.0  0.19987  0.09173  0.53613  1.0000
  Mg  Mg12      1.0  0.45961  0.14133  0.70141  1.0000
