data_image0
_chemical_formula_structural       P6H12C12N18O12SnCSn2CSnTe4Mg2SnCSn2CSnTe4Mg2SnCSn2CSnTe4Mg2SnCSn2CSnTe4Mg2SnCSn2CSnTe4Mg2SnCSn2CSnTe4Mg2SnCSn2CSnTe4Mg2SnCSn2CSnTe4Mg2SnCSn2CSnTe4Mg2SnCSn2CSnTe4Mg2SnCSn2CSnTe4Mg2SnCSn2CSnTe4Mg2SnCSn2CSnTe4Mg2SnCSn2CSnTe4Mg2SnCSn2CSnTe4Mg2SnCSn2CSnTe4Mg2SnCSn2CSnTe4Mg2SnCSn2CSnTe4Mg2
_chemical_formula_sum              "P6 H12 C48 N18 O12 Sn72 Te72 Mg36"
_cell_length_a       23.0352
_cell_length_b       22.4875
_cell_length_c       8.81206
_cell_angle_alpha    89.2846
_cell_angle_beta     83.49
_cell_angle_gamma    117.268

_symmetry_space_group_name_H-M    'P1'
_space_group_IT_number       1

loop_
  _space_group_symop_operation_xyz
  'x, y, z'

loop_
  _atom_site_type_symbol
  _atom_site_label
  _atom_site_symmetry_multiplicity
  _atom_site_fract_x
  _atom_site_fract_y
  _atom_site_fract_z
  _atom_site_occupancy
  P   P1        1.0  0.29731  0.37374  0.51586  1.0000
  P   P2        1.0  0.30783  0.26814  0.51372  1.0000
  P   P3        1.0  0.44122  0.43048  0.47862  1.0000
  P   P4        1.0  0.30503  0.37821  0.01812  1.0000
  P   P5        1.0  0.31050  0.26954  0.00935  1.0000
  P   P6        1.0  0.44893  0.43211  0.96392  1.0000
  H   H1        1.0  0.68217  0.79280  0.91462  1.0000
  H   H2        1.0  0.72921  0.37421  0.26168  1.0000
  H   H3        1.0  0.98866  0.98046  0.23265  1.0000
  H   H4        1.0  0.95218  0.27661  0.11106  1.0000
  H   H5        1.0  0.30662  0.70223  0.49145  1.0000
  H   H6        1.0  0.48230  0.06083  0.09704  1.0000
  H   H7        1.0  0.65692  0.80000  0.46841  1.0000
  H   H8        1.0  0.75189  0.40697  0.75794  1.0000
  H   H9        1.0  0.99111  0.97011  0.69757  1.0000
  H   H10       1.0  0.94979  0.28499  0.63609  1.0000
  H   H11       1.0  0.31678  0.70869  0.02032  1.0000
  H   H12       1.0  0.46410  0.04575  0.60615  1.0000
  C   C1        1.0  0.67402  0.75182  0.99750  1.0000
  C   C2        1.0  0.69504  0.35990  0.36917  1.0000
  C   C3        1.0  0.99582  0.01375  0.13203  1.0000
  C   C4        1.0  0.98465  0.31590  0.02122  1.0000
  C   C5        1.0  0.34945  0.69845  0.52506  1.0000
  C   C6        1.0  0.43529  0.04724  0.51603  1.0000
  C   C7        1.0  0.66390  0.75662  0.50206  1.0000
  C   C8        1.0  0.71072  0.37799  0.84821  1.0000
  C   C9        1.0  0.99447  0.01114  0.62201  1.0000
  C   C10       1.0  0.98003  0.31878  0.53532  1.0000
  C   C11       1.0  0.36097  0.70406  0.03981  1.0000
  C   C12       1.0  0.44484  0.05454  0.02295  1.0000
  N   N1        1.0  0.36642  0.38651  0.39981  1.0000
  N   N2        1.0  0.27678  0.30777  0.11207  1.0000
  N   N3        1.0  0.36756  0.32054  0.39121  1.0000
  N   N4        1.0  0.71569  0.75933  0.09178  1.0000
  N   N5        1.0  0.71610  0.34106  0.95425  1.0000
  N   N6        1.0  0.94876  0.00343  0.05197  1.0000
  N   N7        1.0  0.96584  0.35136  0.94291  1.0000
  N   N8        1.0  0.40569  0.75086  0.52673  1.0000
  N   N9        1.0  0.41311  0.00094  0.42115  1.0000
  N   N10       1.0  0.37172  0.38764  0.89662  1.0000
  N   N11       1.0  0.27187  0.30481  0.61493  1.0000
  N   N12       1.0  0.36901  0.32032  0.88203  1.0000
  N   N13       1.0  0.71596  0.76351  0.55814  1.0000
  N   N14       1.0  0.70822  0.33787  0.49075  1.0000
  N   N15       1.0  0.94503  0.00800  0.55955  1.0000
  N   N16       1.0  0.95937  0.34979  0.44849  1.0000
  N   N17       1.0  0.41791  0.75624  0.03479  1.0000
  N   N18       1.0  0.41741  0.00319  0.94333  1.0000
  O   O1        1.0  0.49234  0.43090  0.32532  1.0000
  O   O2        1.0  0.44807  0.50708  0.42932  1.0000
  O   O3        1.0  0.25516  0.21154  0.92109  1.0000
  O   O4        1.0  0.33121  0.22753  0.12179  1.0000
  O   O5        1.0  0.32245  0.43836  0.12727  1.0000
  O   O6        1.0  0.24707  0.37336  0.40269  1.0000
  O   O7        1.0  0.49749  0.43290  0.80650  1.0000
  O   O8        1.0  0.45305  0.50777  0.91741  1.0000
  O   O9        1.0  0.25338  0.21078  0.42216  1.0000
  O   O10       1.0  0.32836  0.22489  0.62257  1.0000
  O   O11       1.0  0.30949  0.43337  0.62332  1.0000
  O   O12       1.0  0.25559  0.38351  0.91115  1.0000
  C  Sn1       1.0  0.09108  0.31078  0.62185  1.0000
  C   C13       1.0  0.05823  0.33759  0.54246  1.0000
  C  Sn2       1.0  0.08598  0.37096  0.39767  1.0000
  C  Sn3       1.0  0.14784  0.37764  0.33079  1.0000
  C   C14       1.0  0.18065  0.35084  0.41015  1.0000
  C  Sn4       1.0  0.15294  0.31746  0.55497  1.0000
  O  Te1       1.0  0.06241  0.27761  0.76646  1.0000
  O  Te2       1.0  0.05222  0.39736  0.32054  1.0000
  O  Te3       1.0  0.17650  0.41085  0.18606  1.0000
  O  Te4       1.0  0.18666  0.29106  0.63207  1.0000
  Mg  Mg1       1.0  0.11145  0.43820  0.12622  1.0000
  Mg  Mg2       1.0  0.12747  0.25018  0.82635  1.0000
  C  Sn5       1.0  0.12557  0.28648  0.01498  1.0000
  C   C15       1.0  0.11921  0.30924  0.92653  1.0000
  C  Sn6       1.0  0.11033  0.36365  0.87883  1.0000
  C  Sn7       1.0  0.04890  0.36338  0.92049  1.0000
  C   C16       1.0  0.05531  0.34065  0.00890  1.0000
  C  Sn8       1.0  0.06414  0.28621  0.05663  1.0000
  O  Te5       1.0  0.13555  0.23263  0.06139  1.0000
  O  Te6       1.0  0.16235  0.41777  0.79044  1.0000
  O  Te7       1.0  0.03896  0.41729  0.87398  1.0000
  O  Te8       1.0  0.01217  0.23212  0.14499  1.0000
  Mg  Mg3       1.0  0.12473  0.47940  0.75505  1.0000
  Mg  Mg4       1.0  0.04975  0.17049  0.18050  1.0000
  C  Sn9       1.0  0.27532  0.56478  0.08418  1.0000
  C   C17       1.0  0.33045  0.62329  0.11218  1.0000
  C  Sn10      1.0  0.38948  0.62213  0.12938  1.0000
  C  Sn11      1.0  0.39350  0.56123  0.11829  1.0000
  C   C18       1.0  0.33840  0.50276  0.09029  1.0000
  C  Sn12      1.0  0.27935  0.50387  0.07309  1.0000
  O  Te9       1.0  0.21682  0.56710  0.06736  1.0000
  O  Te10      1.0  0.44392  0.68127  0.15735  1.0000
  O  Te11      1.0  0.45207  0.55895  0.13515  1.0000
  O  Te12      1.0  0.22493  0.44478  0.04511  1.0000
  Mg  Mg5       1.0  0.51271  0.65264  0.17184  1.0000
  Mg  Mg6       1.0  0.15614  0.47336  0.03052  1.0000
  C  Sn13      1.0  0.28747  0.52770  0.46694  1.0000
  C   C19       1.0  0.32001  0.50271  0.55273  1.0000
  C  Sn14      1.0  0.35889  0.54140  0.66001  1.0000
  C  Sn15      1.0  0.36535  0.60641  0.68208  1.0000
  C   C20       1.0  0.33281  0.63137  0.59635  1.0000
  C  Sn16      1.0  0.29393  0.59271  0.48902  1.0000
  O  Te13      1.0  0.24886  0.48815  0.36033  1.0000
  O  Te14      1.0  0.39096  0.51534  0.74438  1.0000
  O  Te15      1.0  0.40400  0.64596  0.78880  1.0000
  O  Te16      1.0  0.26186  0.61873  0.40470  1.0000
  Mg  Mg7       1.0  0.43795  0.58840  0.87605  1.0000
  Mg  Mg8       1.0  0.21483  0.54571  0.27306  1.0000
  C  Sn17      1.0  0.88216  0.86438  0.06563  1.0000
  C   C21       1.0  0.89175  0.92997  0.04128  1.0000
  C  Sn18      1.0  0.83809  0.94362  0.05818  1.0000
  C  Sn19      1.0  0.77349  0.89061  0.10041  1.0000
  C   C22       1.0  0.76393  0.82507  0.12476  1.0000
  C  Sn20      1.0  0.81756  0.81137  0.10786  1.0000
  O  Te17      1.0  0.93652  0.85189  0.04809  1.0000
  O  Te18      1.0  0.40165  0.00959  0.03317  1.0000
  O  Te19      1.0  0.71911  0.90315  0.11793  1.0000
  O  Te20      1.0  0.80677  0.74545  0.13287  1.0000
  Mg  Mg9       1.0  0.31179  0.00130  0.07135  1.0000
  Mg  Mg10      1.0  0.89659  0.75369  0.09480  1.0000
  C  Sn21      1.0  0.60171  0.61013  0.05141  1.0000
  C   C23       1.0  0.56585  0.64053  0.97253  1.0000
  C  Sn22      1.0  0.52462  0.65200  0.88486  1.0000
  C  Sn23      1.0  0.46023  0.60007  0.87590  1.0000
  C   C24       1.0  0.43845  0.53776  0.95477  1.0000
  C  Sn24      1.0  0.53732  0.55820  0.04246  1.0000
  O  Te21      1.0  0.64377  0.59978  0.13837  1.0000
  O  Te22      1.0  0.54753  0.71476  0.80697  1.0000
  O  Te23      1.0  0.41818  0.61047  0.78884  1.0000
  O  Te24      1.0  0.51444  0.49549  0.12033  1.0000
  Mg  Mg11      1.0  0.47185  0.70448  0.70352  1.0000
  Mg  Mg12      1.0  0.59006  0.50572  0.22387  1.0000
  C  Sn25      1.0  0.79528  0.29366  0.07134  1.0000
  C   C25       1.0  0.78309  0.34330  0.00709  1.0000
  C  Sn26      1.0  0.77364  0.36169  0.90272  1.0000
  C  Sn27      1.0  0.83531  0.36241  0.86163  1.0000
  C   C26       1.0  0.84748  0.31279  0.92584  1.0000
  C  Sn28      1.0  0.85696  0.29439  0.03025  1.0000
  O  Te25      1.0  0.74637  0.24381  0.17544  1.0000
  O  Te26      1.0  0.76031  0.41079  0.84004  1.0000
  O  Te27      1.0  0.88424  0.41232  0.75744  1.0000
  O  Te28      1.0  0.87025  0.24530  0.09289  1.0000
  Mg  Mg13      1.0  0.84268  0.46822  0.70313  1.0000
  Mg  Mg14      1.0  0.78792  0.18783  0.22974  1.0000
  C  Sn29      1.0  0.56706  0.57894  0.54565  1.0000
  C   C27       1.0  0.50658  0.56572  0.49885  1.0000
  C  Sn30      1.0  0.49825  0.61702  0.42966  1.0000
  C  Sn31      1.0  0.55148  0.68291  0.40667  1.0000
  C   C28       1.0  0.61192  0.69610  0.45342  1.0000
  C  Sn32      1.0  0.62030  0.64483  0.52265  1.0000
  O  Te29      1.0  0.57428  0.52689  0.61457  1.0000
  O  Te30      1.0  0.43731  0.60258  0.38389  1.0000
  O  Te31      1.0  0.54421  0.73497  0.33768  1.0000
  O  Te32      1.0  0.68119  0.65924  0.56838  1.0000
  Mg  Mg15      1.0  0.45175  0.69034  0.29502  1.0000
  Mg  Mg16      1.0  0.66682  0.57152  0.65719  1.0000
  C  Sn33      1.0  0.54813  0.37185  0.49616  1.0000
  C   C29       1.0  0.54313  0.41106  0.37904  1.0000
  C  Sn34      1.0  0.58412  0.42632  0.23947  1.0000
  C  Sn35      1.0  0.63106  0.40184  0.21643  1.0000
  C   C30       1.0  0.63603  0.36265  0.33348  1.0000
  C  Sn36      1.0  0.59506  0.34737  0.47311  1.0000
  O  Te33      1.0  0.50664  0.35721  0.63475  1.0000
  O  Te34      1.0  0.57823  0.46564  0.12411  1.0000
  O  Te35      1.0  0.67256  0.41652  0.07769  1.0000
  O  Te36      1.0  0.60093  0.30807  0.58842  1.0000
  Mg  Mg17      1.0  0.58812  0.43999  0.95538  1.0000
  Mg  Mg18      1.0  0.53339  0.30170  0.75715  1.0000
  C  Sn37      1.0  0.43679  0.20257  0.60910  1.0000
  C   C31       1.0  0.38317  0.20172  0.54737  1.0000
  C  Sn38      1.0  0.34090  0.14534  0.47808  1.0000
  C  Sn39      1.0  0.35243  0.08861  0.47041  1.0000
  C   C32       1.0  0.40602  0.08947  0.53214  1.0000
  C  Sn40      1.0  0.44833  0.14583  0.60143  1.0000
  O  Te37      1.0  0.47841  0.25947  0.67784  1.0000
  O  Te38      1.0  0.28763  0.14568  0.41712  1.0000
  O  Te39      1.0  0.31076  0.03168  0.40159  1.0000
  O  Te40      1.0  0.50156  0.14551  0.66239  1.0000
  Mg  Mg19      1.0  0.24482  0.05625  0.33511  1.0000
  Mg  Mg20      1.0  0.54438  0.23489  0.74448  1.0000
  C  Sn41      1.0  0.36392  0.10871  0.92818  1.0000
  C   C33       1.0  0.42069  0.11413  0.98266  1.0000
  C  Sn42      1.0  0.50508  0.18890  0.09743  1.0000
  C  Sn43      1.0  0.47441  0.22707  0.15912  1.0000
  C   C34       1.0  0.41767  0.22163  0.10467  1.0000
  C  Sn44      1.0  0.33325  0.14688  0.98987  1.0000
  O  Te41      1.0  0.33806  0.06559  0.81339  1.0000
  O  Te42      1.0  0.56188  0.19349  0.15001  1.0000
  O  Te43      1.0  0.50033  0.27021  0.27399  1.0000
  O  Te44      1.0  0.27648  0.14227  0.93732  1.0000
  Mg  Mg21      1.0  0.57843  0.25918  0.30795  1.0000
  Mg  Mg22      1.0  0.25986  0.07658  0.77944  1.0000
  C  Sn45      1.0  0.36707  0.87113  0.91448  1.0000
  C   C35       1.0  0.40829  0.93096  0.97457  1.0000
  C  Sn46      1.0  0.52207  0.96947  0.03429  1.0000
  C  Sn47      1.0  0.53734  0.91511  0.03387  1.0000
  C   C36       1.0  0.43848  0.82338  0.97378  1.0000
  C  Sn48      1.0  0.38234  0.81678  0.91406  1.0000
  O  Te45      1.0  0.31123  0.86570  0.85537  1.0000
  O  Te46      1.0  0.11526  0.02976  0.09379  1.0000
  O  Te47      1.0  0.59323  0.92060  0.09306  1.0000
  O  Te48      1.0  0.34192  0.75653  0.85457  1.0000
  Mg  Mg23      1.0  0.18579  0.01283  0.16131  1.0000
  Mg  Mg24      1.0  0.27139  0.77343  0.78695  1.0000
  C  Sn49      1.0  0.08980  0.11595  0.91934  1.0000
  C   C37       1.0  0.12541  0.09907  0.04122  1.0000
  C  Sn50      1.0  0.16627  0.10398  0.15118  1.0000
  C  Sn51      1.0  0.23051  0.15886  0.13914  1.0000
  C   C38       1.0  0.25253  0.20766  0.01734  1.0000
  C  Sn52      1.0  0.15404  0.17083  0.90730  1.0000
  O  Te49      1.0  0.04811  0.11003  0.81074  1.0000
  O  Te50      1.0  0.14314  0.05453  0.27196  1.0000
  O  Te51      1.0  0.27220  0.16474  0.24788  1.0000
  O  Te52      1.0  0.17714  0.22025  0.78660  1.0000
  Mg  Mg25      1.0  0.21831  0.08473  0.39136  1.0000
  Mg  Mg26      1.0  0.10200  0.19012  0.66719  1.0000
  C  Sn53      1.0  0.45624  0.88341  0.57064  1.0000
  C   C39       1.0  0.41100  0.82303  0.51998  1.0000
  C  Sn54      1.0  0.37334  0.82314  0.40652  1.0000
  C  Sn55      1.0  0.38107  0.88489  0.34226  1.0000
  C   C40       1.0  0.42629  0.94523  0.39290  1.0000
  C  Sn56      1.0  0.46397  0.94516  0.50639  1.0000
  O  Te53      1.0  0.49338  0.88211  0.68419  1.0000
  O  Te54      1.0  0.32841  0.76213  0.35776  1.0000
  O  Te55      1.0  0.34388  0.88615  0.22863  1.0000
  O  Te56      1.0  0.06162  0.00612  0.55512  1.0000
  Mg  Mg27      1.0  0.28916  0.78996  0.20015  1.0000
  Mg  Mg28      1.0  0.10092  0.97836  0.71266  1.0000
  C  Sn57      1.0  0.81264  0.85111  0.71659  1.0000
  C   C41       1.0  0.76789  0.83565  0.61065  1.0000
  C  Sn58      1.0  0.78410  0.87678  0.47637  1.0000
  C  Sn59      1.0  0.84636  0.93456  0.44730  1.0000
  C   C42       1.0  0.89108  0.94999  0.55318  1.0000
  C  Sn60      1.0  0.87490  0.90889  0.68752  1.0000
  O  Te57      1.0  0.79539  0.80927  0.85007  1.0000
  O  Te58      1.0  0.73853  0.86031  0.37220  1.0000
  O  Te59      1.0  0.86359  0.97640  0.31369  1.0000
  O  Te60      1.0  0.92043  0.92533  0.79164  1.0000
  Mg  Mg29      1.0  0.78487  0.93289  0.20676  1.0000
  Mg  Mg30      1.0  0.87416  0.85277  0.95706  1.0000
  C  Sn61      1.0  0.82087  0.27778  0.53324  1.0000
  C   C43       1.0  0.88130  0.32481  0.45430  1.0000
  C  Sn62      1.0  0.88959  0.38716  0.39963  1.0000
  C  Sn63      1.0  0.83639  0.40285  0.42446  1.0000
  C   C44       1.0  0.77601  0.35585  0.50338  1.0000
  C  Sn64      1.0  0.76767  0.29347  0.55807  1.0000
  O  Te61      1.0  0.81369  0.21576  0.58688  1.0000
  O  Te62      1.0  0.95045  0.43335  0.32098  1.0000
  O  Te63      1.0  0.84361  0.46493  0.37073  1.0000
  O  Te64      1.0  0.70685  0.24731  0.63669  1.0000
  Mg  Mg31      1.0  0.93600  0.51115  0.27014  1.0000
  Mg  Mg32      1.0  0.72126  0.16951  0.68765  1.0000
  C  Sn65      1.0  0.65832  0.46414  0.80396  1.0000
  C   C45       1.0  0.65556  0.40416  0.85851  1.0000
  C  Sn66      1.0  0.59541  0.34574  0.88472  1.0000
  C  Sn67      1.0  0.53678  0.34729  0.85573  1.0000
  C   C46       1.0  0.53955  0.40724  0.80120  1.0000
  C  Sn68      1.0  0.59969  0.46569  0.77497  1.0000
  O  Te65      1.0  0.71900  0.52194  0.77856  1.0000
  O  Te66      1.0  0.59389  0.28637  0.93932  1.0000
  O  Te67      1.0  0.47607  0.28942  0.88119  1.0000
  O  Te68      1.0  0.60122  0.52502  0.72039  1.0000
  Mg  Mg33      1.0  0.49933  0.22077  0.95601  1.0000
  Mg  Mg34      1.0  0.69575  0.59064  0.70358  1.0000
  C  Sn69      1.0  0.12865  0.07908  0.66496  1.0000
  C   C47       1.0  0.07036  0.07672  0.62712  1.0000
  C  Sn70      1.0  0.07204  0.11782  0.50476  1.0000
  C  Sn71      1.0  0.13325  0.16218  0.41834  1.0000
  C   C48       1.0  0.19148  0.16452  0.45617  1.0000
  C  Sn72      1.0  0.18985  0.12344  0.57854  1.0000
  O  Te69      1.0  0.12580  0.03753  0.78775  1.0000
  O  Te70      1.0  0.01313  0.11458  0.46914  1.0000
  O  Te71      1.0  0.13605  0.20374  0.29548  1.0000
  O  Te72      1.0  0.24872  0.12665  0.61415  1.0000
  Mg  Mg35      1.0  0.04249  0.18110  0.29150  1.0000
  Mg  Mg36      1.0  0.21941  0.06013  0.79171  1.0000
