data_image0
_chemical_formula_structural       P6H48C66N18O12C2Sn2C2HTe2HMgC2Sn2C2HTe2HMgC2Sn2C2HTe2HMgC2Sn2C2HTe2HMgC2Sn2C2HTe2HMgC2Sn2C2HTe2HMgC2Sn2C2HTe2HMgC2Sn2C2HTe2HMgC2Sn2C2HTe2HMg
_chemical_formula_sum              "P6 H66 C102 N18 O12 Sn18 Te18 Mg9"
_cell_length_a       23.0352
_cell_length_b       22.4875
_cell_length_c       8.81206
_cell_angle_alpha    89.2846
_cell_angle_beta     83.49
_cell_angle_gamma    117.268

_symmetry_space_group_name_H-M    'P1'
_space_group_IT_number       1

loop_
  _space_group_symop_operation_xyz
  'x, y, z'

loop_
  _atom_site_type_symbol
  _atom_site_label
  _atom_site_symmetry_multiplicity
  _atom_site_fract_x
  _atom_site_fract_y
  _atom_site_fract_z
  _atom_site_occupancy
  P   P1        1.0  0.29731  0.37374  0.51586  1.0000
  P   P2        1.0  0.30783  0.26814  0.51372  1.0000
  P   P3        1.0  0.44122  0.43048  0.47862  1.0000
  P   P4        1.0  0.30503  0.37821  0.01812  1.0000
  P   P5        1.0  0.31050  0.26954  0.00935  1.0000
  P   P6        1.0  0.44893  0.43211  0.96392  1.0000
  H   H1        1.0  0.42105  0.54303  0.19654  1.0000
  H   H2        1.0  0.44286  0.66249  0.15385  1.0000
  H   H3        1.0  0.25543  0.58959  0.43116  1.0000
  H   H4        1.0  0.23631  0.47293  0.46491  1.0000
  H   H5        1.0  0.68217  0.79280  0.91462  1.0000
  H   H6        1.0  0.72921  0.37421  0.26168  1.0000
  H   H7        1.0  0.73724  0.24730  0.07721  1.0000
  H   H8        1.0  0.84476  0.24648  0.07849  1.0000
  H   H9        1.0  0.48674  0.34113  0.54376  1.0000
  H   H10       1.0  0.93142  0.43232  0.31952  1.0000
  H   H11       1.0  0.82309  0.43309  0.33697  1.0000
  H   H12       1.0  0.68351  0.43079  0.14766  1.0000
  H   H13       1.0  0.59634  0.46564  0.13209  1.0000
  H   H14       1.0  0.98866  0.98046  0.23265  1.0000
  H   H15       1.0  0.95218  0.27661  0.11106  1.0000
  H   H16       1.0  0.30662  0.70223  0.49145  1.0000
  H   H17       1.0  0.49717  0.17471  0.15462  1.0000
  H   H18       1.0  0.44482  0.25025  0.19562  1.0000
  H   H19       1.0  0.50204  0.86859  0.13038  1.0000
  H   H20       1.0  0.50676  0.98019  0.09569  1.0000
  H   H21       1.0  0.33845  0.89410  0.30866  1.0000
  H   H22       1.0  0.33022  0.78095  0.34657  1.0000
  H   H23       1.0  0.48230  0.06083  0.09704  1.0000
  H   H24       1.0  0.39343  0.53428  0.74219  1.0000
  H   H25       1.0  0.41350  0.65398  0.70664  1.0000
  H   H26       1.0  0.25291  0.59215  0.00011  1.0000
  H   H27       1.0  0.23426  0.47533  0.03042  1.0000
  H   H28       1.0  0.65692  0.80000  0.46841  1.0000
  H   H29       1.0  0.75189  0.40697  0.75794  1.0000
  H   H30       1.0  0.79747  0.79105  0.75584  1.0000
  H   H31       1.0  0.89732  0.89733  0.77356  1.0000
  H   H32       1.0  0.85540  0.98562  0.39096  1.0000
  H   H33       1.0  0.75425  0.87920  0.37560  1.0000
  H   H34       1.0  0.73588  0.25381  0.63960  1.0000
  H   H35       1.0  0.84417  0.25420  0.62603  1.0000
  H   H36       1.0  0.94350  0.44282  0.84262  1.0000
  H   H37       1.0  0.57754  0.31147  0.56692  1.0000
  H   H38       1.0  0.83681  0.44527  0.84924  1.0000
  H   H39       1.0  0.99111  0.97011  0.69757  1.0000
  H   H40       1.0  0.28852  0.12266  0.94564  1.0000
  H   H41       1.0  0.94979  0.28499  0.63609  1.0000
  H   H42       1.0  0.34008  0.04668  0.90827  1.0000
  H   H43       1.0  0.31678  0.70869  0.02032  1.0000
  H   H44       1.0  0.49843  0.86391  0.59119  1.0000
  H   H45       1.0  0.50749  0.97763  0.54955  1.0000
  H   H46       1.0  0.35325  0.89890  0.80773  1.0000
  H   H47       1.0  0.34987  0.78710  0.83924  1.0000
  H   H48       1.0  0.46410  0.04575  0.60615  1.0000
  C   C1        1.0  0.38610  0.55531  0.14910  1.0000
  C   C2        1.0  0.39736  0.62122  0.12742  1.0000
  C   C3        1.0  0.33767  0.63015  0.56134  1.0000
  C   C4        1.0  0.28634  0.57805  0.49829  1.0000
  C   C5        1.0  0.27579  0.51211  0.51528  1.0000
  C   C6        1.0  0.67402  0.75182  0.99750  1.0000
  C   C7        1.0  0.69504  0.35990  0.36917  1.0000
  C   C8        1.0  0.53762  0.40731  0.34014  1.0000
  C   C9        1.0  0.77864  0.34435  0.95587  1.0000
  C   C10       1.0  0.32888  0.50343  0.10678  1.0000
  C   C11       1.0  0.78277  0.28974  0.02517  1.0000
  C   C12       1.0  0.84324  0.28970  0.02605  1.0000
  C   C13       1.0  0.90214  0.34484  0.95760  1.0000
  C   C14       1.0  0.53080  0.36177  0.45989  1.0000
  C   C15       1.0  0.89786  0.40021  0.89330  1.0000
  C   C16       1.0  0.58129  0.34481  0.47165  1.0000
  C   C17       1.0  0.83795  0.40081  0.89534  1.0000
  C   C18       1.0  0.63774  0.37063  0.36109  1.0000
  C   C19       1.0  0.64120  0.41251  0.23643  1.0000
  C   C20       1.0  0.59245  0.43193  0.22661  1.0000
  C   C21       1.0  0.99582  0.01375  0.13203  1.0000
  C   C22       1.0  0.98465  0.31590  0.02122  1.0000
  C   C23       1.0  0.34945  0.69845  0.52506  1.0000
  C   C24       1.0  0.45210  0.16372  0.10640  1.0000
  C   C25       1.0  0.41106  0.81381  0.48316  1.0000
  C   C26       1.0  0.42349  0.20641  0.12980  1.0000
  C   C27       1.0  0.46974  0.87578  0.05953  1.0000
  C   C28       1.0  0.46790  0.93456  0.50742  1.0000
  C   C29       1.0  0.42012  0.94253  0.43498  1.0000
  C   C30       1.0  0.37211  0.88623  0.37351  1.0000
  C   C31       1.0  0.36740  0.82308  0.39702  1.0000
  C   C32       1.0  0.43529  0.04724  0.51603  1.0000
  C   C33       1.0  0.36462  0.54806  0.67303  1.0000
  C   C34       1.0  0.37545  0.61400  0.65279  1.0000
  C   C35       1.0  0.35020  0.63566  0.07025  1.0000
  C   C36       1.0  0.29064  0.58200  0.04089  1.0000
  C   C37       1.0  0.27983  0.51578  0.05752  1.0000
  C   C38       1.0  0.66390  0.75662  0.50206  1.0000
  C   C39       1.0  0.71072  0.37799  0.84821  1.0000
  C   C40       1.0  0.76864  0.82723  0.56558  1.0000
  C   C41       1.0  0.36366  0.18988  0.07526  1.0000
  C   C42       1.0  0.77088  0.34110  0.48315  1.0000
  C   C43       1.0  0.81046  0.83414  0.67684  1.0000
  C   C44       1.0  0.31660  0.49838  0.59874  1.0000
  C   C45       1.0  0.86680  0.89395  0.68527  1.0000
  C   C46       1.0  0.88468  0.94898  0.57884  1.0000
  C   C47       1.0  0.84131  0.94309  0.47260  1.0000
  C   C48       1.0  0.78447  0.88341  0.46508  1.0000
  C   C49       1.0  0.77887  0.29245  0.56874  1.0000
  C   C50       1.0  0.83987  0.29320  0.56131  1.0000
  C   C51       1.0  0.89570  0.34351  0.46941  1.0000
  C   C52       1.0  0.88796  0.39325  0.38820  1.0000
  C   C53       1.0  0.82733  0.39293  0.39673  1.0000
  C   C54       1.0  0.99447  0.01114  0.62201  1.0000
  C   C55       1.0  0.33393  0.13369  0.99125  1.0000
  C   C56       1.0  0.98003  0.31878  0.53532  1.0000
  C   C57       1.0  0.36293  0.09182  0.96895  1.0000
  C   C58       1.0  0.36097  0.70406  0.03981  1.0000
  C   C59       1.0  0.42151  0.10509  0.02883  1.0000
  C   C60       1.0  0.42248  0.81916  0.99702  1.0000
  C   C61       1.0  0.46333  0.87109  0.53029  1.0000
  C   C62       1.0  0.47192  0.93823  0.03994  1.0000
  C   C63       1.0  0.42731  0.94643  0.95502  1.0000
  C   C64       1.0  0.38477  0.89115  0.88020  1.0000
  C   C65       1.0  0.38224  0.82868  0.90021  1.0000
  C   C66       1.0  0.44484  0.05454  0.02295  1.0000
  N   N1        1.0  0.36642  0.38651  0.39981  1.0000
  N   N2        1.0  0.27678  0.30777  0.11207  1.0000
  N   N3        1.0  0.36756  0.32054  0.39121  1.0000
  N   N4        1.0  0.71569  0.75933  0.09178  1.0000
  N   N5        1.0  0.71610  0.34106  0.95425  1.0000
  N   N6        1.0  0.94876  0.00343  0.05197  1.0000
  N   N7        1.0  0.96584  0.35136  0.94291  1.0000
  N   N8        1.0  0.40569  0.75086  0.52673  1.0000
  N   N9        1.0  0.41311  0.00094  0.42115  1.0000
  N   N10       1.0  0.37172  0.38764  0.89662  1.0000
  N   N11       1.0  0.27187  0.30481  0.61493  1.0000
  N   N12       1.0  0.36901  0.32032  0.88203  1.0000
  N   N13       1.0  0.71596  0.76351  0.55814  1.0000
  N   N14       1.0  0.70822  0.33787  0.49075  1.0000
  N   N15       1.0  0.94503  0.00800  0.55955  1.0000
  N   N16       1.0  0.95937  0.34979  0.44849  1.0000
  N   N17       1.0  0.41791  0.75624  0.03479  1.0000
  N   N18       1.0  0.41741  0.00319  0.94333  1.0000
  O   O1        1.0  0.49234  0.43090  0.32532  1.0000
  O   O2        1.0  0.44807  0.50708  0.42932  1.0000
  O   O3        1.0  0.25516  0.21154  0.92109  1.0000
  O   O4        1.0  0.33121  0.22753  0.12179  1.0000
  O   O5        1.0  0.32245  0.43836  0.12727  1.0000
  O   O6        1.0  0.24707  0.37336  0.40269  1.0000
  O   O7        1.0  0.49749  0.43290  0.80650  1.0000
  O   O8        1.0  0.45305  0.50777  0.91741  1.0000
  O   O9        1.0  0.25338  0.21078  0.42216  1.0000
  O   O10       1.0  0.32836  0.22489  0.62257  1.0000
  O   O11       1.0  0.30949  0.43337  0.62332  1.0000
  O   O12       1.0  0.25559  0.38351  0.91115  1.0000
  C   C67       1.0  0.56241  0.57823  0.07500  1.0000
  C   C68       1.0  0.45626  0.53358  0.98012  1.0000
  C  Sn1       1.0  0.46156  0.58439  0.87800  1.0000
  C  Sn2       1.0  0.51647  0.64906  0.87096  1.0000
  C   C69       1.0  0.56473  0.66124  0.96628  1.0000
  C   C70       1.0  0.61660  0.64200  0.06808  1.0000
  H   H49       1.0  0.55794  0.53861  0.15371  1.0000
  O  Te1       1.0  0.41267  0.57085  0.78408  1.0000
  O  Te2       1.0  0.52300  0.70075  0.76990  1.0000
  H   H50       1.0  0.65416  0.65183  0.14145  1.0000
  Mg  Mg1       1.0  0.44354  0.65768  0.66521  1.0000
  C   C71       1.0  0.08422  0.14180  0.47448  1.0000
  C   C72       1.0  0.06207  0.08045  0.55827  1.0000
  C  Sn3       1.0  0.10700  0.06346  0.61592  1.0000
  C  Sn4       1.0  0.17534  0.10884  0.58904  1.0000
  C   C73       1.0  0.19700  0.17011  0.50518  1.0000
  C   C74       1.0  0.15162  0.18660  0.44797  1.0000
  H   H51       1.0  0.04911  0.15458  0.43028  1.0000
  O  Te3       1.0  0.08403  0.00194  0.69935  1.0000
  O  Te4       1.0  0.22131  0.09313  0.64540  1.0000
  H   H52       1.0  0.16878  0.23412  0.38318  1.0000
  Mg  Mg2       1.0  0.16586  0.00325  0.75250  1.0000
  C   C75       1.0  0.44329  0.16876  0.63387  1.0000
  C   C76       1.0  0.42262  0.11223  0.54891  1.0000
  C  Sn5       1.0  0.37055  0.09584  0.46323  1.0000
  C  Sn6       1.0  0.33868  0.13690  0.46280  1.0000
  C   C77       1.0  0.35976  0.19337  0.54809  1.0000
  C   C78       1.0  0.41190  0.20930  0.63346  1.0000
  H   H53       1.0  0.48366  0.18111  0.69985  1.0000
  O  Te5       1.0  0.35051  0.03918  0.37904  1.0000
  O  Te6       1.0  0.28652  0.12169  0.37813  1.0000
  H   H54       1.0  0.42792  0.25309  0.69915  1.0000
  Mg  Mg3       1.0  0.27710  0.03921  0.28179  1.0000
  C   C79       1.0  0.50432  0.64385  0.42696  1.0000
  C   C80       1.0  0.50062  0.58012  0.43746  1.0000
  C  Sn7       1.0  0.55344  0.57208  0.47944  1.0000
  C  Sn8       1.0  0.61096  0.62899  0.51148  1.0000
  C   C81       1.0  0.61415  0.69253  0.50076  1.0000
  C   C82       1.0  0.56102  0.70001  0.45860  1.0000
  H   H55       1.0  0.46320  0.64964  0.39443  1.0000
  O  Te7       1.0  0.54893  0.50804  0.48932  1.0000
  O  Te8       1.0  0.66446  0.62238  0.55375  1.0000
  H   H56       1.0  0.56388  0.74936  0.45058  1.0000
  Mg  Mg4       1.0  0.63480  0.52471  0.55140  1.0000
  C   C83       1.0  0.62995  0.47041  0.75650  1.0000
  C   C84       1.0  0.56268  0.42948  0.80224  1.0000
  C  Sn9       1.0  0.54049  0.36556  0.87340  1.0000
  C  Sn10      1.0  0.58661  0.34233  0.89913  1.0000
  C   C85       1.0  0.65381  0.38368  0.85304  1.0000
  C   C86       1.0  0.67548  0.44755  0.78189  1.0000
  H   H57       1.0  0.64673  0.51983  0.70152  1.0000
  O  Te9       1.0  0.47310  0.32531  0.91832  1.0000
  O  Te10      1.0  0.56577  0.27868  0.97006  1.0000
  H   H58       1.0  0.72757  0.47924  0.74658  1.0000
  Mg  Mg5       1.0  0.52652  0.27436  0.01058  1.0000
  C   C87       1.0  0.11660  0.39843  0.87932  1.0000
  C   C88       1.0  0.06409  0.34273  0.96209  1.0000
  C  Sn11      1.0  0.13335  0.32827  0.04323  1.0000
  C  Sn12      1.0  0.19878  0.33794  0.04129  1.0000
  C   C89       1.0  0.19332  0.36190  0.95823  1.0000
  C   C90       1.0  0.18116  0.40803  0.87740  1.0000
  H   H59       1.0  0.10721  0.43414  0.81685  1.0000
  O  Te11      1.0  0.08031  0.27288  0.12527  1.0000
  O  Te12      1.0  0.21177  0.29235  0.12142  1.0000
  H   H60       1.0  0.22183  0.45117  0.81342  1.0000
  Mg  Mg6       1.0  0.12308  0.22470  0.21631  1.0000
  C   C91       1.0  0.14247  0.39184  0.33986  1.0000
  C   C92       1.0  0.17700  0.36758  0.42060  1.0000
  C  Sn13      1.0  0.14430  0.32013  0.54486  1.0000
  C  Sn14      1.0  0.07577  0.29662  0.58879  1.0000
  C   C93       1.0  0.04166  0.32117  0.50720  1.0000
  C   C94       1.0  0.07487  0.36866  0.38307  1.0000
  H   H61       1.0  0.16814  0.42856  0.24377  1.0000
  O  Te13      1.0  0.17955  0.29643  0.62431  1.0000
  O  Te14      1.0  0.04187  0.24919  0.71249  1.0000
  H   H62       1.0  0.04811  0.38741  0.32052  1.0000
  Mg  Mg7       1.0  0.11149  0.23204  0.78492  1.0000
  C   C95       1.0  0.13284  0.07839  0.16299  1.0000
  C   C96       1.0  0.07409  0.07061  0.11523  1.0000
  C  Sn15      1.0  0.01783  0.07980  0.99328  1.0000
  C  Sn16      1.0  0.07925  0.12960  0.91795  1.0000
  C   C97       1.0  0.13774  0.13694  0.96653  1.0000
  C   C98       1.0  0.19344  0.12747  0.08872  1.0000
  H   H63       1.0  0.13132  0.04631  0.25748  1.0000
  O  Te15      1.0  0.95867  0.07137  0.94707  1.0000
  O  Te16      1.0  0.08207  0.17138  0.79571  1.0000
  H   H64       1.0  0.23893  0.13348  0.12561  1.0000
  Mg  Mg8       1.0  0.98807  0.14052  0.77482  1.0000
  C   C99       1.0  0.78042  0.90299  0.06089  1.0000
  C   C100      1.0  0.76999  0.83686  0.07896  1.0000
  C  Sn17      1.0  0.82217  0.82361  0.10124  1.0000
  C  Sn18      1.0  0.88590  0.87767  0.10551  1.0000
  C   C101      1.0  0.89581  0.94366  0.08743  1.0000
  C   C102      1.0  0.84326  0.95635  0.06514  1.0000
  H   H65       1.0  0.73975  0.91282  0.04374  1.0000
  O  Te17      1.0  0.81089  0.75723  0.11904  1.0000
  O  Te18      1.0  0.93892  0.86585  0.12767  1.0000
  H   H66       1.0  0.40408  0.00756  0.05126  1.0000
  Mg  Mg9       1.0  0.89885  0.76671  0.14623  1.0000
