data_image0
_chemical_formula_structural       P6H60C84N18O12SnCSn2CSnTe4Mg2SnCSn2CSnTe4Mg2SnCSn2CSnTe4Mg2SnCSn2CSnTe4Mg2SnCSn2CSnTe4Mg2SnCSn2CSnTe4Mg2SnCSn2CSnTe4Mg2SnCSn2CSnTe4Mg2SnCSn2CSnTe4Mg2SnCSn2CSnTe4Mg2SnCSn2CSnTe4Mg2SnCSn2CSnTe4Mg2
_chemical_formula_sum              "P6 H60 C108 N18 O12 Sn48 Te48 Mg24"
_cell_length_a       26.7376
_cell_length_b       27.2555
_cell_length_c       9.81848
_cell_angle_alpha    80.6299
_cell_angle_beta     74.4298
_cell_angle_gamma    119.165

_symmetry_space_group_name_H-M    'P1'
_space_group_IT_number       1

loop_
  _space_group_symop_operation_xyz
  'x, y, z'

loop_
  _atom_site_type_symbol
  _atom_site_label
  _atom_site_symmetry_multiplicity
  _atom_site_fract_x
  _atom_site_fract_y
  _atom_site_fract_z
  _atom_site_occupancy
  P   P1        1.0  0.62769  0.44092  0.02576  1.0000
  P   P2        1.0  0.73331  0.53456  0.01922  1.0000
  P   P3        1.0  0.65996  0.55971  0.44067  1.0000
  P   P4        1.0  0.66161  0.46063  0.51558  1.0000
  P   P5        1.0  0.75560  0.56745  0.50794  1.0000
  P   P6        1.0  0.65161  0.55190  0.94106  1.0000
  H   H1        1.0  0.75281  0.32779  0.95643  1.0000
  H   H2        1.0  0.74084  0.41348  0.91863  1.0000
  H   H3        1.0  0.51948  0.41409  0.58754  1.0000
  H   H4        1.0  0.84373  0.44092  0.18173  1.0000
  H   H5        1.0  0.72648  0.99315  0.04818  1.0000
  H   H6        1.0  0.35331  0.56454  0.33188  1.0000
  H   H7        1.0  0.04987  0.58547  0.34331  1.0000
  H   H8        1.0  0.22865  0.41950  0.30917  1.0000
  H   H9        1.0  0.01894  0.65220  0.29917  1.0000
  H   H10       1.0  0.96170  0.86676  0.47493  1.0000
  H   H11       1.0  0.76247  0.65523  0.09196  1.0000
  H   H12       1.0  0.13102  0.40134  0.29623  1.0000
  H   H13       1.0  0.40805  0.19296  0.34018  1.0000
  H   H14       1.0  0.71015  0.22215  0.01027  1.0000
  H   H15       1.0  0.88395  0.59329  0.03612  1.0000
  H   H16       1.0  0.73943  0.91106  0.01409  1.0000
  H   H17       1.0  0.26375  0.56691  0.31862  1.0000
  H   H18       1.0  0.77224  0.47123  0.15453  1.0000
  H   H19       1.0  0.71169  0.66615  0.95010  1.0000
  H   H20       1.0  0.97520  0.69726  0.97644  1.0000
  H   H21       1.0  0.54737  0.50124  0.41128  1.0000
  H   H22       1.0  0.93823  0.67334  0.29661  1.0000
  H   H23       1.0  0.44040  0.47375  0.44580  1.0000
  H   H24       1.0  0.37134  0.16767  0.72641  1.0000
  H   H25       1.0  0.42153  0.32969  0.58722  1.0000
  H   H26       1.0  0.49945  0.28130  0.35170  1.0000
  H   H27       1.0  0.71826  0.76088  0.94706  1.0000
  H   H28       1.0  0.61512  0.80110  0.26690  1.0000
  H   H29       1.0  0.32012  0.42231  0.22430  1.0000
  H   H30       1.0  0.64498  0.75074  0.60528  1.0000
  H   H31       1.0  0.06975  0.90993  0.81031  1.0000
  H   H32       1.0  0.52817  0.55028  0.80899  1.0000
  H   H33       1.0  0.51488  0.39619  0.96380  1.0000
  H   H34       1.0  0.41982  0.52006  0.84681  1.0000
  H   H35       1.0  0.88040  0.46290  0.44380  1.0000
  H   H36       1.0  0.33376  0.55919  0.87382  1.0000
  H   H37       1.0  0.98953  0.48689  0.84626  1.0000
  H   H38       1.0  0.23102  0.41243  0.74319  1.0000
  H   H39       1.0  0.94600  0.51530  0.69959  1.0000
  H   H40       1.0  0.85396  0.76000  0.02486  1.0000
  H   H41       1.0  0.96355  0.83028  0.96666  1.0000
  H   H42       1.0  0.14031  0.41124  0.72526  1.0000
  H   H43       1.0  0.46791  0.20659  0.74170  1.0000
  H   H44       1.0  0.68188  0.20323  0.61318  1.0000
  H   H45       1.0  0.56350  0.20891  0.00689  1.0000
  H   H46       1.0  0.63152  0.65226  0.62082  1.0000
  H   H47       1.0  0.06610  0.81852  0.21738  1.0000
  H   H48       1.0  0.23548  0.53768  0.85391  1.0000
  H   H49       1.0  0.79977  0.48451  0.43764  1.0000
  H   H50       1.0  0.61279  0.86258  0.79194  1.0000
  H   H51       1.0  0.14574  0.91634  0.22025  1.0000
  H   H52       1.0  0.55043  0.29472  0.97809  1.0000
  H   H53       1.0  0.87526  0.54651  0.67135  1.0000
  H   H54       1.0  0.14841  0.00702  0.81397  1.0000
  H   H55       1.0  0.33619  0.14968  0.23648  1.0000
  H   H56       1.0  0.42336  0.30780  0.95252  1.0000
  H   H57       1.0  0.56915  0.29191  0.72378  1.0000
  H   H58       1.0  0.60094  0.94476  0.82212  1.0000
  H   H59       1.0  0.67052  0.83316  0.69099  1.0000
  H   H60       1.0  0.33492  0.48682  0.75985  1.0000
  C   C1        1.0  0.35702  0.46989  0.15877  1.0000
  C   C2        1.0  0.64964  0.79919  0.30402  1.0000
  C   C3        1.0  0.28863  0.48942  0.08868  1.0000
  C   C4        1.0  0.67884  0.88230  0.89718  1.0000
  C   C5        1.0  0.30645  0.53189  0.41873  1.0000
  C   C6        1.0  0.25567  0.53253  0.41184  1.0000
  C   C7        1.0  0.17488  0.46747  0.07368  1.0000
  C   C8        1.0  0.17499  0.43396  0.19938  1.0000
  C   C9        1.0  0.23034  0.44415  0.20712  1.0000
  C   C10       1.0  0.71006  0.91967  0.97051  1.0000
  C   C11       1.0  0.70280  0.96569  0.98851  1.0000
  C   C12       1.0  0.66293  0.97539  0.93678  1.0000
  C   C13       1.0  0.81847  0.61912  0.07325  1.0000
  C   C14       1.0  0.86427  0.57979  0.37270  1.0000
  C   C15       1.0  0.51161  0.34255  0.15856  1.0000
  C   C16       1.0  0.38310  0.21167  0.66311  1.0000
  C   C17       1.0  0.87813  0.63013  0.03377  1.0000
  C   C18       1.0  0.92870  0.68796  0.00019  1.0000
  C   C19       1.0  0.96791  0.83142  0.52057  1.0000
  C   C20       1.0  0.80925  0.66541  0.06562  1.0000
  C   C21       1.0  0.81077  0.48162  0.05548  1.0000
  C   C22       1.0  0.85068  0.46431  0.07044  1.0000
  C   C23       1.0  0.95453  0.55581  0.37655  1.0000
  C   C24       1.0  0.97078  0.61525  0.33120  1.0000
  C   C25       1.0  0.92603  0.62757  0.32998  1.0000
  C   C26       1.0  0.00171  0.54531  0.39113  1.0000
  C   C27       1.0  0.65872  0.26252  0.98386  1.0000
  C   C28       1.0  0.70837  0.32025  0.96129  1.0000
  C   C29       1.0  0.70205  0.36851  0.94084  1.0000
  C   C30       1.0  0.50837  0.36879  0.61701  1.0000
  C   C31       1.0  0.45364  0.32166  0.61870  1.0000
  C   C32       1.0  0.40973  0.24461  0.14573  1.0000
  C   C33       1.0  0.43125  0.23751  0.25874  1.0000
  C   C34       1.0  0.66811  0.21384  0.99308  1.0000
  C   C35       1.0  0.48185  0.28614  0.26617  1.0000
  C   C36       1.0  0.36494  0.48933  0.65366  1.0000
  C   C37       1.0  0.67949  0.81401  0.78189  1.0000
  C   C38       1.0  0.29869  0.48917  0.53911  1.0000
  C   C39       1.0  0.28878  0.52342  0.96372  1.0000
  C   C40       1.0  0.23336  0.51180  0.95466  1.0000
  C   C41       1.0  0.19420  0.48916  0.52055  1.0000
  C   C42       1.0  0.18686  0.44621  0.64001  1.0000
  C   C43       1.0  0.23796  0.44634  0.65056  1.0000
  C   C44       1.0  0.54473  0.52987  0.60506  1.0000
  C   C45       1.0  0.66860  0.65273  0.79050  1.0000
  C   C46       1.0  0.63104  0.93735  0.86549  1.0000
  C   C47       1.0  0.82226  0.51459  0.91180  1.0000
  C   C48       1.0  0.63859  0.89161  0.84595  1.0000
  C   C49       1.0  0.54954  0.35730  0.65423  1.0000
  C   C50       1.0  0.35785  0.19116  0.14152  1.0000
  C   C51       1.0  0.64483  0.35829  0.94790  1.0000
  C   C52       1.0  0.51962  0.50572  0.50565  1.0000
  C   C53       1.0  0.45954  0.48986  0.52585  1.0000
  C   C54       1.0  0.42359  0.49652  0.64584  1.0000
  C   C55       1.0  0.44782  0.51614  0.75117  1.0000
  C   C56       1.0  0.50841  0.53324  0.73073  1.0000
  C   C57       1.0  0.69563  0.68409  0.87824  1.0000
  C   C58       1.0  0.70024  0.73735  0.87445  1.0000
  C   C59       1.0  0.15391  0.96922  0.01620  1.0000
  C   C60       1.0  0.68040  0.76113  0.77905  1.0000
  C   C61       1.0  0.13021  0.96607  0.90377  1.0000
  C   C62       1.0  0.65798  0.73119  0.68351  1.0000
  C   C63       1.0  0.08540  0.91128  0.90197  1.0000
  C   C64       1.0  0.65095  0.67659  0.69036  1.0000
  C   C65       1.0  0.06199  0.85740  0.01517  1.0000
  C   C66       1.0  0.08537  0.86011  0.12815  1.0000
  C   C67       1.0  0.13008  0.91498  0.12879  1.0000
  C   C68       1.0  0.92018  0.73491  0.00192  1.0000
  C   C69       1.0  0.86051  0.72345  0.02798  1.0000
  C   C70       1.0  0.97010  0.79349  0.99114  1.0000
  C   C71       1.0  0.84762  0.52048  0.40993  1.0000
  C   C72       1.0  0.89254  0.50868  0.41307  1.0000
  C   C73       1.0  0.90173  0.47863  0.94330  1.0000
  C   C74       1.0  0.90869  0.50672  0.79943  1.0000
  C   C75       1.0  0.86930  0.52454  0.78280  1.0000
  C   C76       1.0  0.59423  0.30101  0.97370  1.0000
  C   C77       1.0  0.95040  0.47011  0.95441  1.0000
  C   C78       1.0  0.60152  0.25361  0.99013  1.0000
  C   C79       1.0  0.49070  0.35161  0.04631  1.0000
  C   C80       1.0  0.43984  0.30236  0.04033  1.0000
  C   C81       1.0  0.43841  0.26267  0.66363  1.0000
  C   C82       1.0  0.47974  0.25222  0.70530  1.0000
  C   C83       1.0  0.67311  0.21708  0.51515  1.0000
  C   C84       1.0  0.53597  0.29936  0.69721  1.0000
  N   N1        1.0  0.63971  0.49584  0.42832  1.0000
  N   N2        1.0  0.67790  0.46536  0.09807  1.0000
  N   N3        1.0  0.34747  0.50619  0.08568  1.0000
  N   N4        1.0  0.68219  0.83757  0.35799  1.0000
  N   N5        1.0  0.71805  0.58003  0.95012  1.0000
  N   N6        1.0  0.35128  0.21685  0.58992  1.0000
  N   N7        1.0  0.01690  0.84299  0.54546  1.0000
  N   N8        1.0  0.95071  0.44718  0.08026  1.0000
  N   N9        1.0  0.62938  0.16479  0.97841  1.0000
  N   N10       1.0  0.61842  0.48679  0.92971  1.0000
  N   N11       1.0  0.71414  0.49603  0.57510  1.0000
  N   N12       1.0  0.35247  0.49148  0.53550  1.0000
  N   N13       1.0  0.68715  0.83585  0.88776  1.0000
  N   N14       1.0  0.72506  0.59988  0.45161  1.0000
  N   N15       1.0  0.33827  0.19138  0.03464  1.0000
  N   N16       1.0  0.01675  0.80051  0.02168  1.0000
  N   N17       1.0  0.98861  0.49358  0.46395  1.0000
  N   N18       1.0  0.65963  0.18634  0.42786  1.0000
  O   O1        1.0  0.65784  0.59616  0.29753  1.0000
  O   O2        1.0  0.60562  0.55348  0.08641  1.0000
  O   O3        1.0  0.82110  0.59421  0.36660  1.0000
  O   O4        1.0  0.76565  0.55873  0.13172  1.0000
  O   O5        1.0  0.56374  0.38885  0.17073  1.0000
  O   O6        1.0  0.68307  0.43212  0.39940  1.0000
  O   O7        1.0  0.65677  0.59598  0.79910  1.0000
  O   O8        1.0  0.60684  0.55367  0.58444  1.0000
  O   O9        1.0  0.79035  0.54058  0.88621  1.0000
  O   O10       1.0  0.77909  0.59073  0.63269  1.0000
  O   O11       1.0  0.60398  0.40297  0.66068  1.0000
  O   O12       1.0  0.63882  0.40652  0.91455  1.0000
  C  Sn1       1.0  0.06335  0.43885  0.61948  1.0000
  C   C85       1.0  0.12528  0.47059  0.51418  1.0000
  C  Sn2       1.0  0.14658  0.51654  0.38227  1.0000
  C  Sn3       1.0  0.10511  0.53111  0.35507  1.0000
  C   C86       1.0  0.04322  0.49939  0.46034  1.0000
  C  Sn4       1.0  0.02188  0.45342  0.59228  1.0000
  O  Te1       1.0  0.04307  0.39308  0.75058  1.0000
  O  Te2       1.0  0.20869  0.54762  0.27864  1.0000
  O  Te3       1.0  0.12544  0.57692  0.22384  1.0000
  O  Te4       1.0  0.95981  0.42236  0.69587  1.0000
  Mg  Mg1       1.0  0.21426  0.60632  0.11680  1.0000
  Mg  Mg2       1.0  0.95420  0.36368  0.85778  1.0000
  C  Sn5       1.0  0.70474  0.70481  0.34290  1.0000
  C   C87       1.0  0.66049  0.65158  0.33265  1.0000
  C  Sn6       1.0  0.61432  0.64869  0.28656  1.0000
  C  Sn7       1.0  0.61236  0.70007  0.24986  1.0000
  C   C88       1.0  0.65659  0.75326  0.26009  1.0000
  C  Sn8       1.0  0.70277  0.75620  0.30620  1.0000
  O  Te5       1.0  0.75048  0.70669  0.38922  1.0000
  O  Te6       1.0  0.57058  0.59497  0.27722  1.0000
  O  Te7       1.0  0.56656  0.69815  0.20351  1.0000
  O  Te8       1.0  0.74650  0.80988  0.31552  1.0000
  Mg  Mg3       1.0  0.51733  0.61474  0.20841  1.0000
  Mg  Mg4       1.0  0.79979  0.79017  0.38424  1.0000
  C  Sn9       1.0  0.48529  0.56021  0.03914  1.0000
  C   C89       1.0  0.43285  0.50108  0.10292  1.0000
  C  Sn10      1.0  0.43474  0.45578  0.18635  1.0000
  C  Sn11      1.0  0.49018  0.46988  0.20654  1.0000
  C   C90       1.0  0.54257  0.52898  0.14280  1.0000
  C  Sn12      1.0  0.54073  0.57431  0.05932  1.0000
  O  Te9       1.0  0.31488  0.46607  0.95617  1.0000
  O  Te10      1.0  0.38172  0.39700  0.24899  1.0000
  O  Te11      1.0  0.49308  0.42525  0.28958  1.0000
  O  Te12      1.0  0.42622  0.49435  0.99673  1.0000
  Mg  Mg5       1.0  0.40872  0.35192  0.35276  1.0000
  Mg  Mg6       1.0  0.39927  0.53946  0.89301  1.0000
  C  Sn13      1.0  0.23434  0.13799  0.46951  1.0000
  C   C91       1.0  0.22604  0.08240  0.48315  1.0000
  C  Sn14      1.0  0.25504  0.06422  0.55817  1.0000
  C  Sn15      1.0  0.29310  0.10238  0.62097  1.0000
  C   C92       1.0  0.30137  0.15793  0.60734  1.0000
  C  Sn16      1.0  0.27240  0.17615  0.53231  1.0000
  O  Te13      1.0  0.20490  0.15524  0.39404  1.0000
  O  Te14      1.0  0.24606  0.00845  0.57032  1.0000
  O  Te15      1.0  0.32255  0.08508  0.69647  1.0000
  O  Te16      1.0  0.28136  0.23188  0.52017  1.0000
  Mg  Mg7       1.0  0.29602  0.00494  0.68367  1.0000
  Mg  Mg8       1.0  0.23140  0.23542  0.40692  1.0000
  C  Sn17      1.0  0.67297  0.96067  0.43988  1.0000
  C   C93       1.0  0.67210  0.00948  0.46359  1.0000
  C  Sn18      1.0  0.61536  0.00258  0.53779  1.0000
  C  Sn19      1.0  0.55831  0.94570  0.58946  1.0000
  C   C94       1.0  0.05596  0.89692  0.56576  1.0000
  C  Sn20      1.0  0.11268  0.90378  0.49154  1.0000
  O  Te17      1.0  0.73023  0.96859  0.36544  1.0000
  O  Te18      1.0  0.61568  0.05205  0.56014  1.0000
  O  Te19      1.0  0.50102  0.93780  0.66394  1.0000
  O  Te20      1.0  0.11238  0.85435  0.46922  1.0000
  Mg  Mg9       1.0  0.52571  0.01870  0.66756  1.0000
  Mg  Mg10      1.0  0.20232  0.88764  0.36188  1.0000
  C  Sn21      1.0  0.74949  0.18437  0.03689  1.0000
  C   C95       1.0  0.79543  0.24279  0.01791  1.0000
  C  Sn22      1.0  0.69129  0.12543  0.95349  1.0000
  C  Sn23      1.0  0.70909  0.08761  0.90698  1.0000
  C   C96       1.0  0.66317  0.02924  0.92594  1.0000
  C  Sn24      1.0  0.59981  0.00784  0.99038  1.0000
  O  Te21      1.0  0.68645  0.16396  0.10155  1.0000
  O  Te22      1.0  0.73637  0.18399  0.93571  1.0000
  O  Te23      1.0  0.77219  0.10807  0.84228  1.0000
  O  Te24      1.0  0.72222  0.08804  0.00814  1.0000
  Mg  Mg11      1.0  0.81623  0.19126  0.84170  1.0000
  Mg  Mg12      1.0  0.64236  0.08073  0.10206  1.0000
  C  Sn25      1.0  0.70431  0.11421  0.49190  1.0000
  C   C97       1.0  0.67811  0.13887  0.42381  1.0000
  C  Sn26      1.0  0.63468  0.10544  0.36804  1.0000
  C  Sn27      1.0  0.61702  0.04612  0.38067  1.0000
  C   C98       1.0  0.64321  0.02150  0.44875  1.0000
  C  Sn28      1.0  0.68666  0.05489  0.50453  1.0000
  O  Te25      1.0  0.74765  0.14844  0.54687  1.0000
  O  Te26      1.0  0.60914  0.13106  0.30037  1.0000
  O  Te27      1.0  0.57365  0.01190  0.32563  1.0000
  O  Te28      1.0  0.71218  0.02930  0.57218  1.0000
  Mg  Mg13      1.0  0.55191  0.06651  0.24281  1.0000
  Mg  Mg14      1.0  0.76938  0.09379  0.62985  1.0000
  C  Sn29      1.0  0.62099  0.89726  0.34511  1.0000
  C   C99       1.0  0.66988  0.89036  0.33979  1.0000
  C  Sn30      1.0  0.71552  0.92667  0.38657  1.0000
  C  Sn31      1.0  0.21544  0.97079  0.43988  1.0000
  C   C100      1.0  0.16657  0.97767  0.44521  1.0000
  C  Sn32      1.0  0.61768  0.94138  0.39843  1.0000
  O  Te29      1.0  0.57588  0.86046  0.29779  1.0000
  O  Te30      1.0  0.76396  0.91895  0.38015  1.0000
  O  Te31      1.0  0.26060  0.00761  0.48722  1.0000
  O  Te32      1.0  0.07249  0.94908  0.40485  1.0000
  Mg  Mg15      1.0  0.31747  0.97993  0.45720  1.0000
  Mg  Mg16      1.0  0.51894  0.88811  0.32791  1.0000
  C  Sn33      1.0  0.08011  0.50234  0.94032  1.0000
  C   C101      1.0  0.18533  0.59344  0.02678  1.0000
  C  Sn34      1.0  0.17036  0.54785  0.15099  1.0000
  C  Sn35      1.0  0.21862  0.54992  0.18967  1.0000
  C   C102      1.0  0.28083  0.59752  0.10326  1.0000
  C  Sn36      1.0  0.12837  0.50441  0.97900  1.0000
  O  Te33      1.0  0.09400  0.54743  0.81663  1.0000
  O  Te34      1.0  0.10778  0.50069  0.23568  1.0000
  O  Te35      1.0  0.20469  0.50477  0.31347  1.0000
  O  Te36      1.0  0.19091  0.55155  0.89435  1.0000
  Mg  Mg17      1.0  0.11244  0.44990  0.39401  1.0000
  Mg  Mg18      1.0  0.18630  0.60238  0.73606  1.0000
  C  Sn37      1.0  0.29607  0.07441  0.03856  1.0000
  C   C103      1.0  0.13621  0.99128  0.99882  1.0000
  C  Sn38      1.0  0.08834  0.99542  0.97945  1.0000
  C  Sn39      1.0  0.19913  0.08161  0.00033  1.0000
  C   C104      1.0  0.19153  0.02606  0.04007  1.0000
  C  Sn40      1.0  0.23938  0.02189  0.05943  1.0000
  O  Te37      1.0  0.34455  0.07134  0.05733  1.0000
  O  Te38      1.0  0.09705  0.05149  0.93966  1.0000
  O  Te39      1.0  0.98316  0.94601  0.98151  1.0000
  O  Te40      1.0  0.72745  0.96586  0.09922  1.0000
  Mg  Mg19      1.0  0.01730  0.03261  0.92711  1.0000
  Mg  Mg20      1.0  0.31040  0.98468  0.11188  1.0000
  C  Sn41      1.0  0.84287  0.74280  0.57499  1.0000
  C   C105      1.0  0.90032  0.76416  0.58641  1.0000
  C  Sn42      1.0  0.92356  0.72814  0.59389  1.0000
  C  Sn43      1.0  0.88867  0.66954  0.58977  1.0000
  C   C106      1.0  0.83127  0.64821  0.57832  1.0000
  C  Sn44      1.0  0.80798  0.68420  0.57086  1.0000
  O  Te41      1.0  0.82054  0.77959  0.56765  1.0000
  O  Te42      1.0  0.98110  0.75047  0.60533  1.0000
  O  Te43      1.0  0.91105  0.63275  0.59712  1.0000
  O  Te44      1.0  0.75049  0.66189  0.55940  1.0000
  Mg  Mg21      1.0  0.99183  0.68332  0.61191  1.0000
  Mg  Mg22      1.0  0.73973  0.72902  0.55274  1.0000
  C  Sn45      1.0  0.64308  0.32367  0.37338  1.0000
  C   C107      1.0  0.66195  0.36509  0.44675  1.0000
  C  Sn46      1.0  0.69452  0.36341  0.53540  1.0000
  C  Sn47      1.0  0.70857  0.31942  0.55098  1.0000
  C   C108      1.0  0.68972  0.27804  0.47761  1.0000
  C  Sn48      1.0  0.65713  0.27968  0.38895  1.0000
  O  Te45      1.0  0.61057  0.32619  0.28531  1.0000
  O  Te46      1.0  0.71287  0.40528  0.60770  1.0000
  O  Te47      1.0  0.74111  0.31693  0.63913  1.0000
  O  Te48      1.0  0.63879  0.23785  0.31666  1.0000
  Mg  Mg23      1.0  0.75616  0.38365  0.71523  1.0000
  Mg  Mg24      1.0  0.59554  0.25945  0.20904  1.0000
