data_image0
_chemical_formula_structural       P6H108C132N18O12SnCSn2CSnTe4Mg2SnCSn2CSnTe4Mg2SnCSn2CSnTe4Mg2SnCSn2CSnTe4Mg2SnCSn2CSnTe4Mg2SnCSn2CSnTe4Mg2
_chemical_formula_sum              "P6 H108 C144 N18 O12 Sn24 Te24 Mg12"
_cell_length_a       26.9726
_cell_length_b       27.0979
_cell_length_c       9.83657
_cell_angle_alpha    90.0895
_cell_angle_beta     108.474
_cell_angle_gamma    120.47

_symmetry_space_group_name_H-M    'P1'
_space_group_IT_number       1

loop_
  _space_group_symop_operation_xyz
  'x, y, z'

loop_
  _atom_site_type_symbol
  _atom_site_label
  _atom_site_symmetry_multiplicity
  _atom_site_fract_x
  _atom_site_fract_y
  _atom_site_fract_z
  _atom_site_occupancy
  P   P1        1.0  0.43734  0.29923  0.56822  1.0000
  P   P2        1.0  0.53258  0.30944  0.50145  1.0000
  P   P3        1.0  0.50622  0.36955  0.05554  1.0000
  P   P4        1.0  0.41810  0.26135  0.06215  1.0000
  P   P5        1.0  0.51622  0.27699  0.99577  1.0000
  P   P6        1.0  0.52306  0.40389  0.53648  1.0000
  H   H1        1.0  0.75728  0.50265  0.22204  1.0000
  H   H2        1.0  0.37430  0.32609  0.13964  1.0000
  H   H3        1.0  0.97878  0.27990  0.26826  1.0000
  H   H4        1.0  0.82381  0.39266  0.48374  1.0000
  H   H5        1.0  0.62467  0.26046  0.41483  1.0000
  H   H6        1.0  0.28846  0.21946  0.61619  1.0000
  H   H7        1.0  0.35867  0.92704  0.37275  1.0000
  H   H8        1.0  0.33499  0.85058  0.87105  1.0000
  H   H9        1.0  0.39061  0.92417  0.96737  1.0000
  H   H10       1.0  0.08007  0.24642  0.04580  1.0000
  H   H11       1.0  0.37437  0.74341  0.28179  1.0000
  H   H12       1.0  0.57669  0.52506  0.09177  1.0000
  H   H13       1.0  0.17659  0.23388  0.24891  1.0000
  H   H14       1.0  0.21041  0.11132  0.56593  1.0000
  H   H15       1.0  0.61648  0.16482  0.40287  1.0000
  H   H16       1.0  0.99187  0.82939  0.28416  1.0000
  H   H17       1.0  0.10557  0.43956  0.13263  1.0000
  H   H18       1.0  0.91955  0.58300  0.24618  1.0000
  H   H19       1.0  0.99614  0.64629  0.32684  1.0000
  H   H20       1.0  0.93484  0.63933  0.37392  1.0000
  H   H21       1.0  0.17424  0.88492  0.13946  1.0000
  H   H22       1.0  0.55811  0.06114  0.36295  1.0000
  H   H23       1.0  0.90748  0.40755  0.04841  1.0000
  H   H24       1.0  0.41681  0.60590  0.38882  1.0000
  H   H25       1.0  0.08603  0.93473  0.17652  1.0000
  H   H26       1.0  0.01513  0.91648  0.18955  1.0000
  H   H27       1.0  0.08479  0.98498  0.28846  1.0000
  H   H28       1.0  0.63656  0.37806  0.43899  1.0000
  H   H29       1.0  0.51812  0.98385  0.16951  1.0000
  H   H30       1.0  0.51932  0.89366  0.15152  1.0000
  H   H31       1.0  0.37820  0.79711  0.83748  1.0000
  H   H32       1.0  0.99783  0.25295  0.08803  1.0000
  H   H33       1.0  0.73491  0.40164  0.41732  1.0000
  H   H34       1.0  0.65975  0.42716  0.25602  1.0000
  H   H35       1.0  0.02594  0.72358  0.20050  1.0000
  H   H36       1.0  0.00059  0.41734  0.02773  1.0000
  H   H37       1.0  0.38024  0.65565  0.28473  1.0000
  H   H38       1.0  0.55795  0.84361  0.27401  1.0000
  H   H39       1.0  0.26073  0.21902  0.24829  1.0000
  H   H40       1.0  0.12925  0.26362  0.87826  1.0000
  H   H41       1.0  0.83204  0.69071  0.37871  1.0000
  H   H42       1.0  0.91949  0.77817  0.34784  1.0000
  H   H43       1.0  0.67402  0.60138  0.06386  1.0000
  H   H44       1.0  0.43047  0.17293  0.33376  1.0000
  H   H45       1.0  0.20319  0.45002  0.97180  1.0000
  H   H46       1.0  0.20784  0.48810  0.12766  1.0000
  H   H47       1.0  0.24497  0.44789  0.14794  1.0000
  H   H48       1.0  0.09263  0.78967  0.15804  1.0000
  H   H49       1.0  0.29610  0.34875  0.14385  1.0000
  H   H50       1.0  0.56534  0.72573  0.16700  1.0000
  H   H51       1.0  0.61260  0.80036  0.25871  1.0000
  H   H52       1.0  0.60119  0.74326  0.35927  1.0000
  H   H53       1.0  0.89774  0.23217  0.35267  1.0000
  H   H54       1.0  0.87745  0.27935  0.41068  1.0000
  H   H55       1.0  0.82758  0.22748  0.24560  1.0000
  H   H56       1.0  0.77343  0.63770  0.07181  1.0000
  H   H57       1.0  0.18564  0.98335  0.19231  1.0000
  H   H58       1.0  0.67437  0.30355  0.81498  1.0000
  H   H59       1.0  0.42154  0.07628  0.31700  1.0000
  H   H60       1.0  0.38844  0.36006  0.62185  1.0000
  H   H61       1.0  0.99014  0.30634  0.74600  1.0000
  H   H62       1.0  0.83819  0.40253  0.12756  1.0000
  H   H63       1.0  0.35228  0.90983  0.77642  1.0000
  H   H64       1.0  0.36573  0.87679  0.48302  1.0000
  H   H65       1.0  0.42019  0.95317  0.54243  1.0000
  H   H66       1.0  0.09785  0.27184  0.55206  1.0000
  H   H67       1.0  0.41201  0.74486  0.96377  1.0000
  H   H68       1.0  0.15975  0.20914  0.77339  1.0000
  H   H69       1.0  0.43129  0.18572  0.66689  1.0000
  H   H70       1.0  0.95673  0.80741  0.82415  1.0000
  H   H71       1.0  0.11089  0.46085  0.57405  1.0000
  H   H72       1.0  0.93323  0.60220  0.67475  1.0000
  H   H73       1.0  0.01030  0.66223  0.77254  1.0000
  H   H74       1.0  0.94818  0.65030  0.82433  1.0000
  H   H75       1.0  0.18535  0.93944  0.71882  1.0000
  H   H76       1.0  0.52062  0.02660  0.70223  1.0000
  H   H77       1.0  0.92511  0.43880  0.53162  1.0000
  H   H78       1.0  0.40708  0.57700  0.94959  1.0000
  H   H79       1.0  0.06222  0.92699  0.70998  1.0000
  H   H80       1.0  0.98429  0.88398  0.70128  1.0000
  H   H81       1.0  0.03929  0.95010  0.83328  1.0000
  H   H82       1.0  0.56531  0.97483  0.82258  1.0000
  H   H83       1.0  0.55823  0.88025  0.80833  1.0000
  H   H84       1.0  0.40931  0.82865  0.42027  1.0000
  H   H85       1.0  0.01597  0.27866  0.59618  1.0000
  H   H86       1.0  0.04590  0.74690  0.67202  1.0000
  H   H87       1.0  0.35634  0.07927  0.63014  1.0000
  H   H88       1.0  0.01220  0.44082  0.49410  1.0000
  H   H89       1.0  0.41060  0.65415  0.97241  1.0000
  H   H90       1.0  0.51627  0.79076  0.68159  1.0000
  H   H91       1.0  0.23768  0.18578  0.77104  1.0000
  H   H92       1.0  0.13878  0.28106  0.36196  1.0000
  H   H93       1.0  0.80877  0.64968  0.89056  1.0000
  H   H94       1.0  0.89184  0.73234  0.83697  1.0000
  H   H95       1.0  0.20827  0.50826  0.54571  1.0000
  H   H96       1.0  0.24993  0.47211  0.57537  1.0000
  H   H97       1.0  0.19947  0.46274  0.39768  1.0000
  H   H98       1.0  0.10615  0.83991  0.71833  1.0000
  H   H99       1.0  0.30497  0.37496  0.62085  1.0000
  H   H100      1.0  0.50720  0.65353  0.63178  1.0000
  H   H101      1.0  0.53820  0.72568  0.59461  1.0000
  H   H102      1.0  0.57644  0.71198  0.75995  1.0000
  H   H103      1.0  0.77530  0.32983  0.79690  1.0000
  H   H104      1.0  0.84629  0.24537  0.69792  1.0000
  H   H105      1.0  0.91458  0.26858  0.85361  1.0000
  H   H106      1.0  0.86839  0.29874  0.84542  1.0000
  H   H107      1.0  0.79994  0.67327  0.57076  1.0000
  H   H108      1.0  0.25372  0.99786  0.59932  1.0000
  C   C1        1.0  0.47286  0.69933  0.28287  1.0000
  C   C2        1.0  0.86937  0.64088  0.07939  1.0000
  C   C3        1.0  0.52270  0.75285  0.27443  1.0000
  C   C4        1.0  0.51886  0.80227  0.27627  1.0000
  C   C5        1.0  0.46682  0.80089  0.28268  1.0000
  C   C6        1.0  0.41659  0.74673  0.28438  1.0000
  C   C7        1.0  0.41978  0.69712  0.28496  1.0000
  C   C8        1.0  0.93173  0.65986  0.16131  1.0000
  C   C9        1.0  0.97844  0.70798  0.13094  1.0000
  C   C10       1.0  0.96655  0.73733  0.01863  1.0000
  C   C11       1.0  0.92868  0.75298  0.42669  1.0000
  C   C12       1.0  0.87927  0.70437  0.44561  1.0000
  C   C13       1.0  0.61258  0.47107  0.16957  1.0000
  C   C14       1.0  0.17627  0.29381  0.95845  1.0000
  C   C15       1.0  0.64886  0.33735  0.62551  1.0000
  C   C16       1.0  0.52753  0.22146  0.37130  1.0000
  C   C17       1.0  0.13925  0.33908  0.06181  1.0000
  C   C18       1.0  0.32943  0.28914  0.43301  1.0000
  C   C19       1.0  0.14637  0.39432  0.08654  1.0000
  C   C20       1.0  0.09943  0.39696  0.11147  1.0000
  C   C21       1.0  0.04572  0.34682  0.11526  1.0000
  C   C22       1.0  0.03939  0.29249  0.08868  1.0000
  C   C23       1.0  0.08503  0.28866  0.06218  1.0000
  C   C24       1.0  0.99614  0.34849  0.14435  1.0000
  C   C25       1.0  0.97689  0.38641  0.08941  1.0000
  C   C26       1.0  0.66362  0.46516  0.21210  1.0000
  C   C27       1.0  0.92424  0.38079  0.10120  1.0000
  C   C28       1.0  0.71756  0.50714  0.19356  1.0000
  C   C29       1.0  0.88950  0.33776  0.16998  1.0000
  C   C30       1.0  0.72150  0.55607  0.13619  1.0000
  C   C31       1.0  0.91044  0.30154  0.23349  1.0000
  C   C32       1.0  0.67096  0.56299  0.10477  1.0000
  C   C33       1.0  0.96286  0.30766  0.21904  1.0000
  C   C34       1.0  0.61640  0.52068  0.12087  1.0000
  C   C35       1.0  0.81148  0.35797  0.14617  1.0000
  C   C36       1.0  0.49639  0.89933  0.21784  1.0000
  C   C37       1.0  0.76168  0.36643  0.60438  1.0000
  C   C38       1.0  0.49603  0.95032  0.22826  1.0000
  C   C39       1.0  0.72250  0.38090  0.50620  1.0000
  C   C40       1.0  0.46386  0.95781  0.30641  1.0000
  C   C41       1.0  0.66662  0.36719  0.51670  1.0000
  C   C42       1.0  0.42936  0.91194  0.37025  1.0000
  C   C43       1.0  0.47031  0.17026  0.34607  1.0000
  C   C44       1.0  0.43228  0.86212  0.36255  1.0000
  C   C45       1.0  0.46565  0.11678  0.33773  1.0000
  C   C46       1.0  0.51803  0.11402  0.35580  1.0000
  C   C47       1.0  0.51439  0.05854  0.34580  1.0000
  C   C48       1.0  0.57545  0.16637  0.38654  1.0000
  C   C49       1.0  0.46529  0.85448  0.28744  1.0000
  C   C50       1.0  0.58057  0.22021  0.39440  1.0000
  C   C51       1.0  0.07963  0.81364  0.08129  1.0000
  C   C52       1.0  0.12610  0.86756  0.07134  1.0000
  C   C53       1.0  0.11190  0.90064  0.97439  1.0000
  C   C54       1.0  0.07751  0.91077  0.38068  1.0000
  C   C55       1.0  0.03399  0.85342  0.38103  1.0000
  C   C56       1.0  0.32785  0.30177  0.05730  1.0000
  C   C57       1.0  0.19329  0.99397  0.08988  1.0000
  C   C58       1.0  0.28403  0.31426  0.05962  1.0000
  C   C59       1.0  0.01695  0.79093  0.99658  1.0000
  C   C60       1.0  0.22322  0.28220  0.95583  1.0000
  C   C61       1.0  0.57879  0.75608  0.26489  1.0000
  C   C62       1.0  0.22312  0.26153  0.33030  1.0000
  C   C63       1.0  0.37213  0.89321  0.86560  1.0000
  C   C64       1.0  0.26978  0.25302  0.32871  1.0000
  C   C65       1.0  0.20364  0.44833  0.08398  1.0000
  C   C66       1.0  0.44995  0.60815  0.34255  1.0000
  C   C67       1.0  0.87649  0.25749  0.31490  1.0000
  C   C68       1.0  0.77538  0.59989  0.10651  1.0000
  C   C69       1.0  0.94677  0.63062  0.28366  1.0000
  C   C70       1.0  0.06497  0.93833  0.25200  1.0000
  C   C71       1.0  0.46373  0.67009  0.83398  1.0000
  C   C72       1.0  0.88895  0.67120  0.54898  1.0000
  C   C73       1.0  0.49514  0.71040  0.75396  1.0000
  C   C74       1.0  0.49383  0.76123  0.74740  1.0000
  C   C75       1.0  0.46420  0.77511  0.82116  1.0000
  C   C76       1.0  0.43353  0.73476  0.90085  1.0000
  C   C77       1.0  0.43307  0.68335  0.90620  1.0000
  C   C78       1.0  0.95006  0.68556  0.62758  1.0000
  C   C79       1.0  0.99904  0.73543  0.60847  1.0000
  C   C80       1.0  0.99011  0.77082  0.51090  1.0000
  C   C81       1.0  0.90400  0.71409  0.93093  1.0000
  C   C82       1.0  0.85664  0.66728  0.96105  1.0000
  C   C83       1.0  0.18614  0.31436  0.43499  1.0000
  C   C84       1.0  0.14951  0.36170  0.53276  1.0000
  C   C85       1.0  0.31149  0.25693  0.94848  1.0000
  C   C86       1.0  0.15331  0.41581  0.53972  1.0000
  C   C87       1.0  0.36430  0.20801  0.64986  1.0000
  C   C88       1.0  0.10712  0.41890  0.56718  1.0000
  C   C89       1.0  0.05712  0.37041  0.58943  1.0000
  C   C90       1.0  0.05452  0.31719  0.58214  1.0000
  C   C91       1.0  0.09964  0.31287  0.55429  1.0000
  C   C92       1.0  0.00759  0.37302  0.61588  1.0000
  C   C93       1.0  0.98872  0.41093  0.55793  1.0000
  C   C94       1.0  0.93862  0.40883  0.57621  1.0000
  C   C95       1.0  0.90433  0.36786  0.64970  1.0000
  C   C96       1.0  0.92337  0.33004  0.71060  1.0000
  C   C97       1.0  0.97493  0.33437  0.69493  1.0000
  C   C98       1.0  0.68867  0.32540  0.72949  1.0000
  C   C99       1.0  0.81677  0.37578  0.58219  1.0000
  C   C100      1.0  0.74453  0.34005  0.71901  1.0000
  C   C101      1.0  0.51961  0.88210  0.81428  1.0000
  C   C102      1.0  0.52370  0.93539  0.82232  1.0000
  C   C103      1.0  0.47595  0.93984  0.83809  1.0000
  C   C104      1.0  0.42295  0.88906  0.84536  1.0000
  C   C105      1.0  0.41949  0.83602  0.83431  1.0000
  C   C106      1.0  0.50386  0.03297  0.78539  1.0000
  C   C107      1.0  0.46734  0.83109  0.82077  1.0000
  C   C108      1.0  0.09893  0.85789  0.62046  1.0000
  C   C109      1.0  0.30210  0.18799  0.61772  1.0000
  C   C110      1.0  0.14398  0.91440  0.62088  1.0000
  C   C111      1.0  0.25917  0.12816  0.59074  1.0000
  C   C112      1.0  0.13368  0.94229  0.50370  1.0000
  C   C113      1.0  0.27788  0.08790  0.59664  1.0000
  C   C114      1.0  0.04977  0.87724  0.88069  1.0000
  C   C115      1.0  0.34069  0.10939  0.62669  1.0000
  C   C116      1.0  0.00420  0.82352  0.89480  1.0000
  C   C117      1.0  0.38357  0.16911  0.65033  1.0000
  C   C118      1.0  0.34239  0.33298  0.53918  1.0000
  C   C119      1.0  0.23371  0.02485  0.56950  1.0000
  C   C120      1.0  0.29556  0.34123  0.53880  1.0000
  C   C121      1.0  0.04198  0.82646  0.50172  1.0000
  C   C122      1.0  0.23530  0.30592  0.43406  1.0000
  C   C123      1.0  0.53090  0.69980  0.68002  1.0000
  C   C124      1.0  0.20707  0.23559  0.85211  1.0000
  C   C125      1.0  0.39147  0.91732  0.44654  1.0000
  C   C126      1.0  0.25045  0.22250  0.84876  1.0000
  C   C127      1.0  0.20567  0.46797  0.51404  1.0000
  C   C128      1.0  0.43779  0.57792  0.89675  1.0000
  C   C129      1.0  0.88636  0.28324  0.78190  1.0000
  C   C130      1.0  0.79605  0.63102  0.57952  1.0000
  C   C131      1.0  0.96139  0.64825  0.73065  1.0000
  C   C132      1.0  0.03280  0.91128  0.77537  1.0000
  N   N1        1.0  0.45849  0.32931  0.12962  1.0000
  N   N2        1.0  0.82245  0.59620  0.11841  1.0000
  N   N3        1.0  0.47099  0.26955  0.53279  1.0000
  N   N4        1.0  0.54979  0.37275  0.47253  1.0000
  N   N5        1.0  0.18803  0.33616  0.04978  1.0000
  N   N6        1.0  0.83252  0.32412  0.17215  1.0000
  N   N7        1.0  0.46329  0.00894  0.32036  1.0000
  N   N8        1.0  0.15777  0.95640  0.96823  1.0000
  N   N9        1.0  0.48013  0.65164  0.28625  1.0000
  N   N10       1.0  0.47606  0.36848  0.61634  1.0000
  N   N11       1.0  0.83941  0.62396  0.57463  1.0000
  N   N12       1.0  0.45028  0.23409  0.00691  1.0000
  N   N13       1.0  0.53621  0.34273  0.98811  1.0000
  N   N14       1.0  0.19778  0.35904  0.51720  1.0000
  N   N15       1.0  0.85259  0.36176  0.66999  1.0000
  N   N16       1.0  0.47949  0.99284  0.85645  1.0000
  N   N17       1.0  0.17459  0.00178  0.51174  1.0000
  N   N18       1.0  0.46738  0.62033  0.83692  1.0000
  O   O1        1.0  0.55720  0.42717  0.18169  1.0000
  O   O2        1.0  0.49489  0.42566  0.39713  1.0000
  O   O3        1.0  0.53156  0.27541  0.36543  1.0000
  O   O4        1.0  0.59076  0.31509  0.63609  1.0000
  O   O5        1.0  0.37417  0.27809  0.42562  1.0000
  O   O6        1.0  0.39145  0.22666  0.17998  1.0000
  O   O7        1.0  0.57656  0.46299  0.65770  1.0000
  O   O8        1.0  0.47651  0.39160  0.91974  1.0000
  O   O9        1.0  0.52091  0.24942  0.85787  1.0000
  O   O10       1.0  0.56933  0.27463  0.12763  1.0000
  O   O11       1.0  0.35377  0.24440  0.93000  1.0000
  O   O12       1.0  0.40832  0.26926  0.68793  1.0000
  C  Sn1       1.0  0.50598  0.14844  0.96621  1.0000
  C   C133      1.0  0.52816  0.19473  0.89365  1.0000
  C  Sn2       1.0  0.53672  0.18672  0.76445  1.0000
  C  Sn3       1.0  0.52278  0.13129  0.70650  1.0000
  C   C134      1.0  0.50061  0.08504  0.77903  1.0000
  C  Sn4       1.0  0.49205  0.09300  0.90826  1.0000
  O  Te1       1.0  0.34184  0.07815  0.09522  1.0000
  O  Te2       1.0  0.55896  0.23366  0.69389  1.0000
  O  Te3       1.0  0.53100  0.12233  0.57738  1.0000
  O  Te4       1.0  0.97925  0.04610  0.97879  1.0000
  Mg  Mg1       1.0  0.56239  0.19971  0.52126  1.0000
  Mg  Mg2       1.0  0.81983  0.00072  0.15138  1.0000
  C  Sn5       1.0  0.67228  0.27001  0.21008  1.0000
  C   C135      1.0  0.63887  0.29701  0.16761  1.0000
  C  Sn6       1.0  0.65863  0.34353  0.09469  1.0000
  C  Sn7       1.0  0.71289  0.36346  0.06349  1.0000
  C   C136      1.0  0.74626  0.33645  0.10593  1.0000
  C  Sn8       1.0  0.72654  0.28993  0.17888  1.0000
  O  Te5       1.0  0.65167  0.22357  0.28286  1.0000
  O  Te6       1.0  0.62447  0.36985  0.05337  1.0000
  O  Te7       1.0  0.88943  0.48921  0.99066  1.0000
  O  Te8       1.0  0.76065  0.26362  0.22017  1.0000
  Mg  Mg3       1.0  0.82717  0.51083  0.95658  1.0000
  Mg  Mg4       1.0  0.71393  0.20189  0.31689  1.0000
  C  Sn9       1.0  0.69675  0.50166  0.68262  1.0000
  C   C137      1.0  0.64795  0.50713  0.68268  1.0000
  C  Sn10      1.0  0.64221  0.55224  0.62778  1.0000
  C  Sn11      1.0  0.68613  0.59272  0.57157  1.0000
  C   C138      1.0  0.73489  0.58723  0.57151  1.0000
  C  Sn12      1.0  0.74068  0.54213  0.62641  1.0000
  O  Te9       1.0  0.70158  0.45622  0.73804  1.0000
  O  Te10      1.0  0.59303  0.55683  0.62905  1.0000
  O  Te11      1.0  0.68126  0.63818  0.51614  1.0000
  O  Te12      1.0  0.78980  0.53753  0.62514  1.0000
  Mg  Mg5       1.0  0.60621  0.62617  0.54149  1.0000
  Mg  Mg6       1.0  0.77666  0.46819  0.71259  1.0000
  C  Sn13      1.0  0.50229  0.54714  0.27813  1.0000
  C   C139      1.0  0.45825  0.55211  0.31200  1.0000
  C  Sn14      1.0  0.42925  0.51723  0.40068  1.0000
  C  Sn15      1.0  0.44462  0.47655  0.45676  1.0000
  C   C140      1.0  0.48864  0.47160  0.42291  1.0000
  C  Sn16      1.0  0.51765  0.50646  0.33421  1.0000
  O  Te13      1.0  0.53069  0.58246  0.18927  1.0000
  O  Te14      1.0  0.38536  0.52297  0.43299  1.0000
  O  Te15      1.0  0.41617  0.44122  0.54567  1.0000
  O  Te16      1.0  0.56153  0.50074  0.30192  1.0000
  Mg  Mg7       1.0  0.35937  0.46516  0.55881  1.0000
  Mg  Mg8       1.0  0.58757  0.55855  0.17617  1.0000
  C  Sn17      1.0  0.27573  0.40279  0.01853  1.0000
  C   C141      1.0  0.45338  0.52764  0.94365  1.0000
  C  Sn18      1.0  0.47701  0.52423  0.83895  1.0000
  C  Sn19      1.0  0.47896  0.47420  0.80836  1.0000
  C   C142      1.0  0.45725  0.42866  0.88318  1.0000
  C  Sn20      1.0  0.43362  0.43205  0.98794  1.0000
  O  Te17      1.0  0.25230  0.40714  0.12276  1.0000
  O  Te18      1.0  0.49846  0.57035  0.76555  1.0000
  O  Te19      1.0  0.50242  0.46989  0.70403  1.0000
  O  Te20      1.0  0.25622  0.30668  0.06129  1.0000
  Mg  Mg9       1.0  0.52613  0.54403  0.63298  1.0000
  Mg  Mg10      1.0  0.22852  0.33294  0.19382  1.0000
  C  Sn21      1.0  0.64465  0.99885  0.00680  1.0000
  C   C143      1.0  0.61291  0.97394  0.10045  1.0000
  C  Sn22      1.0  0.61985  0.00933  0.21719  1.0000
  C  Sn23      1.0  0.14986  0.07090  0.24076  1.0000
  C   C144      1.0  0.18156  0.09578  0.14712  1.0000
  C  Sn24      1.0  0.17466  0.06043  0.03037  1.0000
  O  Te21      1.0  0.79297  0.04192  0.89079  1.0000
  O  Te22      1.0  0.58765  0.98341  0.30938  1.0000
  O  Te23      1.0  0.15747  0.10710  0.35689  1.0000
  O  Te24      1.0  0.36277  0.16559  0.93820  1.0000
  Mg  Mg11      1.0  0.10375  0.05118  0.45237  1.0000
  Mg  Mg12      1.0  0.33723  0.09787  0.79514  1.0000
