data_image0
_chemical_formula_structural       P6H24C18N18O12SnCSn2CSnTe4Mg2SnCSn2CSnTe4Mg2SnCSn2CSnTe4Mg2SnCSn2CSnTe4Mg2SnCSn2CSnTe4Mg2SnCSn2CSnTe4Mg2SnCSn2CSnTe4Mg2SnCSn2CSnTe4Mg2SnCSn2CSnTe4Mg2SnCSn2CSnTe4Mg2SnCSn2CSnTe4Mg2SnCSn2CSnTe4Mg2SnCSn2CSnTe4Mg2SnCSn2CSnTe4Mg2SnCSn2CSnTe4Mg2SnCSn2CSnTe4Mg2SnCSn2CSnTe4Mg2SnCSn2CSnTe4Mg2SnCSn2CSnTe4Mg2SnCSn2CSnTe4Mg2SnCSn2CSnTe4Mg2SnCSn2CSnTe4Mg2SnCSn2CSnTe4Mg2SnCSn2CSnTe4Mg2
_chemical_formula_sum              "P6 H24 C66 N18 O12 Sn96 Te96 Mg48"
_cell_length_a       24.5798
_cell_length_b       22.3852
_cell_length_c       11.214
_cell_angle_alpha    89.5099
_cell_angle_beta     94.854
_cell_angle_gamma    113.83

_symmetry_space_group_name_H-M    'P1'
_space_group_IT_number       1

loop_
  _space_group_symop_operation_xyz
  'x, y, z'

loop_
  _atom_site_type_symbol
  _atom_site_label
  _atom_site_symmetry_multiplicity
  _atom_site_fract_x
  _atom_site_fract_y
  _atom_site_fract_z
  _atom_site_occupancy
  P   P1        1.0  0.54979  0.27017  0.33250  1.0000
  P   P2        1.0  0.54145  0.37172  0.44888  1.0000
  P   P3        1.0  0.44471  0.28263  0.32189  1.0000
  P   P4        1.0  0.54941  0.26554  0.83551  1.0000
  P   P5        1.0  0.52608  0.36355  0.93378  1.0000
  P   P6        1.0  0.43647  0.25770  0.82620  1.0000
  H   H1        1.0  0.26564  0.92267  0.04410  1.0000
  H   H2        1.0  0.44281  0.94634  0.10147  1.0000
  H   H3        1.0  0.85779  0.47002  0.29573  1.0000
  H   H4        1.0  0.37561  0.54187  0.18877  1.0000
  H   H5        1.0  0.12988  0.63992  0.06963  1.0000
  H   H6        1.0  0.12885  0.65835  0.22159  1.0000
  H   H7        1.0  0.21781  0.40969  0.12028  1.0000
  H   H8        1.0  0.33670  0.75722  0.05978  1.0000
  H   H9        1.0  0.27537  0.72396  0.95097  1.0000
  H   H10       1.0  0.09599  0.74491  0.93194  1.0000
  H   H11       1.0  0.07129  0.80378  0.97442  1.0000
  H   H12       1.0  0.82946  0.63185  0.99241  1.0000
  H   H13       1.0  0.20798  0.96234  0.45658  1.0000
  H   H14       1.0  0.46088  0.94366  0.59055  1.0000
  H   H15       1.0  0.86083  0.45847  0.77700  1.0000
  H   H16       1.0  0.35670  0.49607  0.73966  1.0000
  H   H17       1.0  0.13303  0.61592  0.56999  1.0000
  H   H18       1.0  0.12616  0.62680  0.72262  1.0000
  H   H19       1.0  0.19978  0.36321  0.59613  1.0000
  H   H20       1.0  0.36283  0.76918  0.60710  1.0000
  H   H21       1.0  0.29708  0.73521  0.51091  1.0000
  H   H22       1.0  0.07929  0.71090  0.41982  1.0000
  H   H23       1.0  0.05222  0.76472  0.47883  1.0000
  H   H24       1.0  0.85153  0.63399  0.51350  1.0000
  C   C1        1.0  0.24282  0.41506  0.20855  1.0000
  C   C2        1.0  0.83754  0.44005  0.21374  1.0000
  C   C3        1.0  0.44252  0.99147  0.13925  1.0000
  C   C4        1.0  0.25888  0.96554  0.07465  1.0000
  C   C5        1.0  0.11633  0.61765  0.15616  1.0000
  C   C6        1.0  0.34612  0.75744  0.51213  1.0000
  C   C7        1.0  0.42063  0.55042  0.22914  1.0000
  C   C8        1.0  0.05923  0.74554  0.39380  1.0000
  C   C9        1.0  0.80335  0.59678  0.05673  1.0000
  C   C10       1.0  0.22653  0.36952  0.68262  1.0000
  C   C11       1.0  0.83708  0.42794  0.69702  1.0000
  C   C12       1.0  0.45618  0.98745  0.62282  1.0000
  C   C13       1.0  0.24712  0.98833  0.52020  1.0000
  C   C14       1.0  0.11755  0.58937  0.65218  1.0000
  C   C15       1.0  0.32439  0.74453  0.96362  1.0000
  C   C16       1.0  0.40533  0.52417  0.74149  1.0000
  C   C17       1.0  0.07598  0.77800  0.89519  1.0000
  C   C18       1.0  0.82249  0.60563  0.58139  1.0000
  N   N1        1.0  0.44575  0.59009  0.31980  1.0000
  N   N2        1.0  0.82454  0.59207  0.16439  1.0000
  N   N3        1.0  0.24274  0.45608  0.28905  1.0000
  N   N4        1.0  0.86769  0.44521  0.12230  1.0000
  N   N5        1.0  0.41676  0.99067  0.23548  1.0000
  N   N6        1.0  0.22104  0.96309  0.15004  1.0000
  N   N7        1.0  0.48171  0.24384  0.27716  1.0000
  N   N8        1.0  0.56381  0.31982  0.93908  1.0000
  N   N9        1.0  0.48073  0.35634  0.36852  1.0000
  N   N10       1.0  0.43210  0.58160  0.79146  1.0000
  N   N11       1.0  0.83996  0.61114  0.69446  1.0000
  N   N12       1.0  0.23184  0.41416  0.76077  1.0000
  N   N13       1.0  0.86508  0.42719  0.60480  1.0000
  N   N14       1.0  0.42215  0.98396  0.70685  1.0000
  N   N15       1.0  0.25012  0.97221  0.63044  1.0000
  N   N16       1.0  0.48136  0.22918  0.78004  1.0000
  N   N17       1.0  0.56932  0.31865  0.44787  1.0000
  N   N18       1.0  0.46271  0.33393  0.85804  1.0000
  O   O1        1.0  0.39537  0.28150  0.21573  1.0000
  O   O2        1.0  0.40470  0.24408  0.42817  1.0000
  O   O3        1.0  0.58701  0.44204  0.40480  1.0000
  O   O4        1.0  0.51897  0.37996  0.06968  1.0000
  O   O5        1.0  0.57551  0.21343  0.88388  1.0000
  O   O6        1.0  0.58968  0.30041  0.22233  1.0000
  O   O7        1.0  0.38088  0.23905  0.72488  1.0000
  O   O8        1.0  0.40576  0.22012  0.94295  1.0000
  O   O9        1.0  0.56478  0.43521  0.88301  1.0000
  O   O10       1.0  0.53497  0.38555  0.58658  1.0000
  O   O11       1.0  0.57145  0.21224  0.36031  1.0000
  O   O12       1.0  0.58874  0.29166  0.72351  1.0000
  C  Sn1       1.0  0.71818  0.48931  0.59785  1.0000
  C   C19       1.0  0.76027  0.53937  0.53746  1.0000
  C  Sn2       1.0  0.74263  0.56374  0.43303  1.0000
  C  Sn3       1.0  0.68166  0.53757  0.38804  1.0000
  C   C20       1.0  0.63961  0.48756  0.44843  1.0000
  C  Sn4       1.0  0.65721  0.46314  0.55287  1.0000
  O  Te1       1.0  0.73681  0.46570  0.70210  1.0000
  O  Te2       1.0  0.78553  0.61378  0.37420  1.0000
  O  Te3       1.0  0.66305  0.56123  0.28370  1.0000
  O  Te4       1.0  0.61435  0.41315  0.61169  1.0000
  Mg  Mg1       1.0  0.73816  0.62971  0.23554  1.0000
  Mg  Mg2       1.0  0.66166  0.39720  0.75038  1.0000
  C  Sn5       1.0  0.67523  0.52488  0.84722  1.0000
  C   C21       1.0  0.63434  0.47261  0.90543  1.0000
  C  Sn6       1.0  0.60136  0.44783  0.02676  1.0000
  C  Sn7       1.0  0.65461  0.49158  0.09129  1.0000
  C   C22       1.0  0.69546  0.54381  0.03309  1.0000
  C  Sn8       1.0  0.72847  0.56862  0.91175  1.0000
  O  Te5       1.0  0.66303  0.53337  0.72587  1.0000
  O  Te6       1.0  0.55982  0.39521  0.08301  1.0000
  O  Te7       1.0  0.66678  0.48304  0.21273  1.0000
  O  Te8       1.0  0.76998  0.62121  0.85552  1.0000
  Mg  Mg3       1.0  0.59650  0.40415  0.24964  1.0000
  Mg  Mg4       1.0  0.73334  0.61234  0.68891  1.0000
  C  Sn9       1.0  0.52106  0.47407  0.21873  1.0000
  C   C23       1.0  0.49553  0.42526  0.12923  1.0000
  C  Sn10      1.0  0.44718  0.42340  0.05196  1.0000
  C  Sn11      1.0  0.42389  0.47135  0.06434  1.0000
  C   C24       1.0  0.44943  0.52013  0.15378  1.0000
  C  Sn12      1.0  0.49777  0.52202  0.23112  1.0000
  O  Te9       1.0  0.56937  0.47498  0.29498  1.0000
  O  Te10      1.0  0.46663  0.38946  0.96319  1.0000
  O  Te11      1.0  0.41979  0.48574  0.98800  1.0000
  O  Te12      1.0  0.52257  0.57127  0.31982  1.0000
  Mg  Mg5       1.0  0.40134  0.40888  0.88104  1.0000
  Mg  Mg6       1.0  0.58788  0.55192  0.40198  1.0000
  C  Sn13      1.0  0.21925  0.59817  0.26093  1.0000
  C   C25       1.0  0.16717  0.58360  0.18498  1.0000
  C  Sn14      1.0  0.13013  0.51883  0.15226  1.0000
  C  Sn15      1.0  0.14543  0.46756  0.19643  1.0000
  C   C26       1.0  0.19747  0.48215  0.27234  1.0000
  C  Sn16      1.0  0.23455  0.54690  0.30509  1.0000
  O  Te13      1.0  0.25562  0.66327  0.29247  1.0000
  O  Te14      1.0  0.07831  0.50548  0.07619  1.0000
  O  Te15      1.0  0.10901  0.40243  0.16481  1.0000
  O  Te16      1.0  0.28634  0.56026  0.38113  1.0000
  Mg  Mg7       1.0  0.04313  0.40899  0.05891  1.0000
  Mg  Mg8       1.0  0.32153  0.65672  0.39851  1.0000
  C  Sn17      1.0  0.47229  0.12544  0.08404  1.0000
  C   C27       1.0  0.46251  0.06046  0.06117  1.0000
  C  Sn18      1.0  0.54226  0.06083  0.98594  1.0000
  C  Sn19      1.0  0.58853  0.11187  0.93250  1.0000
  C   C28       1.0  0.59830  0.17681  0.95539  1.0000
  C  Sn20      1.0  0.51857  0.17648  0.03060  1.0000
  O  Te17      1.0  0.43626  0.13928  0.15954  1.0000
  O  Te18      1.0  0.89956  0.99549  0.96439  1.0000
  O  Te19      1.0  0.62457  0.09797  0.85694  1.0000
  O  Te20      1.0  0.52920  0.24178  0.05217  1.0000
  Mg  Mg9       1.0  0.96062  0.00139  0.85509  1.0000
  Mg  Mg10      1.0  0.46820  0.23593  0.16150  1.0000
  C  Sn21      1.0  0.97273  0.51008  0.01935  1.0000
  C   C29       1.0  0.93870  0.48013  0.11370  1.0000
  C  Sn22      1.0  0.95906  0.50324  0.23142  1.0000
  C  Sn23      1.0  0.01458  0.55743  0.25534  1.0000
  C   C30       1.0  0.04857  0.58735  0.16102  1.0000
  C  Sn24      1.0  0.02825  0.56428  0.04327  1.0000
  O  Te21      1.0  0.99576  0.50152  0.90236  1.0000
  O  Te22      1.0  0.92426  0.47248  0.32426  1.0000
  O  Te23      1.0  0.03579  0.58133  0.37244  1.0000
  O  Te24      1.0  0.10726  0.61036  0.95046  1.0000
  Mg  Mg11      1.0  0.97226  0.52302  0.46856  1.0000
  Mg  Mg12      1.0  0.05930  0.55988  0.80613  1.0000
  C  Sn25      1.0  0.53013  0.15860  0.57766  1.0000
  C   C31       1.0  0.55646  0.16326  0.47035  1.0000
  C  Sn26      1.0  0.54447  0.10729  0.40041  1.0000
  C  Sn27      1.0  0.50530  0.04536  0.43846  1.0000
  C   C32       1.0  0.47898  0.04072  0.54570  1.0000
  C  Sn28      1.0  0.49096  0.09668  0.61572  1.0000
  O  Te25      1.0  0.54276  0.21521  0.64615  1.0000
  O  Te26      1.0  0.57134  0.11317  0.29349  1.0000
  O  Te27      1.0  0.86064  0.98874  0.36986  1.0000
  O  Te28      1.0  0.46410  0.09081  0.72256  1.0000
  Mg  Mg13      1.0  0.54014  0.02188  0.23118  1.0000
  Mg  Mg14      1.0  0.49524  0.18207  0.78491  1.0000
  C  Sn29      1.0  0.69697  0.39400  0.31762  1.0000
  C   C33       1.0  0.65562  0.34929  0.23366  1.0000
  C  Sn30      1.0  0.67499  0.32256  0.14256  1.0000
  C  Sn31      1.0  0.73697  0.34085  0.13526  1.0000
  C   C34       1.0  0.77827  0.38553  0.21919  1.0000
  C  Sn32      1.0  0.75895  0.41230  0.31032  1.0000
  O  Te29      1.0  0.67660  0.42011  0.40793  1.0000
  O  Te30      1.0  0.63281  0.27797  0.05964  1.0000
  O  Te31      1.0  0.75731  0.31470  0.04484  1.0000
  O  Te32      1.0  0.80108  0.45685  0.39322  1.0000
  Mg  Mg15      1.0  0.72684  0.27117  0.95303  1.0000
  Mg  Mg16      1.0  0.75136  0.47900  0.49989  1.0000
  C  Sn33      1.0  0.42539  0.69206  0.52635  1.0000
  C   C35       1.0  0.38793  0.71853  0.46848  1.0000
  C  Sn34      1.0  0.35933  0.69481  0.35510  1.0000
  C  Sn35      1.0  0.36832  0.64353  0.29841  1.0000
  C   C36       1.0  0.40575  0.61709  0.35628  1.0000
  C  Sn36      1.0  0.43438  0.64078  0.46966  1.0000
  O  Te33      1.0  0.45352  0.71653  0.63967  1.0000
  O  Te34      1.0  0.32210  0.72206  0.29900  1.0000
  O  Te35      1.0  0.34014  0.61908  0.18499  1.0000
  O  Te36      1.0  0.47157  0.61355  0.52575  1.0000
  Mg  Mg17      1.0  0.29366  0.67213  0.14495  1.0000
  Mg  Mg18      1.0  0.50001  0.66342  0.67983  1.0000
  C  Sn37      1.0  0.34907  0.91288  0.40854  1.0000
  C   C37       1.0  0.39891  0.93972  0.34294  1.0000
  C  Sn38      1.0  0.43075  0.90284  0.31598  1.0000
  C  Sn39      1.0  0.41237  0.83778  0.35534  1.0000
  C   C38       1.0  0.36255  0.81097  0.42088  1.0000
  C  Sn40      1.0  0.33069  0.84781  0.44790  1.0000
  O  Te37      1.0  0.31791  0.95064  0.43445  1.0000
  O  Te38      1.0  0.48044  0.93074  0.25031  1.0000
  O  Te39      1.0  0.44358  0.80003  0.32937  1.0000
  O  Te40      1.0  0.28102  0.81995  0.51351  1.0000
  Mg  Mg19      1.0  0.50830  0.85970  0.23734  1.0000
  Mg  Mg20      1.0  0.25310  0.89092  0.52647  1.0000
  C  Sn41      1.0  0.94085  0.69210  0.14950  1.0000
  C   C39       1.0  0.89672  0.63432  0.18631  1.0000
  C  Sn42      1.0  0.90026  0.61386  0.30365  1.0000
  C  Sn43      1.0  0.94892  0.65195  0.38594  1.0000
  C   C40       1.0  0.99301  0.70970  0.34912  1.0000
  C  Sn44      1.0  0.98951  0.73020  0.23179  1.0000
  O  Te41      1.0  0.93640  0.71162  0.03177  1.0000
  O  Te42      1.0  0.85561  0.55590  0.33836  1.0000
  O  Te43      1.0  0.95334  0.63238  0.50374  1.0000
  O  Te44      1.0  0.03412  0.78812  0.19708  1.0000
  Mg  Mg21      1.0  0.88145  0.54979  0.50842  1.0000
  Mg  Mg22      1.0  0.00831  0.79430  0.02706  1.0000
  C  Sn45      1.0  0.34276  0.34902  0.34664  1.0000
  C   C41       1.0  0.34559  0.30548  0.26127  1.0000
  C  Sn46      1.0  0.31643  0.29972  0.14678  1.0000
  C  Sn47      1.0  0.28379  0.33832  0.11696  1.0000
  C   C42       1.0  0.28099  0.38184  0.20229  1.0000
  C  Sn48      1.0  0.31013  0.38761  0.31682  1.0000
  O  Te45      1.0  0.37226  0.35397  0.46055  1.0000
  O  Te46      1.0  0.31988  0.25584  0.06296  1.0000
  O  Te47      1.0  0.25428  0.33333  0.00294  1.0000
  O  Te48      1.0  0.30670  0.43147  0.40060  1.0000
  Mg  Mg23      1.0  0.31642  0.28199  0.91966  1.0000
  Mg  Mg24      1.0  0.35441  0.42073  0.54390  1.0000
  C  Sn49      1.0  0.17910  0.82911  0.20651  1.0000
  C   C43       1.0  0.17774  0.88999  0.18378  1.0000
  C  Sn50      1.0  0.14052  0.91061  0.24365  1.0000
  C  Sn51      1.0  0.10392  0.86954  0.32807  1.0000
  C   C44       1.0  0.10530  0.80871  0.35079  1.0000
  C  Sn52      1.0  0.14250  0.78804  0.29093  1.0000
  O  Te49      1.0  0.21665  0.80949  0.14562  1.0000
  O  Te50      1.0  0.13991  0.97168  0.21939  1.0000
  O  Te51      1.0  0.06635  0.88921  0.38897  1.0000
  O  Te52      1.0  0.14312  0.72702  0.31518  1.0000
  Mg  Mg25      1.0  0.08128  0.97666  0.32523  1.0000
  Mg  Mg26      1.0  0.20176  0.72200  0.20944  1.0000
  C  Sn53      1.0  0.30236  0.13406  0.36250  1.0000
  C   C45       1.0  0.35279  0.17613  0.43306  1.0000
  C  Sn54      1.0  0.37953  0.15165  0.52450  1.0000
  C  Sn55      1.0  0.35539  0.08369  0.54582  1.0000
  C   C46       1.0  0.30500  0.04166  0.47527  1.0000
  C  Sn56      1.0  0.27822  0.06611  0.38381  1.0000
  O  Te53      1.0  0.27636  0.15961  0.27157  1.0000
  O  Te54      1.0  0.42991  0.19467  0.59389  1.0000
  O  Te55      1.0  0.38144  0.05817  0.63684  1.0000
  O  Te56      1.0  0.22788  0.02313  0.31444  1.0000
  Mg  Mg27      1.0  0.44943  0.13640  0.70718  1.0000
  Mg  Mg28      1.0  0.20834  0.08133  0.20109  1.0000
  C  Sn57      1.0  0.31889  0.13600  0.06164  1.0000
  C   C47       1.0  0.41222  0.16962  0.99377  1.0000
  C  Sn58      1.0  0.42166  0.12277  0.92714  1.0000
  C  Sn59      1.0  0.38118  0.05626  0.92832  1.0000
  C   C48       1.0  0.33213  0.03801  0.99615  1.0000
  C  Sn60      1.0  0.27841  0.06949  0.06282  1.0000
  O  Te57      1.0  0.31033  0.18366  0.12756  1.0000
  O  Te58      1.0  0.47105  0.14222  0.86001  1.0000
  O  Te59      1.0  0.75773  0.00859  0.86233  1.0000
  O  Te60      1.0  0.22905  0.05007  0.12990  1.0000
  Mg  Mg29      1.0  0.46358  0.05922  0.78491  1.0000
  Mg  Mg30      1.0  0.23645  0.13302  0.20498  1.0000
  C  Sn61      1.0  0.53249  0.49567  0.68028  1.0000
  C   C49       1.0  0.50992  0.43082  0.63831  1.0000
  C  Sn62      1.0  0.44861  0.39600  0.61063  1.0000
  C  Sn63      1.0  0.40901  0.42663  0.62511  1.0000
  C   C50       1.0  0.43158  0.49144  0.66703  1.0000
  C  Sn64      1.0  0.49290  0.52630  0.69476  1.0000
  O  Te61      1.0  0.59395  0.52955  0.70740  1.0000
  O  Te62      1.0  0.42710  0.33121  0.56885  1.0000
  O  Te63      1.0  0.34751  0.39269  0.59795  1.0000
  O  Te64      1.0  0.51441  0.59105  0.73649  1.0000
  Mg  Mg31      1.0  0.33976  0.30545  0.54389  1.0000
  Mg  Mg32      1.0  0.60173  0.61687  0.76142  1.0000
  C  Sn65      1.0  0.17852  0.53281  0.82048  1.0000
  C   C51       1.0  0.16851  0.55818  0.71052  1.0000
  C  Sn66      1.0  0.17440  0.53062  0.60368  1.0000
  C  Sn67      1.0  0.19060  0.47653  0.60680  1.0000
  C   C52       1.0  0.20058  0.45119  0.71670  1.0000
  C  Sn68      1.0  0.19471  0.47873  0.82359  1.0000
  O  Te65      1.0  0.17237  0.56114  0.92617  1.0000
  O  Te66      1.0  0.16419  0.55684  0.49485  1.0000
  O  Te67      1.0  0.19674  0.44821  0.50099  1.0000
  O  Te68      1.0  0.20491  0.45253  0.93237  1.0000
  Mg  Mg33      1.0  0.17812  0.50129  0.37502  1.0000
  Mg  Mg34      1.0  0.14671  0.49267  0.05224  1.0000
  C  Sn69      1.0  0.95922  0.55219  0.63067  1.0000
  C   C53       1.0  0.92988  0.48766  0.58744  1.0000
  C  Sn70      1.0  0.96174  0.44898  0.57498  1.0000
  C  Sn71      1.0  0.02424  0.47533  0.60645  1.0000
  C   C54       1.0  0.05354  0.53983  0.64967  1.0000
  C  Sn72      1.0  0.02171  0.57855  0.66214  1.0000
  O  Te69      1.0  0.92647  0.58997  0.64240  1.0000
  O  Te70      1.0  0.93143  0.38460  0.53153  1.0000
  O  Te71      1.0  0.05698  0.43750  0.59468  1.0000
  O  Te72      1.0  0.05199  0.64288  0.70558  1.0000
  Mg  Mg35      1.0  0.99562  0.35253  0.53156  1.0000
  Mg  Mg36      1.0  0.98784  0.67499  0.70565  1.0000
  C  Sn73      1.0  0.73800  0.38039  0.83324  1.0000
  C   C55       1.0  0.77058  0.37621  0.73976  1.0000
  C  Sn74      1.0  0.74131  0.34815  0.62903  1.0000
  C  Sn75      1.0  0.67816  0.32378  0.61131  1.0000
  C   C56       1.0  0.64562  0.32797  0.70474  1.0000
  C  Sn76      1.0  0.67485  0.35602  0.81553  1.0000
  O  Te73      1.0  0.76819  0.40865  0.94319  1.0000
  O  Te74      1.0  0.77484  0.34450  0.53693  1.0000
  O  Te75      1.0  0.64799  0.29551  0.50124  1.0000
  O  Te76      1.0  0.64136  0.35969  0.90757  1.0000
  Mg  Mg37      1.0  0.71331  0.30174  0.40332  1.0000
  Mg  Mg38      1.0  0.65859  0.38711  0.04119  1.0000
  C  Sn77      1.0  0.41683  0.65238  0.97568  1.0000
  C   C57       1.0  0.39630  0.60925  0.87651  1.0000
  C  Sn78      1.0  0.35170  0.61166  0.79321  1.0000
  C  Sn79      1.0  0.32711  0.65817  0.80930  1.0000
  C   C58       1.0  0.34764  0.70127  0.90841  1.0000
  C  Sn80      1.0  0.39225  0.69889  0.99178  1.0000
  O  Te77      1.0  0.41721  0.63375  0.05783  1.0000
  O  Te78      1.0  0.33189  0.56802  0.69480  1.0000
  O  Te79      1.0  0.28245  0.66141  0.72705  1.0000
  O  Te80      1.0  0.36781  0.72715  0.09012  1.0000
  Mg  Mg39      1.0  0.27026  0.59163  0.60747  1.0000
  Mg  Mg40      1.0  0.42945  0.70360  0.17747  1.0000
  C  Sn81      1.0  0.42274  0.85521  0.88597  1.0000
  C   C59       1.0  0.36383  0.82169  0.91395  1.0000
  C  Sn82      1.0  0.31822  0.83683  0.85784  1.0000
  C  Sn83      1.0  0.33176  0.88647  0.77191  1.0000
  C   C60       1.0  0.39064  0.91995  0.74395  1.0000
  C  Sn84      1.0  0.43628  0.90486  0.80003  1.0000
  O  Te81      1.0  0.46762  0.83927  0.94316  1.0000
  O  Te82      1.0  0.25967  0.80266  0.88733  1.0000
  O  Te83      1.0  0.28682  0.90240  0.71471  1.0000
  O  Te84      1.0  0.49480  0.93899  0.77057  1.0000
  Mg  Mg41      1.0  0.21399  0.84209  0.78508  1.0000
  Mg  Mg42      1.0  0.54050  0.89958  0.87271  1.0000
  C  Sn85      1.0  0.95240  0.71274  0.66460  1.0000
  C   C61       1.0  0.91049  0.65658  0.71157  1.0000
  C  Sn86      1.0  0.91778  0.64175  0.83152  1.0000
  C  Sn87      1.0  0.96798  0.68395  0.90612  1.0000
  C   C62       1.0  0.00984  0.74008  0.85915  1.0000
  C  Sn88      1.0  0.00260  0.75494  0.73920  1.0000
  O  Te85      1.0  0.94422  0.72660  0.54443  1.0000
  O  Te86      1.0  0.87530  0.58531  0.87644  1.0000
  O  Te87      1.0  0.93188  0.65469  0.02637  1.0000
  O  Te88      1.0  0.04504  0.81135  0.69429  1.0000
  Mg  Mg43      1.0  0.86182  0.57208  0.04602  1.0000
  Mg  Mg44      1.0  0.01429  0.80929  0.52475  1.0000
  C  Sn89      1.0  0.30693  0.28074  0.59481  1.0000
  C   C63       1.0  0.34170  0.27658  0.69717  1.0000
  C  Sn90      1.0  0.33038  0.29239  0.81003  1.0000
  C  Sn91      1.0  0.28331  0.31275  0.82084  1.0000
  C   C64       1.0  0.24857  0.31689  0.71853  1.0000
  C  Sn92      1.0  0.25986  0.30110  0.60561  1.0000
  O  Te89      1.0  0.31903  0.26470  0.48288  1.0000
  O  Te90      1.0  0.36576  0.28788  0.91106  1.0000
  O  Te91      1.0  0.27123  0.32880  0.93289  1.0000
  O  Te92      1.0  0.22450  0.30559  0.50463  1.0000
  Mg  Mg45      1.0  0.28754  0.29958  0.04398  1.0000
  Mg  Mg46      1.0  0.25841  0.27853  0.37169  1.0000
  C  Sn93      1.0  0.19363  0.92891  0.83086  1.0000
  C   C65       1.0  0.21349  0.91962  0.72222  1.0000
  C  Sn94      1.0  0.18085  0.86358  0.65097  1.0000
  C  Sn95      1.0  0.12721  0.81584  0.68906  1.0000
  C   C66       1.0  0.10737  0.82515  0.79762  1.0000
  C  Sn96      1.0  0.13999  0.88117  0.86895  1.0000
  O  Te93      1.0  0.22697  0.98531  0.90065  1.0000
  O  Te94      1.0  0.20162  0.85536  0.54273  1.0000
  O  Te95      1.0  0.09387  0.75941  0.61916  1.0000
  O  Te96      1.0  0.11924  0.88941  0.97711  1.0000
  Mg  Mg47      1.0  0.14051  0.77037  0.47895  1.0000
  Mg  Mg48      1.0  0.13604  0.95905  0.04093  1.0000
