data_image0
_chemical_formula_structural       B8P8H16C24O24SnCSn2CSnTe4Mg2SnCSn2CSnTe4Mg2SnCSn2CSnTe4Mg2SnCSn2CSnTe4Mg2
_chemical_formula_sum              "B8 P8 H16 C32 O24 Sn16 Te16 Mg8"
_cell_length_a       12.9161
_cell_length_b       12.9056
_cell_length_c       12.6766
_cell_angle_alpha    90.0032
_cell_angle_beta     89.9913
_cell_angle_gamma    90.0961

_symmetry_space_group_name_H-M    'P1'
_space_group_IT_number       1

loop_
  _space_group_symop_operation_xyz
  'x, y, z'

loop_
  _atom_site_type_symbol
  _atom_site_label
  _atom_site_symmetry_multiplicity
  _atom_site_fract_x
  _atom_site_fract_y
  _atom_site_fract_z
  _atom_site_occupancy
  B   B1        1.0  0.89274  0.91064  0.87203  1.0000
  B   B2        1.0  0.89121  0.13458  0.10302  1.0000
  B   B3        1.0  0.11661  0.91408  0.09865  1.0000
  B   B4        1.0  0.10932  0.13968  0.86854  1.0000
  B   B5        1.0  0.38920  0.41435  0.37028  1.0000
  B   B6        1.0  0.61300  0.41277  0.60217  1.0000
  B   B7        1.0  0.38987  0.63783  0.59855  1.0000
  B   B8        1.0  0.61869  0.63383  0.37275  1.0000
  P   P1        1.0  0.11049  0.13341  0.09357  1.0000
  P   P2        1.0  0.89775  0.91484  0.09718  1.0000
  P   P3        1.0  0.89030  0.13060  0.87802  1.0000
  P   P4        1.0  0.11174  0.92009  0.87374  1.0000
  P   P5        1.0  0.60907  0.41405  0.37753  1.0000
  P   P6        1.0  0.39849  0.63348  0.37308  1.0000
  P   P7        1.0  0.61023  0.63231  0.59823  1.0000
  P   P8        1.0  0.39268  0.41839  0.59495  1.0000
  H   H1        1.0  0.25974  0.25096  0.42793  1.0000
  H   H2        1.0  0.15124  0.13555  0.31672  1.0000
  H   H3        1.0  0.24803  0.30372  0.03941  1.0000
  H   H4        1.0  0.35637  0.41889  0.15135  1.0000
  H   H5        1.0  0.67569  0.13824  0.11896  1.0000
  H   H6        1.0  0.56185  0.24873  0.22963  1.0000
  H   H7        1.0  0.83125  0.39836  0.36098  1.0000
  H   H8        1.0  0.94435  0.28801  0.25006  1.0000
  H   H9        1.0  0.17290  0.42373  0.63322  1.0000
  H   H10       1.0  0.05806  0.31247  0.74233  1.0000
  H   H11       1.0  0.31990  0.12681  0.83299  1.0000
  H   H12       1.0  0.43561  0.23819  0.72458  1.0000
  H   H13       1.0  0.32305  0.83929  0.56069  1.0000
  H   H14       1.0  0.21476  0.95564  0.67103  1.0000
  H   H15       1.0  0.18522  0.71298  0.90339  1.0000
  H   H16       1.0  0.29290  0.59772  0.79212  1.0000
  C   C1        1.0  0.81869  0.20541  0.17572  1.0000
  C   C2        1.0  0.68912  0.33129  0.30109  1.0000
  C   C3        1.0  0.18061  0.21203  0.79608  1.0000
  C   C4        1.0  0.31152  0.33777  0.67254  1.0000
  C   C5        1.0  0.19262  0.21295  0.17123  1.0000
  C   C6        1.0  0.31653  0.34298  0.29803  1.0000
  C   C7        1.0  0.19287  0.84169  0.79402  1.0000
  C   C8        1.0  0.31719  0.71049  0.66904  1.0000
  C   C9        1.0  0.25762  0.26258  0.34291  1.0000
  C   C10       1.0  0.19614  0.19778  0.28097  1.0000
  C   C11       1.0  0.25067  0.29287  0.12453  1.0000
  C   C12       1.0  0.31173  0.35689  0.18804  1.0000
  C   C13       1.0  0.71033  0.19521  0.17169  1.0000
  C   C14       1.0  0.64556  0.25716  0.23324  1.0000
  C   C15       1.0  0.79732  0.34169  0.30754  1.0000
  C   C16       1.0  0.86066  0.27917  0.24525  1.0000
  C   C17       1.0  0.20486  0.35864  0.67704  1.0000
  C   C18       1.0  0.14061  0.29593  0.73846  1.0000
  C   C19       1.0  0.28737  0.19187  0.78949  1.0000
  C   C20       1.0  0.35300  0.25378  0.72879  1.0000
  C   C21       1.0  0.29364  0.81172  0.63618  1.0000
  C   C22       1.0  0.23227  0.87740  0.69732  1.0000
  C   C23       1.0  0.21519  0.74058  0.82819  1.0000
  C   C24       1.0  0.27648  0.67623  0.76579  1.0000
  O   O1        1.0  0.89090  0.02559  0.14466  1.0000
  O   O2        1.0  0.88924  0.02008  0.83035  1.0000
  O   O3        1.0  0.84862  0.13499  0.99245  1.0000
  O   O4        1.0  0.85342  0.91135  0.98367  1.0000
  O   O5        1.0  0.11539  0.02255  0.14051  1.0000
  O   O6        1.0  0.15633  0.91632  0.98712  1.0000
  O   O7        1.0  0.11431  0.03098  0.82695  1.0000
  O   O8        1.0  0.15143  0.14044  0.97928  1.0000
  O   O9        1.0  0.00157  0.87177  0.86961  1.0000
  O   O10       1.0  0.00074  0.17774  0.86953  1.0000
  O   O11       1.0  0.99898  0.17697  0.10359  1.0000
  O   O12       1.0  0.00934  0.87015  0.09938  1.0000
  O   O13       1.0  0.38554  0.52959  0.64046  1.0000
  O   O14       1.0  0.65180  0.41147  0.49152  1.0000
  O   O15       1.0  0.50317  0.37353  0.60391  1.0000
  O   O16       1.0  0.49751  0.37058  0.36940  1.0000
  O   O17       1.0  0.34942  0.41582  0.48076  1.0000
  O   O18       1.0  0.39098  0.52214  0.32756  1.0000
  O   O19       1.0  0.61484  0.52087  0.64496  1.0000
  O   O20       1.0  0.49934  0.67751  0.60346  1.0000
  O   O21       1.0  0.35352  0.64036  0.48624  1.0000
  O   O22       1.0  0.51040  0.67666  0.36966  1.0000
  O   O23       1.0  0.61898  0.52498  0.33161  1.0000
  O   O24       1.0  0.65626  0.63508  0.48498  1.0000
  C  Sn1       1.0  0.68906  0.83208  0.80774  1.0000
  C   C25       1.0  0.79604  0.82359  0.82172  1.0000
  C  Sn2       1.0  0.85491  0.76188  0.75399  1.0000
  C  Sn3       1.0  0.80585  0.70758  0.67049  1.0000
  C   C26       1.0  0.69895  0.71610  0.65653  1.0000
  C  Sn4       1.0  0.64001  0.77778  0.72423  1.0000
  O  Te1       1.0  0.63174  0.89422  0.87639  1.0000
  O  Te2       1.0  0.96173  0.75457  0.76957  1.0000
  O  Te3       1.0  0.86328  0.64541  0.60182  1.0000
  O  Te4       1.0  0.53325  0.78512  0.70867  1.0000
  Mg  Mg1       1.0  0.00653  0.66022  0.65524  1.0000
  Mg  Mg2       1.0  0.48839  0.87948  0.82292  1.0000
  C  Sn5       1.0  0.30460  0.87624  0.22672  1.0000
  C   C27       1.0  0.22319  0.84710  0.16039  1.0000
  C  Sn6       1.0  0.18204  0.74706  0.16548  1.0000
  C  Sn7       1.0  0.22307  0.67464  0.23844  1.0000
  C   C28       1.0  0.30441  0.70379  0.30474  1.0000
  C  Sn8       1.0  0.34562  0.80382  0.29969  1.0000
  O  Te5       1.0  0.34453  0.97667  0.22028  1.0000
  O  Te6       1.0  0.10069  0.71972  0.09833  1.0000
  O  Te7       1.0  0.18306  0.57415  0.24484  1.0000
  O  Te8       1.0  0.42691  0.83118  0.36680  1.0000
  Mg  Mg3       1.0  0.07237  0.57373  0.13686  1.0000
  Mg  Mg4       1.0  0.45525  0.97715  0.32837  1.0000
  C  Sn9       1.0  0.69550  0.34325  0.80668  1.0000
  C   C29       1.0  0.69985  0.35734  0.69746  1.0000
  C  Sn10      1.0  0.75459  0.28781  0.63414  1.0000
  C  Sn11      1.0  0.80601  0.20237  0.68095  1.0000
  C   C30       1.0  0.80164  0.18831  0.79009  1.0000
  C  Sn12      1.0  0.74693  0.25781  0.85348  1.0000
  O  Te9       1.0  0.64032  0.41372  0.86845  1.0000
  O  Te10      1.0  0.75785  0.30352  0.52513  1.0000
  O  Te11      1.0  0.86123  0.13188  0.61907  1.0000
  O  Te12      1.0  0.74364  0.24212  0.96242  1.0000
  Mg  Mg5       1.0  0.84300  0.18628  0.47428  1.0000
  Mg  Mg6       1.0  0.65862  0.35922  0.01334  1.0000
  C  Sn13      1.0  0.66849  0.82967  0.26617  1.0000
  C   C31       1.0  0.67297  0.72202  0.27711  1.0000
  C  Sn14      1.0  0.76067  0.66755  0.24443  1.0000
  C  Sn15      1.0  0.84570  0.72181  0.19995  1.0000
  C   C32       1.0  0.84120  0.82939  0.18904  1.0000
  C  Sn16      1.0  0.75352  0.88393  0.22168  1.0000
  O  Te13      1.0  0.58004  0.88254  0.29938  1.0000
  O  Te14      1.0  0.76334  0.55993  0.25614  1.0000
  O  Te15      1.0  0.93418  0.66884  0.16673  1.0000
  O  Te16      1.0  0.75083  0.99148  0.21001  1.0000
  Mg  Mg7       1.0  0.90100  0.52247  0.19914  1.0000
  Mg  Mg8       1.0  0.61156  0.02902  0.26703  1.0000
