data_image0
_chemical_formula_structural       B8P8O24SnCSn2CSnTe4Mg2SnCSn2CSnTe4Mg2SnCSn2CSnTe4Mg2SnCSn2CSnTe4Mg2SnCSn2CSnTe4Mg2SnCSn2CSnTe4Mg2SnCSn2CSnTe4Mg2SnCSn2CSnTe4Mg2SnCSn2CSnTe4Mg2SnCSn2CSnTe4Mg2SnCSn2CSnTe4Mg2SnCSn2CSnTe4Mg2SnCSn2CSnTe4Mg2SnCSn2CSnTe4Mg2SnCSn2CSnTe4Mg2SnCSn2CSnTe4Mg2
_chemical_formula_sum              "B8 P8 O24 Sn64 C32 Te64 Mg32"
_cell_length_a       17.6376
_cell_length_b       18.6525
_cell_length_c       17.186
_cell_angle_alpha    90.0151
_cell_angle_beta     90.1468
_cell_angle_gamma    89.9382

_symmetry_space_group_name_H-M    'P1'
_space_group_IT_number       1

loop_
  _space_group_symop_operation_xyz
  'x, y, z'

loop_
  _atom_site_type_symbol
  _atom_site_label
  _atom_site_symmetry_multiplicity
  _atom_site_fract_x
  _atom_site_fract_y
  _atom_site_fract_z
  _atom_site_occupancy
  B   B1        1.0  0.58023  0.57780  0.41627  1.0000
  B   B2        1.0  0.41879  0.42170  0.41293  1.0000
  B   B3        1.0  0.41557  0.57516  0.58722  1.0000
  B   B4        1.0  0.58092  0.42183  0.58726  1.0000
  B   B5        1.0  0.91460  0.92143  0.91757  1.0000
  B   B6        1.0  0.08249  0.07585  0.91780  1.0000
  B   B7        1.0  0.08071  0.92048  0.08710  1.0000
  B   B8        1.0  0.91614  0.07726  0.08607  1.0000
  P   P1        1.0  0.57917  0.42534  0.42040  1.0000
  P   P2        1.0  0.41968  0.57337  0.42026  1.0000
  P   P3        1.0  0.41974  0.42366  0.58073  1.0000
  P   P4        1.0  0.57700  0.57348  0.58319  1.0000
  P   P5        1.0  0.91884  0.92568  0.08403  1.0000
  P   P6        1.0  0.07763  0.07203  0.08468  1.0000
  P   P7        1.0  0.07645  0.92422  0.91964  1.0000
  P   P8        1.0  0.92123  0.07277  0.91907  1.0000
  O   O1        1.0  0.50043  0.42010  0.61678  1.0000
  O   O2        1.0  0.49590  0.57647  0.61771  1.0000
  O   O3        1.0  0.49882  0.42037  0.38346  1.0000
  O   O4        1.0  0.50055  0.57936  0.38595  1.0000
  O   O5        1.0  0.61101  0.50265  0.41401  1.0000
  O   O6        1.0  0.38840  0.49641  0.41081  1.0000
  O   O7        1.0  0.38560  0.50012  0.58951  1.0000
  O   O8        1.0  0.61071  0.49672  0.58981  1.0000
  O   O9        1.0  0.58078  0.60363  0.49953  1.0000
  O   O10       1.0  0.41860  0.39557  0.49621  1.0000
  O   O11       1.0  0.41742  0.60131  0.50452  1.0000
  O   O12       1.0  0.58109  0.39562  0.50423  1.0000
  O   O13       1.0  0.00033  0.92011  0.11706  1.0000
  O   O14       1.0  0.99612  0.07646  0.11730  1.0000
  O   O15       1.0  0.99487  0.92019  0.88663  1.0000
  O   O16       1.0  0.00267  0.07644  0.88605  1.0000
  O   O17       1.0  0.88555  0.99686  0.91407  1.0000
  O   O18       1.0  0.11156  0.00021  0.91395  1.0000
  O   O19       1.0  0.11146  0.99566  0.09342  1.0000
  O   O20       1.0  0.88507  0.00227  0.08998  1.0000
  O   O21       1.0  0.91809  0.10228  0.00325  1.0000
  O   O22       1.0  0.08078  0.89566  0.00414  1.0000
  O   O23       1.0  0.08133  0.10074  0.00033  1.0000
  O   O24       1.0  0.91529  0.89578  0.00003  1.0000
  C  Sn1       1.0  0.70200  0.73403  0.63448  1.0000
  C   C1        1.0  0.71165  0.73546  0.71520  1.0000
  C  Sn2       1.0  0.68740  0.67795  0.76081  1.0000
  C  Sn3       1.0  0.65282  0.61773  0.72499  1.0000
  C   C2        1.0  0.64319  0.61632  0.64432  1.0000
  C  Sn4       1.0  0.66742  0.67382  0.59866  1.0000
  O  Te1       1.0  0.72668  0.79212  0.59002  1.0000
  O  Te2       1.0  0.69764  0.68061  0.84140  1.0000
  O  Te3       1.0  0.62813  0.55962  0.76952  1.0000
  O  Te4       1.0  0.65721  0.67117  0.51811  1.0000
  Mg  Mg1       1.0  0.65463  0.58833  0.87708  1.0000
  Mg  Mg2       1.0  0.70023  0.76340  0.48237  1.0000
  C  Sn5       1.0  0.28158  0.36227  0.73916  1.0000
  C   C3        1.0  0.25684  0.29318  0.72060  1.0000
  C  Sn6       1.0  0.29061  0.25508  0.65986  1.0000
  C  Sn7       1.0  0.35038  0.28667  0.61680  1.0000
  C   C4        1.0  0.37509  0.35571  0.63537  1.0000
  C  Sn8       1.0  0.34135  0.39386  0.69610  1.0000
  O  Te5       1.0  0.24700  0.39938  0.80012  1.0000
  O  Te6       1.0  0.26489  0.18609  0.64237  1.0000
  O  Te7       1.0  0.38494  0.24950  0.55580  1.0000
  O  Te8       1.0  0.36704  0.46280  0.71360  1.0000
  Mg  Mg3       1.0  0.33003  0.15702  0.55415  1.0000
  Mg  Mg4       1.0  0.30197  0.49191  0.80183  1.0000
  C  Sn9       1.0  0.29474  0.63384  0.24988  1.0000
  C   C5        1.0  0.25397  0.69417  0.27386  1.0000
  C  Sn10      1.0  0.27010  0.72685  0.34514  1.0000
  C  Sn11      1.0  0.32822  0.69866  0.39345  1.0000
  C   C6        1.0  0.36897  0.63837  0.36946  1.0000
  C  Sn12      1.0  0.35287  0.60565  0.29819  1.0000
  O  Te9       1.0  0.27766  0.60205  0.17838  1.0000
  O  Te10      1.0  0.22855  0.78710  0.36787  1.0000
  O  Te11      1.0  0.34528  0.73051  0.46499  1.0000
  O  Te12      1.0  0.39439  0.54544  0.27545  1.0000
  Mg  Mg5       1.0  0.27294  0.81154  0.47041  1.0000
  Mg  Mg6       1.0  0.35008  0.52098  0.17291  1.0000
  C  Sn13      1.0  0.69534  0.35736  0.24724  1.0000
  C   C7        1.0  0.73814  0.29866  0.27245  1.0000
  C  Sn14      1.0  0.72635  0.26942  0.34625  1.0000
  C  Sn15      1.0  0.67058  0.29946  0.39588  1.0000
  C   C8        1.0  0.62781  0.35811  0.37067  1.0000
  C  Sn16      1.0  0.63958  0.38739  0.29688  1.0000
  O  Te13      1.0  0.70809  0.38571  0.17323  1.0000
  O  Te14      1.0  0.76985  0.21075  0.37017  1.0000
  O  Te15      1.0  0.65786  0.27105  0.46995  1.0000
  O  Te16      1.0  0.59611  0.44602  0.27295  1.0000
  Mg  Mg7       1.0  0.73143  0.19103  0.47617  1.0000
  Mg  Mg8       1.0  0.63445  0.46575  0.16696  1.0000
  C  Sn17      1.0  0.86816  0.77808  0.86666  1.0000
  C   C9        1.0  0.87712  0.85195  0.85679  1.0000
  C  Sn18      1.0  0.82816  0.89018  0.80804  1.0000
  C  Sn19      1.0  0.76899  0.85383  0.76836  1.0000
  C   C10       1.0  0.76005  0.78001  0.77825  1.0000
  C  Sn20      1.0  0.80899  0.74173  0.82698  1.0000
  O  Te17      1.0  0.91776  0.74094  0.91569  1.0000
  O  Te18      1.0  0.83826  0.96401  0.79907  1.0000
  O  Te19      1.0  0.71938  0.89104  0.71931  1.0000
  O  Te20      1.0  0.79891  0.66796  0.83597  1.0000
  Mg  Mg9       1.0  0.75614  0.99108  0.72599  1.0000
  Mg  Mg10      1.0  0.88096  0.64083  0.90907  1.0000
  C  Sn21      1.0  0.17081  0.20903  0.89374  1.0000
  C   C11       1.0  0.12592  0.15147  0.86949  1.0000
  C  Sn22      1.0  0.13443  0.12275  0.79495  1.0000
  C  Sn23      1.0  0.18898  0.15214  0.74357  1.0000
  C   C12       1.0  0.23384  0.20965  0.76782  1.0000
  C  Sn24      1.0  0.22536  0.23842  0.84236  1.0000
  O  Te21      1.0  0.16134  0.23689  0.96852  1.0000
  O  Te22      1.0  0.08888  0.06522  0.77202  1.0000
  O  Te23      1.0  0.19842  0.12423  0.66874  1.0000
  O  Te24      1.0  0.27088  0.29590  0.86529  1.0000
  Mg  Mg11      1.0  0.12302  0.04579  0.66440  1.0000
  Mg  Mg12      1.0  0.23681  0.31534  0.97291  1.0000
  C  Sn25      1.0  0.11475  0.77684  0.14837  1.0000
  C   C13       1.0  0.11614  0.85172  0.15098  1.0000
  C  Sn26      1.0  0.17548  0.88749  0.18837  1.0000
  C  Sn27      1.0  0.23469  0.84760  0.22385  1.0000
  C   C14       1.0  0.23330  0.77278  0.22122  1.0000
  C  Sn28      1.0  0.17397  0.73695  0.18386  1.0000
  O  Te25      1.0  0.05487  0.74220  0.11067  1.0000
  O  Te26      1.0  0.17561  0.96238  0.19024  1.0000
  O  Te27      1.0  0.29459  0.88231  0.26157  1.0000
  O  Te28      1.0  0.17382  0.66211  0.18197  1.0000
  Mg  Mg13      1.0  0.26952  0.98508  0.24855  1.0000
  Mg  Mg14      1.0  0.07997  0.63936  0.12364  1.0000
  C  Sn29      1.0  0.80735  0.14354  0.25489  1.0000
  C   C15       1.0  0.79544  0.21687  0.24338  1.0000
  C  Sn30      1.0  0.81449  0.24890  0.17263  1.0000
  C  Sn31      1.0  0.84604  0.20675  0.11209  1.0000
  C   C16       1.0  0.85791  0.13348  0.12361  1.0000
  C  Sn32      1.0  0.83890  0.10140  0.19435  1.0000
  O  Te29      1.0  0.78788  0.11265  0.32610  1.0000
  O  Te30      1.0  0.80208  0.32230  0.16250  1.0000
  O  Te31      1.0  0.86550  0.23771  0.04085  1.0000
  O  Te32      1.0  0.85127  0.02804  0.20449  1.0000
  Mg  Mg15      1.0  0.83782  0.33974  0.05505  1.0000
  Mg  Mg16      1.0  0.81553  0.01054  0.31190  1.0000
  C  Sn33      1.0  0.74317  0.16060  0.83558  1.0000
  C   C17       1.0  0.76516  0.22237  0.79558  1.0000
  C  Sn34      1.0  0.84164  0.23517  0.77994  1.0000
  C  Sn35      1.0  0.89730  0.18517  0.80476  1.0000
  C   C18       1.0  0.87531  0.12345  0.84473  1.0000
  C  Sn36      1.0  0.79884  0.11061  0.86040  1.0000
  O  Te33      1.0  0.66639  0.14889  0.85058  1.0000
  O  Te34      1.0  0.86224  0.29731  0.73987  1.0000
  O  Te35      1.0  0.97413  0.19693  0.78973  1.0000
  O  Te36      1.0  0.77823  0.04850  0.90043  1.0000
  Mg  Mg17      1.0  0.97399  0.28939  0.73324  1.0000
  Mg  Mg18      1.0  0.66650  0.05635  0.90706  1.0000
  C  Sn37      1.0  0.25375  0.83522  0.83558  1.0000
  C   C19       1.0  0.23107  0.77373  0.79532  1.0000
  C  Sn38      1.0  0.15434  0.76107  0.78050  1.0000
  C  Sn39      1.0  0.09911  0.81092  0.80641  1.0000
  C   C20       1.0  0.12179  0.87236  0.84663  1.0000
  C  Sn40      1.0  0.19852  0.88507  0.86149  1.0000
  O  Te37      1.0  0.33077  0.84679  0.84975  1.0000
  O  Te38      1.0  0.13304  0.69921  0.74016  1.0000
  O  Te39      1.0  0.02204  0.79929  0.79221  1.0000
  O  Te40      1.0  0.21982  0.94689  0.90179  1.0000
  Mg  Mg19      1.0  0.02120  0.70721  0.73494  1.0000
  Mg  Mg20      1.0  0.33164  0.93896  0.90701  1.0000
  C  Sn41      1.0  0.17434  0.11505  0.22918  1.0000
  C   C21       1.0  0.12713  0.13007  0.16581  1.0000
  C  Sn42      1.0  0.13269  0.19559  0.12689  1.0000
  C  Sn43      1.0  0.18660  0.24714  0.15179  1.0000
  C   C22       1.0  0.23378  0.23210  0.21511  1.0000
  C  Sn44      1.0  0.22825  0.16660  0.25408  1.0000
  O  Te41      1.0  0.16780  0.04920  0.26722  1.0000
  O  Te42      1.0  0.08486  0.20940  0.06370  1.0000
  O  Te43      1.0  0.19311  0.31303  0.11368  1.0000
  O  Te44      1.0  0.27605  0.15278  0.31722  1.0000
  Mg  Mg21      1.0  0.11537  0.30685  0.03069  1.0000
  Mg  Mg22      1.0  0.24562  0.05533  0.35024  1.0000
  C  Sn45      1.0  0.86672  0.77826  0.14142  1.0000
  C   C23       1.0  0.85554  0.85142  0.12808  1.0000
  C  Sn46      1.0  0.80353  0.89009  0.17268  1.0000
  C  Sn47      1.0  0.76186  0.85492  0.23190  1.0000
  C   C24       1.0  0.77306  0.78181  0.24523  1.0000
  C  Sn48      1.0  0.82505  0.74309  0.20064  1.0000
  O  Te45      1.0  0.91901  0.74066  0.09613  1.0000
  O  Te46      1.0  0.79331  0.96319  0.15823  1.0000
  O  Te47      1.0  0.70954  0.89259  0.27720  1.0000
  O  Te48      1.0  0.83528  0.67005  0.21507  1.0000
  Mg  Mg23      1.0  0.71562  0.99129  0.23543  1.0000
  Mg  Mg24      1.0  0.91298  0.64190  0.13794  1.0000
  C  Sn49      1.0  0.71780  0.38825  0.68158  1.0000
  C   C25       1.0  0.65792  0.37183  0.63126  1.0000
  C  Sn50      1.0  0.62421  0.30412  0.63310  1.0000
  C  Sn51      1.0  0.65087  0.25173  0.68638  1.0000
  C   C26       1.0  0.71071  0.26817  0.73667  1.0000
  C  Sn52      1.0  0.74447  0.33586  0.73486  1.0000
  O  Te49      1.0  0.75065  0.45628  0.67873  1.0000
  O  Te50      1.0  0.56444  0.28895  0.58221  1.0000
  O  Te51      1.0  0.61797  0.18366  0.68920  1.0000
  O  Te52      1.0  0.80419  0.35105  0.78572  1.0000
  Mg  Mg25      1.0  0.53813  0.18863  0.60822  1.0000
  Mg  Mg26      1.0  0.83051  0.45135  0.75979  1.0000
  C  Sn53      1.0  0.32574  0.74444  0.64697  1.0000
  C   C27       1.0  0.26686  0.72750  0.69800  1.0000
  C  Sn54      1.0  0.25877  0.65769  0.72616  1.0000
  C  Sn55      1.0  0.31064  0.60369  0.70288  1.0000
  C   C28       1.0  0.36949  0.62064  0.65190  1.0000
  C  Sn56      1.0  0.37762  0.69044  0.62369  1.0000
  O  Te53      1.0  0.33275  0.81459  0.61955  1.0000
  O  Te54      1.0  0.19943  0.64205  0.77710  1.0000
  O  Te55      1.0  0.30359  0.53350  0.73035  1.0000
  O  Te56      1.0  0.43692  0.70609  0.57280  1.0000
  Mg  Mg27      1.0  0.21354  0.53862  0.79864  1.0000
  Mg  Mg28      1.0  0.42289  0.80951  0.55126  1.0000
  C  Sn57      1.0  0.25838  0.36677  0.28747  1.0000
  C   C29       1.0  0.27568  0.29845  0.25919  1.0000
  C  Sn58      1.0  0.33892  0.26134  0.28724  1.0000
  C  Sn59      1.0  0.38582  0.29316  0.34479  1.0000
  C   C30       1.0  0.36850  0.36143  0.37306  1.0000
  C  Sn60      1.0  0.30528  0.39859  0.34503  1.0000
  O  Te57      1.0  0.19487  0.40289  0.25859  1.0000
  O  Te58      1.0  0.35508  0.19311  0.25805  1.0000
  O  Te59      1.0  0.44936  0.25698  0.37366  1.0000
  O  Te60      1.0  0.28911  0.46678  0.37419  1.0000
  Mg  Mg29      1.0  0.44785  0.16526  0.31572  1.0000
  Mg  Mg30      1.0  0.19633  0.49466  0.31659  1.0000
  C  Sn61      1.0  0.63260  0.73854  0.30485  1.0000
  C   C31       1.0  0.71128  0.73715  0.29548  1.0000
  C  Sn62      1.0  0.75288  0.67630  0.31625  1.0000
  C  Sn63      1.0  0.71507  0.61555  0.34699  1.0000
  C   C32       1.0  0.63644  0.61695  0.35633  1.0000
  C  Sn64      1.0  0.59479  0.67779  0.33559  1.0000
  O  Te61      1.0  0.59215  0.79995  0.28370  1.0000
  O  Te62      1.0  0.83149  0.67619  0.30637  1.0000
  O  Te63      1.0  0.75560  0.55412  0.36815  1.0000
  O  Te64      1.0  0.51623  0.67792  0.34544  1.0000
  Mg  Mg31      1.0  0.86173  0.57988  0.34370  1.0000
  Mg  Mg32      1.0  0.48593  0.77418  0.30810  1.0000
