data_image0
_chemical_formula_structural       B8P8H32C48O24SnCSn2CSnTe4Mg2SnCSn2CSnTe4Mg2SnCSn2CSnTe4Mg2SnCSn2CSnTe4Mg2SnCSn2CSnTe4Mg2SnCSn2CSnTe4Mg2SnCSn2CSnTe4Mg2SnCSn2CSnTe4Mg2
_chemical_formula_sum              "B8 P8 H32 C64 O24 Sn32 Te32 Mg16"
_cell_length_a       17.6376
_cell_length_b       18.6525
_cell_length_c       17.186
_cell_angle_alpha    90.0151
_cell_angle_beta     90.1468
_cell_angle_gamma    89.9382

_symmetry_space_group_name_H-M    'P1'
_space_group_IT_number       1

loop_
  _space_group_symop_operation_xyz
  'x, y, z'

loop_
  _atom_site_type_symbol
  _atom_site_label
  _atom_site_symmetry_multiplicity
  _atom_site_fract_x
  _atom_site_fract_y
  _atom_site_fract_z
  _atom_site_occupancy
  B   B1        1.0  0.58023  0.57780  0.41627  1.0000
  B   B2        1.0  0.41879  0.42170  0.41293  1.0000
  B   B3        1.0  0.41557  0.57516  0.58722  1.0000
  B   B4        1.0  0.58092  0.42183  0.58726  1.0000
  B   B5        1.0  0.91460  0.92143  0.91757  1.0000
  B   B6        1.0  0.08249  0.07585  0.91780  1.0000
  B   B7        1.0  0.08071  0.92048  0.08710  1.0000
  B   B8        1.0  0.91614  0.07726  0.08607  1.0000
  P   P1        1.0  0.57917  0.42534  0.42040  1.0000
  P   P2        1.0  0.41968  0.57337  0.42026  1.0000
  P   P3        1.0  0.41974  0.42366  0.58073  1.0000
  P   P4        1.0  0.57700  0.57348  0.58319  1.0000
  P   P5        1.0  0.91884  0.92568  0.08403  1.0000
  P   P6        1.0  0.07763  0.07203  0.08468  1.0000
  P   P7        1.0  0.07645  0.92422  0.91964  1.0000
  P   P8        1.0  0.92123  0.07277  0.91907  1.0000
  H   H1        1.0  0.35778  0.28224  0.54871  1.0000
  H   H2        1.0  0.32576  0.69521  0.46198  1.0000
  H   H3        1.0  0.28271  0.19900  0.62902  1.0000
  H   H4        1.0  0.24215  0.77360  0.38208  1.0000
  H   H5        1.0  0.27070  0.35817  0.81048  1.0000
  H   H6        1.0  0.29483  0.64910  0.17851  1.0000
  H   H7        1.0  0.35058  0.43888  0.73301  1.0000
  H   H8        1.0  0.37820  0.57034  0.25773  1.0000
  H   H9        1.0  0.74880  0.86536  0.70521  1.0000
  H   H10       1.0  0.18086  0.16044  0.67727  1.0000
  H   H11       1.0  0.82520  0.94916  0.78448  1.0000
  H   H12       1.0  0.10531  0.07862  0.75727  1.0000
  H   H13       1.0  0.88709  0.77625  0.93740  1.0000
  H   H14       1.0  0.17709  0.18996  0.96356  1.0000
  H   H15       1.0  0.81128  0.69219  0.85783  1.0000
  H   H16       1.0  0.25508  0.27034  0.88464  1.0000
  H   H17       1.0  0.03939  0.79580  0.83236  1.0000
  H   H18       1.0  0.09723  0.22515  0.07726  1.0000
  H   H19       1.0  0.11867  0.71299  0.75442  1.0000
  H   H20       1.0  0.17595  0.30951  0.15412  1.0000
  H   H21       1.0  0.31443  0.84466  0.79906  1.0000
  H   H22       1.0  0.25956  0.13422  0.29227  1.0000
  H   H23       1.0  0.23550  0.92770  0.87696  1.0000
  H   H24       1.0  0.18114  0.04937  0.21583  1.0000
  H   H25       1.0  0.77885  0.36963  0.77006  1.0000
  H   H26       1.0  0.18726  0.35969  0.28489  1.0000
  H   H27       1.0  0.70016  0.45286  0.69216  1.0000
  H   H28       1.0  0.26939  0.44132  0.36117  1.0000
  H   H29       1.0  0.57701  0.27391  0.59780  1.0000
  H   H30       1.0  0.45172  0.28872  0.34773  1.0000
  H   H31       1.0  0.65708  0.19051  0.67331  1.0000
  H   H32       1.0  0.36968  0.20680  0.27191  1.0000
  C   C1        1.0  0.29628  0.25184  0.65184  1.0000
  C   C2        1.0  0.27310  0.72991  0.35475  1.0000
  C   C3        1.0  0.27066  0.27166  0.72642  1.0000
  C   C4        1.0  0.26395  0.71784  0.27446  1.0000
  C   C5        1.0  0.29095  0.34028  0.75403  1.0000
  C   C6        1.0  0.30151  0.65900  0.24052  1.0000
  C   C7        1.0  0.33557  0.38642  0.71004  1.0000
  C   C8        1.0  0.34871  0.61510  0.28482  1.0000
  C   C9        1.0  0.36032  0.36579  0.63566  1.0000
  C   C10       1.0  0.35865  0.62901  0.36463  1.0000
  C   C11       1.0  0.33975  0.29815  0.60665  1.0000
  C   C12       1.0  0.31978  0.68608  0.39975  1.0000
  C   C13       1.0  0.82327  0.89270  0.80043  1.0000
  C   C14       1.0  0.13781  0.12086  0.78561  1.0000
  C   C15       1.0  0.86298  0.86911  0.86662  1.0000
  C   C16       1.0  0.13430  0.12805  0.86699  1.0000
  C   C17       1.0  0.85742  0.79608  0.88612  1.0000
  C   C18       1.0  0.17748  0.18317  0.90070  1.0000
  C   C19       1.0  0.81406  0.74861  0.84193  1.0000
  C   C20       1.0  0.22152  0.22928  0.85572  1.0000
  C   C21       1.0  0.77471  0.77262  0.77562  1.0000
  C   C22       1.0  0.22420  0.22252  0.77422  1.0000
  C   C23       1.0  0.78023  0.84549  0.75538  1.0000
  C   C24       1.0  0.18135  0.16694  0.74015  1.0000
  C   C25       1.0  0.14458  0.75933  0.78222  1.0000
  C   C26       1.0  0.17657  0.25260  0.16796  1.0000
  C   C27       1.0  0.22246  0.77247  0.77114  1.0000
  C   C28       1.0  0.22400  0.22772  0.22822  1.0000
  C   C29       1.0  0.25420  0.83398  0.80591  1.0000
  C   C30       1.0  0.22463  0.15385  0.24461  1.0000
  C   C31       1.0  0.21018  0.88051  0.85032  1.0000
  C   C32       1.0  0.18045  0.10614  0.20181  1.0000
  C   C33       1.0  0.13256  0.86670  0.86062  1.0000
  C   C34       1.0  0.13475  0.13128  0.14077  1.0000
  C   C35       1.0  0.09987  0.80577  0.82609  1.0000
  C   C36       1.0  0.13259  0.20520  0.12449  1.0000
  C   C37       1.0  0.69051  0.39536  0.68774  1.0000
  C   C38       1.0  0.29171  0.38997  0.34159  1.0000
  C   C39       1.0  0.63275  0.36994  0.63862  1.0000
  C   C40       1.0  0.36651  0.37094  0.36103  1.0000
  C   C41       1.0  0.62148  0.29535  0.63523  1.0000
  C   C42       1.0  0.39342  0.30418  0.33507  1.0000
  C   C43       1.0  0.66625  0.24803  0.67820  1.0000
  C   C44       1.0  0.34736  0.25781  0.29240  1.0000
  C   C45       1.0  0.72471  0.27384  0.72659  1.0000
  C   C46       1.0  0.27252  0.27724  0.27319  1.0000
  C   C47       1.0  0.73568  0.34838  0.73100  1.0000
  C   C48       1.0  0.24546  0.34433  0.29804  1.0000
  O   O1        1.0  0.50043  0.42010  0.61678  1.0000
  O   O2        1.0  0.49590  0.57647  0.61771  1.0000
  O   O3        1.0  0.49882  0.42037  0.38346  1.0000
  O   O4        1.0  0.50055  0.57936  0.38595  1.0000
  O   O5        1.0  0.61101  0.50265  0.41401  1.0000
  O   O6        1.0  0.38840  0.49641  0.41081  1.0000
  O   O7        1.0  0.38560  0.50012  0.58951  1.0000
  O   O8        1.0  0.61071  0.49672  0.58981  1.0000
  O   O9        1.0  0.58078  0.60363  0.49953  1.0000
  O   O10       1.0  0.41860  0.39557  0.49621  1.0000
  O   O11       1.0  0.41742  0.60131  0.50452  1.0000
  O   O12       1.0  0.58109  0.39562  0.50423  1.0000
  O   O13       1.0  0.00033  0.92011  0.11706  1.0000
  O   O14       1.0  0.99612  0.07646  0.11730  1.0000
  O   O15       1.0  0.99487  0.92019  0.88663  1.0000
  O   O16       1.0  0.00267  0.07644  0.88605  1.0000
  O   O17       1.0  0.88555  0.99686  0.91407  1.0000
  O   O18       1.0  0.11156  0.00021  0.91395  1.0000
  O   O19       1.0  0.11146  0.99566  0.09342  1.0000
  O   O20       1.0  0.88507  0.00227  0.08998  1.0000
  O   O21       1.0  0.91809  0.10228  0.00325  1.0000
  O   O22       1.0  0.08078  0.89566  0.00414  1.0000
  O   O23       1.0  0.08133  0.10074  0.00033  1.0000
  O   O24       1.0  0.91529  0.89578  0.00003  1.0000
  C  Sn1       1.0  0.17304  0.75007  0.14105  1.0000
  C   C49       1.0  0.22420  0.76488  0.20115  1.0000
  C  Sn2       1.0  0.22545  0.83251  0.23607  1.0000
  C  Sn3       1.0  0.17446  0.88645  0.21041  1.0000
  C   C50       1.0  0.12334  0.87163  0.15036  1.0000
  C  Sn4       1.0  0.12206  0.80401  0.11539  1.0000
  O  Te1       1.0  0.17279  0.68209  0.10699  1.0000
  O  Te2       1.0  0.27712  0.84605  0.29604  1.0000
  O  Te3       1.0  0.17475  0.95447  0.24454  1.0000
  O  Te4       1.0  0.07042  0.79046  0.05547  1.0000
  Mg  Mg1       1.0  0.25564  0.94697  0.32417  1.0000
  Mg  Mg2       1.0  0.09182  0.68955  0.02733  1.0000
  C  Sn5       1.0  0.79611  0.10896  0.20047  1.0000
  C   C51       1.0  0.84258  0.12487  0.13705  1.0000
  C  Sn6       1.0  0.86336  0.19565  0.12145  1.0000
  C  Sn7       1.0  0.83720  0.25172  0.17029  1.0000
  C   C52       1.0  0.79078  0.23580  0.23368  1.0000
  C  Sn8       1.0  0.76995  0.16503  0.24932  1.0000
  O  Te5       1.0  0.77605  0.03781  0.21497  1.0000
  O  Te6       1.0  0.90984  0.21023  0.05768  1.0000
  O  Te7       1.0  0.85730  0.32291  0.15574  1.0000
  O  Te8       1.0  0.72351  0.15044  0.31305  1.0000
  Mg  Mg3       1.0  0.92171  0.31570  0.06191  1.0000
  Mg  Mg4       1.0  0.71164  0.04499  0.30889  1.0000
  C  Sn9       1.0  0.72643  0.64235  0.37505  1.0000
  C   C53       1.0  0.64737  0.64058  0.37991  1.0000
  C  Sn10      1.0  0.60298  0.67859  0.32657  1.0000
  C  Sn11      1.0  0.63835  0.71920  0.26711  1.0000
  C   C54       1.0  0.71735  0.72095  0.26227  1.0000
  C  Sn12      1.0  0.76179  0.68296  0.31559  1.0000
  O  Te9       1.0  0.76968  0.60394  0.42899  1.0000
  O  Te10      1.0  0.52405  0.67602  0.33262  1.0000
  O  Te11      1.0  0.59501  0.75763  0.21315  1.0000
  O  Te12      1.0  0.84068  0.68551  0.30955  1.0000
  Mg  Mg5       1.0  0.48955  0.73735  0.24541  1.0000
  Mg  Mg6       1.0  0.87523  0.62418  0.39670  1.0000
  C  Sn13      1.0  0.74317  0.16060  0.83558  1.0000
  C   C55       1.0  0.76516  0.22237  0.79558  1.0000
  C  Sn14      1.0  0.84164  0.23517  0.77994  1.0000
  C  Sn15      1.0  0.89730  0.18517  0.80476  1.0000
  C   C56       1.0  0.87531  0.12345  0.84473  1.0000
  C  Sn16      1.0  0.79884  0.11061  0.86040  1.0000
  O  Te13      1.0  0.66639  0.14889  0.85058  1.0000
  O  Te14      1.0  0.86224  0.29731  0.73987  1.0000
  O  Te15      1.0  0.97413  0.19693  0.78973  1.0000
  O  Te16      1.0  0.77823  0.04850  0.90043  1.0000
  Mg  Mg7       1.0  0.97399  0.28939  0.73324  1.0000
  Mg  Mg8       1.0  0.66650  0.05635  0.90706  1.0000
  C  Sn17      1.0  0.68887  0.64390  0.75955  1.0000
  C   C57       1.0  0.73554  0.69930  0.73328  1.0000
  C  Sn18      1.0  0.72842  0.72515  0.65733  1.0000
  C  Sn19      1.0  0.67347  0.69505  0.60659  1.0000
  C   C58       1.0  0.62683  0.63970  0.63287  1.0000
  C  Sn20      1.0  0.63392  0.61379  0.70881  1.0000
  O  Te17      1.0  0.69698  0.61889  0.83570  1.0000
  O  Te18      1.0  0.77574  0.78056  0.63239  1.0000
  O  Te19      1.0  0.66540  0.72011  0.53039  1.0000
  O  Te20      1.0  0.58664  0.55843  0.73376  1.0000
  Mg  Mg9       1.0  0.74299  0.79641  0.52346  1.0000
  Mg  Mg10      1.0  0.61931  0.54257  0.84268  1.0000
  C  Sn21      1.0  0.74387  0.85364  0.19205  1.0000
  C   C59       1.0  0.75876  0.78227  0.21161  1.0000
  C  Sn22      1.0  0.83114  0.75343  0.20106  1.0000
  C  Sn23      1.0  0.88987  0.79684  0.17037  1.0000
  C   C60       1.0  0.87497  0.86816  0.15084  1.0000
  C  Sn24      1.0  0.80260  0.89705  0.16136  1.0000
  O  Te21      1.0  0.67110  0.88135  0.20310  1.0000
  O  Te22      1.0  0.84465  0.68193  0.22101  1.0000
  O  Te23      1.0  0.96268  0.76906  0.15933  1.0000
  O  Te24      1.0  0.78908  0.96851  0.14144  1.0000
  Mg  Mg11      1.0  0.95312  0.66869  0.19530  1.0000
  Mg  Mg12      1.0  0.68065  0.98182  0.16717  1.0000
  C  Sn25      1.0  0.38092  0.71528  0.65843  1.0000
  C   C61       1.0  0.37730  0.64051  0.65471  1.0000
  C  Sn26      1.0  0.31310  0.60428  0.68125  1.0000
  C  Sn27      1.0  0.25121  0.64359  0.71212  1.0000
  C   C62       1.0  0.25485  0.71831  0.71581  1.0000
  C  Sn28      1.0  0.31903  0.75459  0.68929  1.0000
  O  Te25      1.0  0.44566  0.75038  0.63155  1.0000
  O  Te26      1.0  0.31081  0.52951  0.67696  1.0000
  O  Te27      1.0  0.18645  0.60842  0.73900  1.0000
  O  Te28      1.0  0.32134  0.82932  0.69356  1.0000
  Mg  Mg13      1.0  0.21019  0.50603  0.72090  1.0000
  Mg  Mg14      1.0  0.42191  0.85285  0.64961  1.0000
  C  Sn29      1.0  0.69534  0.35736  0.24724  1.0000
  C   C63       1.0  0.73814  0.29866  0.27245  1.0000
  C  Sn30      1.0  0.72635  0.26942  0.34625  1.0000
  C  Sn31      1.0  0.67058  0.29946  0.39588  1.0000
  C   C64       1.0  0.62781  0.35811  0.37067  1.0000
  C  Sn32      1.0  0.63958  0.38739  0.29688  1.0000
  O  Te29      1.0  0.70809  0.38571  0.17323  1.0000
  O  Te30      1.0  0.76985  0.21075  0.37017  1.0000
  O  Te31      1.0  0.65786  0.27105  0.46995  1.0000
  O  Te32      1.0  0.59611  0.44602  0.27295  1.0000
  Mg  Mg15      1.0  0.73143  0.19103  0.47617  1.0000
  Mg  Mg16      1.0  0.63445  0.46575  0.16696  1.0000
