data_image0
_chemical_formula_structural       B8P8O24C2Sn2C2HTe2HMgC2Sn2C2HTe2HMgC2Sn2C2HTe2HMgC2Sn2C2HTe2HMgC2Sn2C2HTe2HMgC2Sn2C2HTe2HMgC2Sn2C2HTe2HMgC2Sn2C2HTe2HMgC2Sn2C2HTe2HMgC2Sn2C2HTe2HMgC2Sn2C2HTe2HMgC2Sn2C2HTe2HMgC2Sn2C2HTe2HMgC2Sn2C2HTe2HMgC2Sn2C2HTe2HMgC2Sn2C2HTe2HMg
_chemical_formula_sum              "B8 P8 O24 C64 Sn32 H32 Te32 Mg16"
_cell_length_a       17.6376
_cell_length_b       18.6525
_cell_length_c       17.186
_cell_angle_alpha    90.0151
_cell_angle_beta     90.1468
_cell_angle_gamma    89.9382

_symmetry_space_group_name_H-M    'P1'
_space_group_IT_number       1

loop_
  _space_group_symop_operation_xyz
  'x, y, z'

loop_
  _atom_site_type_symbol
  _atom_site_label
  _atom_site_symmetry_multiplicity
  _atom_site_fract_x
  _atom_site_fract_y
  _atom_site_fract_z
  _atom_site_occupancy
  B   B1        1.0  0.58023  0.57780  0.41627  1.0000
  B   B2        1.0  0.41879  0.42170  0.41293  1.0000
  B   B3        1.0  0.41557  0.57516  0.58722  1.0000
  B   B4        1.0  0.58092  0.42183  0.58726  1.0000
  B   B5        1.0  0.91460  0.92143  0.91757  1.0000
  B   B6        1.0  0.08249  0.07585  0.91780  1.0000
  B   B7        1.0  0.08071  0.92048  0.08710  1.0000
  B   B8        1.0  0.91614  0.07726  0.08607  1.0000
  P   P1        1.0  0.57917  0.42534  0.42040  1.0000
  P   P2        1.0  0.41968  0.57337  0.42026  1.0000
  P   P3        1.0  0.41974  0.42366  0.58073  1.0000
  P   P4        1.0  0.57700  0.57348  0.58319  1.0000
  P   P5        1.0  0.91884  0.92568  0.08403  1.0000
  P   P6        1.0  0.07763  0.07203  0.08468  1.0000
  P   P7        1.0  0.07645  0.92422  0.91964  1.0000
  P   P8        1.0  0.92123  0.07277  0.91907  1.0000
  O   O1        1.0  0.50043  0.42010  0.61678  1.0000
  O   O2        1.0  0.49590  0.57647  0.61771  1.0000
  O   O3        1.0  0.49882  0.42037  0.38346  1.0000
  O   O4        1.0  0.50055  0.57936  0.38595  1.0000
  O   O5        1.0  0.61101  0.50265  0.41401  1.0000
  O   O6        1.0  0.38840  0.49641  0.41081  1.0000
  O   O7        1.0  0.38560  0.50012  0.58951  1.0000
  O   O8        1.0  0.61071  0.49672  0.58981  1.0000
  O   O9        1.0  0.58078  0.60363  0.49953  1.0000
  O   O10       1.0  0.41860  0.39557  0.49621  1.0000
  O   O11       1.0  0.41742  0.60131  0.50452  1.0000
  O   O12       1.0  0.58109  0.39562  0.50423  1.0000
  O   O13       1.0  0.00033  0.92011  0.11706  1.0000
  O   O14       1.0  0.99612  0.07646  0.11730  1.0000
  O   O15       1.0  0.99487  0.92019  0.88663  1.0000
  O   O16       1.0  0.00267  0.07644  0.88605  1.0000
  O   O17       1.0  0.88555  0.99686  0.91407  1.0000
  O   O18       1.0  0.11156  0.00021  0.91395  1.0000
  O   O19       1.0  0.11146  0.99566  0.09342  1.0000
  O   O20       1.0  0.88507  0.00227  0.08998  1.0000
  O   O21       1.0  0.91809  0.10228  0.00325  1.0000
  O   O22       1.0  0.08078  0.89566  0.00414  1.0000
  O   O23       1.0  0.08133  0.10074  0.00033  1.0000
  O   O24       1.0  0.91529  0.89578  0.00003  1.0000
  C   C1        1.0  0.69434  0.69753  0.60358  1.0000
  C   C2        1.0  0.64944  0.64020  0.62817  1.0000
  C  Sn1       1.0  0.64137  0.62557  0.70744  1.0000
  C  Sn2       1.0  0.67901  0.66925  0.76299  1.0000
  C   C3        1.0  0.72376  0.72650  0.73780  1.0000
  C   C4        1.0  0.73146  0.74065  0.65833  1.0000
  H   H1        1.0  0.70027  0.70850  0.54210  1.0000
  O  Te1       1.0  0.59632  0.56807  0.73101  1.0000
  O  Te2       1.0  0.67190  0.65584  0.84258  1.0000
  H   H2        1.0  0.76619  0.78507  0.63931  1.0000
  Mg  Mg1       1.0  0.60422  0.57128  0.84595  1.0000
  C   C5        1.0  0.33231  0.27957  0.60969  1.0000
  C   C6        1.0  0.35133  0.35114  0.62371  1.0000
  C  Sn3       1.0  0.33238  0.38347  0.69438  1.0000
  C  Sn4       1.0  0.29369  0.34327  0.75199  1.0000
  C   C7        1.0  0.27496  0.27169  0.73742  1.0000
  C   C8        1.0  0.29417  0.23987  0.66649  1.0000
  H   H3        1.0  0.34720  0.25494  0.55482  1.0000
  O  Te3       1.0  0.35179  0.45503  0.70742  1.0000
  O  Te4       1.0  0.27410  0.37425  0.82315  1.0000
  H   H4        1.0  0.27948  0.18445  0.65567  1.0000
  Mg  Mg2       1.0  0.31282  0.47344  0.81356  1.0000
  C   C9        1.0  0.30827  0.70291  0.39844  1.0000
  C   C10       1.0  0.34663  0.64048  0.37670  1.0000
  C  Sn5       1.0  0.34571  0.61764  0.29928  1.0000
  C  Sn6       1.0  0.30561  0.65817  0.24270  1.0000
  C   C11       1.0  0.26745  0.72058  0.26502  1.0000
  C   C12       1.0  0.26872  0.74294  0.34266  1.0000
  H   H5        1.0  0.30928  0.72024  0.45850  1.0000
  O  Te5       1.0  0.38432  0.55512  0.27856  1.0000
  O  Te6       1.0  0.30378  0.63657  0.16490  1.0000
  H   H6        1.0  0.23905  0.79130  0.35947  1.0000
  Mg  Mg3       1.0  0.36513  0.54760  0.16525  1.0000
  C   C13       1.0  0.69105  0.29609  0.39991  1.0000
  C   C14       1.0  0.65021  0.35667  0.37661  1.0000
  C  Sn7       1.0  0.64651  0.37559  0.29804  1.0000
  C  Sn8       1.0  0.68445  0.33296  0.24188  1.0000
  C   C15       1.0  0.72511  0.27243  0.26578  1.0000
  C   C16       1.0  0.72846  0.25400  0.34456  1.0000
  H   H7        1.0  0.69361  0.28181  0.46086  1.0000
  O  Te7       1.0  0.60548  0.43630  0.27577  1.0000
  O  Te8       1.0  0.68167  0.35063  0.16297  1.0000
  H   H8        1.0  0.76004  0.20707  0.36258  1.0000
  Mg  Mg4       1.0  0.61847  0.43842  0.16134  1.0000
  C   C17       1.0  0.81223  0.88940  0.78215  1.0000
  C   C18       1.0  0.85054  0.87703  0.85215  1.0000
  C  Sn9       1.0  0.85402  0.80798  0.88345  1.0000
  C  Sn10      1.0  0.81845  0.75034  0.84378  1.0000
  C   C19       1.0  0.78030  0.76326  0.77375  1.0000
  C   C20       1.0  0.77715  0.83257  0.74297  1.0000
  H   H9        1.0  0.80982  0.94301  0.75830  1.0000
  O  Te9       1.0  0.89251  0.79658  0.95346  1.0000
  O  Te10      1.0  0.82107  0.68079  0.87374  1.0000
  H   H10       1.0  0.74752  0.84212  0.68874  1.0000
  Mg  Mg5       1.0  0.88035  0.69227  0.97094  1.0000
  C   C21       1.0  0.16988  0.15010  0.74139  1.0000
  C   C22       1.0  0.21061  0.21101  0.76362  1.0000
  C  Sn11      1.0  0.21716  0.22932  0.84218  1.0000
  C  Sn12      1.0  0.18222  0.18573  0.89942  1.0000
  C   C23       1.0  0.14164  0.12488  0.87659  1.0000
  C   C24       1.0  0.13543  0.10706  0.79781  1.0000
  H   H11       1.0  0.16510  0.13630  0.68044  1.0000
  O  Te11      1.0  0.25804  0.29037  0.86337  1.0000
  O  Te12      1.0  0.18789  0.20277  0.97835  1.0000
  H   H12       1.0  0.10392  0.05988  0.78063  1.0000
  Mg  Mg6       1.0  0.24964  0.29135  0.97828  1.0000
  C   C25       1.0  0.13133  0.77283  0.12881  1.0000
  C   C26       1.0  0.12592  0.84731  0.13577  1.0000
  C  Sn13      1.0  0.17158  0.88399  0.18905  1.0000
  C  Sn14      1.0  0.22359  0.84525  0.23612  1.0000
  C   C27       1.0  0.22861  0.77076  0.22868  1.0000
  C   C28       1.0  0.18263  0.73459  0.17520  1.0000
  H   H13       1.0  0.09579  0.74484  0.08741  1.0000
  O  Te13      1.0  0.16543  0.95841  0.19528  1.0000
  O  Te14      1.0  0.26992  0.88058  0.28981  1.0000
  H   H14       1.0  0.18687  0.67693  0.16979  1.0000
  Mg  Mg7       1.0  0.24070  0.98242  0.27692  1.0000
  C   C29       1.0  0.83300  0.24899  0.14809  1.0000
  C   C30       1.0  0.78462  0.23422  0.21031  1.0000
  C  Sn15      1.0  0.77860  0.16447  0.23925  1.0000
  C  Sn16      1.0  0.82190  0.10860  0.20516  1.0000
  C   C31       1.0  0.87019  0.12394  0.14297  1.0000
  C   C32       1.0  0.87576  0.19392  0.11445  1.0000
  H   H15       1.0  0.83735  0.30314  0.12605  1.0000
  O  Te15      1.0  0.72996  0.15064  0.30142  1.0000
  O  Te16      1.0  0.81699  0.03841  0.23295  1.0000
  H   H16       1.0  0.91327  0.20535  0.06631  1.0000
  Mg  Mg8       1.0  0.74276  0.04634  0.31877  1.0000
  C   C33       1.0  0.74411  0.14436  0.81606  1.0000
  C   C34       1.0  0.76313  0.21009  0.78239  1.0000
  C  Sn17      1.0  0.83807  0.23425  0.78399  1.0000
  C  Sn18      1.0  0.89490  0.19168  0.81998  1.0000
  C   C35       1.0  0.87530  0.12597  0.85345  1.0000
  C   C36       1.0  0.80013  0.10233  0.85155  1.0000
  H   H17       1.0  0.68596  0.12603  0.81455  1.0000
  O  Te17      1.0  0.85609  0.30006  0.75010  1.0000
  O  Te18      1.0  0.97025  0.21453  0.82238  1.0000
  H   H18       1.0  0.78543  0.05141  0.87758  1.0000
  Mg  Mg9       1.0  0.96671  0.30814  0.76820  1.0000
  C   C37       1.0  0.22958  0.87480  0.84405  1.0000
  C   C38       1.0  0.15120  0.87439  0.85573  1.0000
  C  Sn19      1.0  0.10703  0.81842  0.82631  1.0000
  C  Sn20      1.0  0.14214  0.76188  0.78447  1.0000
  C   C39       1.0  0.22060  0.76276  0.77315  1.0000
  C   C40       1.0  0.26426  0.81904  0.80281  1.0000
  H   H19       1.0  0.26338  0.91832  0.86703  1.0000
  O  Te19      1.0  0.02879  0.81885  0.83848  1.0000
  O  Te20      1.0  0.09934  0.70527  0.75446  1.0000
  H   H20       1.0  0.32495  0.81932  0.79380  1.0000
  Mg  Mg10      1.0  0.99465  0.72985  0.78622  1.0000
  C   C41       1.0  0.16422  0.24946  0.15054  1.0000
  C   C42       1.0  0.20880  0.23633  0.21636  1.0000
  C  Sn21      1.0  0.21834  0.16640  0.24384  1.0000
  C  Sn22      1.0  0.18254  0.10866  0.20457  1.0000
  C   C43       1.0  0.13810  0.12236  0.13874  1.0000
  C   C44       1.0  0.12892  0.19254  0.11175  1.0000
  H   H21       1.0  0.15714  0.30375  0.12962  1.0000
  O  Te21      1.0  0.26305  0.15424  0.30971  1.0000
  O  Te22      1.0  0.19115  0.03825  0.23078  1.0000
  H   H22       1.0  0.09444  0.20268  0.06076  1.0000
  Mg  Mg11      1.0  0.25765  0.04889  0.32304  1.0000
  C   C45       1.0  0.85624  0.75323  0.18320  1.0000
  C   C46       1.0  0.79013  0.76728  0.22520  1.0000
  C  Sn23      1.0  0.75720  0.83541  0.22315  1.0000
  C  Sn24      1.0  0.79119  0.89038  0.17814  1.0000
  C   C47       1.0  0.85729  0.87576  0.13628  1.0000
  C   C48       1.0  0.88979  0.80740  0.13876  1.0000
  H   H23       1.0  0.88137  0.70033  0.18508  1.0000
  O  Te23      1.0  0.69116  0.84854  0.26549  1.0000
  O  Te24      1.0  0.75945  0.95894  0.17503  1.0000
  H   H24       1.0  0.94095  0.79652  0.10619  1.0000
  Mg  Mg12      1.0  0.66925  0.95060  0.24277  1.0000
  C   C49       1.0  0.64903  0.25076  0.66576  1.0000
  C   C50       1.0  0.71244  0.26547  0.71197  1.0000
  C  Sn25      1.0  0.73468  0.33629  0.72536  1.0000
  C  Sn26      1.0  0.69252  0.39331  0.69181  1.0000
  C   C51       1.0  0.62914  0.37803  0.64571  1.0000
  C   C52       1.0  0.60741  0.30697  0.63266  1.0000
  H   H25       1.0  0.63219  0.19578  0.65569  1.0000
  O  Te25      1.0  0.79819  0.35004  0.77166  1.0000
  O  Te26      1.0  0.71348  0.46459  0.70428  1.0000
  H   H26       1.0  0.55828  0.29560  0.59692  1.0000
  Mg  Mg13      1.0  0.80428  0.45607  0.77164  1.0000
  C   C53       1.0  0.28973  0.60436  0.70029  1.0000
  C   C54       1.0  0.34452  0.62019  0.64429  1.0000
  C  Sn27      1.0  0.36552  0.69122  0.63029  1.0000
  C  Sn28      1.0  0.33094  0.74732  0.67327  1.0000
  C   C55       1.0  0.27622  0.73092  0.72921  1.0000
  C   C56       1.0  0.25562  0.65966  0.74273  1.0000
  H   H27       1.0  0.27382  0.54922  0.71079  1.0000
  O  Te27      1.0  0.42033  0.70610  0.57411  1.0000
  O  Te28      1.0  0.35088  0.81878  0.66048  1.0000
  H   H28       1.0  0.21323  0.64741  0.78613  1.0000
  Mg  Mg14      1.0  0.42846  0.81195  0.57773  1.0000
  C   C57       1.0  0.27357  0.38722  0.33064  1.0000
  C   C58       1.0  0.34666  0.37570  0.35966  1.0000
  C  Sn29      1.0  0.38584  0.31282  0.34130  1.0000
  C  Sn30      1.0  0.35107  0.26061  0.29295  1.0000
  C   C59       1.0  0.27795  0.27266  0.26416  1.0000
  C   C60       1.0  0.23924  0.33576  0.28292  1.0000
  H   H29       1.0  0.24363  0.43605  0.34511  1.0000
  O  Te29      1.0  0.45881  0.30215  0.37081  1.0000
  O  Te30      1.0  0.38896  0.19730  0.27366  1.0000
  H   H30       1.0  0.18267  0.34469  0.26040  1.0000
  Mg  Mg15      1.0  0.48745  0.20730  0.32811  1.0000
  C   C61       1.0  0.75526  0.65359  0.33525  1.0000
  C   C62       1.0  0.73379  0.70884  0.28488  1.0000
  C  Sn31      1.0  0.65735  0.72686  0.27602  1.0000
  C  Sn32      1.0  0.60149  0.68877  0.31848  1.0000
  C   C63       1.0  0.62356  0.63361  0.36877  1.0000
  C   C64       1.0  0.70021  0.61601  0.37717  1.0000
  H   H31       1.0  0.81457  0.63999  0.34178  1.0000
  O  Te31      1.0  0.63687  0.78219  0.22543  1.0000
  O  Te32      1.0  0.52469  0.70568  0.31076  1.0000
  H   H32       1.0  0.71682  0.57326  0.41621  1.0000
  Mg  Mg16      1.0  0.52500  0.78535  0.23464  1.0000
