data_image0
_chemical_formula_structural       B8P8H16C24O24C2Sn2C2HTe2HMgC2Sn2C2HTe2HMgC2Sn2C2HTe2HMgC2Sn2C2HTe2HMg
_chemical_formula_sum              "B8 P8 H24 C40 O24 Sn8 Te8 Mg4"
_cell_length_a       12.9161
_cell_length_b       12.9056
_cell_length_c       12.6766
_cell_angle_alpha    90.0032
_cell_angle_beta     89.9913
_cell_angle_gamma    90.0961

_symmetry_space_group_name_H-M    'P1'
_space_group_IT_number       1

loop_
  _space_group_symop_operation_xyz
  'x, y, z'

loop_
  _atom_site_type_symbol
  _atom_site_label
  _atom_site_symmetry_multiplicity
  _atom_site_fract_x
  _atom_site_fract_y
  _atom_site_fract_z
  _atom_site_occupancy
  B   B1        1.0  0.89274  0.91064  0.87203  1.0000
  B   B2        1.0  0.89121  0.13458  0.10302  1.0000
  B   B3        1.0  0.11661  0.91408  0.09865  1.0000
  B   B4        1.0  0.10932  0.13968  0.86854  1.0000
  B   B5        1.0  0.38920  0.41435  0.37028  1.0000
  B   B6        1.0  0.61300  0.41277  0.60217  1.0000
  B   B7        1.0  0.38987  0.63783  0.59855  1.0000
  B   B8        1.0  0.61869  0.63383  0.37275  1.0000
  P   P1        1.0  0.11049  0.13341  0.09357  1.0000
  P   P2        1.0  0.89775  0.91484  0.09718  1.0000
  P   P3        1.0  0.89030  0.13060  0.87802  1.0000
  P   P4        1.0  0.11174  0.92009  0.87374  1.0000
  P   P5        1.0  0.60907  0.41405  0.37753  1.0000
  P   P6        1.0  0.39849  0.63348  0.37308  1.0000
  P   P7        1.0  0.61023  0.63231  0.59823  1.0000
  P   P8        1.0  0.39268  0.41839  0.59495  1.0000
  H   H1        1.0  0.23499  0.58574  0.22277  1.0000
  H   H2        1.0  0.12053  0.69938  0.11693  1.0000
  H   H3        1.0  0.27561  0.96854  0.24039  1.0000
  H   H4        1.0  0.39047  0.85587  0.34653  1.0000
  H   H5        1.0  0.17290  0.42373  0.63322  1.0000
  H   H6        1.0  0.05806  0.31247  0.74233  1.0000
  H   H7        1.0  0.31990  0.12681  0.83299  1.0000
  H   H8        1.0  0.43561  0.23819  0.72458  1.0000
  H   H9        1.0  0.32305  0.83929  0.56069  1.0000
  H   H10       1.0  0.21476  0.95564  0.67103  1.0000
  H   H11       1.0  0.18522  0.71298  0.90339  1.0000
  H   H12       1.0  0.29290  0.59772  0.79212  1.0000
  H   H13       1.0  0.78242  0.57921  0.23594  1.0000
  H   H14       1.0  0.89613  0.69273  0.12876  1.0000
  H   H15       1.0  0.73063  0.96085  0.24152  1.0000
  H   H16       1.0  0.61769  0.84646  0.34894  1.0000
  C   C1        1.0  0.19037  0.84253  0.16942  1.0000
  C   C2        1.0  0.32023  0.71331  0.29152  1.0000
  C   C3        1.0  0.18061  0.21203  0.79608  1.0000
  C   C4        1.0  0.31152  0.33777  0.67254  1.0000
  C   C5        1.0  0.19287  0.84169  0.79402  1.0000
  C   C6        1.0  0.31719  0.71049  0.66904  1.0000
  C   C7        1.0  0.82018  0.83403  0.17810  1.0000
  C   C8        1.0  0.69210  0.70461  0.30105  1.0000
  C   C9        1.0  0.24398  0.66947  0.22618  1.0000
  C   C10       1.0  0.18033  0.73406  0.16624  1.0000
  C   C11       1.0  0.26699  0.88474  0.23554  1.0000
  C   C12       1.0  0.33143  0.82157  0.29612  1.0000
  C   C13       1.0  0.20486  0.35864  0.67704  1.0000
  C   C14       1.0  0.14061  0.29593  0.73846  1.0000
  C   C15       1.0  0.28737  0.19187  0.78949  1.0000
  C   C16       1.0  0.35300  0.25378  0.72879  1.0000
  C   C17       1.0  0.29364  0.81172  0.63618  1.0000
  C   C18       1.0  0.23227  0.87740  0.69732  1.0000
  C   C19       1.0  0.21519  0.74058  0.82819  1.0000
  C   C20       1.0  0.27648  0.67623  0.76579  1.0000
  C   C21       1.0  0.77118  0.66278  0.23799  1.0000
  C   C22       1.0  0.83506  0.72622  0.17697  1.0000
  C   C23       1.0  0.74156  0.87737  0.24047  1.0000
  C   C24       1.0  0.67873  0.81259  0.30095  1.0000
  O   O1        1.0  0.89090  0.02559  0.14466  1.0000
  O   O2        1.0  0.88924  0.02008  0.83035  1.0000
  O   O3        1.0  0.84862  0.13499  0.99245  1.0000
  O   O4        1.0  0.85342  0.91135  0.98367  1.0000
  O   O5        1.0  0.11539  0.02255  0.14051  1.0000
  O   O6        1.0  0.15633  0.91632  0.98712  1.0000
  O   O7        1.0  0.11431  0.03098  0.82695  1.0000
  O   O8        1.0  0.15143  0.14044  0.97928  1.0000
  O   O9        1.0  0.00157  0.87177  0.86961  1.0000
  O   O10       1.0  0.00074  0.17774  0.86953  1.0000
  O   O11       1.0  0.99898  0.17697  0.10359  1.0000
  O   O12       1.0  0.00934  0.87015  0.09938  1.0000
  O   O13       1.0  0.38554  0.52959  0.64046  1.0000
  O   O14       1.0  0.65180  0.41147  0.49152  1.0000
  O   O15       1.0  0.50317  0.37353  0.60391  1.0000
  O   O16       1.0  0.49751  0.37058  0.36940  1.0000
  O   O17       1.0  0.34942  0.41582  0.48076  1.0000
  O   O18       1.0  0.39098  0.52214  0.32756  1.0000
  O   O19       1.0  0.61484  0.52087  0.64496  1.0000
  O   O20       1.0  0.49934  0.67751  0.60346  1.0000
  O   O21       1.0  0.35352  0.64036  0.48624  1.0000
  O   O22       1.0  0.51040  0.67666  0.36966  1.0000
  O   O23       1.0  0.61898  0.52498  0.33161  1.0000
  O   O24       1.0  0.65626  0.63508  0.48498  1.0000
  C   C25       1.0  0.30438  0.34803  0.16093  1.0000
  C   C26       1.0  0.31250  0.35191  0.27078  1.0000
  C  Sn1       1.0  0.26115  0.27883  0.33313  1.0000
  C  Sn2       1.0  0.20061  0.20049  0.28437  1.0000
  C   C27       1.0  0.19303  0.19723  0.17440  1.0000
  C   C28       1.0  0.24472  0.27076  0.11276  1.0000
  H   H17       1.0  0.34441  0.40489  0.11323  1.0000
  O  Te1       1.0  0.27006  0.28386  0.44278  1.0000
  O  Te2       1.0  0.14850  0.12646  0.34479  1.0000
  H   H18       1.0  0.23847  0.26770  0.02770  1.0000
  Mg  Mg1       1.0  0.18449  0.16561  0.49131  1.0000
  C   C29       1.0  0.64781  0.23811  0.21108  1.0000
  C   C30       1.0  0.67510  0.30949  0.28923  1.0000
  C  Sn3       1.0  0.77916  0.33270  0.30805  1.0000
  C  Sn4       1.0  0.85718  0.28344  0.24737  1.0000
  C   C31       1.0  0.82908  0.21220  0.16933  1.0000
  C   C32       1.0  0.72471  0.18952  0.15117  1.0000
  H   H19       1.0  0.56706  0.22059  0.19699  1.0000
  O  Te3       1.0  0.80506  0.40418  0.38645  1.0000
  O  Te4       1.0  0.96177  0.30524  0.26451  1.0000
  H   H20       1.0  0.70361  0.13430  0.09062  1.0000
  Mg  Mg2       1.0  0.95826  0.40817  0.38029  1.0000
  C   C33       1.0  0.68805  0.85534  0.78107  1.0000
  C   C34       1.0  0.79283  0.84227  0.80498  1.0000
  C  Sn5       1.0  0.84914  0.76187  0.75871  1.0000
  C  Sn6       1.0  0.79941  0.69342  0.68718  1.0000
  C   C35       1.0  0.69457  0.70719  0.66372  1.0000
  C   C36       1.0  0.63895  0.78789  0.71050  1.0000
  H   H21       1.0  0.64502  0.91781  0.81721  1.0000
  O  Te5       1.0  0.95376  0.74990  0.78350  1.0000
  O  Te6       1.0  0.85386  0.61243  0.63978  1.0000
  H   H22       1.0  0.55784  0.79802  0.69192  1.0000
  Mg  Mg3       1.0  0.99502  0.62784  0.69869  1.0000
  C   C37       1.0  0.81795  0.22389  0.66378  1.0000
  C   C38       1.0  0.81835  0.21223  0.77338  1.0000
  C  Sn7       1.0  0.74474  0.26319  0.83518  1.0000
  C  Sn8       1.0  0.66941  0.32693  0.78612  1.0000
  C   C39       1.0  0.66961  0.33804  0.67641  1.0000
  C   C40       1.0  0.74365  0.28672  0.61532  1.0000
  H   H23       1.0  0.87519  0.18415  0.61651  1.0000
  O  Te7       1.0  0.74627  0.25072  0.94458  1.0000
  O  Te8       1.0  0.59492  0.37872  0.84599  1.0000
  H   H24       1.0  0.74328  0.29571  0.53046  1.0000
  Mg  Mg4       1.0  0.62878  0.33729  0.99235  1.0000
