data_image0
_chemical_formula_structural       B8P8H32C48O24C2Sn2C2HTe2HMgC2Sn2C2HTe2HMgC2Sn2C2HTe2HMgC2Sn2C2HTe2HMgC2Sn2C2HTe2HMgC2Sn2C2HTe2HMgC2Sn2C2HTe2HMgC2Sn2C2HTe2HMg
_chemical_formula_sum              "B8 P8 H48 C80 O24 Sn16 Te16 Mg8"
_cell_length_a       17.6376
_cell_length_b       18.6525
_cell_length_c       17.186
_cell_angle_alpha    90.0151
_cell_angle_beta     90.1468
_cell_angle_gamma    89.9382

_symmetry_space_group_name_H-M    'P1'
_space_group_IT_number       1

loop_
  _space_group_symop_operation_xyz
  'x, y, z'

loop_
  _atom_site_type_symbol
  _atom_site_label
  _atom_site_symmetry_multiplicity
  _atom_site_fract_x
  _atom_site_fract_y
  _atom_site_fract_z
  _atom_site_occupancy
  B   B1        1.0  0.58023  0.57780  0.41627  1.0000
  B   B2        1.0  0.41879  0.42170  0.41293  1.0000
  B   B3        1.0  0.41557  0.57516  0.58722  1.0000
  B   B4        1.0  0.58092  0.42183  0.58726  1.0000
  B   B5        1.0  0.91460  0.92143  0.91757  1.0000
  B   B6        1.0  0.08249  0.07585  0.91780  1.0000
  B   B7        1.0  0.08071  0.92048  0.08710  1.0000
  B   B8        1.0  0.91614  0.07726  0.08607  1.0000
  P   P1        1.0  0.57917  0.42534  0.42040  1.0000
  P   P2        1.0  0.41968  0.57337  0.42026  1.0000
  P   P3        1.0  0.41974  0.42366  0.58073  1.0000
  P   P4        1.0  0.57700  0.57348  0.58319  1.0000
  P   P5        1.0  0.91884  0.92568  0.08403  1.0000
  P   P6        1.0  0.07763  0.07203  0.08468  1.0000
  P   P7        1.0  0.07645  0.92422  0.91964  1.0000
  P   P8        1.0  0.92123  0.07277  0.91907  1.0000
  H   H1        1.0  0.67563  0.30576  0.46353  1.0000
  H   H2        1.0  0.75653  0.22490  0.38454  1.0000
  H   H3        1.0  0.69044  0.33800  0.17683  1.0000
  H   H4        1.0  0.61064  0.41973  0.25544  1.0000
  H   H5        1.0  0.74890  0.13298  0.29575  1.0000
  H   H6        1.0  0.82660  0.05010  0.21760  1.0000
  H   H7        1.0  0.89327  0.22480  0.06968  1.0000
  H   H8        1.0  0.81779  0.30840  0.14969  1.0000
  H   H9        1.0  0.95735  0.20033  0.83005  1.0000
  H   H10       1.0  0.03939  0.79580  0.83236  1.0000
  H   H11       1.0  0.09723  0.22515  0.07726  1.0000
  H   H12       1.0  0.87678  0.28325  0.75305  1.0000
  H   H13       1.0  0.11867  0.71299  0.75442  1.0000
  H   H14       1.0  0.17595  0.30951  0.15412  1.0000
  H   H15       1.0  0.68184  0.15157  0.79965  1.0000
  H   H16       1.0  0.31443  0.84466  0.79906  1.0000
  H   H17       1.0  0.25956  0.13422  0.29227  1.0000
  H   H18       1.0  0.76212  0.06798  0.87594  1.0000
  H   H19       1.0  0.23550  0.92770  0.87696  1.0000
  H   H20       1.0  0.18114  0.04937  0.21583  1.0000
  H   H21       1.0  0.77885  0.36963  0.77006  1.0000
  H   H22       1.0  0.21478  0.62682  0.76541  1.0000
  H   H23       1.0  0.81775  0.66190  0.32178  1.0000
  H   H24       1.0  0.70016  0.45286  0.69216  1.0000
  H   H25       1.0  0.29374  0.54454  0.68760  1.0000
  H   H26       1.0  0.73746  0.57846  0.39625  1.0000
  H   H27       1.0  0.57701  0.27391  0.59780  1.0000
  H   H28       1.0  0.41755  0.72414  0.59648  1.0000
  H   H29       1.0  0.53848  0.69261  0.32103  1.0000
  H   H30       1.0  0.65708  0.19051  0.67331  1.0000
  H   H31       1.0  0.33609  0.80678  0.67101  1.0000
  H   H32       1.0  0.61812  0.77480  0.24455  1.0000
  C   C1        1.0  0.72423  0.26723  0.35622  1.0000
  C   C2        1.0  0.72988  0.27583  0.27510  1.0000
  C   C3        1.0  0.68840  0.33171  0.23971  1.0000
  C   C4        1.0  0.64317  0.37746  0.28367  1.0000
  C   C5        1.0  0.63858  0.36833  0.36472  1.0000
  C   C6        1.0  0.67925  0.31277  0.40084  1.0000
  C   C7        1.0  0.82492  0.10664  0.20205  1.0000
  C   C8        1.0  0.86569  0.13063  0.13696  1.0000
  C   C9        1.0  0.86194  0.20421  0.11938  1.0000
  C   C10       1.0  0.81866  0.25153  0.16388  1.0000
  C   C11       1.0  0.77724  0.22678  0.22834  1.0000
  C   C12       1.0  0.78149  0.15348  0.24692  1.0000
  C   C13       1.0  0.85130  0.23693  0.78115  1.0000
  C   C14       1.0  0.14458  0.75933  0.78222  1.0000
  C   C15       1.0  0.17657  0.25260  0.16796  1.0000
  C   C16       1.0  0.77310  0.22397  0.77157  1.0000
  C   C17       1.0  0.22246  0.77247  0.77114  1.0000
  C   C18       1.0  0.22400  0.22772  0.22822  1.0000
  C   C19       1.0  0.74223  0.16204  0.80593  1.0000
  C   C20       1.0  0.25420  0.83398  0.80591  1.0000
  C   C21       1.0  0.22463  0.15385  0.24461  1.0000
  C   C22       1.0  0.78704  0.11534  0.84946  1.0000
  C   C23       1.0  0.21018  0.88051  0.85032  1.0000
  C   C24       1.0  0.18045  0.10614  0.20181  1.0000
  C   C25       1.0  0.86473  0.12952  0.85939  1.0000
  C   C26       1.0  0.13256  0.86670  0.86062  1.0000
  C   C27       1.0  0.13475  0.13128  0.14077  1.0000
  C   C28       1.0  0.89679  0.19041  0.82436  1.0000
  C   C29       1.0  0.09987  0.80577  0.82609  1.0000
  C   C30       1.0  0.13259  0.20520  0.12449  1.0000
  C   C31       1.0  0.69051  0.39536  0.68774  1.0000
  C   C32       1.0  0.30405  0.60198  0.68445  1.0000
  C   C33       1.0  0.71100  0.62180  0.36346  1.0000
  C   C34       1.0  0.63275  0.36994  0.63862  1.0000
  C   C35       1.0  0.36271  0.62748  0.63691  1.0000
  C   C36       1.0  0.63174  0.62955  0.36507  1.0000
  C   C37       1.0  0.62148  0.29535  0.63523  1.0000
  C   C38       1.0  0.37320  0.70223  0.63353  1.0000
  C   C39       1.0  0.59982  0.68592  0.32182  1.0000
  C   C40       1.0  0.66625  0.24803  0.67820  1.0000
  C   C41       1.0  0.32780  0.74918  0.67616  1.0000
  C   C42       1.0  0.64481  0.73264  0.27872  1.0000
  C   C43       1.0  0.72471  0.27384  0.72659  1.0000
  C   C44       1.0  0.26974  0.72305  0.72454  1.0000
  C   C45       1.0  0.72416  0.72476  0.27723  1.0000
  C   C46       1.0  0.73568  0.34838  0.73100  1.0000
  C   C47       1.0  0.25851  0.64849  0.72763  1.0000
  C   C48       1.0  0.75647  0.66838  0.32058  1.0000
  O   O1        1.0  0.50043  0.42010  0.61678  1.0000
  O   O2        1.0  0.49590  0.57647  0.61771  1.0000
  O   O3        1.0  0.49882  0.42037  0.38346  1.0000
  O   O4        1.0  0.50055  0.57936  0.38595  1.0000
  O   O5        1.0  0.61101  0.50265  0.41401  1.0000
  O   O6        1.0  0.38840  0.49641  0.41081  1.0000
  O   O7        1.0  0.38560  0.50012  0.58951  1.0000
  O   O8        1.0  0.61071  0.49672  0.58981  1.0000
  O   O9        1.0  0.58078  0.60363  0.49953  1.0000
  O   O10       1.0  0.41860  0.39557  0.49621  1.0000
  O   O11       1.0  0.41742  0.60131  0.50452  1.0000
  O   O12       1.0  0.58109  0.39562  0.50423  1.0000
  O   O13       1.0  0.00033  0.92011  0.11706  1.0000
  O   O14       1.0  0.99612  0.07646  0.11730  1.0000
  O   O15       1.0  0.99487  0.92019  0.88663  1.0000
  O   O16       1.0  0.00267  0.07644  0.88605  1.0000
  O   O17       1.0  0.88555  0.99686  0.91407  1.0000
  O   O18       1.0  0.11156  0.00021  0.91395  1.0000
  O   O19       1.0  0.11146  0.99566  0.09342  1.0000
  O   O20       1.0  0.88507  0.00227  0.08998  1.0000
  O   O21       1.0  0.91809  0.10228  0.00325  1.0000
  O   O22       1.0  0.08078  0.89566  0.00414  1.0000
  O   O23       1.0  0.08133  0.10074  0.00033  1.0000
  O   O24       1.0  0.91529  0.89578  0.00003  1.0000
  C   C49       1.0  0.33887  0.61837  0.26582  1.0000
  C   C50       1.0  0.35981  0.62496  0.34397  1.0000
  C  Sn1       1.0  0.32794  0.67868  0.39020  1.0000
  C  Sn2       1.0  0.27411  0.72660  0.35743  1.0000
  C   C51       1.0  0.25350  0.71953  0.27920  1.0000
  C   C52       1.0  0.28576  0.66559  0.23346  1.0000
  H   H33       1.0  0.36380  0.57662  0.23043  1.0000
  O  Te1       1.0  0.34952  0.68453  0.46817  1.0000
  O  Te2       1.0  0.24136  0.78076  0.40233  1.0000
  H   H34       1.0  0.26950  0.66048  0.17296  1.0000
  Mg  Mg1       1.0  0.28904  0.76706  0.50570  1.0000
  C   C53       1.0  0.81223  0.88940  0.78215  1.0000
  C   C54       1.0  0.85054  0.87703  0.85215  1.0000
  C  Sn3       1.0  0.85402  0.80798  0.88345  1.0000
  C  Sn4       1.0  0.81845  0.75034  0.84378  1.0000
  C   C55       1.0  0.78030  0.76326  0.77375  1.0000
  C   C56       1.0  0.77715  0.83257  0.74297  1.0000
  H   H35       1.0  0.80982  0.94301  0.75830  1.0000
  O  Te3       1.0  0.89251  0.79658  0.95346  1.0000
  O  Te4       1.0  0.82107  0.68079  0.87374  1.0000
  H   H36       1.0  0.74752  0.84212  0.68874  1.0000
  Mg  Mg2       1.0  0.88035  0.69227  0.97094  1.0000
  C   C57       1.0  0.75364  0.86485  0.21315  1.0000
  C   C58       1.0  0.76319  0.79155  0.22689  1.0000
  C  Sn5       1.0  0.82703  0.75579  0.19848  1.0000
  C  Sn6       1.0  0.88224  0.79428  0.15556  1.0000
  C   C59       1.0  0.87218  0.86761  0.14217  1.0000
  C   C60       1.0  0.80808  0.90286  0.17084  1.0000
  H   H37       1.0  0.70407  0.89214  0.23537  1.0000
  O  Te5       1.0  0.83567  0.68254  0.21272  1.0000
  O  Te6       1.0  0.94659  0.75987  0.12652  1.0000
  H   H38       1.0  0.80072  0.95962  0.16023  1.0000
  Mg  Mg3       1.0  0.93298  0.65947  0.16111  1.0000
  C   C61       1.0  0.14274  0.12777  0.76581  1.0000
  C   C62       1.0  0.13839  0.12202  0.84675  1.0000
  C  Sn7       1.0  0.17633  0.17113  0.89427  1.0000
  C  Sn8       1.0  0.21936  0.22698  0.85996  1.0000
  C   C63       1.0  0.22330  0.23230  0.77892  1.0000
  C   C64       1.0  0.18514  0.18286  0.73192  1.0000
  H   H39       1.0  0.11318  0.08954  0.72943  1.0000
  O  Te7       1.0  0.17141  0.16460  0.97503  1.0000
  O  Te8       1.0  0.25781  0.27680  0.90608  1.0000
  H   H40       1.0  0.18847  0.18735  0.66925  1.0000
  Mg  Mg4       1.0  0.23136  0.24527  0.01332  1.0000
  C   C65       1.0  0.64539  0.62907  0.74100  1.0000
  C   C66       1.0  0.63269  0.62828  0.66071  1.0000
  C  Sn9       1.0  0.67249  0.67493  0.61213  1.0000
  C  Sn10      1.0  0.72599  0.72320  0.64470  1.0000
  C   C67       1.0  0.73834  0.72354  0.72509  1.0000
  C   C68       1.0  0.69818  0.67664  0.77317  1.0000
  H   H41       1.0  0.61435  0.59276  0.77821  1.0000
  O  Te9       1.0  0.65908  0.67345  0.53204  1.0000
  O  Te10      1.0  0.76658  0.77038  0.59748  1.0000
  H   H42       1.0  0.70806  0.67724  0.83533  1.0000
  Mg  Mg5       1.0  0.72841  0.74814  0.49176  1.0000
  C   C69       1.0  0.24708  0.36092  0.31019  1.0000
  C   C70       1.0  0.26541  0.29585  0.27454  1.0000
  C  Sn11      1.0  0.33728  0.26570  0.28484  1.0000
  C  Sn12      1.0  0.39169  0.30146  0.33177  1.0000
  C   C71       1.0  0.37277  0.36651  0.36723  1.0000
  C   C72       1.0  0.30069  0.39622  0.35651  1.0000
  H   H43       1.0  0.19130  0.38390  0.30194  1.0000
  O  Te11      1.0  0.35467  0.20066  0.24877  1.0000
  O  Te12      1.0  0.46393  0.27251  0.34307  1.0000
  H   H44       1.0  0.28650  0.44658  0.38416  1.0000
  Mg  Mg6       1.0  0.46070  0.18270  0.28170  1.0000
  C   C73       1.0  0.30459  0.25626  0.63240  1.0000
  C   C74       1.0  0.28077  0.26336  0.70951  1.0000
  C  Sn13      1.0  0.29387  0.32709  0.75009  1.0000
  C  Sn14      1.0  0.33150  0.38468  0.71262  1.0000
  C   C75       1.0  0.35505  0.37705  0.63545  1.0000
  C   C76       1.0  0.34168  0.31304  0.59538  1.0000
  H   H45       1.0  0.29420  0.20675  0.60138  1.0000
  O  Te13      1.0  0.26973  0.33328  0.82712  1.0000
  O  Te14      1.0  0.34529  0.44897  0.75182  1.0000
  H   H46       1.0  0.36008  0.30757  0.53566  1.0000
  Mg  Mg7       1.0  0.30159  0.43153  0.85611  1.0000
  C   C77       1.0  0.13133  0.77283  0.12881  1.0000
  C   C78       1.0  0.12592  0.84731  0.13577  1.0000
  C  Sn15      1.0  0.17158  0.88399  0.18905  1.0000
  C  Sn16      1.0  0.22359  0.84525  0.23612  1.0000
  C   C79       1.0  0.22861  0.77076  0.22868  1.0000
  C   C80       1.0  0.18263  0.73459  0.17520  1.0000
  H   H47       1.0  0.09579  0.74484  0.08741  1.0000
  O  Te15      1.0  0.16543  0.95841  0.19528  1.0000
  O  Te16      1.0  0.26992  0.88058  0.28981  1.0000
  H   H48       1.0  0.18687  0.67693  0.16979  1.0000
  Mg  Mg8       1.0  0.24070  0.98242  0.27692  1.0000
