data_image0
_chemical_formula_structural       H80C116N32SnCSn2CSnTe4Mg2SnCSn2CSnTe4Mg2SnCSn2CSnTe4Mg2SnCSn2CSnTe4Mg2SnCSn2CSnTe4Mg2SnCSn2CSnTe4Mg2SnCSn2CSnTe4Mg2SnCSn2CSnTe4Mg2SnCSn2CSnTe4Mg2SnCSn2CSnTe4Mg2SnCSn2CSnTe4Mg2SnCSn2CSnTe4Mg2SnCSn2CSnTe4Mg2SnCSn2CSnTe4Mg2SnCSn2CSnTe4Mg2SnCSn2CSnTe4Mg2
_chemical_formula_sum              "H80 C148 N32 Sn64 Te64 Mg32"
_cell_length_a       21.4394
_cell_length_b       20.3941
_cell_length_c       12.7201
_cell_angle_alpha    89.1113
_cell_angle_beta     89.6707
_cell_angle_gamma    89.8796

_symmetry_space_group_name_H-M    'P1'
_space_group_IT_number       1

loop_
  _space_group_symop_operation_xyz
  'x, y, z'

loop_
  _atom_site_type_symbol
  _atom_site_label
  _atom_site_symmetry_multiplicity
  _atom_site_fract_x
  _atom_site_fract_y
  _atom_site_fract_z
  _atom_site_occupancy
  H   H1        1.0  0.24898  0.44247  0.24142  1.0000
  H   H2        1.0  0.75173  0.54961  0.23819  1.0000
  H   H3        1.0  0.24466  0.94439  0.73765  1.0000
  H   H4        1.0  0.93110  0.74101  0.25080  1.0000
  H   H5        1.0  0.15789  0.43283  0.15437  1.0000
  H   H6        1.0  0.84026  0.55986  0.14549  1.0000
  H   H7        1.0  0.43676  0.82576  0.86432  1.0000
  H   H8        1.0  0.56300  0.15600  0.84730  1.0000
  H   H9        1.0  0.65910  0.06222  0.64805  1.0000
  H   H10       1.0  0.34132  0.93191  0.65603  1.0000
  H   H11       1.0  0.93925  0.65326  0.34443  1.0000
  H   H12       1.0  0.07012  0.33972  0.34979  1.0000
  H   H13       1.0  0.12777  0.38458  0.99644  1.0000
  H   H14       1.0  0.86969  0.60408  0.97843  1.0000
  H   H15       1.0  0.62283  0.10776  0.48970  1.0000
  H   H16       1.0  0.89131  0.59922  0.48520  1.0000
  H   H17       1.0  0.06919  0.38795  0.83059  1.0000
  H   H18       1.0  0.92932  0.59472  0.81305  1.0000
  H   H19       1.0  0.56318  0.09834  0.32574  1.0000
  H   H20       1.0  0.89665  0.53207  0.64753  1.0000
  H   H21       1.0  0.29359  0.43149  0.42156  1.0000
  H   H22       1.0  0.70757  0.56374  0.41851  1.0000
  H   H23       1.0  0.19900  0.93460  0.91819  1.0000
  H   H24       1.0  0.92016  0.78166  0.06624  1.0000
  H   H25       1.0  0.13735  0.60599  0.34265  1.0000
  H   H26       1.0  0.87045  0.39443  0.35570  1.0000
  H   H27       1.0  0.35786  0.10600  0.83735  1.0000
  H   H28       1.0  0.11804  0.67667  0.18159  1.0000
  H   H29       1.0  0.04686  0.59730  0.85856  1.0000
  H   H30       1.0  0.94791  0.38619  0.86623  1.0000
  H   H31       1.0  0.56421  0.88767  0.36027  1.0000
  H   H32       1.0  0.09374  0.57060  0.66920  1.0000
  H   H33       1.0  0.10554  0.59321  0.02549  1.0000
  H   H34       1.0  0.88781  0.39658  0.03214  1.0000
  H   H35       1.0  0.62494  0.89796  0.52481  1.0000
  H   H36       1.0  0.08774  0.63847  0.50528  1.0000
  H   H37       1.0  0.18229  0.59359  0.52438  1.0000
  H   H38       1.0  0.82567  0.40995  0.53692  1.0000
  H   H39       1.0  0.31132  0.09548  0.01921  1.0000
  H   H40       1.0  0.10684  0.71911  0.99650  1.0000
  H   H41       1.0  0.41366  0.31725  0.86549  1.0000
  H   H42       1.0  0.57514  0.69117  0.85878  1.0000
  H   H43       1.0  0.31686  0.58616  0.12299  1.0000
  H   H44       1.0  0.67888  0.42338  0.12751  1.0000
  H   H45       1.0  0.92570  0.19648  0.36187  1.0000
  H   H46       1.0  0.08253  0.82364  0.36738  1.0000
  H   H47       1.0  0.81732  0.92240  0.63207  1.0000
  H   H48       1.0  0.17520  0.08785  0.61628  1.0000
  H   H49       1.0  0.38446  0.34545  0.68865  1.0000
  H   H50       1.0  0.60779  0.65809  0.68969  1.0000
  H   H51       1.0  0.64953  0.38921  0.30186  1.0000
  H   H52       1.0  0.11130  0.85020  0.19020  1.0000
  H   H53       1.0  0.14333  0.12394  0.78864  1.0000
  H   H54       1.0  0.39858  0.41651  0.53079  1.0000
  H   H55       1.0  0.59500  0.58984  0.53229  1.0000
  H   H56       1.0  0.58125  0.40134  0.45800  1.0000
  H   H57       1.0  0.09630  0.91906  0.03068  1.0000
  H   H58       1.0  0.07758  0.11059  0.94753  1.0000
  H   H59       1.0  0.53649  0.59840  0.35722  1.0000
  H   H60       1.0  0.40718  0.54451  0.62946  1.0000
  H   H61       1.0  0.58482  0.46189  0.63043  1.0000
  H   H62       1.0  0.03540  0.91262  0.85792  1.0000
  H   H63       1.0  0.90898  0.96272  0.13218  1.0000
  H   H64       1.0  0.60112  0.58422  0.19710  1.0000
  H   H65       1.0  0.42160  0.60904  0.79113  1.0000
  H   H66       1.0  0.56916  0.39412  0.79186  1.0000
  H   H67       1.0  0.10001  0.92695  0.69752  1.0000
  H   H68       1.0  0.92538  0.89642  0.29428  1.0000
  H   H69       1.0  0.60620  0.69815  0.01455  1.0000
  H   H70       1.0  0.23636  0.56736  0.00957  1.0000
  H   H71       1.0  0.74723  0.92679  0.51149  1.0000
  H   H72       1.0  0.62091  0.73587  0.19789  1.0000
  H   H73       1.0  0.19514  0.58058  0.82718  1.0000
  H   H74       1.0  0.70844  0.91003  0.32973  1.0000
  H   H75       1.0  0.41003  0.67296  0.07699  1.0000
  H   H76       1.0  0.38573  0.44707  0.89129  1.0000
  H   H77       1.0  0.88038  0.06736  0.39153  1.0000
  H   H78       1.0  0.42622  0.70912  0.26334  1.0000
  H   H79       1.0  0.34357  0.46003  0.70888  1.0000
  H   H80       1.0  0.83985  0.05138  0.20931  1.0000
  C   C1        1.0  0.93001  0.43391  0.88926  1.0000
  C   C2        1.0  0.06611  0.55081  0.88670  1.0000
  C   C3        1.0  0.57849  0.93594  0.38667  1.0000
  C   C4        1.0  0.04909  0.57835  0.63052  1.0000
  C   C5        1.0  0.23265  0.47400  0.30409  1.0000
  C   C6        1.0  0.76928  0.52031  0.30375  1.0000
  C   C7        1.0  0.26089  0.97592  0.79998  1.0000
  C   C8        1.0  0.96861  0.73347  0.19433  1.0000
  C   C9        1.0  0.14940  0.48320  0.12541  1.0000
  C   C10       1.0  0.85008  0.50910  0.12236  1.0000
  C   C11       1.0  0.48556  0.83226  0.88833  1.0000
  C   C12       1.0  0.51541  0.15247  0.87974  1.0000
  C   C13       1.0  0.65518  0.01123  0.62187  1.0000
  C   C14       1.0  0.34922  0.98187  0.62480  1.0000
  C   C15       1.0  0.98586  0.65386  0.38011  1.0000
  C   C16       1.0  0.02239  0.33800  0.38187  1.0000
  C   C17       1.0  0.12085  0.48875  0.02234  1.0000
  C   C18       1.0  0.87685  0.50095  0.01839  1.0000
  C   C19       1.0  0.62744  0.00320  0.51908  1.0000
  C   C20       1.0  0.98965  0.62317  0.48358  1.0000
  C   C21       1.0  0.11142  0.43142  0.96479  1.0000
  C   C22       1.0  0.88642  0.55632  0.95343  1.0000
  C   C23       1.0  0.61133  0.05949  0.46011  1.0000
  C   C24       1.0  0.93542  0.59432  0.52671  1.0000
  C   C25       1.0  0.07852  0.43350  0.87091  1.0000
  C   C26       1.0  0.91958  0.55084  0.85976  1.0000
  C   C27       1.0  0.57798  0.05409  0.36737  1.0000
  C   C28       1.0  0.93848  0.55666  0.61843  1.0000
  C   C29       1.0  0.05353  0.49278  0.83217  1.0000
  C   C30       1.0  0.94464  0.49032  0.82901  1.0000
  C   C31       1.0  0.55894  0.99256  0.33134  1.0000
  C   C32       1.0  0.99567  0.54667  0.67007  1.0000
  C   C33       1.0  0.25799  0.46810  0.40409  1.0000
  C   C34       1.0  0.74413  0.52798  0.40361  1.0000
  C   C35       1.0  0.23487  0.97081  0.90014  1.0000
  C   C36       1.0  0.96262  0.75711  0.09197  1.0000
  C   C37       1.0  0.23865  0.51021  0.48474  1.0000
  C   C38       1.0  0.76495  0.48880  0.48838  1.0000
  C   C39       1.0  0.25436  0.01274  0.98038  1.0000
  C   C40       1.0  0.01165  0.75019  0.01861  1.0000
  C   C41       1.0  0.17115  0.56763  0.36149  1.0000
  C   C42       1.0  0.83494  0.43151  0.37071  1.0000
  C   C43       1.0  0.32317  0.06864  0.85656  1.0000
  C   C44       1.0  0.07476  0.69935  0.15522  1.0000
  C   C45       1.0  0.18838  0.52348  0.28151  1.0000
  C   C46       1.0  0.81519  0.47206  0.28574  1.0000
  C   C47       1.0  0.30606  0.02437  0.77715  1.0000
  C   C48       1.0  0.02439  0.70275  0.22740  1.0000
  C   C49       1.0  0.09903  0.54887  0.98047  1.0000
  C   C50       1.0  0.89662  0.43933  0.98253  1.0000
  C   C51       1.0  0.61221  0.94130  0.47907  1.0000
  C   C52       1.0  0.04608  0.61605  0.53862  1.0000
  C   C53       1.0  0.19531  0.56063  0.46162  1.0000
  C   C54       1.0  0.81075  0.44020  0.47061  1.0000
  C   C55       1.0  0.29827  0.06249  0.95675  1.0000
  C   C56       1.0  0.06855  0.72215  0.05261  1.0000
  C   C57       1.0  0.46107  0.33692  0.85496  1.0000
  C   C58       1.0  0.52981  0.66626  0.85371  1.0000
  C   C59       1.0  0.33824  0.53745  0.13425  1.0000
  C   C60       1.0  0.65735  0.47201  0.13635  1.0000
  C   C61       1.0  0.97013  0.16994  0.35378  1.0000
  C   C62       1.0  0.03449  0.84159  0.35714  1.0000
  C   C63       1.0  0.83828  0.97130  0.63938  1.0000
  C   C64       1.0  0.15538  0.03873  0.63036  1.0000
  C   C65       1.0  0.47489  0.36707  0.75313  1.0000
  C   C66       1.0  0.51662  0.63588  0.75361  1.0000
  C   C67       1.0  0.62764  0.48481  0.23678  1.0000
  C   C68       1.0  0.02034  0.87092  0.25522  1.0000
  C   C69       1.0  0.12517  0.02681  0.73142  1.0000
  C   C70       1.0  0.42849  0.37094  0.67583  1.0000
  C   C71       1.0  0.56382  0.63300  0.67670  1.0000
  C   C72       1.0  0.62449  0.43502  0.31400  1.0000
  C   C73       1.0  0.06685  0.87477  0.17720  1.0000
  C   C74       1.0  0.12028  0.07730  0.80465  1.0000
  C   C75       1.0  0.43678  0.41021  0.58590  1.0000
  C   C76       1.0  0.55629  0.59529  0.58706  1.0000
  C   C77       1.0  0.58689  0.44230  0.40307  1.0000
  C   C78       1.0  0.05803  0.91289  0.08636  1.0000
  C   C79       1.0  0.08367  0.06946  0.89506  1.0000
  C   C80       1.0  0.49216  0.44523  0.57051  1.0000
  C   C81       1.0  0.50075  0.56119  0.57081  1.0000
  C   C82       1.0  0.55295  0.50015  0.41759  1.0000
  C   C83       1.0  0.00220  0.94716  0.07098  1.0000
  C   C84       1.0  0.05168  0.01069  0.91435  1.0000
  C   C85       1.0  0.56180  0.55276  0.34566  1.0000
  C   C86       1.0  0.45099  0.56992  0.64243  1.0000
  C   C87       1.0  0.54122  0.43555  0.64263  1.0000
  C   C88       1.0  0.06041  0.95838  0.84445  1.0000
  C   C89       1.0  0.95310  0.93728  0.14394  1.0000
  C   C90       1.0  0.59780  0.54516  0.25605  1.0000
  C   C91       1.0  0.45881  0.60574  0.73296  1.0000
  C   C92       1.0  0.53276  0.39788  0.73288  1.0000
  C   C93       1.0  0.09619  0.96615  0.75427  1.0000
  C   C94       1.0  0.96193  0.90048  0.23490  1.0000
  C   C95       1.0  0.56618  0.70193  0.06704  1.0000
  C   C96       1.0  0.26075  0.54544  0.94356  1.0000
  C   C97       1.0  0.76865  0.95282  0.44539  1.0000
  C   C98       1.0  0.57494  0.72267  0.16931  1.0000
  C   C99       1.0  0.23741  0.55248  0.84233  1.0000
  C   C100      1.0  0.74651  0.94374  0.34436  1.0000
  C   C101      1.0  0.52459  0.72558  0.24116  1.0000
  C   C102      1.0  0.26696  0.52171  0.75698  1.0000
  C   C103      1.0  0.77149  0.97967  0.25852  1.0000
  C   C104      1.0  0.45572  0.68790  0.10467  1.0000
  C   C105      1.0  0.34404  0.47610  0.87574  1.0000
  C   C106      1.0  0.84242  0.03348  0.37650  1.0000
  C   C107      1.0  0.50591  0.68498  0.03169  1.0000
  C   C108      1.0  0.31458  0.50705  0.96191  1.0000
  C   C109      1.0  0.81696  0.99815  0.46340  1.0000
  C   C110      1.0  0.46444  0.70775  0.20696  1.0000
  C   C111      1.0  0.32106  0.48356  0.77508  1.0000
  C   C112      1.0  0.82038  0.02446  0.27599  1.0000
  C   C113      1.0  0.50422  0.99019  0.25378  1.0000
  C   C114      1.0  0.00006  0.49035  0.75163  1.0000
  C   C115      1.0  0.49699  0.50400  0.49359  1.0000
  C   C116      1.0  0.99733  0.00581  0.99372  1.0000
  N   N1        1.0  0.16160  0.53341  0.18266  1.0000
  N   N2        1.0  0.84110  0.46026  0.18694  1.0000
  N   N3        1.0  0.53179  0.82181  0.82424  1.0000
  N   N4        1.0  0.46728  0.17097  0.82540  1.0000
  N   N5        1.0  0.67110  0.96226  0.68212  1.0000
  N   N6        1.0  0.33446  0.03292  0.67880  1.0000
  N   N7        1.0  0.03377  0.67645  0.32845  1.0000
  N   N8        1.0  0.97535  0.32158  0.32429  1.0000
  N   N9        1.0  0.26548  0.49938  0.58364  1.0000
  N   N10       1.0  0.73673  0.50112  0.58555  1.0000
  N   N11       1.0  0.49337  0.73981  0.40905  1.0000
  N   N12       1.0  0.49833  0.27013  0.41373  1.0000
  N   N13       1.0  0.76552  0.00549  0.08564  1.0000
  N   N14       1.0  0.22765  0.00199  0.07990  1.0000
  N   N15       1.0  0.99935  0.77292  0.91642  1.0000
  N   N16       1.0  0.00938  0.24368  0.90574  1.0000
  N   N17       1.0  0.50122  0.33898  0.93077  1.0000
  N   N18       1.0  0.49093  0.66213  0.93219  1.0000
  N   N19       1.0  0.34063  0.49478  0.06009  1.0000
  N   N20       1.0  0.65458  0.51415  0.05922  1.0000
  N   N21       1.0  0.00980  0.16514  0.43016  1.0000
  N   N22       1.0  0.99384  0.84202  0.43317  1.0000
  N   N23       1.0  0.84148  0.01283  0.56132  1.0000
  N   N24       1.0  0.15452  0.99483  0.55812  1.0000
  N   N25       1.0  0.45859  0.25086  0.34504  1.0000
  N   N26       1.0  0.53917  0.74510  0.34319  1.0000
  N   N27       1.0  0.23913  0.53123  0.65849  1.0000
  N   N28       1.0  0.76158  0.47022  0.66376  1.0000
  N   N29       1.0  0.96200  0.24462  0.84376  1.0000
  N   N30       1.0  0.03998  0.75575  0.84682  1.0000
  N   N31       1.0  0.74514  0.96767  0.16021  1.0000
  N   N32       1.0  0.25530  0.03219  0.15460  1.0000
  C  Sn1       1.0  0.94023  0.12251  0.08996  1.0000
  C   C117      1.0  0.99097  0.08383  0.05990  1.0000
  C  Sn2       1.0  0.03845  0.06917  0.13131  1.0000
  C  Sn3       1.0  0.03513  0.09367  0.23494  1.0000
  C   C118      1.0  0.98441  0.13232  0.26497  1.0000
  C  Sn4       1.0  0.93691  0.14700  0.19360  1.0000
  O  Te1       1.0  0.89330  0.13654  0.01728  1.0000
  O  Te2       1.0  0.08872  0.03042  0.09942  1.0000
  O  Te3       1.0  0.08212  0.07961  0.30763  1.0000
  O  Te4       1.0  0.88666  0.18572  0.22545  1.0000
  Mg  Mg1       1.0  0.14109  0.02476  0.22694  1.0000
  Mg  Mg2       1.0  0.83425  0.19139  0.09801  1.0000
  C  Sn5       1.0  0.42966  0.17970  0.62090  1.0000
  C   C119      1.0  0.47367  0.18310  0.70125  1.0000
  C  Sn6       1.0  0.52395  0.22634  0.69261  1.0000
  C  Sn7       1.0  0.53036  0.26706  0.60181  1.0000
  C   C120      1.0  0.48637  0.26365  0.52154  1.0000
  C  Sn8       1.0  0.43607  0.22042  0.53010  1.0000
  O  Te5       1.0  0.37977  0.13611  0.63120  1.0000
  O  Te6       1.0  0.56736  0.22885  0.77395  1.0000
  O  Te7       1.0  0.58031  0.31066  0.59156  1.0000
  O  Te8       1.0  0.39268  0.21791  0.44883  1.0000
  Mg  Mg3       1.0  0.62727  0.29619  0.72344  1.0000
  Mg  Mg4       1.0  0.33273  0.15061  0.49928  1.0000
  C  Sn9       1.0  0.46163  0.75206  0.67341  1.0000
  C   C121      1.0  0.51450  0.77786  0.72130  1.0000
  C  Sn10      1.0  0.56418  0.80150  0.66025  1.0000
  C  Sn11      1.0  0.56095  0.79936  0.54902  1.0000
  C   C122      1.0  0.50810  0.77358  0.50120  1.0000
  C  Sn12      1.0  0.45839  0.74991  0.56218  1.0000
  O  Te9       1.0  0.41250  0.72870  0.73599  1.0000
  O  Te10      1.0  0.61656  0.82705  0.70991  1.0000
  O  Te11      1.0  0.61013  0.82274  0.48646  1.0000
  O  Te12      1.0  0.40604  0.72439  0.51258  1.0000
  Mg  Mg5       1.0  0.67148  0.85294  0.59075  1.0000
  Mg  Mg6       1.0  0.35108  0.69852  0.63166  1.0000
  C  Sn13      1.0  0.42290  0.27781  0.08231  1.0000
  C   C123      1.0  0.46825  0.32035  0.04136  1.0000
  C  Sn14      1.0  0.51960  0.33772  0.10196  1.0000
  C  Sn15      1.0  0.52576  0.31201  0.20563  1.0000
  C   C124      1.0  0.48044  0.26949  0.24652  1.0000
  C  Sn16      1.0  0.42906  0.25210  0.18598  1.0000
  O  Te13      1.0  0.37196  0.26111  0.02032  1.0000
  O  Te14      1.0  0.56432  0.38034  0.05933  1.0000
  O  Te15      1.0  0.57676  0.32875  0.26762  1.0000
  O  Te16      1.0  0.38436  0.20949  0.22856  1.0000
  Mg  Mg7       1.0  0.62536  0.38850  0.17458  1.0000
  Mg  Mg8       1.0  0.32333  0.20128  0.11337  1.0000
  C  Sn17      1.0  0.38775  0.05202  0.43892  1.0000
  C   C125      1.0  0.36812  0.99705  0.49704  1.0000
  C  Sn18      1.0  0.39207  0.93546  0.47798  1.0000
  C  Sn19      1.0  0.43863  0.92866  0.39922  1.0000
  C   C126      1.0  0.45824  0.98361  0.34117  1.0000
  C  Sn20      1.0  0.43431  0.04523  0.36017  1.0000
  O  Te17      1.0  0.36117  0.11313  0.45932  1.0000
  O  Te18      1.0  0.37168  0.88122  0.53708  1.0000
  O  Te19      1.0  0.46521  0.86749  0.37886  1.0000
  O  Te20      1.0  0.45469  0.09944  0.30114  1.0000
  Mg  Mg9       1.0  0.42203  0.80828  0.48014  1.0000
  Mg  Mg10      1.0  0.40440  0.17241  0.35804  1.0000
  C  Sn21      1.0  0.44942  0.11711  0.06972  1.0000
  C   C127      1.0  0.50200  0.13536  0.01087  1.0000
  C  Sn22      1.0  0.55923  0.10426  0.02808  1.0000
  C  Sn23      1.0  0.56400  0.05383  0.10568  1.0000
  C   C128      1.0  0.51144  0.03560  0.16446  1.0000
  C  Sn24      1.0  0.45419  0.06669  0.14732  1.0000
  O  Te21      1.0  0.39268  0.14887  0.05117  1.0000
  O  Te22      1.0  0.60776  0.11370  0.96829  1.0000
  O  Te23      1.0  0.62081  0.02208  0.12419  1.0000
  O  Te24      1.0  0.40229  0.04759  0.20704  1.0000
  Mg  Mg11      1.0  0.67823  0.06544  0.02261  1.0000
  Mg  Mg12      1.0  0.33519  0.10546  0.15276  1.0000
  C  Sn25      1.0  0.93862  0.30731  0.06091  1.0000
  C   C129      1.0  0.99053  0.28011  0.01079  1.0000
  C  Sn26      1.0  0.04092  0.25666  0.06959  1.0000
  C  Sn27      1.0  0.03938  0.26044  0.18082  1.0000
  C   C130      1.0  0.98749  0.28761  0.23088  1.0000
  C  Sn28      1.0  0.93708  0.31108  0.17214  1.0000
  O  Te25      1.0  0.88877  0.33044  0.00055  1.0000
  O  Te26      1.0  0.09231  0.22970  0.01771  1.0000
  O  Te27      1.0  0.08929  0.23727  0.24116  1.0000
  O  Te28      1.0  0.88570  0.33802  0.22396  1.0000
  Mg  Mg13      1.0  0.14879  0.20476  0.13433  1.0000
  Mg  Mg14      1.0  0.82919  0.36294  0.10742  1.0000
  C  Sn29      1.0  0.15656  0.99814  0.28760  1.0000
  C   C131      1.0  0.21121  0.03000  0.25531  1.0000
  C  Sn30      1.0  0.25679  0.04599  0.32859  1.0000
  C  Sn31      1.0  0.24759  0.02975  0.43638  1.0000
  C   C132      1.0  0.19297  0.99790  0.46861  1.0000
  C  Sn32      1.0  0.14535  0.98191  0.39539  1.0000
  O  Te29      1.0  0.10962  0.98263  0.21299  1.0000
  O  Te30      1.0  0.31104  0.07786  0.29443  1.0000
  O  Te31      1.0  0.29259  0.04530  0.51100  1.0000
  O  Te32      1.0  0.09115  0.95004  0.42950  1.0000
  Mg  Mg15      1.0  0.35864  0.08869  0.42592  1.0000
  Mg  Mg16      1.0  0.04353  0.93916  0.29808  1.0000
  C  Sn33      1.0  0.07680  0.37981  0.57178  1.0000
  C   C133      1.0  0.02943  0.34882  0.51631  1.0000
  C  Sn34      1.0  0.96689  0.36313  0.53735  1.0000
  C  Sn35      1.0  0.95136  0.40941  0.61542  1.0000
  C   C134      1.0  0.99870  0.44037  0.67083  1.0000
  C  Sn36      1.0  0.06126  0.42609  0.64985  1.0000
  O  Te33      1.0  0.13900  0.36476  0.54944  1.0000
  O  Te34      1.0  0.92036  0.33150  0.48089  1.0000
  O  Te35      1.0  0.88909  0.42444  0.63773  1.0000
  O  Te36      1.0  0.10778  0.45769  0.70625  1.0000
  Mg  Mg17      1.0  0.84243  0.36852  0.53976  1.0000
  Mg  Mg18      1.0  0.18572  0.42074  0.64741  1.0000
  C  Sn37      1.0  0.75365  0.02667  0.81717  1.0000
  C   C135      1.0  0.71457  0.97570  0.78049  1.0000
  C  Sn38      1.0  0.68367  0.93379  0.85126  1.0000
  C  Sn39      1.0  0.68993  0.94304  0.96097  1.0000
  C   C136      1.0  0.72898  0.99400  0.99759  1.0000
  C  Sn40      1.0  0.75991  0.03593  0.92688  1.0000
  O  Te37      1.0  0.78412  0.06798  0.74500  1.0000
  O  Te38      1.0  0.64688  0.88316  0.81272  1.0000
  O  Te39      1.0  0.66281  0.91135  0.03314  1.0000
  O  Te40      1.0  0.79667  0.08654  0.96537  1.0000
  Mg  Mg19      1.0  0.61460  0.83978  0.94223  1.0000
  Mg  Mg20      1.0  0.82894  0.12997  0.83594  1.0000
  C  Sn41      1.0  0.74613  0.43415  0.86934  1.0000
  C   C137      1.0  0.72580  0.46152  0.77410  1.0000
  C  Sn42      1.0  0.68476  0.51481  0.77321  1.0000
  C  Sn43      1.0  0.66361  0.54133  0.86951  1.0000
  C   C138      1.0  0.68394  0.51397  0.96467  1.0000
  C  Sn44      1.0  0.72499  0.46067  0.96564  1.0000
  O  Te41      1.0  0.78717  0.38090  0.86836  1.0000
  O  Te42      1.0  0.66507  0.54133  0.67701  1.0000
  O  Te43      1.0  0.62254  0.59462  0.87042  1.0000
  O  Te44      1.0  0.74807  0.44383  0.06176  1.0000
  Mg  Mg21      1.0  0.60903  0.61370  0.71920  1.0000
  Mg  Mg22      1.0  0.80413  0.37148  0.01967  1.0000
  C  Sn45      1.0  0.08004  0.77402  0.64397  1.0000
  C   C139      1.0  0.04455  0.79078  0.73209  1.0000
  C  Sn46      1.0  0.98505  0.81781  0.72011  1.0000
  C  Sn47      1.0  0.96048  0.82828  0.61791  1.0000
  C   C140      1.0  0.99595  0.81152  0.52986  1.0000
  C  Sn48      1.0  0.05547  0.78449  0.54177  1.0000
  O  Te45      1.0  0.13941  0.74706  0.65781  1.0000
  O  Te46      1.0  0.95046  0.83419  0.80939  1.0000
  O  Te47      1.0  0.90106  0.85527  0.60413  1.0000
  O  Te48      1.0  0.09004  0.76811  0.45257  1.0000
  Mg  Mg23      1.0  0.87191  0.86954  0.74994  1.0000
  Mg  Mg24      1.0  0.16858  0.73273  0.51192  1.0000
  C  Sn49      1.0  0.04918  0.18658  0.62932  1.0000
  C   C141      1.0  0.00390  0.17299  0.55417  1.0000
  C  Sn50      1.0  0.94218  0.19299  0.56926  1.0000
  C  Sn51      1.0  0.92537  0.22732  0.66134  1.0000
  C   C142      1.0  0.97064  0.24090  0.73642  1.0000
  C  Sn52      1.0  0.03237  0.22091  0.72140  1.0000
  O  Te49      1.0  0.11060  0.16612  0.61260  1.0000
  O  Te50      1.0  0.89772  0.17883  0.49303  1.0000
  O  Te51      1.0  0.86389  0.24778  0.67801  1.0000
  O  Te52      1.0  0.07681  0.23507  0.79755  1.0000
  Mg  Mg25      1.0  0.82016  0.21694  0.55144  1.0000
  Mg  Mg26      1.0  0.15439  0.19701  0.73920  1.0000
  C  Sn53      1.0  0.86213  0.94088  0.85587  1.0000
  C   C143      1.0  0.85086  0.98556  0.77372  1.0000
  C  Sn54      1.0  0.89209  0.03942  0.75759  1.0000
  C  Sn55      1.0  0.94370  0.04881  0.82493  1.0000
  C   C144      1.0  0.95496  0.00414  0.90701  1.0000
  C  Sn56      1.0  0.91374  0.95027  0.92321  1.0000
  O  Te53      1.0  0.82230  0.88738  0.87053  1.0000
  O  Te54      1.0  0.87986  0.08343  0.67495  1.0000
  O  Te55      1.0  0.98354  0.10236  0.81020  1.0000
  O  Te56      1.0  0.92935  0.91594  0.00578  1.0000
  Mg  Mg27      1.0  0.94755  0.14875  0.68683  1.0000
  Mg  Mg28      1.0  0.85833  0.84093  0.99394  1.0000
  C  Sn57      1.0  0.43667  0.89110  0.13622  1.0000
  C   C145      1.0  0.49046  0.91156  0.18778  1.0000
  C  Sn58      1.0  0.54847  0.90880  0.13746  1.0000
  C  Sn59      1.0  0.55281  0.88512  0.03341  1.0000
  C   C146      1.0  0.49566  0.85502  0.98191  1.0000
  C  Sn60      1.0  0.44102  0.86743  0.03217  1.0000
  O  Te57      1.0  0.37917  0.89431  0.18803  1.0000
  O  Te58      1.0  0.60159  0.92951  0.19062  1.0000
  O  Te59      1.0  0.60699  0.87227  0.98162  1.0000
  O  Te60      1.0  0.38453  0.83708  0.97906  1.0000
  Mg  Mg29      1.0  0.66935  0.91577  0.08684  1.0000
  Mg  Mg30      1.0  0.32013  0.86049  0.08274  1.0000
  C  Sn61      1.0  0.38483  0.56474  0.39933  1.0000
  C   C147      1.0  0.42324  0.51177  0.42657  1.0000
  C  Sn62      1.0  0.43814  0.46427  0.35253  1.0000
  C  Sn63      1.0  0.41418  0.46984  0.24906  1.0000
  C   C148      1.0  0.37581  0.52279  0.22186  1.0000
  C  Sn64      1.0  0.36088  0.57031  0.29587  1.0000
  O  Te61      1.0  0.37055  0.61166  0.47462  1.0000
  O  Te62      1.0  0.47661  0.41174  0.38162  1.0000
  O  Te63      1.0  0.42849  0.42286  0.17376  1.0000
  O  Te64      1.0  0.32244  0.62282  0.26681  1.0000
  Mg  Mg31      1.0  0.48278  0.36035  0.25118  1.0000
  Mg  Mg32      1.0  0.31626  0.67425  0.39717  1.0000
