data_image0
_chemical_formula_structural       H80C116N32C2Sn2C2HTe2HMgC2Sn2C2HTe2HMgC2Sn2C2HTe2HMgC2Sn2C2HTe2HMgC2Sn2C2HTe2HMgC2Sn2C2HTe2HMgC2Sn2C2HTe2HMgC2Sn2C2HTe2HMgC2Sn2C2HTe2HMgC2Sn2C2HTe2HMgC2Sn2C2HTe2HMgC2Sn2C2HTe2HMgC2Sn2C2HTe2HMgC2Sn2C2HTe2HMgC2Sn2C2HTe2HMgC2Sn2C2HTe2HMg
_chemical_formula_sum              "H112 C180 N32 Sn32 Te32 Mg16"
_cell_length_a       21.4394
_cell_length_b       20.3941
_cell_length_c       12.7201
_cell_angle_alpha    89.1113
_cell_angle_beta     89.6707
_cell_angle_gamma    89.8796

_symmetry_space_group_name_H-M    'P1'
_space_group_IT_number       1

loop_
  _space_group_symop_operation_xyz
  'x, y, z'

loop_
  _atom_site_type_symbol
  _atom_site_label
  _atom_site_symmetry_multiplicity
  _atom_site_fract_x
  _atom_site_fract_y
  _atom_site_fract_z
  _atom_site_occupancy
  H   H1        1.0  0.24898  0.44247  0.24142  1.0000
  H   H2        1.0  0.42306  0.77012  0.73975  1.0000
  H   H3        1.0  0.56890  0.23831  0.74523  1.0000
  H   H4        1.0  0.74304  0.06571  0.74371  1.0000
  H   H5        1.0  0.15789  0.43283  0.15437  1.0000
  H   H6        1.0  0.84026  0.55986  0.14549  1.0000
  H   H7        1.0  0.43676  0.82576  0.86432  1.0000
  H   H8        1.0  0.56300  0.15600  0.84730  1.0000
  H   H9        1.0  0.65910  0.06222  0.64805  1.0000
  H   H10       1.0  0.34132  0.93191  0.65603  1.0000
  H   H11       1.0  0.93925  0.65326  0.34443  1.0000
  H   H12       1.0  0.07012  0.33972  0.34979  1.0000
  H   H13       1.0  0.86969  0.60408  0.97843  1.0000
  H   H14       1.0  0.39297  0.86929  0.01278  1.0000
  H   H15       1.0  0.61104  0.11103  0.99596  1.0000
  H   H16       1.0  0.38469  0.88100  0.50851  1.0000
  H   H17       1.0  0.89131  0.59922  0.48520  1.0000
  H   H18       1.0  0.11488  0.38409  0.49557  1.0000
  H   H19       1.0  0.92932  0.59472  0.81305  1.0000
  H   H20       1.0  0.40063  0.93449  0.17346  1.0000
  H   H21       1.0  0.60662  0.04543  0.16001  1.0000
  H   H22       1.0  0.44623  0.88414  0.34437  1.0000
  H   H23       1.0  0.89665  0.53207  0.64753  1.0000
  H   H24       1.0  0.10623  0.44662  0.65916  1.0000
  H   H25       1.0  0.29359  0.43149  0.42156  1.0000
  H   H26       1.0  0.41195  0.73647  0.55442  1.0000
  H   H27       1.0  0.57784  0.27998  0.56106  1.0000
  H   H28       1.0  0.78295  0.08062  0.92534  1.0000
  H   H29       1.0  0.13735  0.60599  0.34265  1.0000
  H   H30       1.0  0.61471  0.82223  0.67821  1.0000
  H   H31       1.0  0.38353  0.16915  0.68094  1.0000
  H   H32       1.0  0.65729  0.88374  0.84111  1.0000
  H   H33       1.0  0.94791  0.38619  0.86623  1.0000
  H   H34       1.0  0.60098  0.91890  0.16197  1.0000
  H   H35       1.0  0.40574  0.05872  0.15994  1.0000
  H   H36       1.0  0.44532  0.09568  0.34913  1.0000
  H   H37       1.0  0.09374  0.57060  0.66920  1.0000
  H   H38       1.0  0.90916  0.40559  0.67361  1.0000
  H   H39       1.0  0.88781  0.39658  0.03214  1.0000
  H   H40       1.0  0.59294  0.85367  0.99921  1.0000
  H   H41       1.0  0.41104  0.12501  0.99528  1.0000
  H   H42       1.0  0.38429  0.09171  0.51500  1.0000
  H   H43       1.0  0.08774  0.63847  0.50528  1.0000
  H   H44       1.0  0.91877  0.34115  0.50998  1.0000
  H   H45       1.0  0.18229  0.59359  0.52438  1.0000
  H   H46       1.0  0.60336  0.78448  0.49205  1.0000
  H   H47       1.0  0.39244  0.21372  0.49637  1.0000
  H   H48       1.0  0.69801  0.89925  0.02438  1.0000
  H   H49       1.0  0.41366  0.31725  0.86549  1.0000
  H   H50       1.0  0.57514  0.69117  0.85878  1.0000
  H   H51       1.0  0.31686  0.58616  0.12299  1.0000
  H   H52       1.0  0.67888  0.42338  0.12751  1.0000
  H   H53       1.0  0.92570  0.19648  0.36187  1.0000
  H   H54       1.0  0.08253  0.82364  0.36738  1.0000
  H   H55       1.0  0.81732  0.92240  0.63207  1.0000
  H   H56       1.0  0.17520  0.08785  0.61628  1.0000
  H   H57       1.0  0.38446  0.34545  0.68865  1.0000
  H   H58       1.0  0.60779  0.65809  0.68969  1.0000
  H   H59       1.0  0.64953  0.38921  0.30186  1.0000
  H   H60       1.0  0.39858  0.41651  0.53079  1.0000
  H   H61       1.0  0.59500  0.58984  0.53229  1.0000
  H   H62       1.0  0.58125  0.40134  0.45800  1.0000
  H   H63       1.0  0.53649  0.59840  0.35722  1.0000
  H   H64       1.0  0.40718  0.54451  0.62946  1.0000
  H   H65       1.0  0.58482  0.46189  0.63043  1.0000
  H   H66       1.0  0.60112  0.58422  0.19710  1.0000
  H   H67       1.0  0.42160  0.60904  0.79113  1.0000
  H   H68       1.0  0.56916  0.39412  0.79186  1.0000
  H   H69       1.0  0.60620  0.69815  0.01455  1.0000
  H   H70       1.0  0.08790  0.75706  0.49890  1.0000
  H   H71       1.0  0.74723  0.92679  0.51149  1.0000
  H   H72       1.0  0.62091  0.73587  0.19789  1.0000
  H   H73       1.0  0.10484  0.72375  0.68614  1.0000
  H   H74       1.0  0.70844  0.91003  0.32973  1.0000
  H   H75       1.0  0.41003  0.67296  0.07699  1.0000
  H   H76       1.0  0.92992  0.87313  0.59284  1.0000
  H   H77       1.0  0.88038  0.06736  0.39153  1.0000
  H   H78       1.0  0.42622  0.70912  0.26334  1.0000
  H   H79       1.0  0.94650  0.83833  0.78073  1.0000
  H   H80       1.0  0.83985  0.05138  0.20931  1.0000
  C   C1        1.0  0.93001  0.43391  0.88926  1.0000
  C   C2        1.0  0.45097  0.07117  0.12580  1.0000
  C   C3        1.0  0.55529  0.90674  0.13079  1.0000
  C   C4        1.0  0.43087  0.04849  0.38225  1.0000
  C   C5        1.0  0.95450  0.39997  0.63582  1.0000
  C   C6        1.0  0.04909  0.57835  0.63052  1.0000
  C   C7        1.0  0.23265  0.47400  0.30409  1.0000
  C   C8        1.0  0.46232  0.77572  0.68588  1.0000
  C   C9        1.0  0.53118  0.23017  0.69019  1.0000
  C   C10       1.0  0.73115  0.03050  0.80564  1.0000
  C   C11       1.0  0.14940  0.48320  0.12541  1.0000
  C   C12       1.0  0.85008  0.50910  0.12236  1.0000
  C   C13       1.0  0.48556  0.83226  0.88833  1.0000
  C   C14       1.0  0.51541  0.15247  0.87974  1.0000
  C   C15       1.0  0.65518  0.01123  0.62187  1.0000
  C   C16       1.0  0.34922  0.98187  0.62480  1.0000
  C   C17       1.0  0.98586  0.65386  0.38011  1.0000
  C   C18       1.0  0.02239  0.33800  0.38187  1.0000
  C   C19       1.0  0.87685  0.50095  0.01839  1.0000
  C   C20       1.0  0.49280  0.85845  0.99304  1.0000
  C   C21       1.0  0.51095  0.12172  0.98322  1.0000
  C   C22       1.0  0.37993  0.98628  0.52277  1.0000
  C   C23       1.0  0.98965  0.62317  0.48358  1.0000
  C   C24       1.0  0.01652  0.36126  0.48866  1.0000
  C   C25       1.0  0.88642  0.55632  0.95343  1.0000
  C   C26       1.0  0.43857  0.87885  0.04650  1.0000
  C   C27       1.0  0.56609  0.10047  0.03278  1.0000
  C   C28       1.0  0.39668  0.92802  0.47214  1.0000
  C   C29       1.0  0.93542  0.59432  0.52671  1.0000
  C   C30       1.0  0.06996  0.38796  0.53548  1.0000
  C   C31       1.0  0.91958  0.55084  0.85976  1.0000
  C   C32       1.0  0.44285  0.91524  0.13746  1.0000
  C   C33       1.0  0.56351  0.06372  0.12564  1.0000
  C   C34       1.0  0.43127  0.92993  0.37939  1.0000
  C   C35       1.0  0.93848  0.55666  0.61843  1.0000
  C   C36       1.0  0.06505  0.42290  0.62789  1.0000
  C   C37       1.0  0.94464  0.49032  0.82901  1.0000
  C   C38       1.0  0.50127  0.93202  0.17857  1.0000
  C   C39       1.0  0.50591  0.04668  0.17187  1.0000
  C   C40       1.0  0.45030  0.99008  0.33447  1.0000
  C   C41       1.0  0.99567  0.54667  0.67007  1.0000
  C   C42       1.0  0.00660  0.43251  0.67622  1.0000
  C   C43       1.0  0.25799  0.46810  0.40409  1.0000
  C   C44       1.0  0.45586  0.75600  0.58274  1.0000
  C   C45       1.0  0.53609  0.25447  0.58801  1.0000
  C   C46       1.0  0.75405  0.03866  0.90644  1.0000
  C   C47       1.0  0.23865  0.51021  0.48474  1.0000
  C   C48       1.0  0.50633  0.75981  0.51122  1.0000
  C   C49       1.0  0.48698  0.24678  0.51604  1.0000
  C   C50       1.0  0.74112  0.99205  0.98649  1.0000
  C   C51       1.0  0.17115  0.56763  0.36149  1.0000
  C   C52       1.0  0.57061  0.80293  0.65019  1.0000
  C   C53       1.0  0.42591  0.19342  0.65357  1.0000
  C   C54       1.0  0.68473  0.92661  0.86115  1.0000
  C   C55       1.0  0.18838  0.52348  0.28151  1.0000
  C   C56       1.0  0.51985  0.80044  0.72200  1.0000
  C   C57       1.0  0.47634  0.19787  0.72451  1.0000
  C   C58       1.0  0.69554  0.97461  0.78147  1.0000
  C   C59       1.0  0.89662  0.43933  0.98253  1.0000
  C   C60       1.0  0.55114  0.87053  0.03931  1.0000
  C   C61       1.0  0.45353  0.10811  0.03309  1.0000
  C   C62       1.0  0.39655  0.04664  0.47526  1.0000
  C   C63       1.0  0.04608  0.61605  0.53862  1.0000
  C   C64       1.0  0.95938  0.36453  0.54350  1.0000
  C   C65       1.0  0.19531  0.56063  0.46162  1.0000
  C   C66       1.0  0.56440  0.78282  0.54721  1.0000
  C   C67       1.0  0.43094  0.21718  0.55126  1.0000
  C   C68       1.0  0.70652  0.93537  0.96217  1.0000
  C   C69       1.0  0.46107  0.33692  0.85496  1.0000
  C   C70       1.0  0.52981  0.66626  0.85371  1.0000
  C   C71       1.0  0.33824  0.53745  0.13425  1.0000
  C   C72       1.0  0.65735  0.47201  0.13635  1.0000
  C   C73       1.0  0.97013  0.16994  0.35378  1.0000
  C   C74       1.0  0.03449  0.84159  0.35714  1.0000
  C   C75       1.0  0.83828  0.97130  0.63938  1.0000
  C   C76       1.0  0.15538  0.03873  0.63036  1.0000
  C   C77       1.0  0.47489  0.36707  0.75313  1.0000
  C   C78       1.0  0.51662  0.63588  0.75361  1.0000
  C   C79       1.0  0.62764  0.48481  0.23678  1.0000
  C   C80       1.0  0.42849  0.37094  0.67583  1.0000
  C   C81       1.0  0.56382  0.63300  0.67670  1.0000
  C   C82       1.0  0.62449  0.43502  0.31400  1.0000
  C   C83       1.0  0.43678  0.41021  0.58590  1.0000
  C   C84       1.0  0.55629  0.59529  0.58706  1.0000
  C   C85       1.0  0.58689  0.44230  0.40307  1.0000
  C   C86       1.0  0.49216  0.44523  0.57051  1.0000
  C   C87       1.0  0.50075  0.56119  0.57081  1.0000
  C   C88       1.0  0.55295  0.50015  0.41759  1.0000
  C   C89       1.0  0.56180  0.55276  0.34566  1.0000
  C   C90       1.0  0.45099  0.56992  0.64243  1.0000
  C   C91       1.0  0.54122  0.43555  0.64263  1.0000
  C   C92       1.0  0.59780  0.54516  0.25605  1.0000
  C   C93       1.0  0.45881  0.60574  0.73296  1.0000
  C   C94       1.0  0.53276  0.39788  0.73288  1.0000
  C   C95       1.0  0.56618  0.70193  0.06704  1.0000
  C   C96       1.0  0.05797  0.77635  0.56047  1.0000
  C   C97       1.0  0.76865  0.95282  0.44539  1.0000
  C   C98       1.0  0.57494  0.72267  0.16931  1.0000
  C   C99       1.0  0.06718  0.75702  0.66441  1.0000
  C   C100      1.0  0.74651  0.94374  0.34436  1.0000
  C   C101      1.0  0.52459  0.72558  0.24116  1.0000
  C   C102      1.0  0.02704  0.77895  0.74497  1.0000
  C   C103      1.0  0.77149  0.97967  0.25852  1.0000
  C   C104      1.0  0.45572  0.68790  0.10467  1.0000
  C   C105      1.0  0.96788  0.84031  0.61505  1.0000
  C   C106      1.0  0.84242  0.03348  0.37650  1.0000
  C   C107      1.0  0.50591  0.68498  0.03169  1.0000
  C   C108      1.0  0.00819  0.81884  0.53370  1.0000
  C   C109      1.0  0.81696  0.99815  0.46340  1.0000
  C   C110      1.0  0.46444  0.70775  0.20696  1.0000
  C   C111      1.0  0.97699  0.82120  0.71850  1.0000
  C   C112      1.0  0.82038  0.02446  0.27599  1.0000
  C   C113      1.0  0.50422  0.99019  0.25378  1.0000
  C   C114      1.0  0.00006  0.49035  0.75163  1.0000
  C   C115      1.0  0.49699  0.50400  0.49359  1.0000
  C   C116      1.0  0.99733  0.00581  0.99372  1.0000
  N   N1        1.0  0.16160  0.53341  0.18266  1.0000
  N   N2        1.0  0.84110  0.46026  0.18694  1.0000
  N   N3        1.0  0.53179  0.82181  0.82424  1.0000
  N   N4        1.0  0.46728  0.17097  0.82540  1.0000
  N   N5        1.0  0.67110  0.96226  0.68212  1.0000
  N   N6        1.0  0.33446  0.03292  0.67880  1.0000
  N   N7        1.0  0.03377  0.67645  0.32845  1.0000
  N   N8        1.0  0.97535  0.32158  0.32429  1.0000
  N   N9        1.0  0.26548  0.49938  0.58364  1.0000
  N   N10       1.0  0.73673  0.50112  0.58555  1.0000
  N   N11       1.0  0.49337  0.73981  0.40905  1.0000
  N   N12       1.0  0.49833  0.27013  0.41373  1.0000
  N   N13       1.0  0.76552  0.00549  0.08564  1.0000
  N   N14       1.0  0.22765  0.00199  0.07990  1.0000
  N   N15       1.0  0.99935  0.77292  0.91642  1.0000
  N   N16       1.0  0.00938  0.24368  0.90574  1.0000
  N   N17       1.0  0.50122  0.33898  0.93077  1.0000
  N   N18       1.0  0.49093  0.66213  0.93219  1.0000
  N   N19       1.0  0.34063  0.49478  0.06009  1.0000
  N   N20       1.0  0.65458  0.51415  0.05922  1.0000
  N   N21       1.0  0.00980  0.16514  0.43016  1.0000
  N   N22       1.0  0.99384  0.84202  0.43317  1.0000
  N   N23       1.0  0.84148  0.01283  0.56132  1.0000
  N   N24       1.0  0.15452  0.99483  0.55812  1.0000
  N   N25       1.0  0.45859  0.25086  0.34504  1.0000
  N   N26       1.0  0.53917  0.74510  0.34319  1.0000
  N   N27       1.0  0.23913  0.53123  0.65849  1.0000
  N   N28       1.0  0.76158  0.47022  0.66376  1.0000
  N   N29       1.0  0.96200  0.24462  0.84376  1.0000
  N   N30       1.0  0.03998  0.75575  0.84682  1.0000
  N   N31       1.0  0.74514  0.96767  0.16021  1.0000
  N   N32       1.0  0.25530  0.03219  0.15460  1.0000
  C   C117      1.0  0.91810  0.21086  0.64809  1.0000
  C   C118      1.0  0.96243  0.22316  0.72542  1.0000
  C  Sn1       1.0  0.02603  0.21929  0.70173  1.0000
  C  Sn2       1.0  0.04548  0.20282  0.59864  1.0000
  C   C119      1.0  0.00077  0.19065  0.52181  1.0000
  C   C120      1.0  0.93724  0.19464  0.54637  1.0000
  H   H81       1.0  0.86895  0.21398  0.66707  1.0000
  O  Te1       1.0  0.06970  0.23170  0.77994  1.0000
  O  Te2       1.0  0.10874  0.19863  0.57281  1.0000
  H   H82       1.0  0.90293  0.18516  0.48647  1.0000
  Mg  Mg1       1.0  0.15054  0.21987  0.70642  1.0000
  C   C121      1.0  0.10343  0.42221  0.94350  1.0000
  C   C122      1.0  0.12647  0.48353  0.00611  1.0000
  C  Sn3       1.0  0.10530  0.53824  0.98169  1.0000
  C  Sn4       1.0  0.06714  0.55099  0.89291  1.0000
  C   C123      1.0  0.04769  0.49897  0.83081  1.0000
  C   C124      1.0  0.06576  0.43474  0.85594  1.0000
  H   H83       1.0  0.11738  0.37251  0.96297  1.0000
  O  Te3       1.0  0.12876  0.59893  0.04505  1.0000
  O  Te4       1.0  0.04867  0.61486  0.86673  1.0000
  H   H84       1.0  0.05051  0.39476  0.80749  1.0000
  Mg  Mg2       1.0  0.08795  0.66795  0.97720  1.0000
  C   C125      1.0  0.14767  0.97569  0.34472  1.0000
  C   C126      1.0  0.17388  0.99559  0.43934  1.0000
  C  Sn5       1.0  0.23077  0.03241  0.43896  1.0000
  C  Sn6       1.0  0.25983  0.04957  0.34192  1.0000
  C   C127      1.0  0.23322  0.02947  0.24768  1.0000
  C   C128      1.0  0.17630  0.99262  0.24897  1.0000
  H   H85       1.0  0.10516  0.94721  0.34570  1.0000
  O  Te5       1.0  0.25634  0.05186  0.53421  1.0000
  O  Te6       1.0  0.31470  0.08636  0.33926  1.0000
  H   H86       1.0  0.15600  0.97726  0.17569  1.0000
  Mg  Mg3       1.0  0.33166  0.10134  0.48983  1.0000
  C   C129      1.0  0.58777  0.92758  0.40784  1.0000
  C   C130      1.0  0.56157  0.97703  0.34482  1.0000
  C  Sn7       1.0  0.57437  0.04292  0.36693  1.0000
  C  Sn8       1.0  0.61214  0.05945  0.45379  1.0000
  C   C131      1.0  0.63818  0.00962  0.51633  1.0000
  C   C132      1.0  0.62504  0.94385  0.49351  1.0000
  H   H87       1.0  0.57919  0.87670  0.39016  1.0000
  O  Te7       1.0  0.54782  0.09170  0.30318  1.0000
  O  Te8       1.0  0.62372  0.12490  0.47765  1.0000
  H   H88       1.0  0.64537  0.90557  0.54228  1.0000
  Mg  Mg4       1.0  0.57717  0.17381  0.36756  1.0000
  C   C133      1.0  0.04843  0.09628  0.21444  1.0000
  C   C134      1.0  0.99822  0.13503  0.24666  1.0000
  C  Sn9       1.0  0.94311  0.13652  0.18857  1.0000
  C  Sn10      1.0  0.93832  0.09845  0.09656  1.0000
  C   C135      1.0  0.98880  0.05981  0.06503  1.0000
  C   C136      1.0  0.04374  0.05870  0.12372  1.0000
  H   H89       1.0  0.09093  0.09539  0.25987  1.0000
  O  Te9       1.0  0.89340  0.17552  0.22186  1.0000
  O  Te10      1.0  0.88377  0.09900  0.03706  1.0000
  H   H90       1.0  0.08259  0.02866  0.09879  1.0000
  Mg  Mg5       1.0  0.82881  0.15996  0.11441  1.0000
  C   C137      1.0  0.08731  0.95480  0.77225  1.0000
  C   C138      1.0  0.11910  0.01107  0.73323  1.0000
  C  Sn11      1.0  0.11882  0.06861  0.79141  1.0000
  C  Sn12      1.0  0.08811  0.06969  0.89048  1.0000
  C   C139      1.0  0.05848  0.01313  0.92886  1.0000
  C   C140      1.0  0.05703  0.95581  0.86997  1.0000
  H   H91       1.0  0.08777  0.91044  0.72672  1.0000
  O  Te11      1.0  0.14879  0.12440  0.75125  1.0000
  O  Te12      1.0  0.08713  0.12654  0.95028  1.0000
  H   H92       1.0  0.03400  0.91224  0.90024  1.0000
  Mg  Mg6       1.0  0.13457  0.19006  0.86202  1.0000
  C   C141      1.0  0.25112  0.96614  0.81898  1.0000
  C   C142      1.0  0.29415  0.01356  0.77884  1.0000
  C  Sn13      1.0  0.31893  0.06094  0.84479  1.0000
  C  Sn14      1.0  0.30225  0.06070  0.95290  1.0000
  C   C143      1.0  0.26120  0.01303  0.99231  1.0000
  C   C144      1.0  0.23466  0.96586  0.92561  1.0000
  H   H93       1.0  0.23215  0.92962  0.76740  1.0000
  O  Te13      1.0  0.35985  0.10797  0.80339  1.0000
  O  Te14      1.0  0.32974  0.11714  0.02057  1.0000
  H   H94       1.0  0.20292  0.92913  0.95673  1.0000
  Mg  Mg7       1.0  0.38037  0.16152  0.92705  1.0000
  C   C145      1.0  0.95189  0.91239  0.21997  1.0000
  C   C146      1.0  0.00307  0.87367  0.24869  1.0000
  C  Sn15      1.0  0.05662  0.87291  0.18562  1.0000
  C  Sn16      1.0  0.05885  0.91171  0.09212  1.0000
  C   C147      1.0  0.00743  0.95032  0.06411  1.0000
  C   C148      1.0  0.95406  0.95069  0.12779  1.0000
  H   H95       1.0  0.91062  0.91271  0.26926  1.0000
  O  Te15      1.0  0.10733  0.83393  0.21545  1.0000
  O  Te16      1.0  0.11180  0.91190  0.02765  1.0000
  H   H96       1.0  0.91446  0.98071  0.10556  1.0000
  Mg  Mg8       1.0  0.16900  0.85065  0.10168  1.0000
  C   C149      1.0  0.52928  0.34294  0.14114  1.0000
  C   C150      1.0  0.49989  0.32024  0.05097  1.0000
  C  Sn17      1.0  0.45168  0.27444  0.05947  1.0000
  C  Sn18      1.0  0.43264  0.25103  0.16023  1.0000
  C   C151      1.0  0.46230  0.27408  0.24997  1.0000
  C   C152      1.0  0.51050  0.31990  0.24055  1.0000
  H   H97       1.0  0.56654  0.37842  0.13387  1.0000
  O  Te17      1.0  0.41945  0.24259  0.96857  1.0000
  O  Te18      1.0  0.38457  0.20527  0.17100  1.0000
  H   H98       1.0  0.53322  0.33750  0.31039  1.0000
  Mg  Mg9       1.0  0.35962  0.18979  0.02384  1.0000
  C   C153      1.0  0.89466  0.93480  0.89316  1.0000
  C   C154      1.0  0.93594  0.98560  0.91546  1.0000
  C  Sn19      1.0  0.94058  0.04138  0.85044  1.0000
  C  Sn20      1.0  0.90109  0.04626  0.76151  1.0000
  C   C155      1.0  0.85992  0.99519  0.73992  1.0000
  C   C156      1.0  0.85568  0.93958  0.80549  1.0000
  H   H99       1.0  0.89289  0.89178  0.94391  1.0000
  O  Te19      1.0  0.98211  0.09167  0.87384  1.0000
  O  Te20      1.0  0.90276  0.10147  0.69524  1.0000
  H   H100      1.0  0.82368  0.90028  0.78824  1.0000
  Mg  Mg10      1.0  0.96721  0.15706  0.75993  1.0000
  C   C157      1.0  0.65435  0.53591  0.84437  1.0000
  C   C158      1.0  0.67192  0.50669  0.93982  1.0000
  C  Sn21      1.0  0.72389  0.46531  0.94449  1.0000
  C  Sn22      1.0  0.75883  0.45307  0.85175  1.0000
  C   C159      1.0  0.74089  0.48258  0.75666  1.0000
  C   C160      1.0  0.68880  0.52388  0.75287  1.0000
  H   H101      1.0  0.61407  0.56789  0.84144  1.0000
  O  Te21      1.0  0.74417  0.44617  0.04049  1.0000
  O  Te22      1.0  0.81098  0.41194  0.85419  1.0000
  H   H102      1.0  0.67524  0.54653  0.67897  1.0000
  Mg  Mg11      1.0  0.81885  0.39377  0.00378  1.0000
  C   C161      1.0  0.08133  0.70028  0.12791  1.0000
  C   C162      1.0  0.03976  0.70577  0.21234  1.0000
  C  Sn23      1.0  0.98088  0.73373  0.19726  1.0000
  C  Sn24      1.0  0.96342  0.75656  0.09566  1.0000
  C   C163      1.0  0.00533  0.75080  0.01168  1.0000
  C   C164      1.0  0.06414  0.72276  0.02766  1.0000
  H   H103      1.0  0.12683  0.67855  0.14025  1.0000
  O  Te23      1.0  0.93992  0.73886  0.28249  1.0000
  O  Te24      1.0  0.90486  0.78469  0.07837  1.0000
  H   H104      1.0  0.09292  0.70881  0.96226  1.0000
  Mg  Mg12      1.0  0.86532  0.78087  0.21939  1.0000
  C   C165      1.0  0.82057  0.43006  0.45262  1.0000
  C   C166      1.0  0.77872  0.47767  0.48775  1.0000
  C  Sn25      1.0  0.75191  0.52212  0.41648  1.0000
  C  Sn26      1.0  0.76736  0.51870  0.30809  1.0000
  C   C167      1.0  0.80924  0.47085  0.27373  1.0000
  C   C168      1.0  0.83582  0.42663  0.34572  1.0000
  H   H105      1.0  0.84110  0.39582  0.50830  1.0000
  O  Te25      1.0  0.71020  0.56940  0.45291  1.0000
  O  Te26      1.0  0.74122  0.56249  0.23517  1.0000
  H   H106      1.0  0.86819  0.38974  0.31849  1.0000
  Mg  Mg13      1.0  0.68682  0.61818  0.32311  1.0000
  C   C169      1.0  0.92660  0.30214  0.12621  1.0000
  C   C170      1.0  0.97113  0.29910  0.20594  1.0000
  C  Sn27      1.0  0.03169  0.27760  0.18413  1.0000
  C  Sn28      1.0  0.04783  0.25885  0.08050  1.0000
  C   C171      1.0  0.00295  0.26212  0.00128  1.0000
  C   C172      1.0  0.94248  0.28369  0.02397  1.0000
  H   H107      1.0  0.87983  0.31887  0.14374  1.0000
  O  Te27      1.0  0.07561  0.27483  0.26472  1.0000
  O  Te28      1.0  0.10801  0.23720  0.05653  1.0000
  H   H108      1.0  0.90463  0.27642  0.96221  1.0000
  Mg  Mg14      1.0  0.15150  0.24199  0.19309  1.0000
  C   C173      1.0  0.42856  0.44976  0.32013  1.0000
  C   C174      1.0  0.44197  0.49474  0.39859  1.0000
  C  Sn29      1.0  0.41384  0.55660  0.39740  1.0000
  C  Sn30      1.0  0.37149  0.57360  0.31607  1.0000
  C   C175      1.0  0.35834  0.52824  0.23798  1.0000
  C   C176      1.0  0.38677  0.46648  0.23990  1.0000
  H   H109      1.0  0.45053  0.40196  0.32164  1.0000
  O  Te29      1.0  0.42778  0.60095  0.47638  1.0000
  O  Te30      1.0  0.34269  0.63508  0.31301  1.0000
  H   H110      1.0  0.37635  0.43165  0.17918  1.0000
  Mg  Mg15      1.0  0.37673  0.67871  0.43821  1.0000
  C   C177      1.0  0.34455  0.47081  0.84769  1.0000
  C   C178      1.0  0.32464  0.50075  0.94013  1.0000
  C  Sn31      1.0  0.27147  0.54047  0.94000  1.0000
  C  Sn32      1.0  0.23768  0.55029  0.84545  1.0000
  C   C179      1.0  0.25796  0.52009  0.75340  1.0000
  C   C180      1.0  0.31124  0.48046  0.75441  1.0000
  H   H111      1.0  0.38576  0.44012  0.84848  1.0000
  O  Te31      1.0  0.25563  0.57969  0.03304  1.0000
  O  Te32      1.0  0.18437  0.58973  0.84310  1.0000
  H   H112      1.0  0.32662  0.45725  0.68284  1.0000
  Mg  Mg16      1.0  0.17671  0.61945  0.99007  1.0000
