data_image0
_chemical_formula_structural       H72C132S6N36C2Sn2C2HTe2HMgC2Sn2C2HTe2HMgC2Sn2C2HTe2HMgC2Sn2C2HTe2HMgC2Sn2C2HTe2HMgC2Sn2C2HTe2HMgC2Sn2C2HTe2HMgC2Sn2C2HTe2HMgC2Sn2C2HTe2HMgC2Sn2C2HTe2HMgC2Sn2C2HTe2HMgC2Sn2C2HTe2HMg
_chemical_formula_sum              "H96 C180 S6 N36 Sn24 Te24 Mg12"
_cell_length_a       39.2016
_cell_length_b       39.4937
_cell_length_c       8.04901
_cell_angle_alpha    92.9207
_cell_angle_beta     90.1279
_cell_angle_gamma    120.192

_symmetry_space_group_name_H-M    'P1'
_space_group_IT_number       1

loop_
  _space_group_symop_operation_xyz
  'x, y, z'

loop_
  _atom_site_type_symbol
  _atom_site_label
  _atom_site_symmetry_multiplicity
  _atom_site_fract_x
  _atom_site_fract_y
  _atom_site_fract_z
  _atom_site_occupancy
  H   H1        1.0  0.39396  0.62458  0.29724  1.0000
  H   H2        1.0  0.37859  0.76425  0.30277  1.0000
  H   H3        1.0  0.23561  0.60822  0.32339  1.0000
  H   H4        1.0  0.46170  0.63537  0.26576  1.0000
  H   H5        1.0  0.36666  0.81919  0.25985  1.0000
  H   H6        1.0  0.17753  0.54075  0.30359  1.0000
  H   H7        1.0  0.25983  0.76424  0.06449  1.0000
  H   H8        1.0  0.27108  0.70792  0.09991  1.0000
  H   H9        1.0  0.57562  0.69345  0.34946  1.0000
  H   H10       1.0  0.30532  0.87314  0.32217  1.0000
  H   H11       1.0  0.12269  0.42901  0.39053  1.0000
  H   H12       1.0  0.14199  0.52769  0.04537  1.0000
  H   H13       1.0  0.45636  0.54650  0.50952  1.0000
  H   H14       1.0  0.56319  0.57342  0.25910  1.0000
  H   H15       1.0  0.58232  0.64350  0.27032  1.0000
  H   H16       1.0  0.42674  0.42784  0.15480  1.0000
  H   H17       1.0  0.57140  0.99760  0.14949  1.0000
  H   H18       1.0  0.00270  0.57273  0.16488  1.0000
  H   H19       1.0  0.44167  0.49471  0.22890  1.0000
  H   H20       1.0  0.50598  0.94529  0.21732  1.0000
  H   H21       1.0  0.05576  0.56043  0.23753  1.0000
  H   H22       1.0  0.63187  0.03939  0.19104  1.0000
  H   H23       1.0  0.96259  0.59206  0.20119  1.0000
  H   H24       1.0  0.69522  0.08971  0.08849  1.0000
  H   H25       1.0  0.91301  0.60336  0.06847  1.0000
  H   H26       1.0  0.65322  0.17150  0.09863  1.0000
  H   H27       1.0  0.82871  0.47976  0.06360  1.0000
  H   H28       1.0  0.59066  0.12204  0.20323  1.0000
  H   H29       1.0  0.87743  0.46860  0.19853  1.0000
  H   H30       1.0  0.41431  0.26265  0.96368  1.0000
  H   H31       1.0  0.73721  0.14944  0.00346  1.0000
  H   H32       1.0  0.85472  0.58384  0.94380  1.0000
  H   H33       1.0  0.50070  0.23101  0.11663  1.0000
  H   H34       1.0  0.77148  0.26983  0.16546  1.0000
  H   H35       1.0  0.57320  0.25453  0.12088  1.0000
  H   H36       1.0  0.74869  0.31861  0.16156  1.0000
  H   H37       1.0  0.64064  0.23729  0.35218  1.0000
  H   H38       1.0  0.66348  0.18868  0.35322  1.0000
  H   H39       1.0  0.37527  0.76418  0.81249  1.0000
  H   H40       1.0  0.36231  0.81832  0.76442  1.0000
  H   H41       1.0  0.50867  0.74238  0.57298  1.0000
  H   H42       1.0  0.26340  0.76460  0.55567  1.0000
  H   H43       1.0  0.24049  0.50122  0.59994  1.0000
  H   H44       1.0  0.44068  0.73291  0.59396  1.0000
  H   H45       1.0  0.27390  0.70781  0.58781  1.0000
  H   H46       1.0  0.30009  0.56870  0.60898  1.0000
  H   H47       1.0  0.57395  0.69739  0.84648  1.0000
  H   H48       1.0  0.30157  0.87154  0.81412  1.0000
  H   H49       1.0  0.12460  0.42686  0.87118  1.0000
  H   H50       1.0  0.47543  0.61639  0.52118  1.0000
  H   H51       1.0  0.08919  0.54397  0.02127  1.0000
  H   H52       1.0  0.01484  0.43343  0.75031  1.0000
  H   H53       1.0  0.06802  0.41722  0.77303  1.0000
  H   H54       1.0  0.42498  0.43026  0.67873  1.0000
  H   H55       1.0  0.56805  0.00034  0.66533  1.0000
  H   H56       1.0  0.00278  0.56893  0.68463  1.0000
  H   H57       1.0  0.44028  0.49728  0.74796  1.0000
  H   H58       1.0  0.50312  0.94646  0.72851  1.0000
  H   H59       1.0  0.05494  0.55574  0.75846  1.0000
  H   H60       1.0  0.40471  0.36993  0.70797  1.0000
  H   H61       1.0  0.39226  0.30715  0.57599  1.0000
  H   H62       1.0  0.51662  0.34757  0.60723  1.0000
  H   H63       1.0  0.52905  0.40932  0.74125  1.0000
  H   H64       1.0  0.41056  0.26623  0.46418  1.0000
  H   H65       1.0  0.72879  0.14916  0.50328  1.0000
  H   H66       1.0  0.85866  0.58284  0.43928  1.0000
  H   H67       1.0  0.76655  0.27112  0.64504  1.0000
  H   H68       1.0  0.74469  0.32077  0.63639  1.0000
  H   H69       1.0  0.59365  0.35206  0.83942  1.0000
  H   H70       1.0  0.64795  0.23704  0.85518  1.0000
  H   H71       1.0  0.52127  0.32719  0.82569  1.0000
  H   H72       1.0  0.67211  0.18959  0.85000  1.0000
  C   C1        1.0  0.37300  0.67241  0.45876  1.0000
  C   C2        1.0  0.33276  0.69858  0.46028  1.0000
  C   C3        1.0  0.30635  0.63244  0.46775  1.0000
  C   C4        1.0  0.41914  0.65003  0.35932  1.0000
  C   C5        1.0  0.35389  0.76492  0.36095  1.0000
  C   C6        1.0  0.23624  0.58474  0.38577  1.0000
  C   C7        1.0  0.45703  0.65594  0.34305  1.0000
  C   C8        1.0  0.34744  0.79598  0.33897  1.0000
  C   C9        1.0  0.20359  0.54705  0.37660  1.0000
  C   C10       1.0  0.48978  0.68908  0.42251  1.0000
  C   C11       1.0  0.31485  0.79650  0.41086  1.0000
  C   C12       1.0  0.20457  0.51644  0.45545  1.0000
  C   C13       1.0  0.28494  0.76380  0.00971  1.0000
  C   C14       1.0  0.29123  0.73264  0.02948  1.0000
  C   C15       1.0  0.41295  0.67777  0.44950  1.0000
  C   C16       1.0  0.32726  0.73267  0.44916  1.0000
  C   C17       1.0  0.27139  0.59281  0.46847  1.0000
  C   C18       1.0  0.54440  0.67744  0.38168  1.0000
  C   C19       1.0  0.32342  0.86055  0.35862  1.0000
  C   C20       1.0  0.13770  0.46101  0.41467  1.0000
  C   C21       1.0  0.49457  0.60724  0.46179  1.0000
  C   C22       1.0  0.48376  0.56776  0.45495  1.0000
  C   C23       1.0  0.50806  0.55491  0.38092  1.0000
  C   C24       1.0  0.54424  0.58292  0.31811  1.0000
  C   C25       1.0  0.55468  0.62218  0.32335  1.0000
  C   C26       1.0  0.52985  0.63517  0.39152  1.0000
  C   C27       1.0  0.52128  0.49918  0.41480  1.0000
  C   C28       1.0  0.49975  0.02261  0.37825  1.0000
  C   C29       1.0  0.97912  0.47887  0.38185  1.0000
  C   C30       1.0  0.51213  0.45914  0.37468  1.0000
  C   C31       1.0  0.53906  0.05394  0.34143  1.0000
  C   C32       1.0  0.94754  0.48667  0.34456  1.0000
  C   C33       1.0  0.47744  0.43211  0.27639  1.0000
  C   C34       1.0  0.56636  0.04558  0.25528  1.0000
  C   C35       1.0  0.95547  0.52137  0.26336  1.0000
  C   C36       1.0  0.45278  0.44647  0.23399  1.0000
  C   C37       1.0  0.55260  0.00581  0.21870  1.0000
  C   C38       1.0  0.99510  0.54678  0.23208  1.0000
  C   C39       1.0  0.46153  0.48535  0.27547  1.0000
  C   C40       1.0  0.51446  0.97538  0.25645  1.0000
  C   C41       1.0  0.02586  0.53944  0.27178  1.0000
  C   C42       1.0  0.49608  0.51302  0.36019  1.0000
  C   C43       1.0  0.48663  0.98249  0.33133  1.0000
  C   C44       1.0  0.01901  0.50532  0.34188  1.0000
  C   C45       1.0  0.63605  0.06818  0.16932  1.0000
  C   C46       1.0  0.93340  0.56718  0.16947  1.0000
  C   C47       1.0  0.67204  0.09673  0.11169  1.0000
  C   C48       1.0  0.90531  0.57363  0.09545  1.0000
  C   C49       1.0  0.67959  0.13492  0.08407  1.0000
  C   C50       1.0  0.86683  0.54247  0.05326  1.0000
  C   C51       1.0  0.64905  0.14280  0.11936  1.0000
  C   C52       1.0  0.85771  0.50471  0.09479  1.0000
  C   C53       1.0  0.61326  0.11451  0.17834  1.0000
  C   C54       1.0  0.88561  0.49823  0.16996  1.0000
  C   C55       1.0  0.60542  0.07622  0.20325  1.0000
  C   C56       1.0  0.92451  0.52904  0.20522  1.0000
  C   C57       1.0  0.44607  0.28099  0.99275  1.0000
  C   C58       1.0  0.71913  0.16312  0.02670  1.0000
  C   C59       1.0  0.83989  0.55278  0.97176  1.0000
  C   C60       1.0  0.52120  0.25735  0.05573  1.0000
  C   C61       1.0  0.74463  0.26297  0.09691  1.0000
  C   C62       1.0  0.56145  0.27048  0.05853  1.0000
  C   C63       1.0  0.73188  0.29011  0.09457  1.0000
  C   C64       1.0  0.58799  0.30519  0.98382  1.0000
  C   C65       1.0  0.69659  0.28078  0.00976  1.0000
  C   C66       1.0  0.66796  0.24433  0.41725  1.0000
  C   C67       1.0  0.68049  0.21720  0.41887  1.0000
  C   C68       1.0  0.50632  0.27856  0.97651  1.0000
  C   C69       1.0  0.72245  0.22568  0.01273  1.0000
  C   C70       1.0  0.63066  0.31979  0.98844  1.0000
  C   C71       1.0  0.68227  0.30878  0.00325  1.0000
  C   C72       1.0  0.69373  0.37073  0.97704  1.0000
  C   C73       1.0  0.37027  0.67305  0.96789  1.0000
  C   C74       1.0  0.32974  0.69881  0.97057  1.0000
  C   C75       1.0  0.30359  0.63267  0.97056  1.0000
  C   C76       1.0  0.35046  0.76475  0.86992  1.0000
  C   C77       1.0  0.34352  0.79537  0.84539  1.0000
  C   C78       1.0  0.31085  0.79572  0.91690  1.0000
  C   C79       1.0  0.48327  0.71671  0.51335  1.0000
  C   C80       1.0  0.28851  0.76415  0.50086  1.0000
  C   C81       1.0  0.23988  0.52496  0.53985  1.0000
  C   C82       1.0  0.44555  0.71135  0.52525  1.0000
  C   C83       1.0  0.29441  0.73267  0.51880  1.0000
  C   C84       1.0  0.27289  0.56238  0.54477  1.0000
  C   C85       1.0  0.32411  0.73277  0.95984  1.0000
  C   C86       1.0  0.54275  0.68089  0.87890  1.0000
  C   C87       1.0  0.31934  0.85905  0.85632  1.0000
  C   C88       1.0  0.13859  0.45850  0.90316  1.0000
  C   C89       1.0  0.11463  0.50726  0.97768  1.0000
  C   C90       1.0  0.08481  0.51643  0.96411  1.0000
  C   C91       1.0  0.04854  0.49016  0.88160  1.0000
  C   C92       1.0  0.04261  0.45391  0.81534  1.0000
  C   C93       1.0  0.07261  0.44509  0.82731  1.0000
  C   C94       1.0  0.10947  0.47170  0.90506  1.0000
  C   C95       1.0  0.52238  0.50350  0.91603  1.0000
  C   C96       1.0  0.49444  0.02173  0.89749  1.0000
  C   C97       1.0  0.97731  0.47379  0.89467  1.0000
  C   C98       1.0  0.51279  0.46311  0.88057  1.0000
  C   C99       1.0  0.53351  0.05396  0.86445  1.0000
  C   C100      1.0  0.94608  0.48216  0.85663  1.0000
  C   C101      1.0  0.47705  0.43525  0.78988  1.0000
  C   C102      1.0  0.56144  0.04687  0.77690  1.0000
  C   C103      1.0  0.95466  0.51740  0.77800  1.0000
  C   C104      1.0  0.45202  0.44947  0.75128  1.0000
  C   C105      1.0  0.54868  0.00747  0.73618  1.0000
  C   C106      1.0  0.99453  0.54260  0.75005  1.0000
  C   C107      1.0  0.46103  0.48855  0.78949  1.0000
  C   C108      1.0  0.51088  0.97616  0.77105  1.0000
  C   C109      1.0  0.02485  0.53473  0.79031  1.0000
  C   C110      1.0  0.49653  0.51697  0.86556  1.0000
  C   C111      1.0  0.48238  0.98209  0.84612  1.0000
  C   C112      1.0  0.01749  0.50018  0.85788  1.0000
  C   C113      1.0  0.42958  0.36554  0.68428  1.0000
  C   C114      1.0  0.42245  0.32989  0.61027  1.0000
  C   C115      1.0  0.45341  0.32224  0.57774  1.0000
  C   C116      1.0  0.49174  0.35178  0.63016  1.0000
  C   C117      1.0  0.49894  0.38724  0.70521  1.0000
  C   C118      1.0  0.46832  0.39566  0.73037  1.0000
  C   C119      1.0  0.44233  0.28376  0.49491  1.0000
  C   C120      1.0  0.71134  0.16352  0.52611  1.0000
  C   C121      1.0  0.84278  0.55205  0.47141  1.0000
  C   C122      1.0  0.73919  0.26413  0.58047  1.0000
  C   C123      1.0  0.72698  0.29160  0.57580  1.0000
  C   C124      1.0  0.69100  0.28182  0.49617  1.0000
  C   C125      1.0  0.57318  0.32579  0.90105  1.0000
  C   C126      1.0  0.67485  0.24396  0.92366  1.0000
  C   C127      1.0  0.53294  0.31216  0.89464  1.0000
  C   C128      1.0  0.68808  0.21733  0.92234  1.0000
  C   C129      1.0  0.71566  0.22614  0.50431  1.0000
  C   C130      1.0  0.62664  0.32266  0.47998  1.0000
  C   C131      1.0  0.67732  0.31021  0.49017  1.0000
  C   C132      1.0  0.69023  0.37292  0.47364  1.0000
  S   S1        1.0  0.57273  0.49201  0.53713  1.0000
  S   S2        1.0  0.50589  0.08273  0.48947  1.0000
  S   S3        1.0  0.91959  0.42609  0.48010  1.0000
  S   S4        1.0  0.57476  0.49706  0.03369  1.0000
  S   S5        1.0  0.49859  0.08061  0.01404  1.0000
  S   S6        1.0  0.91692  0.42066  0.98612  1.0000
  N   N1        1.0  0.52913  0.69960  0.40053  1.0000
  N   N2        1.0  0.30288  0.82356  0.38196  1.0000
  N   N3        1.0  0.17525  0.47685  0.44137  1.0000
  N   N4        1.0  0.46556  0.26303  0.96545  1.0000
  N   N5        1.0  0.73763  0.20036  0.00653  1.0000
  N   N6        1.0  0.80268  0.53350  0.93264  1.0000
  N   N7        1.0  0.55515  0.52090  0.50725  1.0000
  N   N8        1.0  0.47800  0.03529  0.46238  1.0000
  N   N9        1.0  0.96692  0.44517  0.45940  1.0000
  N   N10       1.0  0.53951  0.45164  0.43857  1.0000
  N   N11       1.0  0.54581  0.08970  0.39924  1.0000
  N   N12       1.0  0.91205  0.45842  0.39569  1.0000
  N   N13       1.0  0.30000  0.66297  0.46650  1.0000
  N   N14       1.0  0.34221  0.63545  0.46318  1.0000
  N   N15       1.0  0.36996  0.70497  0.45847  1.0000
  N   N16       1.0  0.65492  0.35863  0.97450  1.0000
  N   N17       1.0  0.64280  0.29361  0.00353  1.0000
  N   N18       1.0  0.70915  0.34710  0.99209  1.0000
  N   N19       1.0  0.52679  0.70243  0.89738  1.0000
  N   N20       1.0  0.29856  0.82227  0.88277  1.0000
  N   N21       1.0  0.17631  0.47541  0.92778  1.0000
  N   N22       1.0  0.46153  0.26598  0.45650  1.0000
  N   N23       1.0  0.73030  0.20047  0.50072  1.0000
  N   N24       1.0  0.80544  0.53404  0.43475  1.0000
  N   N25       1.0  0.55702  0.52575  0.00259  1.0000
  N   N26       1.0  0.47176  0.03317  0.98227  1.0000
  N   N27       1.0  0.96438  0.43959  0.96904  1.0000
  N   N28       1.0  0.54067  0.45606  0.94232  1.0000
  N   N29       1.0  0.53923  0.08914  0.92558  1.0000
  N   N30       1.0  0.91023  0.45374  0.90371  1.0000
  N   N31       1.0  0.29698  0.66302  0.97104  1.0000
  N   N32       1.0  0.33959  0.63597  0.96717  1.0000
  N   N33       1.0  0.36704  0.70553  0.97250  1.0000
  N   N34       1.0  0.65157  0.36167  0.47292  1.0000
  N   N35       1.0  0.63798  0.29574  0.48852  1.0000
  N   N36       1.0  0.70474  0.34843  0.48364  1.0000
  C   C133      1.0  0.40400  0.95243  0.27985  1.0000
  C   C134      1.0  0.43809  0.95507  0.34855  1.0000
  C  Sn1       1.0  0.43593  0.92342  0.42781  1.0000
  C  Sn2       1.0  0.39893  0.88851  0.43825  1.0000
  C   C135      1.0  0.36500  0.88615  0.36902  1.0000
  C   C136      1.0  0.36749  0.91801  0.29003  1.0000
  H   H73       1.0  0.40593  0.97707  0.21865  1.0000
  O  Te1       1.0  0.47028  0.92656  0.49583  1.0000
  O  Te2       1.0  0.39593  0.85643  0.51671  1.0000
  H   H74       1.0  0.34110  0.91594  0.23676  1.0000
  Mg  Mg1       1.0  0.45108  0.87490  0.59031  1.0000
  C   C137      1.0  0.91746  0.57540  0.61889  1.0000
  C   C138      1.0  0.87899  0.54894  0.55992  1.0000
  C  Sn3       1.0  0.86149  0.50917  0.59010  1.0000
  C  Sn4       1.0  0.88297  0.49574  0.68106  1.0000
  C   C139      1.0  0.92143  0.52245  0.73962  1.0000
  C   C140      1.0  0.93866  0.56217  0.70868  1.0000
  H   H75       1.0  0.93079  0.60614  0.59503  1.0000
  O  Te3       1.0  0.82303  0.48313  0.53024  1.0000
  O  Te4       1.0  0.86618  0.45615  0.71304  1.0000
  H   H76       1.0  0.96844  0.58266  0.75444  1.0000
  Mg  Mg2       1.0  0.81293  0.43201  0.60562  1.0000
  C   C141      1.0  0.73126  0.47641  0.53137  1.0000
  C   C142      1.0  0.76959  0.49248  0.47331  1.0000
  C  Sn5       1.0  0.78208  0.46823  0.39652  1.0000
  C  Sn6       1.0  0.75564  0.42714  0.37765  1.0000
  C   C143      1.0  0.71735  0.41135  0.43605  1.0000
  C   C144      1.0  0.70516  0.43589  0.51275  1.0000
  H   H77       1.0  0.72182  0.49540  0.59064  1.0000
  O  Te5       1.0  0.82048  0.48476  0.33928  1.0000
  O  Te6       1.0  0.76735  0.40223  0.30131  1.0000
  H   H78       1.0  0.67548  0.42345  0.55760  1.0000
  Mg  Mg3       1.0  0.82265  0.43869  0.24374  1.0000
  C   C145      1.0  0.20611  0.55606  0.86338  1.0000
  C   C146      1.0  0.20403  0.52195  0.91647  1.0000
  C  Sn7       1.0  0.22767  0.50997  0.00940  1.0000
  C  Sn8       1.0  0.26162  0.54709  0.04976  1.0000
  C   C147      1.0  0.27106  0.59525  0.99616  1.0000
  C   C148      1.0  0.23959  0.59268  0.90319  1.0000
  H   H79       1.0  0.18176  0.55408  0.79152  1.0000
  O  Te7       1.0  0.22511  0.47560  0.06140  1.0000
  O  Te8       1.0  0.29331  0.55016  0.14253  1.0000
  H   H80       1.0  0.24120  0.61911  0.86219  1.0000
  Mg  Mg4       1.0  0.27592  0.49493  0.18494  1.0000
  C   C149      1.0  0.55102  0.59713  0.80710  1.0000
  C   C150      1.0  0.51871  0.56555  0.87607  1.0000
  C  Sn9       1.0  0.48963  0.57076  0.95310  1.0000
  C  Sn10      1.0  0.49304  0.60832  0.96099  1.0000
  C   C151      1.0  0.52546  0.63972  0.89151  1.0000
  C   C152      1.0  0.55439  0.63419  0.81477  1.0000
  H   H81       1.0  0.57339  0.59285  0.74765  1.0000
  O  Te9       1.0  0.44989  0.52469  0.02142  1.0000
  O  Te10      1.0  0.45674  0.60014  0.03718  1.0000
  H   H82       1.0  0.57939  0.65864  0.76129  1.0000
  Mg  Mg5       1.0  0.41851  0.54760  0.11221  1.0000
  C   C153      1.0  0.52488  0.25633  0.54191  1.0000
  C   C154      1.0  0.50527  0.27546  0.48983  1.0000
  C  Sn11      1.0  0.52620  0.31173  0.41914  1.0000
  C  Sn12      1.0  0.56754  0.32909  0.40037  1.0000
  C   C155      1.0  0.58689  0.30971  0.45277  1.0000
  C   C156      1.0  0.56565  0.27343  0.52339  1.0000
  H   H83       1.0  0.50845  0.22825  0.59647  1.0000
  O  Te11      1.0  0.50615  0.33045  0.36782  1.0000
  O  Te12      1.0  0.58919  0.36532  0.33007  1.0000
  H   H84       1.0  0.58084  0.25861  0.56360  1.0000
  Mg  Mg6       1.0  0.54858  0.37939  0.27924  1.0000
  C   C157      1.0  0.40294  0.88872  0.95035  1.0000
  C   C158      1.0  0.36855  0.88808  0.89870  1.0000
  C  Sn13      1.0  0.37091  0.91960  0.81763  1.0000
  C  Sn14      1.0  0.40843  0.95234  0.78785  1.0000
  C   C159      1.0  0.44266  0.95269  0.83991  1.0000
  C   C160      1.0  0.43996  0.92099  0.92097  1.0000
  H   H85       1.0  0.39320  0.84998  0.01299  1.0000
  O  Te13      1.0  0.33625  0.91849  0.76692  1.0000
  O  Te14      1.0  0.41164  0.98423  0.70704  1.0000
  H   H86       1.0  0.46660  0.92148  0.96085  1.0000
  Mg  Mg7       1.0  0.35592  0.96902  0.66159  1.0000
  C   C161      1.0  0.09471  0.52279  0.47987  1.0000
  C   C162      1.0  0.05961  0.50340  0.38384  1.0000
  C  Sn15      1.0  0.04809  0.46715  0.30080  1.0000
  C  Sn16      1.0  0.07223  0.45005  0.31442  1.0000
  C   C163      1.0  0.10729  0.46967  0.41090  1.0000
  C   C164      1.0  0.11853  0.50594  0.49343  1.0000
  H   H87       1.0  0.10341  0.55085  0.54381  1.0000
  O  Te15      1.0  0.01293  0.44818  0.20533  1.0000
  O  Te16      1.0  0.06142  0.41384  0.23279  1.0000
  H   H88       1.0  0.14570  0.52093  0.56786  1.0000
  Mg  Mg8       1.0  0.01082  0.39937  0.11746  1.0000
  C   C165      1.0  0.63168  0.14114  0.64452  1.0000
  C   C166      1.0  0.66564  0.13967  0.60546  1.0000
  C  Sn17      1.0  0.66673  0.10519  0.62242  1.0000
  C  Sn18      1.0  0.63313  0.07160  0.67953  1.0000
  C   C167      1.0  0.59928  0.07336  0.71817  1.0000
  C   C168      1.0  0.59852  0.10801  0.70079  1.0000
  H   H89       1.0  0.63108  0.16794  0.63100  1.0000
  O  Te17      1.0  0.70091  0.10423  0.58290  1.0000
  O  Te18      1.0  0.63341  0.03675  0.69756  1.0000
  H   H90       1.0  0.57221  0.10913  0.73094  1.0000
  Mg  Mg9       1.0  0.68692  0.04996  0.62795  1.0000
  C   C169      1.0  0.50200  0.36132  0.12489  1.0000
  C   C170      1.0  0.46649  0.32688  0.08202  1.0000
  C  Sn19      1.0  0.43052  0.32575  0.10109  1.0000
  C  Sn20      1.0  0.43020  0.35979  0.16424  1.0000
  C   C171      1.0  0.46589  0.39411  0.20666  1.0000
  C   C172      1.0  0.50171  0.39491  0.18713  1.0000
  H   H91       1.0  0.52972  0.36195  0.10970  1.0000
  O  Te19      1.0  0.39531  0.29109  0.05770  1.0000
  O  Te20      1.0  0.39467  0.35948  0.18449  1.0000
  H   H92       1.0  0.52920  0.42159  0.22023  1.0000
  Mg  Mg10      1.0  0.35443  0.30523  0.10788  1.0000
  C   C173      1.0  0.42340  0.64937  0.83686  1.0000
  C   C174      1.0  0.41066  0.66965  0.94281  1.0000
  C  Sn21      1.0  0.43046  0.68943  0.03497  1.0000
  C  Sn22      1.0  0.47141  0.70330  0.02050  1.0000
  C   C175      1.0  0.49151  0.69701  0.91408  1.0000
  C   C176      1.0  0.46378  0.66303  0.82247  1.0000
  H   H93       1.0  0.40195  0.62309  0.76591  1.0000
  O  Te21      1.0  0.41723  0.70933  0.14028  1.0000
  O  Te22      1.0  0.49948  0.73719  0.11113  1.0000
  H   H94       1.0  0.47365  0.64735  0.74037  1.0000
  Mg  Mg11      1.0  0.46687  0.75410  0.23810  1.0000
  C   C177      1.0  0.71696  0.45160  0.04833  1.0000
  C   C178      1.0  0.72481  0.43358  0.96920  1.0000
  C  Sn23      1.0  0.75710  0.43894  0.87668  1.0000
  C  Sn24      1.0  0.78976  0.47732  0.86341  1.0000
  C   C179      1.0  0.78929  0.50937  0.94314  1.0000
  C   C180      1.0  0.74917  0.48946  0.03536  1.0000
  H   H95       1.0  0.69185  0.44719  0.11975  1.0000
  O  Te23      1.0  0.75681  0.40642  0.79836  1.0000
  O  Te24      1.0  0.82242  0.48352  0.77179  1.0000
  H   H96       1.0  0.74904  0.51441  0.09670  1.0000
  Mg  Mg12      1.0  0.80817  0.42988  0.68760  1.0000
