data_image0
_chemical_formula_structural       H72C132S6N36SnCSn2CSnTe4Mg2SnCSn2CSnTe4Mg2SnCSn2CSnTe4Mg2SnCSn2CSnTe4Mg2SnCSn2CSnTe4Mg2SnCSn2CSnTe4Mg2SnCSn2CSnTe4Mg2SnCSn2CSnTe4Mg2SnCSn2CSnTe4Mg2SnCSn2CSnTe4Mg2SnCSn2CSnTe4Mg2SnCSn2CSnTe4Mg2
_chemical_formula_sum              "H72 C156 S6 N36 Sn48 Te48 Mg24"
_cell_length_a       39.2016
_cell_length_b       39.4937
_cell_length_c       8.04901
_cell_angle_alpha    92.9207
_cell_angle_beta     90.1279
_cell_angle_gamma    120.192

_symmetry_space_group_name_H-M    'P1'
_space_group_IT_number       1

loop_
  _space_group_symop_operation_xyz
  'x, y, z'

loop_
  _atom_site_type_symbol
  _atom_site_label
  _atom_site_symmetry_multiplicity
  _atom_site_fract_x
  _atom_site_fract_y
  _atom_site_fract_z
  _atom_site_occupancy
  H   H1        1.0  0.39396  0.62458  0.29724  1.0000
  H   H2        1.0  0.23561  0.60822  0.32339  1.0000
  H   H3        1.0  0.46170  0.63537  0.26576  1.0000
  H   H4        1.0  0.17753  0.54075  0.30359  1.0000
  H   H5        1.0  0.25983  0.76424  0.06449  1.0000
  H   H6        1.0  0.27108  0.70792  0.09991  1.0000
  H   H7        1.0  0.57562  0.69345  0.34946  1.0000
  H   H8        1.0  0.30532  0.87314  0.32217  1.0000
  H   H9        1.0  0.12269  0.42901  0.39053  1.0000
  H   H10       1.0  0.47387  0.61954  0.01532  1.0000
  H   H11       1.0  0.45636  0.54650  0.50952  1.0000
  H   H12       1.0  0.56319  0.57342  0.25910  1.0000
  H   H13       1.0  0.58232  0.64350  0.27032  1.0000
  H   H14       1.0  0.42674  0.42784  0.15480  1.0000
  H   H15       1.0  0.57140  0.99760  0.14949  1.0000
  H   H16       1.0  0.00270  0.57273  0.16488  1.0000
  H   H17       1.0  0.44167  0.49471  0.22890  1.0000
  H   H18       1.0  0.50598  0.94529  0.21732  1.0000
  H   H19       1.0  0.05576  0.56043  0.23753  1.0000
  H   H20       1.0  0.96259  0.59206  0.20119  1.0000
  H   H21       1.0  0.91301  0.60336  0.06847  1.0000
  H   H22       1.0  0.82871  0.47976  0.06360  1.0000
  H   H23       1.0  0.87743  0.46860  0.19853  1.0000
  H   H24       1.0  0.41431  0.26265  0.96368  1.0000
  H   H25       1.0  0.73721  0.14944  0.00346  1.0000
  H   H26       1.0  0.85472  0.58384  0.94380  1.0000
  H   H27       1.0  0.50070  0.23101  0.11663  1.0000
  H   H28       1.0  0.73557  0.50318  0.08551  1.0000
  H   H29       1.0  0.57320  0.25453  0.12088  1.0000
  H   H30       1.0  0.68642  0.43158  0.09912  1.0000
  H   H31       1.0  0.64064  0.23729  0.35218  1.0000
  H   H32       1.0  0.66348  0.18868  0.35322  1.0000
  H   H33       1.0  0.37527  0.76418  0.81249  1.0000
  H   H34       1.0  0.36231  0.81832  0.76442  1.0000
  H   H35       1.0  0.50867  0.74238  0.57298  1.0000
  H   H36       1.0  0.24049  0.50122  0.59994  1.0000
  H   H37       1.0  0.44068  0.73291  0.59396  1.0000
  H   H38       1.0  0.30009  0.56870  0.60898  1.0000
  H   H39       1.0  0.57395  0.69739  0.84648  1.0000
  H   H40       1.0  0.30157  0.87154  0.81412  1.0000
  H   H41       1.0  0.12460  0.42686  0.87118  1.0000
  H   H42       1.0  0.47543  0.61639  0.52118  1.0000
  H   H43       1.0  0.45596  0.54999  0.00967  1.0000
  H   H44       1.0  0.56344  0.57772  0.76305  1.0000
  H   H45       1.0  0.58190  0.64766  0.77257  1.0000
  H   H46       1.0  0.42498  0.43026  0.67873  1.0000
  H   H47       1.0  0.56805  0.00034  0.66533  1.0000
  H   H48       1.0  0.00278  0.56893  0.68463  1.0000
  H   H49       1.0  0.44028  0.49728  0.74796  1.0000
  H   H50       1.0  0.50312  0.94646  0.72851  1.0000
  H   H51       1.0  0.05494  0.55574  0.75846  1.0000
  H   H52       1.0  0.40471  0.36993  0.70797  1.0000
  H   H53       1.0  0.62663  0.04153  0.70443  1.0000
  H   H54       1.0  0.96421  0.58861  0.70570  1.0000
  H   H55       1.0  0.39226  0.30715  0.57599  1.0000
  H   H56       1.0  0.68831  0.09146  0.58969  1.0000
  H   H57       1.0  0.91644  0.60109  0.56547  1.0000
  H   H58       1.0  0.51662  0.34757  0.60723  1.0000
  H   H59       1.0  0.64534  0.17262  0.60991  1.0000
  H   H60       1.0  0.82896  0.47875  0.57274  1.0000
  H   H61       1.0  0.52905  0.40932  0.74125  1.0000
  H   H62       1.0  0.58477  0.12360  0.73053  1.0000
  H   H63       1.0  0.87574  0.46646  0.71871  1.0000
  H   H64       1.0  0.41056  0.26623  0.46418  1.0000
  H   H65       1.0  0.72879  0.14916  0.50328  1.0000
  H   H66       1.0  0.85866  0.58284  0.43928  1.0000
  H   H67       1.0  0.76655  0.27112  0.64504  1.0000
  H   H68       1.0  0.74469  0.32077  0.63639  1.0000
  H   H69       1.0  0.59365  0.35206  0.83942  1.0000
  H   H70       1.0  0.76190  0.40298  0.81365  1.0000
  H   H71       1.0  0.52127  0.32719  0.82569  1.0000
  H   H72       1.0  0.80984  0.47417  0.79560  1.0000
  C   C1        1.0  0.37300  0.67241  0.45876  1.0000
  C   C2        1.0  0.33276  0.69858  0.46028  1.0000
  C   C3        1.0  0.30635  0.63244  0.46775  1.0000
  C   C4        1.0  0.41914  0.65003  0.35932  1.0000
  C   C5        1.0  0.23624  0.58474  0.38577  1.0000
  C   C6        1.0  0.45703  0.65594  0.34305  1.0000
  C   C7        1.0  0.20359  0.54705  0.37660  1.0000
  C   C8        1.0  0.48978  0.68908  0.42251  1.0000
  C   C9        1.0  0.20457  0.51644  0.45545  1.0000
  C   C10       1.0  0.28494  0.76380  0.00971  1.0000
  C   C11       1.0  0.29123  0.73264  0.02948  1.0000
  C   C12       1.0  0.41295  0.67777  0.44950  1.0000
  C   C13       1.0  0.27139  0.59281  0.46847  1.0000
  C   C14       1.0  0.54440  0.67744  0.38168  1.0000
  C   C15       1.0  0.32342  0.86055  0.35862  1.0000
  C   C16       1.0  0.13770  0.46101  0.41467  1.0000
  C   C17       1.0  0.49457  0.60724  0.46179  1.0000
  C   C18       1.0  0.48376  0.56776  0.45495  1.0000
  C   C19       1.0  0.50806  0.55491  0.38092  1.0000
  C   C20       1.0  0.54424  0.58292  0.31811  1.0000
  C   C21       1.0  0.55468  0.62218  0.32335  1.0000
  C   C22       1.0  0.52985  0.63517  0.39152  1.0000
  C   C23       1.0  0.52128  0.49918  0.41480  1.0000
  C   C24       1.0  0.49975  0.02261  0.37825  1.0000
  C   C25       1.0  0.97912  0.47887  0.38185  1.0000
  C   C26       1.0  0.51213  0.45914  0.37468  1.0000
  C   C27       1.0  0.53906  0.05394  0.34143  1.0000
  C   C28       1.0  0.94754  0.48667  0.34456  1.0000
  C   C29       1.0  0.47744  0.43211  0.27639  1.0000
  C   C30       1.0  0.56636  0.04558  0.25528  1.0000
  C   C31       1.0  0.95547  0.52137  0.26336  1.0000
  C   C32       1.0  0.45278  0.44647  0.23399  1.0000
  C   C33       1.0  0.55260  0.00581  0.21870  1.0000
  C   C34       1.0  0.99510  0.54678  0.23208  1.0000
  C   C35       1.0  0.46153  0.48535  0.27547  1.0000
  C   C36       1.0  0.51446  0.97538  0.25645  1.0000
  C   C37       1.0  0.02586  0.53944  0.27178  1.0000
  C   C38       1.0  0.49608  0.51302  0.36019  1.0000
  C   C39       1.0  0.48663  0.98249  0.33133  1.0000
  C   C40       1.0  0.01901  0.50532  0.34188  1.0000
  C   C41       1.0  0.93340  0.56718  0.16947  1.0000
  C   C42       1.0  0.90531  0.57363  0.09545  1.0000
  C   C43       1.0  0.86683  0.54247  0.05326  1.0000
  C   C44       1.0  0.85771  0.50471  0.09479  1.0000
  C   C45       1.0  0.88561  0.49823  0.16996  1.0000
  C   C46       1.0  0.92451  0.52904  0.20522  1.0000
  C   C47       1.0  0.44607  0.28099  0.99275  1.0000
  C   C48       1.0  0.71913  0.16312  0.02670  1.0000
  C   C49       1.0  0.83989  0.55278  0.97176  1.0000
  C   C50       1.0  0.52120  0.25735  0.05573  1.0000
  C   C51       1.0  0.74092  0.48106  0.02559  1.0000
  C   C52       1.0  0.56145  0.27048  0.05853  1.0000
  C   C53       1.0  0.71367  0.44126  0.03309  1.0000
  C   C54       1.0  0.58799  0.30519  0.98382  1.0000
  C   C55       1.0  0.72148  0.41277  0.96120  1.0000
  C   C56       1.0  0.66796  0.24433  0.41725  1.0000
  C   C57       1.0  0.68049  0.21720  0.41887  1.0000
  C   C58       1.0  0.50632  0.27856  0.97651  1.0000
  C   C59       1.0  0.77672  0.49335  0.94455  1.0000
  C   C60       1.0  0.63066  0.31979  0.98844  1.0000
  C   C61       1.0  0.68227  0.30878  0.00325  1.0000
  C   C62       1.0  0.69373  0.37073  0.97704  1.0000
  C   C63       1.0  0.37027  0.67305  0.96789  1.0000
  C   C64       1.0  0.32974  0.69881  0.97057  1.0000
  C   C65       1.0  0.30359  0.63267  0.97056  1.0000
  C   C66       1.0  0.35046  0.76475  0.86992  1.0000
  C   C67       1.0  0.34352  0.79537  0.84539  1.0000
  C   C68       1.0  0.31085  0.79572  0.91690  1.0000
  C   C69       1.0  0.48327  0.71671  0.51335  1.0000
  C   C70       1.0  0.23988  0.52496  0.53985  1.0000
  C   C71       1.0  0.44555  0.71135  0.52525  1.0000
  C   C72       1.0  0.27289  0.56238  0.54477  1.0000
  C   C73       1.0  0.32411  0.73277  0.95984  1.0000
  C   C74       1.0  0.54275  0.68089  0.87890  1.0000
  C   C75       1.0  0.31934  0.85905  0.85632  1.0000
  C   C76       1.0  0.13859  0.45850  0.90316  1.0000
  C   C77       1.0  0.49356  0.61065  0.95959  1.0000
  C   C78       1.0  0.48334  0.57134  0.95530  1.0000
  C   C79       1.0  0.50812  0.55879  0.88354  1.0000
  C   C80       1.0  0.54422  0.58703  0.82086  1.0000
  C   C81       1.0  0.55425  0.62619  0.82500  1.0000
  C   C82       1.0  0.52891  0.63881  0.89055  1.0000
  C   C83       1.0  0.52238  0.50350  0.91603  1.0000
  C   C84       1.0  0.49444  0.02173  0.89749  1.0000
  C   C85       1.0  0.97731  0.47379  0.89467  1.0000
  C   C86       1.0  0.51279  0.46311  0.88057  1.0000
  C   C87       1.0  0.53351  0.05396  0.86445  1.0000
  C   C88       1.0  0.94608  0.48216  0.85663  1.0000
  C   C89       1.0  0.47705  0.43525  0.78988  1.0000
  C   C90       1.0  0.56144  0.04687  0.77690  1.0000
  C   C91       1.0  0.95466  0.51740  0.77800  1.0000
  C   C92       1.0  0.45202  0.44947  0.75128  1.0000
  C   C93       1.0  0.54868  0.00747  0.73618  1.0000
  C   C94       1.0  0.99453  0.54260  0.75005  1.0000
  C   C95       1.0  0.46103  0.48855  0.78949  1.0000
  C   C96       1.0  0.51088  0.97616  0.77105  1.0000
  C   C97       1.0  0.02485  0.53473  0.79031  1.0000
  C   C98       1.0  0.49653  0.51697  0.86556  1.0000
  C   C99       1.0  0.48238  0.98209  0.84612  1.0000
  C   C100      1.0  0.01749  0.50018  0.85788  1.0000
  C   C101      1.0  0.42958  0.36554  0.68428  1.0000
  C   C102      1.0  0.63024  0.07006  0.68264  1.0000
  C   C103      1.0  0.93470  0.56415  0.67549  1.0000
  C   C104      1.0  0.42245  0.32989  0.61027  1.0000
  C   C105      1.0  0.66528  0.09839  0.61829  1.0000
  C   C106      1.0  0.90759  0.57136  0.59730  1.0000
  C   C107      1.0  0.45341  0.32224  0.57774  1.0000
  C   C108      1.0  0.67218  0.13624  0.58937  1.0000
  C   C109      1.0  0.86873  0.54090  0.55585  1.0000
  C   C110      1.0  0.49174  0.35178  0.63016  1.0000
  C   C111      1.0  0.64196  0.14424  0.63155  1.0000
  C   C112      1.0  0.85829  0.50318  0.60327  1.0000
  C   C113      1.0  0.49894  0.38724  0.70521  1.0000
  C   C114      1.0  0.60716  0.11616  0.69868  1.0000
  C   C115      1.0  0.88511  0.49599  0.68387  1.0000
  C   C116      1.0  0.46832  0.39566  0.73037  1.0000
  C   C117      1.0  0.59992  0.07805  0.72316  1.0000
  C   C118      1.0  0.92449  0.52595  0.71715  1.0000
  C   C119      1.0  0.44233  0.28376  0.49491  1.0000
  C   C120      1.0  0.71134  0.16352  0.52611  1.0000
  C   C121      1.0  0.84278  0.55205  0.47141  1.0000
  C   C122      1.0  0.73919  0.26413  0.58047  1.0000
  C   C123      1.0  0.72698  0.29160  0.57580  1.0000
  C   C124      1.0  0.69100  0.28182  0.49617  1.0000
  C   C125      1.0  0.57318  0.32579  0.90105  1.0000
  C   C126      1.0  0.75637  0.42493  0.87452  1.0000
  C   C127      1.0  0.53294  0.31216  0.89464  1.0000
  C   C128      1.0  0.78311  0.46462  0.86408  1.0000
  C   C129      1.0  0.71566  0.22614  0.50431  1.0000
  C   C130      1.0  0.62664  0.32266  0.47998  1.0000
  C   C131      1.0  0.67732  0.31021  0.49017  1.0000
  C   C132      1.0  0.69023  0.37292  0.47364  1.0000
  S   S1        1.0  0.57273  0.49201  0.53713  1.0000
  S   S2        1.0  0.50589  0.08273  0.48947  1.0000
  S   S3        1.0  0.91959  0.42609  0.48010  1.0000
  S   S4        1.0  0.57476  0.49706  0.03369  1.0000
  S   S5        1.0  0.49859  0.08061  0.01404  1.0000
  S   S6        1.0  0.91692  0.42066  0.98612  1.0000
  N   N1        1.0  0.52913  0.69960  0.40053  1.0000
  N   N2        1.0  0.30288  0.82356  0.38196  1.0000
  N   N3        1.0  0.17525  0.47685  0.44137  1.0000
  N   N4        1.0  0.46556  0.26303  0.96545  1.0000
  N   N5        1.0  0.73763  0.20036  0.00653  1.0000
  N   N6        1.0  0.80268  0.53350  0.93264  1.0000
  N   N7        1.0  0.55515  0.52090  0.50725  1.0000
  N   N8        1.0  0.47800  0.03529  0.46238  1.0000
  N   N9        1.0  0.96692  0.44517  0.45940  1.0000
  N   N10       1.0  0.53951  0.45164  0.43857  1.0000
  N   N11       1.0  0.54581  0.08970  0.39924  1.0000
  N   N12       1.0  0.91205  0.45842  0.39569  1.0000
  N   N13       1.0  0.30000  0.66297  0.46650  1.0000
  N   N14       1.0  0.34221  0.63545  0.46318  1.0000
  N   N15       1.0  0.36996  0.70497  0.45847  1.0000
  N   N16       1.0  0.65492  0.35863  0.97450  1.0000
  N   N17       1.0  0.64280  0.29361  0.00353  1.0000
  N   N18       1.0  0.70915  0.34710  0.99209  1.0000
  N   N19       1.0  0.52679  0.70243  0.89738  1.0000
  N   N20       1.0  0.29856  0.82227  0.88277  1.0000
  N   N21       1.0  0.17631  0.47541  0.92778  1.0000
  N   N22       1.0  0.46153  0.26598  0.45650  1.0000
  N   N23       1.0  0.73030  0.20047  0.50072  1.0000
  N   N24       1.0  0.80544  0.53404  0.43475  1.0000
  N   N25       1.0  0.55702  0.52575  0.00259  1.0000
  N   N26       1.0  0.47176  0.03317  0.98227  1.0000
  N   N27       1.0  0.96438  0.43959  0.96904  1.0000
  N   N28       1.0  0.54067  0.45606  0.94232  1.0000
  N   N29       1.0  0.53923  0.08914  0.92558  1.0000
  N   N30       1.0  0.91023  0.45374  0.90371  1.0000
  N   N31       1.0  0.29698  0.66302  0.97104  1.0000
  N   N32       1.0  0.33959  0.63597  0.96717  1.0000
  N   N33       1.0  0.36704  0.70553  0.97250  1.0000
  N   N34       1.0  0.65157  0.36167  0.47292  1.0000
  N   N35       1.0  0.63798  0.29574  0.48852  1.0000
  N   N36       1.0  0.70474  0.34843  0.48364  1.0000
  C  Sn1       1.0  0.42621  0.34980  0.19766  1.0000
  C   C133      1.0  0.46206  0.38344  0.24488  1.0000
  C  Sn2       1.0  0.49759  0.38784  0.18739  1.0000
  C  Sn3       1.0  0.49727  0.35801  0.08038  1.0000
  C   C134      1.0  0.46143  0.32440  0.03319  1.0000
  C  Sn4       1.0  0.42589  0.31997  0.09065  1.0000
  O  Te1       1.0  0.39105  0.34602  0.25663  1.0000
  O  Te2       1.0  0.53306  0.42172  0.23635  1.0000
  O  Te3       1.0  0.53247  0.36182  0.02142  1.0000
  O  Te4       1.0  0.39043  0.28611  0.04172  1.0000
  Mg  Mg1       1.0  0.57323  0.41334  0.12306  1.0000
  Mg  Mg2       1.0  0.35025  0.29447  0.15487  1.0000
  C  Sn5       1.0  0.76772  0.43258  0.41618  1.0000
  C   C135      1.0  0.73083  0.41702  0.48834  1.0000
  C  Sn6       1.0  0.71477  0.44090  0.52719  1.0000
  C  Sn7       1.0  0.73601  0.48117  0.49312  1.0000
  C   C136      1.0  0.77288  0.49671  0.42097  1.0000
  C  Sn8       1.0  0.78897  0.47286  0.38210  1.0000
  O  Te5       1.0  0.78320  0.40817  0.37837  1.0000
  O  Te6       1.0  0.67784  0.42467  0.59933  1.0000
  O  Te7       1.0  0.72050  0.50558  0.53100  1.0000
  O  Te8       1.0  0.82587  0.48906  0.30998  1.0000
  Mg  Mg3       1.0  0.66914  0.46983  0.62807  1.0000
  Mg  Mg4       1.0  0.83459  0.44393  0.28111  1.0000
  C  Sn9       1.0  0.06902  0.44964  0.77524  1.0000
  C   C137      1.0  0.10604  0.47167  0.85592  1.0000
  C  Sn10      1.0  0.11382  0.50297  0.96875  1.0000
  C  Sn11      1.0  0.07631  0.49823  0.00173  1.0000
  C   C138      1.0  0.04697  0.49042  0.92110  1.0000
  C  Sn12      1.0  0.03917  0.45911  0.80821  1.0000
  O  Te9       1.0  0.06190  0.41847  0.66292  1.0000
  O  Te10      1.0  0.14340  0.51037  0.04784  1.0000
  O  Te11      1.0  0.08346  0.52943  0.11415  1.0000
  O  Te12      1.0  0.00195  0.43751  0.72918  1.0000
  Mg  Mg5       1.0  0.13883  0.55012  0.19071  1.0000
  Mg  Mg6       1.0  0.00648  0.39774  0.58635  1.0000
  C  Sn13      1.0  0.66106  0.08534  0.07628  1.0000
  C   C139      1.0  0.67342  0.12439  0.04729  1.0000
  C  Sn14      1.0  0.65270  0.14205  0.11178  1.0000
  C  Sn15      1.0  0.61892  0.12024  0.20733  1.0000
  C   C140      1.0  0.60657  0.08122  0.23630  1.0000
  C  Sn16      1.0  0.62728  0.06353  0.17183  1.0000
  O  Te13      1.0  0.68222  0.06827  0.01062  1.0000
  O  Te14      1.0  0.66562  0.18113  0.08108  1.0000
  O  Te15      1.0  0.59775  0.13734  0.27300  1.0000
  O  Te16      1.0  0.61437  0.02448  0.20251  1.0000
  Mg  Mg7       1.0  0.62696  0.19139  0.19717  1.0000
  Mg  Mg8       1.0  0.65302  0.01419  0.08656  1.0000
  C  Sn17      1.0  0.22109  0.57850  0.91368  1.0000
  C   C141      1.0  0.25745  0.59273  0.99740  1.0000
  C  Sn18      1.0  0.26194  0.55266  0.04588  1.0000
  C  Sn19      1.0  0.23725  0.51173  0.00983  1.0000
  C   C142      1.0  0.20858  0.51173  0.92613  1.0000
  C  Sn20      1.0  0.19640  0.53757  0.87763  1.0000
  O  Te17      1.0  0.20954  0.60489  0.86638  1.0000
  O  Te18      1.0  0.29842  0.56758  0.12949  1.0000
  O  Te19      1.0  0.24884  0.48534  0.05721  1.0000
  O  Te20      1.0  0.15995  0.52267  0.79405  1.0000
  Mg  Mg9       1.0  0.30114  0.51988  0.16826  1.0000
  Mg  Mg10      1.0  0.15721  0.57034  0.75514  1.0000
  C  Sn21      1.0  0.44657  0.66084  0.79691  1.0000
  C   C143      1.0  0.48191  0.69176  0.86699  1.0000
  C  Sn22      1.0  0.47381  0.70106  0.00166  1.0000
  C  Sn23      1.0  0.43729  0.69350  0.06775  1.0000
  C   C144      1.0  0.40964  0.67681  0.99771  1.0000
  C  Sn24      1.0  0.41005  0.65328  0.86300  1.0000
  O  Te21      1.0  0.44772  0.63771  0.66233  1.0000
  O  Te22      1.0  0.50952  0.73181  0.06959  1.0000
  O  Te23      1.0  0.43617  0.71667  0.20244  1.0000
  O  Te24      1.0  0.37437  0.62255  0.79511  1.0000
  Mg  Mg11      1.0  0.49264  0.75509  0.25209  1.0000
  Mg  Mg12      1.0  0.39122  0.59924  0.61267  1.0000
  C  Sn25      1.0  0.54691  0.26107  0.49831  1.0000
  C   C145      1.0  0.57740  0.29606  0.44147  1.0000
  C  Sn26      1.0  0.57072  0.32654  0.40610  1.0000
  C  Sn27      1.0  0.53276  0.32198  0.42809  1.0000
  C   C146      1.0  0.50230  0.28701  0.48493  1.0000
  C  Sn28      1.0  0.50896  0.25650  0.52031  1.0000
  O  Te25      1.0  0.55427  0.23099  0.53291  1.0000
  O  Te26      1.0  0.60166  0.36124  0.34936  1.0000
  O  Te27      1.0  0.52543  0.35210  0.39343  1.0000
  O  Te28      1.0  0.47805  0.22183  0.57704  1.0000
  Mg  Mg13      1.0  0.57705  0.39379  0.31915  1.0000
  Mg  Mg14      1.0  0.50263  0.18927  0.60736  1.0000
  C  Sn29      1.0  0.38057  0.92754  0.74574  1.0000
  C   C147      1.0  0.36556  0.89166  0.81926  1.0000
  C  Sn30      1.0  0.38872  0.88587  0.93368  1.0000
  C  Sn31      1.0  0.42769  0.91659  0.97559  1.0000
  C   C148      1.0  0.44268  0.95245  0.90211  1.0000
  C  Sn32      1.0  0.41955  0.95827  0.78764  1.0000
  O  Te29      1.0  0.35689  0.93268  0.63167  1.0000
  O  Te30      1.0  0.36541  0.83553  0.00550  1.0000
  O  Te31      1.0  0.44371  0.89722  0.08975  1.0000
  O  Te32      1.0  0.43517  0.99438  0.71587  1.0000
  Mg  Mg15      1.0  0.40917  0.84275  0.15418  1.0000
  Mg  Mg16      1.0  0.39144  0.98720  0.56725  1.0000
  C  Sn33      1.0  0.73800  0.26618  0.14478  1.0000
  C   C149      1.0  0.72048  0.22885  0.06368  1.0000
  C  Sn34      1.0  0.69949  0.23234  0.93710  1.0000
  C  Sn35      1.0  0.68813  0.25951  0.89053  1.0000
  C   C150      1.0  0.70565  0.29682  0.97159  1.0000
  C  Sn36      1.0  0.72664  0.29335  0.09821  1.0000
  O  Te33      1.0  0.76658  0.27626  0.27096  1.0000
  O  Te34      1.0  0.68239  0.19484  0.85787  1.0000
  O  Te35      1.0  0.65952  0.24940  0.76424  1.0000
  O  Te36      1.0  0.74374  0.33082  0.17739  1.0000
  Mg  Mg17      1.0  0.64479  0.19488  0.69332  1.0000
  Mg  Mg18      1.0  0.78135  0.33082  0.34189  1.0000
  C  Sn37      1.0  0.40455  0.95640  0.33399  1.0000
  C   C151      1.0  0.43858  0.95672  0.38858  1.0000
  C  Sn38      1.0  0.43703  0.92179  0.42528  1.0000
  C  Sn39      1.0  0.40072  0.88579  0.40693  1.0000
  C   C152      1.0  0.36672  0.88548  0.35235  1.0000
  C  Sn40      1.0  0.36824  0.92040  0.31565  1.0000
  O  Te37      1.0  0.40679  0.99167  0.29801  1.0000
  O  Te38      1.0  0.47144  0.92284  0.47971  1.0000
  O  Te39      1.0  0.39851  0.85050  0.44297  1.0000
  O  Te40      1.0  0.33386  0.91936  0.26122  1.0000
  Mg  Mg19      1.0  0.45340  0.86706  0.51305  1.0000
  Mg  Mg20      1.0  0.35187  0.97512  0.22776  1.0000
  C  Sn41      1.0  0.04397  0.44954  0.33805  1.0000
  C   C153      1.0  0.04461  0.48380  0.39648  1.0000
  C  Sn42      1.0  0.08005  0.51686  0.45248  1.0000
  C  Sn43      1.0  0.11561  0.51567  0.44995  1.0000
  C   C154      1.0  0.11496  0.48143  0.39153  1.0000
  C  Sn44      1.0  0.07953  0.44835  0.33552  1.0000
  O  Te41      1.0  0.00819  0.41684  0.28265  1.0000
  O  Te42      1.0  0.07995  0.55076  0.51038  1.0000
  O  Te43      1.0  0.15140  0.54840  0.50542  1.0000
  O  Te44      1.0  0.07962  0.41446  0.27762  1.0000
  Mg  Mg21      1.0  0.13612  0.58775  0.57274  1.0000
  Mg  Mg22      1.0  0.02347  0.37747  0.21516  1.0000
  C  Sn45      1.0  0.34480  0.78500  0.29547  1.0000
  C   C155      1.0  0.31435  0.79017  0.35740  1.0000
  C  Sn46      1.0  0.29144  0.76792  0.48590  1.0000
  C  Sn47      1.0  0.29915  0.73992  0.55399  1.0000
  C   C156      1.0  0.32959  0.73476  0.49209  1.0000
  C  Sn48      1.0  0.35251  0.75700  0.36357  1.0000
  O  Te45      1.0  0.36732  0.80757  0.16697  1.0000
  O  Te46      1.0  0.26115  0.77361  0.54572  1.0000
  O  Te47      1.0  0.27660  0.71734  0.68259  1.0000
  O  Te48      1.0  0.38279  0.75133  0.30378  1.0000
  Mg  Mg23      1.0  0.23864  0.73581  0.72211  1.0000
  Mg  Mg24      1.0  0.40533  0.78912  0.12746  1.0000
