data_image0
_chemical_formula_structural       H24C60S6N36C2Sn2C2HTe2HMgC2Sn2C2HTe2HMgC2Sn2C2HTe2HMgC2Sn2C2HTe2HMgC2Sn2C2HTe2HMgC2Sn2C2HTe2HMgC2Sn2C2HTe2HMgC2Sn2C2HTe2HMgC2Sn2C2HTe2HMgC2Sn2C2HTe2HMgC2Sn2C2HTe2HMgC2Sn2C2HTe2HMgC2Sn2C2HTe2HMgC2Sn2C2HTe2HMgC2Sn2C2HTe2HMgC2Sn2C2HTe2HMgC2Sn2C2HTe2HMgC2Sn2C2HTe2HMgC2Sn2C2HTe2HMgC2Sn2C2HTe2HMgC2Sn2C2HTe2HMgC2Sn2C2HTe2HMgC2Sn2C2HTe2HMgC2Sn2C2HTe2HMg
_chemical_formula_sum              "H72 C156 S6 N36 Sn48 Te48 Mg24"
_cell_length_a       39.2016
_cell_length_b       39.4937
_cell_length_c       8.04901
_cell_angle_alpha    92.9207
_cell_angle_beta     90.1279
_cell_angle_gamma    120.192

_symmetry_space_group_name_H-M    'P1'
_space_group_IT_number       1

loop_
  _space_group_symop_operation_xyz
  'x, y, z'

loop_
  _atom_site_type_symbol
  _atom_site_label
  _atom_site_symmetry_multiplicity
  _atom_site_fract_x
  _atom_site_fract_y
  _atom_site_fract_z
  _atom_site_occupancy
  H   H1        1.0  0.57562  0.69345  0.34946  1.0000
  H   H2        1.0  0.30532  0.87314  0.32217  1.0000
  H   H3        1.0  0.12269  0.42901  0.39053  1.0000
  H   H4        1.0  0.42674  0.42784  0.15480  1.0000
  H   H5        1.0  0.57140  0.99760  0.14949  1.0000
  H   H6        1.0  0.00270  0.57273  0.16488  1.0000
  H   H7        1.0  0.44167  0.49471  0.22890  1.0000
  H   H8        1.0  0.50598  0.94529  0.21732  1.0000
  H   H9        1.0  0.05576  0.56043  0.23753  1.0000
  H   H10       1.0  0.41431  0.26265  0.96368  1.0000
  H   H11       1.0  0.73721  0.14944  0.00346  1.0000
  H   H12       1.0  0.85472  0.58384  0.94380  1.0000
  H   H13       1.0  0.57395  0.69739  0.84648  1.0000
  H   H14       1.0  0.30157  0.87154  0.81412  1.0000
  H   H15       1.0  0.12460  0.42686  0.87118  1.0000
  H   H16       1.0  0.42498  0.43026  0.67873  1.0000
  H   H17       1.0  0.56805  0.00034  0.66533  1.0000
  H   H18       1.0  0.00278  0.56893  0.68463  1.0000
  H   H19       1.0  0.44028  0.49728  0.74796  1.0000
  H   H20       1.0  0.50312  0.94646  0.72851  1.0000
  H   H21       1.0  0.05494  0.55574  0.75846  1.0000
  H   H22       1.0  0.41056  0.26623  0.46418  1.0000
  H   H23       1.0  0.72879  0.14916  0.50328  1.0000
  H   H24       1.0  0.85866  0.58284  0.43928  1.0000
  C   C1        1.0  0.37300  0.67241  0.45876  1.0000
  C   C2        1.0  0.33276  0.69858  0.46028  1.0000
  C   C3        1.0  0.30635  0.63244  0.46775  1.0000
  C   C4        1.0  0.54440  0.67744  0.38168  1.0000
  C   C5        1.0  0.32342  0.86055  0.35862  1.0000
  C   C6        1.0  0.13770  0.46101  0.41467  1.0000
  C   C7        1.0  0.52128  0.49918  0.41480  1.0000
  C   C8        1.0  0.49975  0.02261  0.37825  1.0000
  C   C9        1.0  0.97912  0.47887  0.38185  1.0000
  C   C10       1.0  0.51213  0.45914  0.37468  1.0000
  C   C11       1.0  0.53906  0.05394  0.34143  1.0000
  C   C12       1.0  0.94754  0.48667  0.34456  1.0000
  C   C13       1.0  0.47744  0.43211  0.27639  1.0000
  C   C14       1.0  0.56636  0.04558  0.25528  1.0000
  C   C15       1.0  0.95547  0.52137  0.26336  1.0000
  C   C16       1.0  0.45278  0.44647  0.23399  1.0000
  C   C17       1.0  0.55260  0.00581  0.21870  1.0000
  C   C18       1.0  0.99510  0.54678  0.23208  1.0000
  C   C19       1.0  0.46153  0.48535  0.27547  1.0000
  C   C20       1.0  0.51446  0.97538  0.25645  1.0000
  C   C21       1.0  0.02586  0.53944  0.27178  1.0000
  C   C22       1.0  0.49608  0.51302  0.36019  1.0000
  C   C23       1.0  0.48663  0.98249  0.33133  1.0000
  C   C24       1.0  0.01901  0.50532  0.34188  1.0000
  C   C25       1.0  0.44607  0.28099  0.99275  1.0000
  C   C26       1.0  0.71913  0.16312  0.02670  1.0000
  C   C27       1.0  0.83989  0.55278  0.97176  1.0000
  C   C28       1.0  0.63066  0.31979  0.98844  1.0000
  C   C29       1.0  0.68227  0.30878  0.00325  1.0000
  C   C30       1.0  0.69373  0.37073  0.97704  1.0000
  C   C31       1.0  0.37027  0.67305  0.96789  1.0000
  C   C32       1.0  0.32974  0.69881  0.97057  1.0000
  C   C33       1.0  0.30359  0.63267  0.97056  1.0000
  C   C34       1.0  0.54275  0.68089  0.87890  1.0000
  C   C35       1.0  0.31934  0.85905  0.85632  1.0000
  C   C36       1.0  0.13859  0.45850  0.90316  1.0000
  C   C37       1.0  0.52238  0.50350  0.91603  1.0000
  C   C38       1.0  0.49444  0.02173  0.89749  1.0000
  C   C39       1.0  0.97731  0.47379  0.89467  1.0000
  C   C40       1.0  0.51279  0.46311  0.88057  1.0000
  C   C41       1.0  0.53351  0.05396  0.86445  1.0000
  C   C42       1.0  0.94608  0.48216  0.85663  1.0000
  C   C43       1.0  0.47705  0.43525  0.78988  1.0000
  C   C44       1.0  0.56144  0.04687  0.77690  1.0000
  C   C45       1.0  0.95466  0.51740  0.77800  1.0000
  C   C46       1.0  0.45202  0.44947  0.75128  1.0000
  C   C47       1.0  0.54868  0.00747  0.73618  1.0000
  C   C48       1.0  0.99453  0.54260  0.75005  1.0000
  C   C49       1.0  0.46103  0.48855  0.78949  1.0000
  C   C50       1.0  0.51088  0.97616  0.77105  1.0000
  C   C51       1.0  0.02485  0.53473  0.79031  1.0000
  C   C52       1.0  0.49653  0.51697  0.86556  1.0000
  C   C53       1.0  0.48238  0.98209  0.84612  1.0000
  C   C54       1.0  0.01749  0.50018  0.85788  1.0000
  C   C55       1.0  0.44233  0.28376  0.49491  1.0000
  C   C56       1.0  0.71134  0.16352  0.52611  1.0000
  C   C57       1.0  0.84278  0.55205  0.47141  1.0000
  C   C58       1.0  0.62664  0.32266  0.47998  1.0000
  C   C59       1.0  0.67732  0.31021  0.49017  1.0000
  C   C60       1.0  0.69023  0.37292  0.47364  1.0000
  S   S1        1.0  0.57273  0.49201  0.53713  1.0000
  S   S2        1.0  0.50589  0.08273  0.48947  1.0000
  S   S3        1.0  0.91959  0.42609  0.48010  1.0000
  S   S4        1.0  0.57476  0.49706  0.03369  1.0000
  S   S5        1.0  0.49859  0.08061  0.01404  1.0000
  S   S6        1.0  0.91692  0.42066  0.98612  1.0000
  N   N1        1.0  0.52913  0.69960  0.40053  1.0000
  N   N2        1.0  0.30288  0.82356  0.38196  1.0000
  N   N3        1.0  0.17525  0.47685  0.44137  1.0000
  N   N4        1.0  0.46556  0.26303  0.96545  1.0000
  N   N5        1.0  0.73763  0.20036  0.00653  1.0000
  N   N6        1.0  0.80268  0.53350  0.93264  1.0000
  N   N7        1.0  0.55515  0.52090  0.50725  1.0000
  N   N8        1.0  0.47800  0.03529  0.46238  1.0000
  N   N9        1.0  0.96692  0.44517  0.45940  1.0000
  N   N10       1.0  0.53951  0.45164  0.43857  1.0000
  N   N11       1.0  0.54581  0.08970  0.39924  1.0000
  N   N12       1.0  0.91205  0.45842  0.39569  1.0000
  N   N13       1.0  0.30000  0.66297  0.46650  1.0000
  N   N14       1.0  0.34221  0.63545  0.46318  1.0000
  N   N15       1.0  0.36996  0.70497  0.45847  1.0000
  N   N16       1.0  0.65492  0.35863  0.97450  1.0000
  N   N17       1.0  0.64280  0.29361  0.00353  1.0000
  N   N18       1.0  0.70915  0.34710  0.99209  1.0000
  N   N19       1.0  0.52679  0.70243  0.89738  1.0000
  N   N20       1.0  0.29856  0.82227  0.88277  1.0000
  N   N21       1.0  0.17631  0.47541  0.92778  1.0000
  N   N22       1.0  0.46153  0.26598  0.45650  1.0000
  N   N23       1.0  0.73030  0.20047  0.50072  1.0000
  N   N24       1.0  0.80544  0.53404  0.43475  1.0000
  N   N25       1.0  0.55702  0.52575  0.00259  1.0000
  N   N26       1.0  0.47176  0.03317  0.98227  1.0000
  N   N27       1.0  0.96438  0.43959  0.96904  1.0000
  N   N28       1.0  0.54067  0.45606  0.94232  1.0000
  N   N29       1.0  0.53923  0.08914  0.92558  1.0000
  N   N30       1.0  0.91023  0.45374  0.90371  1.0000
  N   N31       1.0  0.29698  0.66302  0.97104  1.0000
  N   N32       1.0  0.33959  0.63597  0.96717  1.0000
  N   N33       1.0  0.36704  0.70553  0.97250  1.0000
  N   N34       1.0  0.65157  0.36167  0.47292  1.0000
  N   N35       1.0  0.63798  0.29574  0.48852  1.0000
  N   N36       1.0  0.70474  0.34843  0.48364  1.0000
  C   C61       1.0  0.47696  0.72099  0.52590  1.0000
  C   C62       1.0  0.48853  0.69548  0.45438  1.0000
  C  Sn1       1.0  0.46081  0.66044  0.36937  1.0000
  C  Sn2       1.0  0.42079  0.65083  0.35589  1.0000
  C   C63       1.0  0.40952  0.67656  0.42778  1.0000
  C   C64       1.0  0.43750  0.71154  0.51261  1.0000
  H   H25       1.0  0.49861  0.74806  0.59146  1.0000
  O  Te1       1.0  0.47287  0.63529  0.29870  1.0000
  O  Te2       1.0  0.39248  0.61601  0.27157  1.0000
  H   H26       1.0  0.42854  0.73129  0.56788  1.0000
  Mg  Mg1       1.0  0.42335  0.59125  0.19629  1.0000
  C   C65       1.0  0.35432  0.79202  0.33513  1.0000
  C   C66       1.0  0.32204  0.79591  0.38099  1.0000
  C  Sn3       1.0  0.29232  0.76777  0.47497  1.0000
  C  Sn4       1.0  0.29505  0.73517  0.52378  1.0000
  C   C67       1.0  0.32748  0.73157  0.47737  1.0000
  C   C68       1.0  0.35705  0.75989  0.38328  1.0000
  H   H27       1.0  0.37721  0.81395  0.26241  1.0000
  O  Te3       1.0  0.26026  0.77209  0.51967  1.0000
  O  Te4       1.0  0.26577  0.70662  0.61778  1.0000
  H   H28       1.0  0.38206  0.75689  0.34789  1.0000
  Mg  Mg2       1.0  0.22784  0.72546  0.64822  1.0000
  C   C69       1.0  0.25067  0.53142  0.55029  1.0000
  C   C70       1.0  0.21268  0.51855  0.48601  1.0000
  C  Sn5       1.0  0.20471  0.54404  0.40201  1.0000
  C  Sn6       1.0  0.23542  0.58311  0.38217  1.0000
  C   C71       1.0  0.27334  0.59569  0.44684  1.0000
  C   C72       1.0  0.28098  0.56994  0.53072  1.0000
  H   H29       1.0  0.25659  0.51150  0.61512  1.0000
  O  Te5       1.0  0.16658  0.53071  0.33861  1.0000
  O  Te6       1.0  0.22828  0.60919  0.29870  1.0000
  H   H30       1.0  0.31040  0.57991  0.58039  1.0000
  Mg  Mg3       1.0  0.17147  0.57726  0.23448  1.0000
  C   C73       1.0  0.47422  0.72198  0.03398  1.0000
  C   C74       1.0  0.49376  0.71159  0.95553  1.0000
  C  Sn7       1.0  0.46619  0.67704  0.86700  1.0000
  C  Sn8       1.0  0.42601  0.66701  0.85700  1.0000
  C   C75       1.0  0.41443  0.69183  0.93582  1.0000
  C   C76       1.0  0.43460  0.71212  0.02413  1.0000
  H   H31       1.0  0.49576  0.74869  0.10224  1.0000
  O  Te7       1.0  0.47855  0.65279  0.78941  1.0000
  O  Te8       1.0  0.39784  0.63266  0.76928  1.0000
  H   H32       1.0  0.42540  0.73117  0.08477  1.0000
  Mg  Mg4       1.0  0.42914  0.60912  0.68459  1.0000
  C   C77       1.0  0.28102  0.75363  0.02364  1.0000
  C   C78       1.0  0.31269  0.80312  0.94945  1.0000
  C  Sn9       1.0  0.34686  0.80929  0.87013  1.0000
  C  Sn10      1.0  0.35708  0.77952  0.86514  1.0000
  C   C79       1.0  0.33283  0.74431  0.93963  1.0000
  C   C80       1.0  0.29106  0.72424  0.01873  1.0000
  H   H33       1.0  0.25461  0.74908  0.08476  1.0000
  O  Te9       1.0  0.37054  0.84472  0.79669  1.0000
  O  Te10      1.0  0.39104  0.78491  0.78663  1.0000
  H   H34       1.0  0.27246  0.69691  0.07606  1.0000
  Mg  Mg5       1.0  0.41385  0.83823  0.70457  1.0000
  C   C81       1.0  0.22427  0.57648  0.86159  1.0000
  C   C82       1.0  0.25914  0.59210  0.95830  1.0000
  C  Sn11      1.0  0.25988  0.55328  0.04674  1.0000
  C  Sn12      1.0  0.23283  0.51227  0.03791  1.0000
  C   C83       1.0  0.20570  0.51113  0.94071  1.0000
  C   C84       1.0  0.19758  0.53603  0.85276  1.0000
  H   H35       1.0  0.21799  0.59574  0.79346  1.0000
  O  Te11      1.0  0.29485  0.56938  0.14281  1.0000
  O  Te12      1.0  0.24050  0.48700  0.12499  1.0000
  H   H36       1.0  0.17059  0.52392  0.77781  1.0000
  Mg  Mg6       1.0  0.29212  0.52293  0.23896  1.0000
  C   C85       1.0  0.55753  0.61454  0.31455  1.0000
  C   C86       1.0  0.53622  0.63238  0.36979  1.0000
  C  Sn13      1.0  0.49972  0.61032  0.44260  1.0000
  C  Sn14      1.0  0.48435  0.56965  0.46031  1.0000
  C   C87       1.0  0.50590  0.55209  0.40476  1.0000
  C   C88       1.0  0.54239  0.57444  0.33203  1.0000
  H   H37       1.0  0.58577  0.63184  0.25836  1.0000
  O  Te13      1.0  0.47882  0.62860  0.49706  1.0000
  O  Te14      1.0  0.44794  0.54691  0.53269  1.0000
  H   H38       1.0  0.55889  0.56062  0.28937  1.0000
  Mg  Mg7       1.0  0.43052  0.58519  0.58757  1.0000
  C   C89       1.0  0.38279  0.93679  0.29154  1.0000
  C   C90       1.0  0.36765  0.89891  0.34547  1.0000
  C  Sn15      1.0  0.39285  0.88770  0.41539  1.0000
  C  Sn16      1.0  0.43396  0.91498  0.43148  1.0000
  C   C91       1.0  0.44881  0.95282  0.37725  1.0000
  C   C92       1.0  0.42333  0.96372  0.30742  1.0000
  H   H39       1.0  0.36307  0.94524  0.23759  1.0000
  O  Te15      1.0  0.37724  0.84973  0.46858  1.0000
  O  Te16      1.0  0.45982  0.90456  0.50096  1.0000
  H   H40       1.0  0.43505  0.99306  0.26577  1.0000
  Mg  Mg8       1.0  0.42440  0.84939  0.55507  1.0000
  C   C93       1.0  0.09471  0.52279  0.47987  1.0000
  C   C94       1.0  0.05961  0.50340  0.38384  1.0000
  C  Sn17      1.0  0.04809  0.46715  0.30080  1.0000
  C  Sn18      1.0  0.07223  0.45005  0.31442  1.0000
  C   C95       1.0  0.10729  0.46967  0.41090  1.0000
  C   C96       1.0  0.11853  0.50594  0.49343  1.0000
  H   H41       1.0  0.10341  0.55085  0.54381  1.0000
  O  Te17      1.0  0.01293  0.44818  0.20533  1.0000
  O  Te18      1.0  0.06142  0.41384  0.23279  1.0000
  H   H42       1.0  0.14570  0.52093  0.56786  1.0000
  Mg  Mg9       1.0  0.01082  0.39937  0.11746  1.0000
  C   C97       1.0  0.42432  0.35278  0.14619  1.0000
  C   C98       1.0  0.45935  0.38526  0.20998  1.0000
  C  Sn19      1.0  0.49527  0.38617  0.19320  1.0000
  C  Sn20      1.0  0.49603  0.35393  0.11092  1.0000
  C   C99       1.0  0.46082  0.32158  0.04744  1.0000
  C   C100      1.0  0.42505  0.32097  0.06497  1.0000
  H   H43       1.0  0.39664  0.35231  0.15967  1.0000
  O  Te19      1.0  0.52999  0.41884  0.25772  1.0000
  O  Te20      1.0  0.53151  0.35408  0.09237  1.0000
  H   H44       1.0  0.39793  0.29583  0.01547  1.0000
  Mg  Mg10      1.0  0.57101  0.40527  0.20143  1.0000
  C   C101      1.0  0.63859  0.13967  0.12951  1.0000
  C   C102      1.0  0.67296  0.13820  0.10006  1.0000
  C  Sn21      1.0  0.67343  0.10345  0.11817  1.0000
  C  Sn22      1.0  0.63881  0.06957  0.16664  1.0000
  C   C103      1.0  0.60457  0.07133  0.19570  1.0000
  C   C104      1.0  0.60443  0.10627  0.17726  1.0000
  H   H45       1.0  0.63847  0.16669  0.11516  1.0000
  O  Te21      1.0  0.70802  0.10249  0.08831  1.0000
  O  Te22      1.0  0.63846  0.03445  0.18560  1.0000
  H   H46       1.0  0.57781  0.10739  0.19997  1.0000
  Mg  Mg11      1.0  0.69288  0.04779  0.13075  1.0000
  C   C105      1.0  0.86062  0.49756  0.10844  1.0000
  C   C106      1.0  0.86302  0.53285  0.07104  1.0000
  C  Sn23      1.0  0.89839  0.56836  0.09953  1.0000
  C  Sn24      1.0  0.93193  0.56845  0.16669  1.0000
  C   C107      1.0  0.92923  0.53299  0.20357  1.0000
  C   C108      1.0  0.89369  0.49762  0.17462  1.0000
  H   H47       1.0  0.83312  0.47020  0.08596  1.0000
  O  Te23      1.0  0.90028  0.60336  0.06152  1.0000
  O  Te24      1.0  0.96765  0.60352  0.19635  1.0000
  H   H48       1.0  0.89185  0.47030  0.20349  1.0000
  Mg  Mg12      1.0  0.95553  0.64361  0.12418  1.0000
  C   C109      1.0  0.52929  0.25526  0.06545  1.0000
  C   C110      1.0  0.50949  0.27336  0.00368  1.0000
  C  Sn25      1.0  0.53772  0.32209  0.92010  1.0000
  C  Sn26      1.0  0.57888  0.33873  0.89810  1.0000
  C   C111      1.0  0.59841  0.32039  0.96025  1.0000
  C   C112      1.0  0.56988  0.27165  0.04374  1.0000
  H   H49       1.0  0.51314  0.22854  0.12997  1.0000
  O  Te25      1.0  0.51748  0.33980  0.85923  1.0000
  O  Te26      1.0  0.60016  0.37321  0.81498  1.0000
  H   H50       1.0  0.58521  0.25763  0.09146  1.0000
  Mg  Mg13      1.0  0.55942  0.38643  0.75458  1.0000
  C   C113      1.0  0.67988  0.21925  0.91268  1.0000
  C   C114      1.0  0.71532  0.22421  0.97744  1.0000
  C  Sn27      1.0  0.73380  0.24440  0.07072  1.0000
  C  Sn28      1.0  0.72420  0.27434  0.09953  1.0000
  C   C115      1.0  0.68866  0.26908  0.03430  1.0000
  C   C116      1.0  0.67038  0.24875  0.94109  1.0000
  H   H51       1.0  0.65980  0.19252  0.84063  1.0000
  O  Te27      1.0  0.76909  0.24888  0.13446  1.0000
  O  Te28      1.0  0.74979  0.30900  0.19238  1.0000
  H   H52       1.0  0.64293  0.24491  0.89105  1.0000
  Mg  Mg14      1.0  0.79435  0.30140  0.25318  1.0000
  C   C117      1.0  0.78090  0.45425  0.85720  1.0000
  C   C118      1.0  0.77750  0.48657  0.91159  1.0000
  C  Sn29      1.0  0.73715  0.46700  0.00103  1.0000
  C  Sn30      1.0  0.70738  0.42855  0.03654  1.0000
  C   C119      1.0  0.71874  0.41062  0.98167  1.0000
  C   C120      1.0  0.75156  0.41632  0.89222  1.0000
  H   H53       1.0  0.80631  0.45866  0.78806  1.0000
  O  Te29      1.0  0.73420  0.49961  0.05439  1.0000
  O  Te30      1.0  0.67441  0.42236  0.12575  1.0000
  H   H54       1.0  0.75420  0.39130  0.85021  1.0000
  Mg  Mg15      1.0  0.68370  0.47613  0.17179  1.0000
  C   C121      1.0  0.56116  0.33147  0.38695  1.0000
  C   C122      1.0  0.58139  0.31563  0.46514  1.0000
  C  Sn31      1.0  0.56053  0.27977  0.53906  1.0000
  C  Sn32      1.0  0.51864  0.25944  0.53437  1.0000
  C   C123      1.0  0.49868  0.27552  0.45573  1.0000
  C   C124      1.0  0.51985  0.31144  0.38221  1.0000
  H   H55       1.0  0.57754  0.35924  0.32998  1.0000
  O  Te31      1.0  0.58120  0.26437  0.61672  1.0000
  O  Te32      1.0  0.49705  0.22354  0.60720  1.0000
  H   H56       1.0  0.50418  0.32368  0.32158  1.0000
  Mg  Mg16      1.0  0.53860  0.21454  0.69829  1.0000
  C   C125      1.0  0.66664  0.23473  0.40025  1.0000
  C   C126      1.0  0.68316  0.27165  0.48446  1.0000
  C  Sn33      1.0  0.71887  0.28706  0.57478  1.0000
  C  Sn34      1.0  0.73834  0.26503  0.58063  1.0000
  C   C127      1.0  0.72158  0.22813  0.49585  1.0000
  C   C128      1.0  0.68583  0.21299  0.40590  1.0000
  H   H57       1.0  0.63899  0.22301  0.33056  1.0000
  O  Te33      1.0  0.73496  0.32400  0.65824  1.0000
  O  Te34      1.0  0.77407  0.27974  0.66991  1.0000
  H   H58       1.0  0.67305  0.18441  0.34062  1.0000
  Mg  Mg17      1.0  0.78423  0.33148  0.76317  1.0000
  C   C129      1.0  0.76429  0.43273  0.36263  1.0000
  C   C130      1.0  0.72910  0.41638  0.44858  1.0000
  C  Sn35      1.0  0.71701  0.44060  0.52896  1.0000
  C  Sn36      1.0  0.74065  0.48194  0.52292  1.0000
  C   C131      1.0  0.77580  0.49800  0.43650  1.0000
  C   C132      1.0  0.78762  0.47350  0.35656  1.0000
  H   H59       1.0  0.77343  0.41377  0.30070  1.0000
  O  Te35      1.0  0.68177  0.42378  0.61433  1.0000
  O  Te36      1.0  0.72926  0.50682  0.60210  1.0000
  H   H60       1.0  0.81486  0.48616  0.28993  1.0000
  Mg  Mg18      1.0  0.67878  0.46993  0.70260  1.0000
  C   C133      1.0  0.48127  0.57920  0.97090  1.0000
  C   C134      1.0  0.50043  0.56082  0.89680  1.0000
  C  Sn37      1.0  0.53672  0.58302  0.82259  1.0000
  C  Sn38      1.0  0.55409  0.62439  0.82280  1.0000
  C   C135      1.0  0.53470  0.64250  0.89736  1.0000
  C   C136      1.0  0.49839  0.62000  0.97122  1.0000
  H   H61       1.0  0.44553  0.54760  0.02813  1.0000
  O  Te37      1.0  0.55546  0.56419  0.74906  1.0000
  O  Te38      1.0  0.59034  0.64728  0.74957  1.0000
  H   H62       1.0  0.47592  0.62004  0.02867  1.0000
  Mg  Mg19      1.0  0.60442  0.60806  0.66513  1.0000
  C   C137      1.0  0.37900  0.93473  0.78734  1.0000
  C   C138      1.0  0.36372  0.89713  0.84466  1.0000
  C  Sn39      1.0  0.38861  0.88658  0.92262  1.0000
  C  Sn40      1.0  0.42954  0.91426  0.94346  1.0000
  C   C139      1.0  0.44453  0.95180  0.88579  1.0000
  C   C140      1.0  0.41936  0.96205  0.80790  1.0000
  H   H63       1.0  0.35953  0.94267  0.72716  1.0000
  O  Te39      1.0  0.37286  0.84889  0.97909  1.0000
  O  Te40      1.0  0.44742  0.89029  0.02100  1.0000
  H   H64       1.0  0.43120  0.99117  0.76364  1.0000
  Mg  Mg20      1.0  0.41193  0.83527  0.07685  1.0000
  C   C141      1.0  0.06207  0.44175  0.81601  1.0000
  C   C142      1.0  0.10066  0.46489  0.88075  1.0000
  C  Sn41      1.0  0.11297  0.50193  0.95759  1.0000
  C  Sn42      1.0  0.08606  0.51598  0.96969  1.0000
  C   C143      1.0  0.04751  0.49259  0.90464  1.0000
  C   C144      1.0  0.03551  0.45558  0.82796  1.0000
  H   H65       1.0  0.05278  0.41310  0.75676  1.0000
  O  Te41      1.0  0.14398  0.51047  0.02154  1.0000
  O  Te42      1.0  0.08992  0.53868  0.04591  1.0000
  H   H66       1.0  0.00562  0.43765  0.77794  1.0000
  Mg  Mg21      1.0  0.14573  0.55878  0.11407  1.0000
  C   C145      1.0  0.49906  0.36208  0.64535  1.0000
  C   C146      1.0  0.46319  0.32836  0.59914  1.0000
  C  Sn43      1.0  0.42769  0.32826  0.61646  1.0000
  C  Sn44      1.0  0.42820  0.36261  0.68124  1.0000
  C   C147      1.0  0.46424  0.39621  0.72700  1.0000
  C   C148      1.0  0.49959  0.39598  0.70919  1.0000
  H   H67       1.0  0.52642  0.36192  0.63150  1.0000
  O  Te43      1.0  0.39211  0.29431  0.56974  1.0000
  O  Te44      1.0  0.39315  0.36332  0.69980  1.0000
  H   H68       1.0  0.52736  0.42210  0.74488  1.0000
  Mg  Mg22      1.0  0.35213  0.30975  0.61867  1.0000
  C   C149      1.0  0.63979  0.07258  0.66269  1.0000
  C   C150      1.0  0.60788  0.07568  0.72127  1.0000
  C  Sn45      1.0  0.60700  0.11033  0.70632  1.0000
  C  Sn46      1.0  0.63871  0.14242  0.63123  1.0000
  C   C151      1.0  0.67048  0.13902  0.57291  1.0000
  C   C152      1.0  0.67106  0.10421  0.58855  1.0000
  H   H69       1.0  0.64023  0.04565  0.67470  1.0000
  O  Te45      1.0  0.57490  0.11293  0.76557  1.0000
  O  Te46      1.0  0.63858  0.17738  0.61465  1.0000
  H   H70       1.0  0.69576  0.10182  0.54308  1.0000
  Mg  Mg23      1.0  0.58827  0.16670  0.71461  1.0000
  C   C153      1.0  0.91746  0.57540  0.61889  1.0000
  C   C154      1.0  0.87899  0.54894  0.55992  1.0000
  C  Sn47      1.0  0.86149  0.50917  0.59010  1.0000
  C  Sn48      1.0  0.88297  0.49574  0.68106  1.0000
  C   C155      1.0  0.92143  0.52245  0.73962  1.0000
  C   C156      1.0  0.93866  0.56217  0.70868  1.0000
  H   H71       1.0  0.93079  0.60614  0.59503  1.0000
  O  Te47      1.0  0.82303  0.48313  0.53024  1.0000
  O  Te48      1.0  0.86618  0.45615  0.71304  1.0000
  H   H72       1.0  0.96844  0.58266  0.75444  1.0000
  Mg  Mg24      1.0  0.81293  0.43201  0.60562  1.0000
