data_image0
_chemical_formula_structural       H24C60S6N36SnCSn2CSnTe4Mg2SnCSn2CSnTe4Mg2SnCSn2CSnTe4Mg2SnCSn2CSnTe4Mg2SnCSn2CSnTe4Mg2SnCSn2CSnTe4Mg2SnCSn2CSnTe4Mg2SnCSn2CSnTe4Mg2SnCSn2CSnTe4Mg2SnCSn2CSnTe4Mg2SnCSn2CSnTe4Mg2SnCSn2CSnTe4Mg2SnCSn2CSnTe4Mg2SnCSn2CSnTe4Mg2SnCSn2CSnTe4Mg2SnCSn2CSnTe4Mg2SnCSn2CSnTe4Mg2SnCSn2CSnTe4Mg2SnCSn2CSnTe4Mg2SnCSn2CSnTe4Mg2SnCSn2CSnTe4Mg2SnCSn2CSnTe4Mg2SnCSn2CSnTe4Mg2SnCSn2CSnTe4Mg2
_chemical_formula_sum              "H24 C108 S6 N36 Sn96 Te96 Mg48"
_cell_length_a       39.2016
_cell_length_b       39.4937
_cell_length_c       8.04901
_cell_angle_alpha    92.9207
_cell_angle_beta     90.1279
_cell_angle_gamma    120.192

_symmetry_space_group_name_H-M    'P1'
_space_group_IT_number       1

loop_
  _space_group_symop_operation_xyz
  'x, y, z'

loop_
  _atom_site_type_symbol
  _atom_site_label
  _atom_site_symmetry_multiplicity
  _atom_site_fract_x
  _atom_site_fract_y
  _atom_site_fract_z
  _atom_site_occupancy
  H   H1        1.0  0.57562  0.69345  0.34946  1.0000
  H   H2        1.0  0.30532  0.87314  0.32217  1.0000
  H   H3        1.0  0.12269  0.42901  0.39053  1.0000
  H   H4        1.0  0.42674  0.42784  0.15480  1.0000
  H   H5        1.0  0.57140  0.99760  0.14949  1.0000
  H   H6        1.0  0.00270  0.57273  0.16488  1.0000
  H   H7        1.0  0.44167  0.49471  0.22890  1.0000
  H   H8        1.0  0.50598  0.94529  0.21732  1.0000
  H   H9        1.0  0.05576  0.56043  0.23753  1.0000
  H   H10       1.0  0.41431  0.26265  0.96368  1.0000
  H   H11       1.0  0.73721  0.14944  0.00346  1.0000
  H   H12       1.0  0.85472  0.58384  0.94380  1.0000
  H   H13       1.0  0.57395  0.69739  0.84648  1.0000
  H   H14       1.0  0.30157  0.87154  0.81412  1.0000
  H   H15       1.0  0.12460  0.42686  0.87118  1.0000
  H   H16       1.0  0.42498  0.43026  0.67873  1.0000
  H   H17       1.0  0.56805  0.00034  0.66533  1.0000
  H   H18       1.0  0.00278  0.56893  0.68463  1.0000
  H   H19       1.0  0.44028  0.49728  0.74796  1.0000
  H   H20       1.0  0.50312  0.94646  0.72851  1.0000
  H   H21       1.0  0.05494  0.55574  0.75846  1.0000
  H   H22       1.0  0.41056  0.26623  0.46418  1.0000
  H   H23       1.0  0.72879  0.14916  0.50328  1.0000
  H   H24       1.0  0.85866  0.58284  0.43928  1.0000
  C   C1        1.0  0.37300  0.67241  0.45876  1.0000
  C   C2        1.0  0.33276  0.69858  0.46028  1.0000
  C   C3        1.0  0.30635  0.63244  0.46775  1.0000
  C   C4        1.0  0.54440  0.67744  0.38168  1.0000
  C   C5        1.0  0.32342  0.86055  0.35862  1.0000
  C   C6        1.0  0.13770  0.46101  0.41467  1.0000
  C   C7        1.0  0.52128  0.49918  0.41480  1.0000
  C   C8        1.0  0.49975  0.02261  0.37825  1.0000
  C   C9        1.0  0.97912  0.47887  0.38185  1.0000
  C   C10       1.0  0.51213  0.45914  0.37468  1.0000
  C   C11       1.0  0.53906  0.05394  0.34143  1.0000
  C   C12       1.0  0.94754  0.48667  0.34456  1.0000
  C   C13       1.0  0.47744  0.43211  0.27639  1.0000
  C   C14       1.0  0.56636  0.04558  0.25528  1.0000
  C   C15       1.0  0.95547  0.52137  0.26336  1.0000
  C   C16       1.0  0.45278  0.44647  0.23399  1.0000
  C   C17       1.0  0.55260  0.00581  0.21870  1.0000
  C   C18       1.0  0.99510  0.54678  0.23208  1.0000
  C   C19       1.0  0.46153  0.48535  0.27547  1.0000
  C   C20       1.0  0.51446  0.97538  0.25645  1.0000
  C   C21       1.0  0.02586  0.53944  0.27178  1.0000
  C   C22       1.0  0.49608  0.51302  0.36019  1.0000
  C   C23       1.0  0.48663  0.98249  0.33133  1.0000
  C   C24       1.0  0.01901  0.50532  0.34188  1.0000
  C   C25       1.0  0.44607  0.28099  0.99275  1.0000
  C   C26       1.0  0.71913  0.16312  0.02670  1.0000
  C   C27       1.0  0.83989  0.55278  0.97176  1.0000
  C   C28       1.0  0.63066  0.31979  0.98844  1.0000
  C   C29       1.0  0.68227  0.30878  0.00325  1.0000
  C   C30       1.0  0.69373  0.37073  0.97704  1.0000
  C   C31       1.0  0.37027  0.67305  0.96789  1.0000
  C   C32       1.0  0.32974  0.69881  0.97057  1.0000
  C   C33       1.0  0.30359  0.63267  0.97056  1.0000
  C   C34       1.0  0.54275  0.68089  0.87890  1.0000
  C   C35       1.0  0.31934  0.85905  0.85632  1.0000
  C   C36       1.0  0.13859  0.45850  0.90316  1.0000
  C   C37       1.0  0.52238  0.50350  0.91603  1.0000
  C   C38       1.0  0.49444  0.02173  0.89749  1.0000
  C   C39       1.0  0.97731  0.47379  0.89467  1.0000
  C   C40       1.0  0.51279  0.46311  0.88057  1.0000
  C   C41       1.0  0.53351  0.05396  0.86445  1.0000
  C   C42       1.0  0.94608  0.48216  0.85663  1.0000
  C   C43       1.0  0.47705  0.43525  0.78988  1.0000
  C   C44       1.0  0.56144  0.04687  0.77690  1.0000
  C   C45       1.0  0.95466  0.51740  0.77800  1.0000
  C   C46       1.0  0.45202  0.44947  0.75128  1.0000
  C   C47       1.0  0.54868  0.00747  0.73618  1.0000
  C   C48       1.0  0.99453  0.54260  0.75005  1.0000
  C   C49       1.0  0.46103  0.48855  0.78949  1.0000
  C   C50       1.0  0.51088  0.97616  0.77105  1.0000
  C   C51       1.0  0.02485  0.53473  0.79031  1.0000
  C   C52       1.0  0.49653  0.51697  0.86556  1.0000
  C   C53       1.0  0.48238  0.98209  0.84612  1.0000
  C   C54       1.0  0.01749  0.50018  0.85788  1.0000
  C   C55       1.0  0.44233  0.28376  0.49491  1.0000
  C   C56       1.0  0.71134  0.16352  0.52611  1.0000
  C   C57       1.0  0.84278  0.55205  0.47141  1.0000
  C   C58       1.0  0.62664  0.32266  0.47998  1.0000
  C   C59       1.0  0.67732  0.31021  0.49017  1.0000
  C   C60       1.0  0.69023  0.37292  0.47364  1.0000
  S   S1        1.0  0.57273  0.49201  0.53713  1.0000
  S   S2        1.0  0.50589  0.08273  0.48947  1.0000
  S   S3        1.0  0.91959  0.42609  0.48010  1.0000
  S   S4        1.0  0.57476  0.49706  0.03369  1.0000
  S   S5        1.0  0.49859  0.08061  0.01404  1.0000
  S   S6        1.0  0.91692  0.42066  0.98612  1.0000
  N   N1        1.0  0.52913  0.69960  0.40053  1.0000
  N   N2        1.0  0.30288  0.82356  0.38196  1.0000
  N   N3        1.0  0.17525  0.47685  0.44137  1.0000
  N   N4        1.0  0.46556  0.26303  0.96545  1.0000
  N   N5        1.0  0.73763  0.20036  0.00653  1.0000
  N   N6        1.0  0.80268  0.53350  0.93264  1.0000
  N   N7        1.0  0.55515  0.52090  0.50725  1.0000
  N   N8        1.0  0.47800  0.03529  0.46238  1.0000
  N   N9        1.0  0.96692  0.44517  0.45940  1.0000
  N   N10       1.0  0.53951  0.45164  0.43857  1.0000
  N   N11       1.0  0.54581  0.08970  0.39924  1.0000
  N   N12       1.0  0.91205  0.45842  0.39569  1.0000
  N   N13       1.0  0.30000  0.66297  0.46650  1.0000
  N   N14       1.0  0.34221  0.63545  0.46318  1.0000
  N   N15       1.0  0.36996  0.70497  0.45847  1.0000
  N   N16       1.0  0.65492  0.35863  0.97450  1.0000
  N   N17       1.0  0.64280  0.29361  0.00353  1.0000
  N   N18       1.0  0.70915  0.34710  0.99209  1.0000
  N   N19       1.0  0.52679  0.70243  0.89738  1.0000
  N   N20       1.0  0.29856  0.82227  0.88277  1.0000
  N   N21       1.0  0.17631  0.47541  0.92778  1.0000
  N   N22       1.0  0.46153  0.26598  0.45650  1.0000
  N   N23       1.0  0.73030  0.20047  0.50072  1.0000
  N   N24       1.0  0.80544  0.53404  0.43475  1.0000
  N   N25       1.0  0.55702  0.52575  0.00259  1.0000
  N   N26       1.0  0.47176  0.03317  0.98227  1.0000
  N   N27       1.0  0.96438  0.43959  0.96904  1.0000
  N   N28       1.0  0.54067  0.45606  0.94232  1.0000
  N   N29       1.0  0.53923  0.08914  0.92558  1.0000
  N   N30       1.0  0.91023  0.45374  0.90371  1.0000
  N   N31       1.0  0.29698  0.66302  0.97104  1.0000
  N   N32       1.0  0.33959  0.63597  0.96717  1.0000
  N   N33       1.0  0.36704  0.70553  0.97250  1.0000
  N   N34       1.0  0.65157  0.36167  0.47292  1.0000
  N   N35       1.0  0.63798  0.29574  0.48852  1.0000
  N   N36       1.0  0.70474  0.34843  0.48364  1.0000
  C  Sn1       1.0  0.42485  0.64284  0.38958  1.0000
  C   C61       1.0  0.41349  0.66705  0.47556  1.0000
  C  Sn2       1.0  0.44151  0.70583  0.52441  1.0000
  C  Sn3       1.0  0.48172  0.72073  0.48643  1.0000
  C   C62       1.0  0.49306  0.69654  0.40048  1.0000
  C  Sn4       1.0  0.46506  0.65775  0.35161  1.0000
  O  Te1       1.0  0.39633  0.60417  0.34196  1.0000
  O  Te2       1.0  0.42945  0.72946  0.61029  1.0000
  O  Te3       1.0  0.51024  0.75944  0.53415  1.0000
  O  Te4       1.0  0.47710  0.63413  0.26575  1.0000
  Mg  Mg1       1.0  0.47928  0.78015  0.64862  1.0000
  Mg  Mg2       1.0  0.42729  0.58344  0.22729  1.0000
  C  Sn5       1.0  0.28408  0.73265  0.47999  1.0000
  C   C63       1.0  0.31469  0.72761  0.41907  1.0000
  C  Sn6       1.0  0.34884  0.75941  0.36195  1.0000
  C  Sn7       1.0  0.35249  0.79703  0.36589  1.0000
  C   C64       1.0  0.32189  0.80206  0.42680  1.0000
  C  Sn8       1.0  0.28772  0.77028  0.48393  1.0000
  O  Te5       1.0  0.25021  0.70045  0.53646  1.0000
  O  Te6       1.0  0.37904  0.75364  0.30156  1.0000
  O  Te7       1.0  0.38639  0.82925  0.30935  1.0000
  O  Te8       1.0  0.25754  0.77603  0.54432  1.0000
  Mg  Mg3       1.0  0.41943  0.80660  0.23858  1.0000
  Mg  Mg4       1.0  0.21715  0.72309  0.60741  1.0000
  C  Sn9       1.0  0.21311  0.55356  0.32990  1.0000
  C   C65       1.0  0.20913  0.52016  0.40019  1.0000
  C  Sn10      1.0  0.23578  0.52367  0.52474  1.0000
  C  Sn11      1.0  0.26705  0.56135  0.58029  1.0000
  C   C66       1.0  0.27102  0.59471  0.51005  1.0000
  C  Sn12      1.0  0.24438  0.59123  0.38545  1.0000
  O  Te9       1.0  0.18613  0.54936  0.20555  1.0000
  O  Te10      1.0  0.23120  0.48986  0.59308  1.0000
  O  Te11      1.0  0.29404  0.56552  0.70475  1.0000
  O  Te12      1.0  0.24895  0.62502  0.31715  1.0000
  Mg  Mg5       1.0  0.27546  0.51074  0.75938  1.0000
  Mg  Mg6       1.0  0.20469  0.60417  0.15092  1.0000
  C  Sn13      1.0  0.46106  0.73626  0.99967  1.0000
  C   C67       1.0  0.42572  0.70533  0.92965  1.0000
  C  Sn14      1.0  0.42403  0.67114  0.86310  1.0000
  C  Sn15      1.0  0.45838  0.66777  0.86669  1.0000
  C   C68       1.0  0.49369  0.69868  0.93671  1.0000
  C  Sn16      1.0  0.48774  0.71868  0.00326  1.0000
  O  Te13      1.0  0.45440  0.75596  0.06548  1.0000
  O  Te14      1.0  0.38837  0.64062  0.79371  1.0000
  O  Te15      1.0  0.45734  0.63382  0.80080  1.0000
  O  Te16      1.0  0.52338  0.74918  0.07264  1.0000
  Mg  Mg7       1.0  0.40186  0.60031  0.71987  1.0000
  Mg  Mg8       1.0  0.50992  0.78950  0.14659  1.0000
  C  Sn17      1.0  0.35797  0.77850  0.89845  1.0000
  C   C69       1.0  0.33566  0.74530  0.98827  1.0000
  C  Sn18      1.0  0.28954  0.72040  0.03176  1.0000
  C  Sn19      1.0  0.28067  0.75756  0.98438  1.0000
  C   C70       1.0  0.30297  0.79073  0.89459  1.0000
  C  Sn20      1.0  0.34144  0.80146  0.85107  1.0000
  O  Te17      1.0  0.39636  0.78865  0.85631  1.0000
  O  Te18      1.0  0.26782  0.68709  0.12164  1.0000
  O  Te19      1.0  0.23459  0.73318  0.02661  1.0000
  O  Te20      1.0  0.36316  0.83474  0.76122  1.0000
  Mg  Mg9       1.0  0.21676  0.68524  0.14967  1.0000
  Mg  Mg10      1.0  0.41421  0.83661  0.73305  1.0000
  C  Sn21      1.0  0.24357  0.53461  0.08775  1.0000
  C   C71       1.0  0.20720  0.52038  0.00415  1.0000
  C  Sn22      1.0  0.21023  0.55657  0.88479  1.0000
  C  Sn23      1.0  0.24265  0.59352  0.84815  1.0000
  C   C72       1.0  0.27899  0.60772  0.93170  1.0000
  C  Sn24      1.0  0.27599  0.57156  0.05111  1.0000
  O  Te21      1.0  0.24752  0.51214  0.20660  1.0000
  O  Te22      1.0  0.17358  0.54174  0.80289  1.0000
  O  Te23      1.0  0.23867  0.61598  0.72920  1.0000
  O  Te24      1.0  0.31261  0.58636  0.13297  1.0000
  Mg  Mg11      1.0  0.18288  0.58324  0.65097  1.0000
  Mg  Mg12      1.0  0.30335  0.54488  0.28483  1.0000
  C  Sn25      1.0  0.55458  0.59360  0.35834  1.0000
  C   C73       1.0  0.52009  0.56200  0.41451  1.0000
  C  Sn26      1.0  0.48750  0.56608  0.45185  1.0000
  C  Sn27      1.0  0.48942  0.60249  0.43254  1.0000
  C   C74       1.0  0.52389  0.63406  0.37637  1.0000
  C  Sn28      1.0  0.55650  0.63001  0.33903  1.0000
  O  Te25      1.0  0.58679  0.58886  0.32175  1.0000
  O  Te26      1.0  0.45335  0.53407  0.50786  1.0000
  O  Te27      1.0  0.45717  0.60720  0.46919  1.0000
  O  Te28      1.0  0.59063  0.66199  0.28302  1.0000
  Mg  Mg13      1.0  0.41723  0.55503  0.54150  1.0000
  Mg  Mg14      1.0  0.62676  0.64107  0.24926  1.0000
  C  Sn29      1.0  0.40512  0.89591  0.48399  1.0000
  C   C75       1.0  0.37117  0.89509  0.42460  1.0000
  C  Sn30      1.0  0.37401  0.92191  0.31101  1.0000
  C  Sn31      1.0  0.41155  0.95013  0.25555  1.0000
  C   C76       1.0  0.44547  0.95094  0.31491  1.0000
  C  Sn32      1.0  0.44267  0.92413  0.42853  1.0000
  O  Te29      1.0  0.40159  0.86881  0.59749  1.0000
  O  Te30      1.0  0.33965  0.92053  0.25344  1.0000
  O  Te31      1.0  0.41506  0.97724  0.14197  1.0000
  O  Te32      1.0  0.47700  0.92550  0.48607  1.0000
  Mg  Mg15      1.0  0.35971  0.96361  0.09963  1.0000
  Mg  Mg16      1.0  0.45697  0.88242  0.63980  1.0000
  C  Sn33      1.0  0.04397  0.44954  0.33805  1.0000
  C   C77       1.0  0.04461  0.48380  0.39648  1.0000
  C  Sn34      1.0  0.08005  0.51686  0.45248  1.0000
  C  Sn35      1.0  0.11561  0.51567  0.44995  1.0000
  C   C78       1.0  0.11496  0.48143  0.39153  1.0000
  C  Sn36      1.0  0.07953  0.44835  0.33552  1.0000
  O  Te33      1.0  0.00819  0.41684  0.28265  1.0000
  O  Te34      1.0  0.07995  0.55076  0.51038  1.0000
  O  Te35      1.0  0.15140  0.54840  0.50542  1.0000
  O  Te36      1.0  0.07962  0.41446  0.27762  1.0000
  Mg  Mg17      1.0  0.13612  0.58775  0.57274  1.0000
  Mg  Mg18      1.0  0.02347  0.37747  0.21516  1.0000
  C  Sn37      1.0  0.42468  0.33781  0.06507  1.0000
  C   C79       1.0  0.45234  0.32619  0.03033  1.0000
  C  Sn38      1.0  0.49039  0.34729  0.10229  1.0000
  C  Sn39      1.0  0.50101  0.38069  0.21133  1.0000
  C   C80       1.0  0.47336  0.39229  0.24604  1.0000
  C  Sn40      1.0  0.43530  0.37121  0.17411  1.0000
  O  Te37      1.0  0.39447  0.33049  0.99175  1.0000
  O  Te38      1.0  0.51753  0.33512  0.06563  1.0000
  O  Te39      1.0  0.53891  0.40223  0.28466  1.0000
  O  Te40      1.0  0.40817  0.38337  0.21074  1.0000
  Mg  Mg19      1.0  0.56546  0.37403  0.19625  1.0000
  Mg  Mg20      1.0  0.36022  0.34447  0.08027  1.0000
  C  Sn41      1.0  0.66106  0.08534  0.07628  1.0000
  C   C81       1.0  0.67342  0.12439  0.04729  1.0000
  C  Sn42      1.0  0.65270  0.14205  0.11178  1.0000
  C  Sn43      1.0  0.61892  0.12024  0.20733  1.0000
  C   C82       1.0  0.60657  0.08122  0.23630  1.0000
  C  Sn44      1.0  0.62728  0.06353  0.17183  1.0000
  O  Te41      1.0  0.68222  0.06827  0.01062  1.0000
  O  Te42      1.0  0.66562  0.18113  0.08108  1.0000
  O  Te43      1.0  0.59775  0.13734  0.27300  1.0000
  O  Te44      1.0  0.61437  0.02448  0.20251  1.0000
  Mg  Mg21      1.0  0.62696  0.19139  0.19717  1.0000
  Mg  Mg22      1.0  0.65302  0.01419  0.08656  1.0000
  C  Sn45      1.0  0.85812  0.50232  0.15631  1.0000
  C   C83       1.0  0.86254  0.53751  0.10446  1.0000
  C  Sn46      1.0  0.90013  0.57026  0.09216  1.0000
  C  Sn47      1.0  0.93402  0.56778  0.13242  1.0000
  C   C84       1.0  0.92960  0.53261  0.18420  1.0000
  C  Sn48      1.0  0.89201  0.49984  0.19657  1.0000
  O  Te45      1.0  0.82025  0.46994  0.16769  1.0000
  O  Te46      1.0  0.90380  0.60513  0.04009  1.0000
  O  Te47      1.0  0.97191  0.60020  0.12099  1.0000
  O  Te48      1.0  0.88833  0.46499  0.24857  1.0000
  Mg  Mg23      1.0  0.96166  0.64117  0.04414  1.0000
  Mg  Mg24      1.0  0.83049  0.42892  0.24449  1.0000
  C  Sn49      1.0  0.56616  0.33161  0.93496  1.0000
  C   C85       1.0  0.57811  0.30064  0.01087  1.0000
  C  Sn50      1.0  0.55713  0.26190  0.05724  1.0000
  C  Sn51      1.0  0.51570  0.23942  0.02702  1.0000
  C   C86       1.0  0.50377  0.27038  0.95113  1.0000
  C  Sn52      1.0  0.52473  0.30914  0.90473  1.0000
  O  Te49      1.0  0.58773  0.37040  0.88963  1.0000
  O  Te50      1.0  0.57738  0.24578  0.13301  1.0000
  O  Te51      1.0  0.49413  0.20060  0.07243  1.0000
  O  Te52      1.0  0.50450  0.32525  0.82899  1.0000
  Mg  Mg25      1.0  0.53499  0.19173  0.17201  1.0000
  Mg  Mg26      1.0  0.54686  0.37929  0.78986  1.0000
  C  Sn53      1.0  0.74327  0.29076  0.06150  1.0000
  C   C87       1.0  0.71705  0.30069  0.98284  1.0000
  C  Sn54      1.0  0.68663  0.26359  0.92581  1.0000
  C  Sn55      1.0  0.69013  0.23005  0.94793  1.0000
  C   C88       1.0  0.71633  0.22013  0.02657  1.0000
  C  Sn56      1.0  0.74677  0.25722  0.08362  1.0000
  O  Te53      1.0  0.77331  0.32813  0.11754  1.0000
  O  Te54      1.0  0.65305  0.26006  0.84750  1.0000
  O  Te55      1.0  0.66005  0.19266  0.89181  1.0000
  O  Te56      1.0  0.78033  0.26076  0.16191  1.0000
  Mg  Mg27      1.0  0.62010  0.20291  0.79276  1.0000
  Mg  Mg28      1.0  0.81329  0.31788  0.21677  1.0000
  C  Sn57      1.0  0.77357  0.45556  0.81731  1.0000
  C   C89       1.0  0.77136  0.48746  0.88773  1.0000
  C  Sn58      1.0  0.73692  0.46781  0.01215  1.0000
  C  Sn59      1.0  0.71184  0.42970  0.06741  1.0000
  C   C90       1.0  0.72172  0.41204  0.99702  1.0000
  C  Sn60      1.0  0.74849  0.41745  0.87257  1.0000
  O  Te57      1.0  0.80057  0.46168  0.69309  1.0000
  O  Te58      1.0  0.73523  0.50015  0.08064  1.0000
  O  Te59      1.0  0.68482  0.42360  0.19173  1.0000
  O  Te60      1.0  0.75019  0.38514  0.80412  1.0000
  Mg  Mg29      1.0  0.69360  0.47688  0.24664  1.0000
  Mg  Mg30      1.0  0.79182  0.40838  0.63818  1.0000
  C  Sn61      1.0  0.54691  0.26107  0.49831  1.0000
  C   C91       1.0  0.57740  0.29606  0.44147  1.0000
  C  Sn62      1.0  0.57072  0.32654  0.40610  1.0000
  C  Sn63      1.0  0.53276  0.32198  0.42809  1.0000
  C   C92       1.0  0.50230  0.28701  0.48493  1.0000
  C  Sn64      1.0  0.50896  0.25650  0.52031  1.0000
  O  Te61      1.0  0.55427  0.23099  0.53291  1.0000
  O  Te62      1.0  0.60166  0.36124  0.34936  1.0000
  O  Te63      1.0  0.52543  0.35210  0.39343  1.0000
  O  Te64      1.0  0.47805  0.22183  0.57704  1.0000
  Mg  Mg31      1.0  0.57705  0.39379  0.31915  1.0000
  Mg  Mg32      1.0  0.50263  0.18927  0.60736  1.0000
  C  Sn65      1.0  0.68116  0.22513  0.36958  1.0000
  C   C93       1.0  0.71522  0.22945  0.44666  1.0000
  C  Sn66      1.0  0.73646  0.25994  0.56705  1.0000
  C  Sn67      1.0  0.72337  0.28666  0.61141  1.0000
  C   C94       1.0  0.68934  0.28234  0.53438  1.0000
  C  Sn68      1.0  0.66808  0.25186  0.41395  1.0000
  O  Te65      1.0  0.66039  0.19443  0.24957  1.0000
  O  Te66      1.0  0.77042  0.26366  0.64234  1.0000
  O  Te67      1.0  0.74418  0.31738  0.73153  1.0000
  O  Te68      1.0  0.63413  0.24813  0.33870  1.0000
  Mg  Mg33      1.0  0.78865  0.31023  0.79889  1.0000
  Mg  Mg34      1.0  0.61588  0.20155  0.18221  1.0000
  C  Sn69      1.0  0.77402  0.45560  0.32420  1.0000
  C   C95       1.0  0.77294  0.48853  0.38912  1.0000
  C  Sn70      1.0  0.74540  0.48460  0.50766  1.0000
  C  Sn71      1.0  0.71838  0.44697  0.56255  1.0000
  C   C96       1.0  0.71947  0.41406  0.49766  1.0000
  C  Sn72      1.0  0.74700  0.41796  0.37908  1.0000
  O  Te69      1.0  0.80180  0.46022  0.20581  1.0000
  O  Te70      1.0  0.74488  0.51796  0.57072  1.0000
  O  Te71      1.0  0.69058  0.44237  0.68103  1.0000
  O  Te72      1.0  0.74753  0.38463  0.31606  1.0000
  Mg  Mg35      1.0  0.70152  0.49662  0.72989  1.0000
  Mg  Mg36      1.0  0.79089  0.40594  0.15696  1.0000
  C  Sn73      1.0  0.48697  0.58945  0.00925  1.0000
  C   C97       1.0  0.52789  0.63501  0.94422  1.0000
  C  Sn74      1.0  0.55114  0.62807  0.83200  1.0000
  C  Sn75      1.0  0.54091  0.58898  0.78368  1.0000
  C   C98       1.0  0.50766  0.55765  0.84867  1.0000
  C  Sn76      1.0  0.48440  0.56456  0.96093  1.0000
  O  Te73      1.0  0.46415  0.59707  0.12126  1.0000
  O  Te74      1.0  0.58427  0.65990  0.76870  1.0000
  O  Te75      1.0  0.56377  0.58137  0.67158  1.0000
  O  Te76      1.0  0.44363  0.51855  0.02419  1.0000
  Mg  Mg37      1.0  0.60605  0.63448  0.61965  1.0000
  Mg  Mg38      1.0  0.42182  0.54393  0.17318  1.0000
  C  Sn77      1.0  0.40034  0.95453  0.83143  1.0000
  C   C99       1.0  0.43414  0.95546  0.89348  1.0000
  C  Sn78      1.0  0.43268  0.92089  0.93559  1.0000
  C  Sn79      1.0  0.39669  0.88462  0.91517  1.0000
  C   C100      1.0  0.36291  0.88370  0.85314  1.0000
  C  Sn80      1.0  0.36434  0.91827  0.81101  1.0000
  O  Te77      1.0  0.40248  0.98946  0.79013  1.0000
  O  Te78      1.0  0.46686  0.92256  0.99744  1.0000
  O  Te79      1.0  0.39457  0.84968  0.95654  1.0000
  O  Te80      1.0  0.33019  0.91661  0.74917  1.0000
  Mg  Mg39      1.0  0.44140  0.85285  0.03601  1.0000
  Mg  Mg40      1.0  0.34797  0.97209  0.71049  1.0000
  C  Sn81      1.0  0.04286  0.44438  0.85518  1.0000
  C   C101      1.0  0.04361  0.47873  0.91302  1.0000
  C  Sn82      1.0  0.07940  0.51244  0.95994  1.0000
  C  Sn83      1.0  0.11519  0.51183  0.94873  1.0000
  C   C102      1.0  0.11443  0.47751  0.89090  1.0000
  C  Sn84      1.0  0.07865  0.44377  0.84397  1.0000
  O  Te81      1.0  0.00675  0.41102  0.80894  1.0000
  O  Te82      1.0  0.07174  0.53222  0.01744  1.0000
  O  Te83      1.0  0.15131  0.54523  0.99504  1.0000
  O  Te84      1.0  0.07864  0.40980  0.78648  1.0000
  Mg  Mg41      1.0  0.12840  0.57021  0.06560  1.0000
  Mg  Mg42      1.0  0.02201  0.37181  0.73821  1.0000
  C  Sn85      1.0  0.42265  0.34104  0.58004  1.0000
  C   C103      1.0  0.44956  0.32842  0.54587  1.0000
  C  Sn86      1.0  0.48737  0.34832  0.62043  1.0000
  C  Sn87      1.0  0.49851  0.38151  0.73156  1.0000
  C   C104      1.0  0.47161  0.39410  0.76570  1.0000
  C  Sn88      1.0  0.43379  0.37422  0.69117  1.0000
  O  Te85      1.0  0.38500  0.32070  0.50410  1.0000
  O  Te86      1.0  0.51377  0.33517  0.58429  1.0000
  O  Te87      1.0  0.53619  0.40185  0.80750  1.0000
  O  Te88      1.0  0.40739  0.38736  0.72728  1.0000
  Mg  Mg43      1.0  0.56167  0.37263  0.71879  1.0000
  Mg  Mg44      1.0  0.35949  0.34991  0.59293  1.0000
  C  Sn89      1.0  0.64338  0.07813  0.71503  1.0000
  C   C105      1.0  0.61012  0.08066  0.75679  1.0000
  C  Sn90      1.0  0.60527  0.11089  0.70026  1.0000
  C  Sn91      1.0  0.63425  0.13915  0.59978  1.0000
  C   C106      1.0  0.66748  0.13661  0.55804  1.0000
  C  Sn92      1.0  0.67236  0.10640  0.61455  1.0000
  O  Te89      1.0  0.64762  0.04766  0.77292  1.0000
  O  Te90      1.0  0.57177  0.11282  0.74369  1.0000
  O  Te91      1.0  0.62998  0.16963  0.54190  1.0000
  O  Te92      1.0  0.70583  0.10445  0.57115  1.0000
  Mg  Mg45      1.0  0.57926  0.15979  0.63441  1.0000
  Mg  Mg46      1.0  0.69836  0.05749  0.68027  1.0000
  C  Sn93      1.0  0.92733  0.57040  0.70320  1.0000
  C   C107      1.0  0.92233  0.53468  0.75078  1.0000
  C  Sn94      1.0  0.89036  0.49925  0.68710  1.0000
  C  Sn95      1.0  0.86282  0.49954  0.57340  1.0000
  C   C108      1.0  0.86784  0.53525  0.52585  1.0000
  C  Sn96      1.0  0.89980  0.57069  0.58950  1.0000
  O  Te93      1.0  0.95951  0.60546  0.76843  1.0000
  O  Te94      1.0  0.88597  0.46390  0.73655  1.0000
  O  Te95      1.0  0.83063  0.46444  0.50818  1.0000
  O  Te96      1.0  0.90420  0.60602  0.54008  1.0000
  Mg  Mg47      1.0  0.83735  0.42384  0.61323  1.0000
  Mg  Mg48      1.0  0.95281  0.64610  0.66325  1.0000
