data_image0
_chemical_formula_structural       H24C84N16O24C2Sn2C2HTe2HMgC2Sn2C2HTe2HMgC2Sn2C2HTe2HMgC2Sn2C2HTe2HMgC2Sn2C2HTe2HMgC2Sn2C2HTe2HMgC2Sn2C2HTe2HMgC2Sn2C2HTe2HMgC2Sn2C2HTe2HMgC2Sn2C2HTe2HMgC2Sn2C2HTe2HMgC2Sn2C2HTe2HMg
_chemical_formula_sum              "H48 C132 N16 O24 Sn24 Te24 Mg12"
_cell_length_a       32.14
_cell_length_b       31.8131
_cell_length_c       8.15503
_cell_angle_alpha    90.019
_cell_angle_beta     89.242
_cell_angle_gamma    120.282

_symmetry_space_group_name_H-M    'P1'
_space_group_IT_number       1

loop_
  _space_group_symop_operation_xyz
  'x, y, z'

loop_
  _atom_site_type_symbol
  _atom_site_label
  _atom_site_symmetry_multiplicity
  _atom_site_fract_x
  _atom_site_fract_y
  _atom_site_fract_z
  _atom_site_occupancy
  H   H1        1.0  0.38856  0.95469  0.27810  1.0000
  H   H2        1.0  0.04303  0.42903  0.30277  1.0000
  H   H3        1.0  0.56622  0.61407  0.27946  1.0000
  H   H4        1.0  0.04783  0.61256  0.21622  1.0000
  H   H5        1.0  0.56854  0.95269  0.19449  1.0000
  H   H6        1.0  0.38968  0.43521  0.21987  1.0000
  H   H7        1.0  0.61489  0.04475  0.19602  1.0000
  H   H8        1.0  0.95673  0.56884  0.21530  1.0000
  H   H9        1.0  0.43578  0.39018  0.22564  1.0000
  H   H10       1.0  0.95201  0.38507  0.29996  1.0000
  H   H11       1.0  0.43438  0.04669  0.28016  1.0000
  H   H12       1.0  0.61344  0.57029  0.28604  1.0000
  H   H13       1.0  0.38693  0.95536  0.80364  1.0000
  H   H14       1.0  0.04314  0.42881  0.79316  1.0000
  H   H15       1.0  0.56917  0.61489  0.77606  1.0000
  H   H16       1.0  0.04639  0.61332  0.71845  1.0000
  H   H17       1.0  0.56494  0.95306  0.70775  1.0000
  H   H18       1.0  0.38644  0.43095  0.71135  1.0000
  H   H19       1.0  0.61058  0.04508  0.71091  1.0000
  H   H20       1.0  0.95535  0.56891  0.71892  1.0000
  H   H21       1.0  0.43377  0.38721  0.71845  1.0000
  H   H22       1.0  0.95216  0.38549  0.78931  1.0000
  H   H23       1.0  0.43317  0.04742  0.80581  1.0000
  H   H24       1.0  0.61569  0.57034  0.78488  1.0000
  C   C1        1.0  0.41376  0.89512  0.41439  1.0000
  C   C2        1.0  0.10259  0.51585  0.42853  1.0000
  C   C3        1.0  0.48002  0.58541  0.41319  1.0000
  C   C4        1.0  0.10471  0.58310  0.08474  1.0000
  C   C5        1.0  0.48135  0.89436  0.07360  1.0000
  C   C6        1.0  0.41587  0.51984  0.07344  1.0000
  C   C7        1.0  0.58754  0.10474  0.07689  1.0000
  C   C8        1.0  0.89676  0.48293  0.08370  1.0000
  C   C9        1.0  0.52120  0.41716  0.08827  1.0000
  C   C10       1.0  0.89470  0.41519  0.42392  1.0000
  C   C11       1.0  0.51853  0.10536  0.41896  1.0000
  C   C12       1.0  0.58752  0.48469  0.42635  1.0000
  C   C13       1.0  0.44147  0.94892  0.41647  1.0000
  C   C14       1.0  0.04933  0.49035  0.43226  1.0000
  C   C15       1.0  0.50683  0.55892  0.41794  1.0000
  C   C16       1.0  0.05147  0.55674  0.08257  1.0000
  C   C17       1.0  0.50814  0.94823  0.07134  1.0000
  C   C18       1.0  0.44338  0.49411  0.07499  1.0000
  C   C19       1.0  0.55998  0.05088  0.07254  1.0000
  C   C20       1.0  0.95003  0.50797  0.08160  1.0000
  C   C21       1.0  0.49484  0.44409  0.08256  1.0000
  C   C22       1.0  0.94789  0.44123  0.42986  1.0000
  C   C23       1.0  0.49258  0.05150  0.41861  1.0000
  C   C24       1.0  0.55941  0.50991  0.42503  1.0000
  C   C25       1.0  0.42300  0.97496  0.33914  1.0000
  C   C26       1.0  0.02324  0.44482  0.35927  1.0000
  C   C27       1.0  0.55202  0.57915  0.34189  1.0000
  C   C28       1.0  0.02684  0.57737  0.15753  1.0000
  C   C29       1.0  0.55367  0.97353  0.14087  1.0000
  C   C30       1.0  0.42444  0.44969  0.15760  1.0000
  C   C31       1.0  0.57944  0.02460  0.14149  1.0000
  C   C32       1.0  0.97634  0.55311  0.15701  1.0000
  C   C33       1.0  0.45004  0.42476  0.16103  1.0000
  C   C34       1.0  0.97276  0.42043  0.35777  1.0000
  C   C35       1.0  0.44844  0.02600  0.34019  1.0000
  C   C36       1.0  0.57819  0.55479  0.34542  1.0000
  C   C37       1.0  0.48773  0.97407  0.00006  1.0000
  C   C38       1.0  0.02563  0.51100  0.00536  1.0000
  C   C39       1.0  0.48884  0.51458  0.99525  1.0000
  C   C40       1.0  0.51398  0.02600  0.00054  1.0000
  C   C41       1.0  0.97423  0.48635  0.00462  1.0000
  C   C42       1.0  0.51503  0.48937  0.99969  1.0000
  C   C43       1.0  0.41422  0.89547  0.92330  1.0000
  C   C44       1.0  0.10315  0.51424  0.92891  1.0000
  C   C45       1.0  0.48241  0.58660  0.90570  1.0000
  C   C46       1.0  0.10388  0.58471  0.58392  1.0000
  C   C47       1.0  0.47978  0.89442  0.57359  1.0000
  C   C48       1.0  0.41276  0.51695  0.57349  1.0000
  C   C49       1.0  0.58453  0.10465  0.57838  1.0000
  C   C50       1.0  0.89573  0.48305  0.58507  1.0000
  C   C51       1.0  0.52068  0.41676  0.58964  1.0000
  C   C52       1.0  0.89496  0.41459  0.92396  1.0000
  C   C53       1.0  0.52020  0.10558  0.92712  1.0000
  C   C54       1.0  0.58857  0.48458  0.92466  1.0000
  C   C55       1.0  0.44179  0.94928  0.92775  1.0000
  C   C56       1.0  0.04987  0.48937  0.92883  1.0000
  C   C57       1.0  0.50909  0.55997  0.91304  1.0000
  C   C58       1.0  0.05058  0.55789  0.58372  1.0000
  C   C59       1.0  0.50614  0.94827  0.57273  1.0000
  C   C60       1.0  0.44088  0.49175  0.57509  1.0000
  C   C61       1.0  0.55724  0.05084  0.57499  1.0000
  C   C62       1.0  0.94903  0.50844  0.58343  1.0000
  C   C63       1.0  0.49356  0.44293  0.58276  1.0000
  C   C64       1.0  0.94829  0.44077  0.92629  1.0000
  C   C65       1.0  0.49352  0.05178  0.92931  1.0000
  C   C66       1.0  0.56088  0.51020  0.92237  1.0000
  C   C67       1.0  0.42233  0.97552  0.85848  1.0000
  C   C68       1.0  0.02353  0.44448  0.85188  1.0000
  C   C69       1.0  0.55446  0.57989  0.83824  1.0000
  C   C70       1.0  0.02567  0.57815  0.65943  1.0000
  C   C71       1.0  0.55061  0.97374  0.64922  1.0000
  C   C72       1.0  0.42189  0.44665  0.65328  1.0000
  C   C73       1.0  0.57601  0.02480  0.65058  1.0000
  C   C74       1.0  0.97513  0.55352  0.65947  1.0000
  C   C75       1.0  0.44813  0.42236  0.65740  1.0000
  C   C76       1.0  0.97300  0.42036  0.85012  1.0000
  C   C77       1.0  0.44803  0.02657  0.85949  1.0000
  C   C78       1.0  0.58029  0.55518  0.84307  1.0000
  C   C79       1.0  0.48642  0.97391  0.49524  1.0000
  C   C80       1.0  0.02490  0.51196  0.50765  1.0000
  C   C81       1.0  0.48688  0.51331  0.49862  1.0000
  C   C82       1.0  0.51232  0.02586  0.49611  1.0000
  C   C83       1.0  0.97350  0.48704  0.50684  1.0000
  C   C84       1.0  0.51352  0.48853  0.50226  1.0000
  N   N1        1.0  0.43538  0.87102  0.00014  1.0000
  N   N2        1.0  0.12763  0.56027  0.00615  1.0000
  N   N3        1.0  0.43690  0.56462  0.98644  1.0000
  N   N4        1.0  0.56589  0.12911  0.00240  1.0000
  N   N5        1.0  0.87223  0.43738  0.00420  1.0000
  N   N6        1.0  0.56676  0.43911  0.00778  1.0000
  N   N7        1.0  0.33215  0.66440  0.99564  1.0000
  N   N8        1.0  0.66788  0.33568  0.00336  1.0000
  N   N9        1.0  0.43449  0.87086  0.49554  1.0000
  N   N10       1.0  0.12687  0.56183  0.50583  1.0000
  N   N11       1.0  0.43441  0.56282  0.49331  1.0000
  N   N12       1.0  0.56354  0.12887  0.49848  1.0000
  N   N13       1.0  0.87159  0.43772  0.50346  1.0000
  N   N14       1.0  0.56601  0.43892  0.50753  1.0000
  N   N15       1.0  0.33133  0.66431  0.49777  1.0000
  N   N16       1.0  0.66724  0.33544  0.50157  1.0000
  O   O1        1.0  0.37484  0.87240  0.34493  1.0000
  O   O2        1.0  0.12501  0.49864  0.36042  1.0000
  O   O3        1.0  0.49600  0.62494  0.34295  1.0000
  O   O4        1.0  0.12825  0.62277  0.15210  1.0000
  O   O5        1.0  0.49773  0.87069  0.13643  1.0000
  O   O6        1.0  0.37671  0.50365  0.14460  1.0000
  O   O7        1.0  0.62696  0.12738  0.14338  1.0000
  O   O8        1.0  0.87459  0.50030  0.15246  1.0000
  O   O9        1.0  0.50478  0.37777  0.15986  1.0000
  O   O10       1.0  0.87144  0.37612  0.35266  1.0000
  O   O11       1.0  0.50233  0.12880  0.35305  1.0000
  O   O12       1.0  0.62742  0.50207  0.35955  1.0000
  O   O13       1.0  0.37503  0.87278  0.85551  1.0000
  O   O14       1.0  0.12538  0.49640  0.86373  1.0000
  O   O15       1.0  0.49850  0.62570  0.83246  1.0000
  O   O16       1.0  0.12736  0.62477  0.64881  1.0000
  O   O17       1.0  0.49589  0.87090  0.63952  1.0000
  O   O18       1.0  0.37275  0.49952  0.63958  1.0000
  O   O19       1.0  0.62340  0.12762  0.64783  1.0000
  O   O20       1.0  0.87316  0.49989  0.65456  1.0000
  O   O21       1.0  0.50499  0.37781  0.66350  1.0000
  O   O22       1.0  0.87111  0.37517  0.85539  1.0000
  O   O23       1.0  0.50398  0.12918  0.86280  1.0000
  O   O24       1.0  0.62825  0.50128  0.85666  1.0000
  C   C85       1.0  0.42736  0.78145  0.40723  1.0000
  C   C86       1.0  0.41320  0.81355  0.46743  1.0000
  C  Sn1       1.0  0.36970  0.79581  0.55414  1.0000
  C  Sn2       1.0  0.33989  0.74497  0.58091  1.0000
  C   C87       1.0  0.35439  0.71317  0.52028  1.0000
  C   C88       1.0  0.39799  0.73131  0.43364  1.0000
  H   H25       1.0  0.46111  0.79549  0.34027  1.0000
  O  Te1       1.0  0.35609  0.82839  0.61338  1.0000
  O  Te2       1.0  0.29623  0.72626  0.66721  1.0000
  H   H26       1.0  0.40895  0.70645  0.38714  1.0000
  Mg  Mg1       1.0  0.29332  0.78527  0.72372  1.0000
  C   C89       1.0  0.24320  0.65552  0.40011  1.0000
  C   C90       1.0  0.27456  0.64540  0.48567  1.0000
  C  Sn3       1.0  0.25653  0.60262  0.57832  1.0000
  C  Sn4       1.0  0.20615  0.56944  0.58516  1.0000
  C   C91       1.0  0.17508  0.57988  0.49903  1.0000
  C   C92       1.0  0.19351  0.62280  0.40674  1.0000
  H   H27       1.0  0.25745  0.68871  0.32863  1.0000
  O  Te3       1.0  0.28837  0.59308  0.66311  1.0000
  O  Te4       1.0  0.18717  0.52641  0.67676  1.0000
  H   H28       1.0  0.16922  0.63061  0.34042  1.0000
  Mg  Mg2       1.0  0.24514  0.52961  0.77112  1.0000
  C   C93       1.0  0.41155  0.65644  0.59339  1.0000
  C   C94       1.0  0.36992  0.64617  0.50908  1.0000
  C  Sn5       1.0  0.34520  0.60335  0.41882  1.0000
  C  Sn6       1.0  0.36257  0.57026  0.41313  1.0000
  C   C95       1.0  0.40423  0.58086  0.49799  1.0000
  C   C96       1.0  0.42869  0.62382  0.58789  1.0000
  H   H29       1.0  0.43046  0.68967  0.66302  1.0000
  O  Te5       1.0  0.30368  0.59365  0.33526  1.0000
  O  Te6       1.0  0.33856  0.52719  0.32391  1.0000
  H   H30       1.0  0.46091  0.63175  0.65324  1.0000
  Mg  Mg3       1.0  0.28355  0.53017  0.23048  1.0000
  C   C97       1.0  0.24355  0.58249  0.09712  1.0000
  C   C98       1.0  0.27527  0.62487  0.01042  1.0000
  C  Sn7       1.0  0.25326  0.64795  0.92207  1.0000
  C  Sn8       1.0  0.20298  0.63036  0.92077  1.0000
  C   C99       1.0  0.17599  0.59012  0.00801  1.0000
  C   C100      1.0  0.19395  0.56512  0.09596  1.0000
  H   H31       1.0  0.25744  0.56316  0.16525  1.0000
  O  Te7       1.0  0.28546  0.69023  0.83607  1.0000
  O  Te8       1.0  0.18446  0.65490  0.83355  1.0000
  H   H32       1.0  0.16938  0.53232  0.16316  1.0000
  Mg  Mg4       1.0  0.24279  0.71087  0.73544  1.0000
  C   C101      1.0  0.35311  0.78114  0.09177  1.0000
  C   C102      1.0  0.39904  0.81354  0.02851  1.0000
  C  Sn9       1.0  0.41969  0.79413  0.93580  1.0000
  C  Sn10      1.0  0.39831  0.74351  0.90603  1.0000
  C   C103      1.0  0.35234  0.71139  0.96976  1.0000
  C   C104      1.0  0.33200  0.73120  0.06242  1.0000
  H   H33       1.0  0.33392  0.79478  0.16339  1.0000
  O  Te9       1.0  0.46554  0.82701  0.87356  1.0000
  O  Te10      1.0  0.42258  0.72531  0.81371  1.0000
  H   H34       1.0  0.29643  0.70611  0.11129  1.0000
  Mg  Mg5       1.0  0.48428  0.78457  0.75505  1.0000
  C   C105      1.0  0.35424  0.56957  0.90255  1.0000
  C   C106      1.0  0.40062  0.58499  0.95870  1.0000
  C  Sn11      1.0  0.43035  0.63088  0.04395  1.0000
  C  Sn12      1.0  0.40869  0.65960  0.07339  1.0000
  C   C107      1.0  0.36226  0.64383  0.01682  1.0000
  C   C108      1.0  0.33285  0.59786  0.93159  1.0000
  H   H35       1.0  0.33490  0.53568  0.83669  1.0000
  O  Te11      1.0  0.47666  0.64576  0.09914  1.0000
  O  Te12      1.0  0.43314  0.70343  0.15833  1.0000
  H   H36       1.0  0.29692  0.58591  0.88823  1.0000
  Mg  Mg6       1.0  0.49549  0.70827  0.20905  1.0000
  C   C109      1.0  0.64687  0.21919  0.90538  1.0000
  C   C110      1.0  0.60402  0.18653  0.98705  1.0000
  C  Sn13      1.0  0.58279  0.20584  0.07687  1.0000
  C  Sn14      1.0  0.60042  0.25663  0.08480  1.0000
  C   C111      1.0  0.64331  0.28900  0.00257  1.0000
  C   C112      1.0  0.66428  0.26928  0.91309  1.0000
  H   H37       1.0  0.66652  0.20562  0.83607  1.0000
  O  Te13      1.0  0.54004  0.17272  0.15778  1.0000
  O  Te14      1.0  0.57547  0.27474  0.17364  1.0000
  H   H38       1.0  0.69744  0.29457  0.84978  1.0000
  Mg  Mg7       1.0  0.51894  0.21512  0.26308  1.0000
  C   C113      1.0  0.75553  0.34237  0.09611  1.0000
  C   C114      1.0  0.72442  0.35655  0.03120  1.0000
  C  Sn15      1.0  0.73842  0.39809  0.94377  1.0000
  C  Sn16      1.0  0.78897  0.42808  0.92108  1.0000
  C   C115      1.0  0.81979  0.41356  0.98640  1.0000
  C   C116      1.0  0.80540  0.37193  0.07373  1.0000
  H   H39       1.0  0.74096  0.30846  0.16360  1.0000
  O  Te15      1.0  0.70682  0.41171  0.87980  1.0000
  O  Te16      1.0  0.80837  0.47195  0.83415  1.0000
  H   H40       1.0  0.82950  0.36095  0.12388  1.0000
  Mg  Mg8       1.0  0.75060  0.47481  0.77048  1.0000
  C   C117      1.0  0.66095  0.41766  0.09761  1.0000
  C   C118      1.0  0.64725  0.37192  0.03252  1.0000
  C  Sn17      1.0  0.60013  0.34440  0.94494  1.0000
  C  Sn18      1.0  0.57070  0.36535  0.92227  1.0000
  C   C119      1.0  0.58474  0.41114  0.98778  1.0000
  C   C120      1.0  0.63195  0.43836  0.07525  1.0000
  H   H41       1.0  0.69406  0.43705  0.16522  1.0000
  O  Te17      1.0  0.58697  0.29873  0.88078  1.0000
  O  Te18      1.0  0.52787  0.34082  0.83519  1.0000
  H   H42       1.0  0.64257  0.47379  0.12555  1.0000
  Mg  Mg9       1.0  0.52530  0.27951  0.77130  1.0000
  C   C121      1.0  0.78396  0.43098  0.40728  1.0000
  C   C122      1.0  0.81512  0.41952  0.48779  1.0000
  C  Sn19      1.0  0.79679  0.37590  0.57568  1.0000
  C  Sn20      1.0  0.74631  0.34320  0.58284  1.0000
  C   C123      1.0  0.71544  0.35499  0.50177  1.0000
  C   C124      1.0  0.73417  0.39875  0.41422  1.0000
  H   H43       1.0  0.79844  0.46483  0.33946  1.0000
  O  Te19      1.0  0.82843  0.36502  0.65546  1.0000
  O  Te20      1.0  0.72702  0.29934  0.66975  1.0000
  H   H44       1.0  0.71003  0.40760  0.35181  1.0000
  Mg  Mg10      1.0  0.78481  0.30080  0.75822  1.0000
  C   C125      1.0  0.65916  0.24598  0.40589  1.0000
  C   C126      1.0  0.64624  0.27806  0.47511  1.0000
  C  Sn21      1.0  0.60353  0.26018  0.56673  1.0000
  C  Sn22      1.0  0.57327  0.20922  0.58931  1.0000
  C   C127      1.0  0.58653  0.17743  0.51966  1.0000
  C   C128      1.0  0.62934  0.19572  0.42816  1.0000
  H   H45       1.0  0.69229  0.26012  0.33517  1.0000
  O  Te21      1.0  0.59116  0.29273  0.63498  1.0000
  O  Te22      1.0  0.53039  0.19037  0.68038  1.0000
  H   H46       1.0  0.63935  0.17087  0.37467  1.0000
  Mg  Mg11      1.0  0.52908  0.24941  0.74900  1.0000
  C   C129      1.0  0.64630  0.43064  0.60154  1.0000
  C   C130      1.0  0.60413  0.42026  0.52073  1.0000
  C  Sn23      1.0  0.57876  0.37727  0.43176  1.0000
  C  Sn24      1.0  0.59602  0.34412  0.42382  1.0000
  C   C131      1.0  0.63823  0.35482  0.50519  1.0000
  C   C132      1.0  0.66334  0.39795  0.59383  1.0000
  H   H47       1.0  0.66572  0.46399  0.67020  1.0000
  O  Te23      1.0  0.53670  0.36748  0.35169  1.0000
  O  Te24      1.0  0.57136  0.30088  0.33582  1.0000
  H   H48       1.0  0.69597  0.40595  0.65647  1.0000
  Mg  Mg12      1.0  0.51578  0.30377  0.24735  1.0000
