data_image0
_chemical_formula_structural       H24C84N16O24SnCSn2CSnTe4Mg2SnCSn2CSnTe4Mg2SnCSn2CSnTe4Mg2SnCSn2CSnTe4Mg2SnCSn2CSnTe4Mg2SnCSn2CSnTe4Mg2SnCSn2CSnTe4Mg2SnCSn2CSnTe4Mg2SnCSn2CSnTe4Mg2SnCSn2CSnTe4Mg2SnCSn2CSnTe4Mg2SnCSn2CSnTe4Mg2
_chemical_formula_sum              "H24 C108 N16 O24 Sn48 Te48 Mg24"
_cell_length_a       32.14
_cell_length_b       31.8131
_cell_length_c       8.15503
_cell_angle_alpha    90.019
_cell_angle_beta     89.242
_cell_angle_gamma    120.282

_symmetry_space_group_name_H-M    'P1'
_space_group_IT_number       1

loop_
  _space_group_symop_operation_xyz
  'x, y, z'

loop_
  _atom_site_type_symbol
  _atom_site_label
  _atom_site_symmetry_multiplicity
  _atom_site_fract_x
  _atom_site_fract_y
  _atom_site_fract_z
  _atom_site_occupancy
  H   H1        1.0  0.38856  0.95469  0.27810  1.0000
  H   H2        1.0  0.04303  0.42903  0.30277  1.0000
  H   H3        1.0  0.56622  0.61407  0.27946  1.0000
  H   H4        1.0  0.04783  0.61256  0.21622  1.0000
  H   H5        1.0  0.56854  0.95269  0.19449  1.0000
  H   H6        1.0  0.38968  0.43521  0.21987  1.0000
  H   H7        1.0  0.61489  0.04475  0.19602  1.0000
  H   H8        1.0  0.95673  0.56884  0.21530  1.0000
  H   H9        1.0  0.43578  0.39018  0.22564  1.0000
  H   H10       1.0  0.95201  0.38507  0.29996  1.0000
  H   H11       1.0  0.43438  0.04669  0.28016  1.0000
  H   H12       1.0  0.61344  0.57029  0.28604  1.0000
  H   H13       1.0  0.38693  0.95536  0.80364  1.0000
  H   H14       1.0  0.04314  0.42881  0.79316  1.0000
  H   H15       1.0  0.56917  0.61489  0.77606  1.0000
  H   H16       1.0  0.04639  0.61332  0.71845  1.0000
  H   H17       1.0  0.56494  0.95306  0.70775  1.0000
  H   H18       1.0  0.38644  0.43095  0.71135  1.0000
  H   H19       1.0  0.61058  0.04508  0.71091  1.0000
  H   H20       1.0  0.95535  0.56891  0.71892  1.0000
  H   H21       1.0  0.43377  0.38721  0.71845  1.0000
  H   H22       1.0  0.95216  0.38549  0.78931  1.0000
  H   H23       1.0  0.43317  0.04742  0.80581  1.0000
  H   H24       1.0  0.61569  0.57034  0.78488  1.0000
  C   C1        1.0  0.41376  0.89512  0.41439  1.0000
  C   C2        1.0  0.10259  0.51585  0.42853  1.0000
  C   C3        1.0  0.48002  0.58541  0.41319  1.0000
  C   C4        1.0  0.10471  0.58310  0.08474  1.0000
  C   C5        1.0  0.48135  0.89436  0.07360  1.0000
  C   C6        1.0  0.41587  0.51984  0.07344  1.0000
  C   C7        1.0  0.58754  0.10474  0.07689  1.0000
  C   C8        1.0  0.89676  0.48293  0.08370  1.0000
  C   C9        1.0  0.52120  0.41716  0.08827  1.0000
  C   C10       1.0  0.89470  0.41519  0.42392  1.0000
  C   C11       1.0  0.51853  0.10536  0.41896  1.0000
  C   C12       1.0  0.58752  0.48469  0.42635  1.0000
  C   C13       1.0  0.44147  0.94892  0.41647  1.0000
  C   C14       1.0  0.04933  0.49035  0.43226  1.0000
  C   C15       1.0  0.50683  0.55892  0.41794  1.0000
  C   C16       1.0  0.05147  0.55674  0.08257  1.0000
  C   C17       1.0  0.50814  0.94823  0.07134  1.0000
  C   C18       1.0  0.44338  0.49411  0.07499  1.0000
  C   C19       1.0  0.55998  0.05088  0.07254  1.0000
  C   C20       1.0  0.95003  0.50797  0.08160  1.0000
  C   C21       1.0  0.49484  0.44409  0.08256  1.0000
  C   C22       1.0  0.94789  0.44123  0.42986  1.0000
  C   C23       1.0  0.49258  0.05150  0.41861  1.0000
  C   C24       1.0  0.55941  0.50991  0.42503  1.0000
  C   C25       1.0  0.42300  0.97496  0.33914  1.0000
  C   C26       1.0  0.02324  0.44482  0.35927  1.0000
  C   C27       1.0  0.55202  0.57915  0.34189  1.0000
  C   C28       1.0  0.02684  0.57737  0.15753  1.0000
  C   C29       1.0  0.55367  0.97353  0.14087  1.0000
  C   C30       1.0  0.42444  0.44969  0.15760  1.0000
  C   C31       1.0  0.57944  0.02460  0.14149  1.0000
  C   C32       1.0  0.97634  0.55311  0.15701  1.0000
  C   C33       1.0  0.45004  0.42476  0.16103  1.0000
  C   C34       1.0  0.97276  0.42043  0.35777  1.0000
  C   C35       1.0  0.44844  0.02600  0.34019  1.0000
  C   C36       1.0  0.57819  0.55479  0.34542  1.0000
  C   C37       1.0  0.48773  0.97407  0.00006  1.0000
  C   C38       1.0  0.02563  0.51100  0.00536  1.0000
  C   C39       1.0  0.48884  0.51458  0.99525  1.0000
  C   C40       1.0  0.51398  0.02600  0.00054  1.0000
  C   C41       1.0  0.97423  0.48635  0.00462  1.0000
  C   C42       1.0  0.51503  0.48937  0.99969  1.0000
  C   C43       1.0  0.41422  0.89547  0.92330  1.0000
  C   C44       1.0  0.10315  0.51424  0.92891  1.0000
  C   C45       1.0  0.48241  0.58660  0.90570  1.0000
  C   C46       1.0  0.10388  0.58471  0.58392  1.0000
  C   C47       1.0  0.47978  0.89442  0.57359  1.0000
  C   C48       1.0  0.41276  0.51695  0.57349  1.0000
  C   C49       1.0  0.58453  0.10465  0.57838  1.0000
  C   C50       1.0  0.89573  0.48305  0.58507  1.0000
  C   C51       1.0  0.52068  0.41676  0.58964  1.0000
  C   C52       1.0  0.89496  0.41459  0.92396  1.0000
  C   C53       1.0  0.52020  0.10558  0.92712  1.0000
  C   C54       1.0  0.58857  0.48458  0.92466  1.0000
  C   C55       1.0  0.44179  0.94928  0.92775  1.0000
  C   C56       1.0  0.04987  0.48937  0.92883  1.0000
  C   C57       1.0  0.50909  0.55997  0.91304  1.0000
  C   C58       1.0  0.05058  0.55789  0.58372  1.0000
  C   C59       1.0  0.50614  0.94827  0.57273  1.0000
  C   C60       1.0  0.44088  0.49175  0.57509  1.0000
  C   C61       1.0  0.55724  0.05084  0.57499  1.0000
  C   C62       1.0  0.94903  0.50844  0.58343  1.0000
  C   C63       1.0  0.49356  0.44293  0.58276  1.0000
  C   C64       1.0  0.94829  0.44077  0.92629  1.0000
  C   C65       1.0  0.49352  0.05178  0.92931  1.0000
  C   C66       1.0  0.56088  0.51020  0.92237  1.0000
  C   C67       1.0  0.42233  0.97552  0.85848  1.0000
  C   C68       1.0  0.02353  0.44448  0.85188  1.0000
  C   C69       1.0  0.55446  0.57989  0.83824  1.0000
  C   C70       1.0  0.02567  0.57815  0.65943  1.0000
  C   C71       1.0  0.55061  0.97374  0.64922  1.0000
  C   C72       1.0  0.42189  0.44665  0.65328  1.0000
  C   C73       1.0  0.57601  0.02480  0.65058  1.0000
  C   C74       1.0  0.97513  0.55352  0.65947  1.0000
  C   C75       1.0  0.44813  0.42236  0.65740  1.0000
  C   C76       1.0  0.97300  0.42036  0.85012  1.0000
  C   C77       1.0  0.44803  0.02657  0.85949  1.0000
  C   C78       1.0  0.58029  0.55518  0.84307  1.0000
  C   C79       1.0  0.48642  0.97391  0.49524  1.0000
  C   C80       1.0  0.02490  0.51196  0.50765  1.0000
  C   C81       1.0  0.48688  0.51331  0.49862  1.0000
  C   C82       1.0  0.51232  0.02586  0.49611  1.0000
  C   C83       1.0  0.97350  0.48704  0.50684  1.0000
  C   C84       1.0  0.51352  0.48853  0.50226  1.0000
  N   N1        1.0  0.43538  0.87102  0.00014  1.0000
  N   N2        1.0  0.12763  0.56027  0.00615  1.0000
  N   N3        1.0  0.43690  0.56462  0.98644  1.0000
  N   N4        1.0  0.56589  0.12911  0.00240  1.0000
  N   N5        1.0  0.87223  0.43738  0.00420  1.0000
  N   N6        1.0  0.56676  0.43911  0.00778  1.0000
  N   N7        1.0  0.33215  0.66440  0.99564  1.0000
  N   N8        1.0  0.66788  0.33568  0.00336  1.0000
  N   N9        1.0  0.43449  0.87086  0.49554  1.0000
  N   N10       1.0  0.12687  0.56183  0.50583  1.0000
  N   N11       1.0  0.43441  0.56282  0.49331  1.0000
  N   N12       1.0  0.56354  0.12887  0.49848  1.0000
  N   N13       1.0  0.87159  0.43772  0.50346  1.0000
  N   N14       1.0  0.56601  0.43892  0.50753  1.0000
  N   N15       1.0  0.33133  0.66431  0.49777  1.0000
  N   N16       1.0  0.66724  0.33544  0.50157  1.0000
  O   O1        1.0  0.37484  0.87240  0.34493  1.0000
  O   O2        1.0  0.12501  0.49864  0.36042  1.0000
  O   O3        1.0  0.49600  0.62494  0.34295  1.0000
  O   O4        1.0  0.12825  0.62277  0.15210  1.0000
  O   O5        1.0  0.49773  0.87069  0.13643  1.0000
  O   O6        1.0  0.37671  0.50365  0.14460  1.0000
  O   O7        1.0  0.62696  0.12738  0.14338  1.0000
  O   O8        1.0  0.87459  0.50030  0.15246  1.0000
  O   O9        1.0  0.50478  0.37777  0.15986  1.0000
  O   O10       1.0  0.87144  0.37612  0.35266  1.0000
  O   O11       1.0  0.50233  0.12880  0.35305  1.0000
  O   O12       1.0  0.62742  0.50207  0.35955  1.0000
  O   O13       1.0  0.37503  0.87278  0.85551  1.0000
  O   O14       1.0  0.12538  0.49640  0.86373  1.0000
  O   O15       1.0  0.49850  0.62570  0.83246  1.0000
  O   O16       1.0  0.12736  0.62477  0.64881  1.0000
  O   O17       1.0  0.49589  0.87090  0.63952  1.0000
  O   O18       1.0  0.37275  0.49952  0.63958  1.0000
  O   O19       1.0  0.62340  0.12762  0.64783  1.0000
  O   O20       1.0  0.87316  0.49989  0.65456  1.0000
  O   O21       1.0  0.50499  0.37781  0.66350  1.0000
  O   O22       1.0  0.87111  0.37517  0.85539  1.0000
  O   O23       1.0  0.50398  0.12918  0.86280  1.0000
  O   O24       1.0  0.62825  0.50128  0.85666  1.0000
  C  Sn1       1.0  0.41662  0.75319  0.45070  1.0000
  C   C85       1.0  0.37170  0.72165  0.52268  1.0000
  C  Sn2       1.0  0.34131  0.73892  0.57244  1.0000
  C  Sn3       1.0  0.35611  0.78875  0.54968  1.0000
  C   C86       1.0  0.40100  0.82027  0.47771  1.0000
  C  Sn4       1.0  0.43142  0.80303  0.42794  1.0000
  O  Te1       1.0  0.44642  0.73513  0.40188  1.0000
  O  Te2       1.0  0.29657  0.70669  0.64416  1.0000
  O  Te3       1.0  0.32627  0.80680  0.59857  1.0000
  O  Te4       1.0  0.47613  0.83523  0.35623  1.0000
  Mg  Mg1       1.0  0.26872  0.74864  0.69035  1.0000
  Mg  Mg2       1.0  0.50400  0.79332  0.30992  1.0000
  C  Sn5       1.0  0.21433  0.57808  0.63064  1.0000
  C   C87       1.0  0.18360  0.59090  0.55419  1.0000
  C  Sn6       1.0  0.20115  0.62645  0.43086  1.0000
  C  Sn7       1.0  0.25043  0.64965  0.38284  1.0000
  C   C88       1.0  0.28113  0.63683  0.45925  1.0000
  C  Sn8       1.0  0.26362  0.60128  0.58263  1.0000
  O  Te5       1.0  0.19601  0.54244  0.75365  1.0000
  O  Te6       1.0  0.16974  0.63866  0.35626  1.0000
  O  Te7       1.0  0.26874  0.68532  0.25973  1.0000
  O  Te8       1.0  0.29499  0.58906  0.65719  1.0000
  Mg  Mg3       1.0  0.21175  0.68939  0.19473  1.0000
  Mg  Mg4       1.0  0.25302  0.53832  0.81866  1.0000
  C  Sn9       1.0  0.36283  0.57879  0.36739  1.0000
  C   C89       1.0  0.40663  0.59190  0.44164  1.0000
  C  Sn10      1.0  0.42476  0.62752  0.56297  1.0000
  C  Sn11      1.0  0.39854  0.65050  0.61118  1.0000
  C   C90       1.0  0.35477  0.63739  0.53696  1.0000
  C  Sn12      1.0  0.33661  0.60178  0.41559  1.0000
  O  Te9       1.0  0.34539  0.54309  0.24636  1.0000
  O  Te10      1.0  0.46864  0.64002  0.63539  1.0000
  O  Te11      1.0  0.41602  0.68623  0.73230  1.0000
  O  Te12      1.0  0.29276  0.58928  0.34321  1.0000
  Mg  Mg5       1.0  0.47744  0.69073  0.79473  1.0000
  Mg  Mg6       1.0  0.28392  0.53855  0.18393  1.0000
  C  Sn13      1.0  0.21566  0.57674  0.12919  1.0000
  C   C91       1.0  0.18444  0.58951  0.05618  1.0000
  C  Sn14      1.0  0.19697  0.62347  0.93492  1.0000
  C  Sn15      1.0  0.24616  0.64733  0.88551  1.0000
  C   C92       1.0  0.27735  0.63456  0.95849  1.0000
  C  Sn16      1.0  0.26486  0.60061  0.07979  1.0000
  O  Te13      1.0  0.19791  0.54051  0.25017  1.0000
  O  Te14      1.0  0.16507  0.63561  0.86375  1.0000
  O  Te15      1.0  0.26390  0.68359  0.76443  1.0000
  O  Te16      1.0  0.29672  0.58846  0.15092  1.0000
  Mg  Mg7       1.0  0.20639  0.68731  0.70395  1.0000
  Mg  Mg8       1.0  0.25543  0.53675  0.31066  1.0000
  C  Sn17      1.0  0.41736  0.78279  0.86501  1.0000
  C   C93       1.0  0.40519  0.81389  0.94619  1.0000
  C  Sn18      1.0  0.37449  0.79821  0.07062  1.0000
  C  Sn19      1.0  0.35103  0.74823  0.11493  1.0000
  C   C94       1.0  0.36320  0.71716  0.03380  1.0000
  C  Sn20      1.0  0.39390  0.73280  0.90932  1.0000
  O  Te17      1.0  0.45260  0.80143  0.74099  1.0000
  O  Te18      1.0  0.36293  0.83001  0.14997  1.0000
  O  Te19      1.0  0.31576  0.72960  0.23906  1.0000
  O  Te20      1.0  0.40547  0.70104  0.83002  1.0000
  Mg  Mg9       1.0  0.31254  0.78733  0.31108  1.0000
  Mg  Mg10      1.0  0.45586  0.74368  0.66896  1.0000
  C  Sn21      1.0  0.36442  0.57955  0.86297  1.0000
  C   C95       1.0  0.40869  0.59339  0.93492  1.0000
  C  Sn22      1.0  0.43148  0.63157  0.05494  1.0000
  C  Sn23      1.0  0.40502  0.65422  0.10415  1.0000
  C   C96       1.0  0.36078  0.64038  0.03224  1.0000
  C  Sn24      1.0  0.33795  0.60219  0.91218  1.0000
  O  Te21      1.0  0.34676  0.54347  0.74323  1.0000
  O  Te22      1.0  0.47583  0.64480  0.12506  1.0000
  O  Te23      1.0  0.42272  0.69033  0.22399  1.0000
  O  Te24      1.0  0.29363  0.58896  0.84210  1.0000
  Mg  Mg11      1.0  0.48478  0.69580  0.28336  1.0000
  Mg  Mg12      1.0  0.28464  0.53795  0.68386  1.0000
  C  Sn25      1.0  0.65164  0.24768  0.87334  1.0000
  C   C97       1.0  0.63913  0.27868  0.95333  1.0000
  C  Sn26      1.0  0.60758  0.26277  0.07493  1.0000
  C  Sn27      1.0  0.58361  0.21264  0.11754  1.0000
  C   C98       1.0  0.59614  0.18167  0.03760  1.0000
  C  Sn28      1.0  0.62768  0.19755  0.91595  1.0000
  O  Te25      1.0  0.68774  0.26656  0.75216  1.0000
  O  Te26      1.0  0.59568  0.29447  0.15314  1.0000
  O  Te27      1.0  0.54750  0.19377  0.23883  1.0000
  O  Te28      1.0  0.63958  0.16588  0.83779  1.0000
  Mg  Mg13      1.0  0.54411  0.25145  0.31027  1.0000
  Mg  Mg14      1.0  0.69117  0.20886  0.68071  1.0000
  C  Sn29      1.0  0.78549  0.43629  0.96118  1.0000
  C   C99       1.0  0.82027  0.42387  0.02995  1.0000
  C  Sn30      1.0  0.80209  0.37555  0.07880  1.0000
  C  Sn31      1.0  0.75254  0.34109  0.05839  1.0000
  C   C100      1.0  0.71778  0.35352  0.98963  1.0000
  C  Sn32      1.0  0.73594  0.40183  0.94077  1.0000
  O  Te29      1.0  0.80445  0.48478  0.91322  1.0000
  O  Te30      1.0  0.83313  0.36182  0.14730  1.0000
  O  Te31      1.0  0.73359  0.29257  0.10642  1.0000
  O  Te32      1.0  0.70493  0.41556  0.87228  1.0000
  Mg  Mg15      1.0  0.79027  0.29153  0.19350  1.0000
  Mg  Mg16      1.0  0.74776  0.48583  0.82596  1.0000
  C  Sn33      1.0  0.59781  0.35314  0.87787  1.0000
  C   C101      1.0  0.64063  0.36498  0.95695  1.0000
  C  Sn34      1.0  0.66290  0.40253  0.07912  1.0000
  C  Sn35      1.0  0.63737  0.42655  0.12325  1.0000
  C   C102      1.0  0.59456  0.41471  0.04421  1.0000
  C  Sn36      1.0  0.57227  0.37717  0.92200  1.0000
  O  Te33      1.0  0.58066  0.31766  0.75609  1.0000
  O  Te34      1.0  0.70580  0.41375  0.15641  1.0000
  O  Te35      1.0  0.65455  0.46205  0.24514  1.0000
  O  Te36      1.0  0.52940  0.36594  0.84476  1.0000
  Mg  Mg17      1.0  0.71456  0.46465  0.31487  1.0000
  Mg  Mg18      1.0  0.52059  0.31503  0.68635  1.0000
  C  Sn37      1.0  0.75379  0.35159  0.63001  1.0000
  C   C103      1.0  0.72340  0.36418  0.54989  1.0000
  C  Sn38      1.0  0.74180  0.40062  0.42953  1.0000
  C  Sn39      1.0  0.79162  0.42497  0.38829  1.0000
  C   C104      1.0  0.82198  0.41237  0.46837  1.0000
  C  Sn40      1.0  0.80360  0.37593  0.58878  1.0000
  O  Te37      1.0  0.73461  0.31504  0.74995  1.0000
  O  Te38      1.0  0.71071  0.41258  0.35116  1.0000
  O  Te39      1.0  0.81078  0.46154  0.26825  1.0000
  O  Te40      1.0  0.83466  0.36396  0.66710  1.0000
  Mg  Mg19      1.0  0.75394  0.46484  0.19604  1.0000
  Mg  Mg20      1.0  0.79147  0.31170  0.82217  1.0000
  C  Sn41      1.0  0.64892  0.21721  0.45057  1.0000
  C   C105      1.0  0.60386  0.18564  0.52165  1.0000
  C  Sn42      1.0  0.57414  0.20325  0.57600  1.0000
  C  Sn43      1.0  0.58976  0.25345  0.55886  1.0000
  C   C106      1.0  0.63478  0.28498  0.48779  1.0000
  C  Sn44      1.0  0.66454  0.26740  0.43343  1.0000
  O  Te41      1.0  0.67804  0.19881  0.39709  1.0000
  O  Te42      1.0  0.52925  0.17100  0.64672  1.0000
  O  Te43      1.0  0.56059  0.27183  0.61242  1.0000
  O  Te44      1.0  0.70939  0.29963  0.36272  1.0000
  Mg  Mg21      1.0  0.50252  0.21349  0.70064  1.0000
  Mg  Mg22      1.0  0.73614  0.25717  0.30868  1.0000
  C  Sn45      1.0  0.65079  0.40693  0.63300  1.0000
  C   C107      1.0  0.63838  0.36326  0.55387  1.0000
  C  Sn46      1.0  0.60316  0.34525  0.43333  1.0000
  C  Sn47      1.0  0.57986  0.37145  0.39090  1.0000
  C   C108      1.0  0.59227  0.41510  0.46999  1.0000
  C  Sn48      1.0  0.62749  0.43313  0.59058  1.0000
  O  Te45      1.0  0.68611  0.42424  0.75314  1.0000
  O  Te46      1.0  0.59136  0.30150  0.35597  1.0000
  O  Te47      1.0  0.54452  0.35410  0.27066  1.0000
  O  Te48      1.0  0.63930  0.47685  0.66790  1.0000
  Mg  Mg23      1.0  0.54095  0.29284  0.20011  1.0000
  Mg  Mg24      1.0  0.68971  0.48556  0.82370  1.0000
