data_image0
_chemical_formula_structural       H48C120N16O24SnCSn2CSnTe4Mg2SnCSn2CSnTe4Mg2SnCSn2CSnTe4Mg2SnCSn2CSnTe4Mg2SnCSn2CSnTe4Mg2SnCSn2CSnTe4Mg2
_chemical_formula_sum              "H48 C132 N16 O24 Sn24 Te24 Mg12"
_cell_length_a       32.14
_cell_length_b       31.8131
_cell_length_c       8.15503
_cell_angle_alpha    90.019
_cell_angle_beta     89.242
_cell_angle_gamma    120.282

_symmetry_space_group_name_H-M    'P1'
_space_group_IT_number       1

loop_
  _space_group_symop_operation_xyz
  'x, y, z'

loop_
  _atom_site_type_symbol
  _atom_site_label
  _atom_site_symmetry_multiplicity
  _atom_site_fract_x
  _atom_site_fract_y
  _atom_site_fract_z
  _atom_site_occupancy
  H   H1        1.0  0.41688  0.72296  0.35275  1.0000
  H   H2        1.0  0.27428  0.57761  0.14074  1.0000
  H   H3        1.0  0.30525  0.72227  0.14625  1.0000
  H   H4        1.0  0.58195  0.27628  0.14700  1.0000
  H   H5        1.0  0.72424  0.30752  0.14847  1.0000
  H   H6        1.0  0.72654  0.42236  0.36005  1.0000
  H   H7        1.0  0.46151  0.81295  0.34993  1.0000
  H   H8        1.0  0.18518  0.53281  0.14935  1.0000
  H   H9        1.0  0.35089  0.81220  0.15331  1.0000
  H   H10       1.0  0.53822  0.18639  0.14923  1.0000
  H   H11       1.0  0.81325  0.35253  0.15332  1.0000
  H   H12       1.0  0.81551  0.46633  0.35730  1.0000
  H   H13       1.0  0.38856  0.95469  0.27810  1.0000
  H   H14       1.0  0.04303  0.42903  0.30277  1.0000
  H   H15       1.0  0.56622  0.61407  0.27946  1.0000
  H   H16       1.0  0.04783  0.61256  0.21622  1.0000
  H   H17       1.0  0.56854  0.95269  0.19449  1.0000
  H   H18       1.0  0.38968  0.43521  0.21987  1.0000
  H   H19       1.0  0.61489  0.04475  0.19602  1.0000
  H   H20       1.0  0.95673  0.56884  0.21530  1.0000
  H   H21       1.0  0.43578  0.39018  0.22564  1.0000
  H   H22       1.0  0.95201  0.38507  0.29996  1.0000
  H   H23       1.0  0.43438  0.04669  0.28016  1.0000
  H   H24       1.0  0.61344  0.57029  0.28604  1.0000
  H   H25       1.0  0.41640  0.72379  0.84254  1.0000
  H   H26       1.0  0.27407  0.69153  0.85714  1.0000
  H   H27       1.0  0.30347  0.72278  0.63967  1.0000
  H   H28       1.0  0.72374  0.30684  0.64272  1.0000
  H   H29       1.0  0.72734  0.42248  0.86132  1.0000
  H   H30       1.0  0.69580  0.27803  0.85835  1.0000
  H   H31       1.0  0.46076  0.81362  0.84283  1.0000
  H   H32       1.0  0.18504  0.64531  0.85783  1.0000
  H   H33       1.0  0.34908  0.81267  0.64243  1.0000
  H   H34       1.0  0.81287  0.35239  0.64861  1.0000
  H   H35       1.0  0.81635  0.46624  0.85936  1.0000
  H   H36       1.0  0.65102  0.18806  0.85483  1.0000
  H   H37       1.0  0.38693  0.95536  0.80364  1.0000
  H   H38       1.0  0.04314  0.42881  0.79316  1.0000
  H   H39       1.0  0.56917  0.61489  0.77606  1.0000
  H   H40       1.0  0.04639  0.61332  0.71845  1.0000
  H   H41       1.0  0.56494  0.95306  0.70775  1.0000
  H   H42       1.0  0.38644  0.43095  0.71135  1.0000
  H   H43       1.0  0.61058  0.04508  0.71091  1.0000
  H   H44       1.0  0.95535  0.56891  0.71892  1.0000
  H   H45       1.0  0.43377  0.38721  0.71845  1.0000
  H   H46       1.0  0.95216  0.38549  0.78931  1.0000
  H   H47       1.0  0.43317  0.04742  0.80581  1.0000
  H   H48       1.0  0.61569  0.57034  0.78488  1.0000
  C   C1        1.0  0.40189  0.74239  0.41624  1.0000
  C   C2        1.0  0.25497  0.59271  0.07917  1.0000
  C   C3        1.0  0.33939  0.74206  0.08051  1.0000
  C   C4        1.0  0.59727  0.25722  0.08293  1.0000
  C   C5        1.0  0.74420  0.34234  0.08581  1.0000
  C   C6        1.0  0.74516  0.40672  0.42282  1.0000
  C   C7        1.0  0.42738  0.79301  0.41617  1.0000
  C   C8        1.0  0.20480  0.56698  0.08199  1.0000
  C   C9        1.0  0.36462  0.79273  0.08250  1.0000
  C   C10       1.0  0.57228  0.20660  0.08279  1.0000
  C   C11       1.0  0.79427  0.36715  0.08647  1.0000
  C   C12       1.0  0.79529  0.43202  0.42340  1.0000
  C   C13       1.0  0.41376  0.89512  0.41439  1.0000
  C   C14       1.0  0.10259  0.51585  0.42853  1.0000
  C   C15       1.0  0.48002  0.58541  0.41319  1.0000
  C   C16       1.0  0.10471  0.58310  0.08474  1.0000
  C   C17       1.0  0.48135  0.89436  0.07360  1.0000
  C   C18       1.0  0.41587  0.51984  0.07344  1.0000
  C   C19       1.0  0.58754  0.10474  0.07689  1.0000
  C   C20       1.0  0.89676  0.48293  0.08370  1.0000
  C   C21       1.0  0.52120  0.41716  0.08827  1.0000
  C   C22       1.0  0.89470  0.41519  0.42392  1.0000
  C   C23       1.0  0.51853  0.10536  0.41896  1.0000
  C   C24       1.0  0.58752  0.48469  0.42635  1.0000
  C   C25       1.0  0.44147  0.94892  0.41647  1.0000
  C   C26       1.0  0.04933  0.49035  0.43226  1.0000
  C   C27       1.0  0.50683  0.55892  0.41794  1.0000
  C   C28       1.0  0.05147  0.55674  0.08257  1.0000
  C   C29       1.0  0.50814  0.94823  0.07134  1.0000
  C   C30       1.0  0.44338  0.49411  0.07499  1.0000
  C   C31       1.0  0.55998  0.05088  0.07254  1.0000
  C   C32       1.0  0.95003  0.50797  0.08160  1.0000
  C   C33       1.0  0.49484  0.44409  0.08256  1.0000
  C   C34       1.0  0.94789  0.44123  0.42986  1.0000
  C   C35       1.0  0.49258  0.05150  0.41861  1.0000
  C   C36       1.0  0.55941  0.50991  0.42503  1.0000
  C   C37       1.0  0.42300  0.97496  0.33914  1.0000
  C   C38       1.0  0.02324  0.44482  0.35927  1.0000
  C   C39       1.0  0.55202  0.57915  0.34189  1.0000
  C   C40       1.0  0.02684  0.57737  0.15753  1.0000
  C   C41       1.0  0.55367  0.97353  0.14087  1.0000
  C   C42       1.0  0.42444  0.44969  0.15760  1.0000
  C   C43       1.0  0.57944  0.02460  0.14149  1.0000
  C   C44       1.0  0.97634  0.55311  0.15701  1.0000
  C   C45       1.0  0.45004  0.42476  0.16103  1.0000
  C   C46       1.0  0.97276  0.42043  0.35777  1.0000
  C   C47       1.0  0.44844  0.02600  0.34019  1.0000
  C   C48       1.0  0.57819  0.55479  0.34542  1.0000
  C   C49       1.0  0.35760  0.71624  0.99534  1.0000
  C   C50       1.0  0.28088  0.63799  0.99848  1.0000
  C   C51       1.0  0.64218  0.28389  0.00245  1.0000
  C   C52       1.0  0.71913  0.36158  0.00471  1.0000
  C   C53       1.0  0.40870  0.81835  0.99872  1.0000
  C   C54       1.0  0.17976  0.58629  0.00350  1.0000
  C   C55       1.0  0.59202  0.18177  0.00258  1.0000
  C   C56       1.0  0.82011  0.41194  0.00576  1.0000
  C   C57       1.0  0.48773  0.97407  0.00006  1.0000
  C   C58       1.0  0.02563  0.51100  0.00536  1.0000
  C   C59       1.0  0.48884  0.51458  0.99525  1.0000
  C   C60       1.0  0.51398  0.02600  0.00054  1.0000
  C   C61       1.0  0.97423  0.48635  0.00462  1.0000
  C   C62       1.0  0.51503  0.48937  0.99969  1.0000
  C   C63       1.0  0.40181  0.74285  0.91055  1.0000
  C   C64       1.0  0.25486  0.65672  0.92042  1.0000
  C   C65       1.0  0.33811  0.74223  0.57670  1.0000
  C   C66       1.0  0.74366  0.34189  0.58136  1.0000
  C   C67       1.0  0.74586  0.40688  0.92500  1.0000
  C   C68       1.0  0.66126  0.25816  0.92157  1.0000
  C   C69       1.0  0.42728  0.79345  0.91247  1.0000
  C   C70       1.0  0.20477  0.63116  0.92264  1.0000
  C   C71       1.0  0.36337  0.79289  0.57641  1.0000
  C   C72       1.0  0.79375  0.36699  0.58259  1.0000
  C   C73       1.0  0.79599  0.43199  0.92565  1.0000
  C   C74       1.0  0.63654  0.20752  0.92165  1.0000
  C   C75       1.0  0.41422  0.89547  0.92330  1.0000
  C   C76       1.0  0.10315  0.51424  0.92891  1.0000
  C   C77       1.0  0.48241  0.58660  0.90570  1.0000
  C   C78       1.0  0.10388  0.58471  0.58392  1.0000
  C   C79       1.0  0.47978  0.89442  0.57359  1.0000
  C   C80       1.0  0.41276  0.51695  0.57349  1.0000
  C   C81       1.0  0.58453  0.10465  0.57838  1.0000
  C   C82       1.0  0.89573  0.48305  0.58507  1.0000
  C   C83       1.0  0.52068  0.41676  0.58964  1.0000
  C   C84       1.0  0.89496  0.41459  0.92396  1.0000
  C   C85       1.0  0.52020  0.10558  0.92712  1.0000
  C   C86       1.0  0.58857  0.48458  0.92466  1.0000
  C   C87       1.0  0.44179  0.94928  0.92775  1.0000
  C   C88       1.0  0.04987  0.48937  0.92883  1.0000
  C   C89       1.0  0.50909  0.55997  0.91304  1.0000
  C   C90       1.0  0.05058  0.55789  0.58372  1.0000
  C   C91       1.0  0.50614  0.94827  0.57273  1.0000
  C   C92       1.0  0.44088  0.49175  0.57509  1.0000
  C   C93       1.0  0.55724  0.05084  0.57499  1.0000
  C   C94       1.0  0.94903  0.50844  0.58343  1.0000
  C   C95       1.0  0.49356  0.44293  0.58276  1.0000
  C   C96       1.0  0.94829  0.44077  0.92629  1.0000
  C   C97       1.0  0.49352  0.05178  0.92931  1.0000
  C   C98       1.0  0.56088  0.51020  0.92237  1.0000
  C   C99       1.0  0.42233  0.97552  0.85848  1.0000
  C   C100      1.0  0.02353  0.44448  0.85188  1.0000
  C   C101      1.0  0.55446  0.57989  0.83824  1.0000
  C   C102      1.0  0.02567  0.57815  0.65943  1.0000
  C   C103      1.0  0.55061  0.97374  0.64922  1.0000
  C   C104      1.0  0.42189  0.44665  0.65328  1.0000
  C   C105      1.0  0.57601  0.02480  0.65058  1.0000
  C   C106      1.0  0.97513  0.55352  0.65947  1.0000
  C   C107      1.0  0.44813  0.42236  0.65740  1.0000
  C   C108      1.0  0.97300  0.42036  0.85012  1.0000
  C   C109      1.0  0.44803  0.02657  0.85949  1.0000
  C   C110      1.0  0.58029  0.55518  0.84307  1.0000
  C   C111      1.0  0.35695  0.71611  0.49696  1.0000
  C   C112      1.0  0.71850  0.36128  0.50182  1.0000
  C   C113      1.0  0.40804  0.81821  0.49620  1.0000
  C   C114      1.0  0.81950  0.41205  0.50336  1.0000
  C   C115      1.0  0.48642  0.97391  0.49524  1.0000
  C   C116      1.0  0.02490  0.51196  0.50765  1.0000
  C   C117      1.0  0.48688  0.51331  0.49862  1.0000
  C   C118      1.0  0.51232  0.02586  0.49611  1.0000
  C   C119      1.0  0.97350  0.48704  0.50684  1.0000
  C   C120      1.0  0.51352  0.48853  0.50226  1.0000
  N   N1        1.0  0.43538  0.87102  0.00014  1.0000
  N   N2        1.0  0.12763  0.56027  0.00615  1.0000
  N   N3        1.0  0.43690  0.56462  0.98644  1.0000
  N   N4        1.0  0.56589  0.12911  0.00240  1.0000
  N   N5        1.0  0.87223  0.43738  0.00420  1.0000
  N   N6        1.0  0.56676  0.43911  0.00778  1.0000
  N   N7        1.0  0.33215  0.66440  0.99564  1.0000
  N   N8        1.0  0.66788  0.33568  0.00336  1.0000
  N   N9        1.0  0.43449  0.87086  0.49554  1.0000
  N   N10       1.0  0.12687  0.56183  0.50583  1.0000
  N   N11       1.0  0.43441  0.56282  0.49331  1.0000
  N   N12       1.0  0.56354  0.12887  0.49848  1.0000
  N   N13       1.0  0.87159  0.43772  0.50346  1.0000
  N   N14       1.0  0.56601  0.43892  0.50753  1.0000
  N   N15       1.0  0.33133  0.66431  0.49777  1.0000
  N   N16       1.0  0.66724  0.33544  0.50157  1.0000
  O   O1        1.0  0.37484  0.87240  0.34493  1.0000
  O   O2        1.0  0.12501  0.49864  0.36042  1.0000
  O   O3        1.0  0.49600  0.62494  0.34295  1.0000
  O   O4        1.0  0.12825  0.62277  0.15210  1.0000
  O   O5        1.0  0.49773  0.87069  0.13643  1.0000
  O   O6        1.0  0.37671  0.50365  0.14460  1.0000
  O   O7        1.0  0.62696  0.12738  0.14338  1.0000
  O   O8        1.0  0.87459  0.50030  0.15246  1.0000
  O   O9        1.0  0.50478  0.37777  0.15986  1.0000
  O   O10       1.0  0.87144  0.37612  0.35266  1.0000
  O   O11       1.0  0.50233  0.12880  0.35305  1.0000
  O   O12       1.0  0.62742  0.50207  0.35955  1.0000
  O   O13       1.0  0.37503  0.87278  0.85551  1.0000
  O   O14       1.0  0.12538  0.49640  0.86373  1.0000
  O   O15       1.0  0.49850  0.62570  0.83246  1.0000
  O   O16       1.0  0.12736  0.62477  0.64881  1.0000
  O   O17       1.0  0.49589  0.87090  0.63952  1.0000
  O   O18       1.0  0.37275  0.49952  0.63958  1.0000
  O   O19       1.0  0.62340  0.12762  0.64783  1.0000
  O   O20       1.0  0.87316  0.49989  0.65456  1.0000
  O   O21       1.0  0.50499  0.37781  0.66350  1.0000
  O   O22       1.0  0.87111  0.37517  0.85539  1.0000
  O   O23       1.0  0.50398  0.12918  0.86280  1.0000
  O   O24       1.0  0.62825  0.50128  0.85666  1.0000
  C  Sn1       1.0  0.56809  0.35312  0.46232  1.0000
  C   C121      1.0  0.58226  0.39855  0.53110  1.0000
  C  Sn2       1.0  0.62985  0.42886  0.57917  1.0000
  C  Sn3       1.0  0.66400  0.41347  0.55798  1.0000
  C   C122      1.0  0.64983  0.36807  0.48922  1.0000
  C  Sn4       1.0  0.60224  0.33772  0.44113  1.0000
  O  Te1       1.0  0.52032  0.32341  0.41513  1.0000
  O  Te2       1.0  0.64316  0.47411  0.64769  1.0000
  O  Te3       1.0  0.71179  0.44322  0.60524  1.0000
  O  Te4       1.0  0.58893  0.29251  0.37262  1.0000
  Mg  Mg1       1.0  0.71248  0.50161  0.69268  1.0000
  Mg  Mg2       1.0  0.51962  0.26499  0.32752  1.0000
  C  Sn5       1.0  0.24382  0.66118  0.45144  1.0000
  C   C123      1.0  0.27454  0.64774  0.52434  1.0000
  C  Sn6       1.0  0.25695  0.59987  0.57731  1.0000
  C  Sn7       1.0  0.20761  0.56468  0.55691  1.0000
  C   C124      1.0  0.17692  0.57812  0.48403  1.0000
  C  Sn8       1.0  0.19448  0.62600  0.43104  1.0000
  O  Te5       1.0  0.26219  0.70925  0.39939  1.0000
  O  Te6       1.0  0.28836  0.58730  0.64989  1.0000
  O  Te7       1.0  0.18925  0.51659  0.60904  1.0000
  O  Te8       1.0  0.16311  0.63856  0.35847  1.0000
  Mg  Mg3       1.0  0.24626  0.51719  0.70079  1.0000
  Mg  Mg4       1.0  0.20517  0.70865  0.30746  1.0000
  C  Sn9       1.0  0.56722  0.21733  0.55038  1.0000
  C   C125      1.0  0.58064  0.18603  0.47786  1.0000
  C  Sn10      1.0  0.62809  0.20364  0.42432  1.0000
  C  Sn11      1.0  0.66286  0.25358  0.44375  1.0000
  C   C126      1.0  0.64944  0.28484  0.51626  1.0000
  C  Sn12      1.0  0.60199  0.26726  0.56982  1.0000
  O  Te9       1.0  0.51958  0.19893  0.60302  1.0000
  O  Te10      1.0  0.64064  0.17166  0.35213  1.0000
  O  Te11      1.0  0.71054  0.27196  0.39104  1.0000
  O  Te12      1.0  0.58944  0.29922  0.64199  1.0000
  Mg  Mg5       1.0  0.71009  0.21404  0.30015  1.0000
  Mg  Mg6       1.0  0.52001  0.25687  0.69409  1.0000
  C  Sn13      1.0  0.59781  0.35314  0.87787  1.0000
  C   C127      1.0  0.64063  0.36498  0.95695  1.0000
  C  Sn14      1.0  0.66290  0.40253  0.07912  1.0000
  C  Sn15      1.0  0.63737  0.42655  0.12325  1.0000
  C   C128      1.0  0.59456  0.41471  0.04421  1.0000
  C  Sn16      1.0  0.57227  0.37717  0.92200  1.0000
  O  Te13      1.0  0.58066  0.31766  0.75609  1.0000
  O  Te14      1.0  0.70580  0.41375  0.15641  1.0000
  O  Te15      1.0  0.65455  0.46205  0.24514  1.0000
  O  Te16      1.0  0.52940  0.36594  0.84476  1.0000
  Mg  Mg7       1.0  0.71456  0.46465  0.31487  1.0000
  Mg  Mg8       1.0  0.52059  0.31503  0.68635  1.0000
  C  Sn17      1.0  0.41956  0.63584  0.11470  1.0000
  C   C129      1.0  0.40739  0.59173  0.03918  1.0000
  C  Sn18      1.0  0.36702  0.57011  0.92112  1.0000
  C  Sn19      1.0  0.34278  0.59529  0.87753  1.0000
  C   C130      1.0  0.35496  0.63937  0.95300  1.0000
  C  Sn20      1.0  0.39532  0.66101  0.07111  1.0000
  O  Te17      1.0  0.45559  0.65460  0.23240  1.0000
  O  Te18      1.0  0.35547  0.52596  0.84736  1.0000
  O  Te19      1.0  0.30673  0.57649  0.75972  1.0000
  O  Te20      1.0  0.40688  0.70514  0.14482  1.0000
  Mg  Mg9       1.0  0.30385  0.51520  0.69379  1.0000
  Mg  Mg10      1.0  0.45851  0.71595  0.29833  1.0000
  C  Sn21      1.0  0.41706  0.63395  0.62290  1.0000
  C   C131      1.0  0.40465  0.58988  0.54671  1.0000
  C  Sn22      1.0  0.36935  0.57119  0.42644  1.0000
  C  Sn23      1.0  0.34599  0.59711  0.38130  1.0000
  C   C132      1.0  0.35840  0.64116  0.45745  1.0000
  C  Sn24      1.0  0.39369  0.65987  0.57776  1.0000
  O  Te21      1.0  0.45245  0.65194  0.74281  1.0000
  O  Te22      1.0  0.35755  0.52705  0.35203  1.0000
  O  Te23      1.0  0.31057  0.57907  0.26128  1.0000
  O  Te24      1.0  0.40550  0.70398  0.65212  1.0000
  Mg  Mg11      1.0  0.30703  0.51749  0.19528  1.0000
  Mg  Mg12      1.0  0.45603  0.71359  0.80883  1.0000
