data_image0
_chemical_formula_structural       H48C78N24SnCSn2CSnTe4Mg2SnCSn2CSnTe4Mg2SnCSn2CSnTe4Mg2SnCSn2CSnTe4Mg2SnCSn2CSnTe4Mg2SnCSn2CSnTe4Mg2SnCSn2CSnTe4Mg2SnCSn2CSnTe4Mg2SnCSn2CSnTe4Mg2
_chemical_formula_sum              "H48 C96 N24 Sn36 Te36 Mg18"
_cell_length_a       36.8492
_cell_length_b       36.7976
_cell_length_c       8.06168
_cell_angle_alpha    85.2415
_cell_angle_beta     69.7147
_cell_angle_gamma    120.241

_symmetry_space_group_name_H-M    'P1'
_space_group_IT_number       1

loop_
  _space_group_symop_operation_xyz
  'x, y, z'

loop_
  _atom_site_type_symbol
  _atom_site_label
  _atom_site_symmetry_multiplicity
  _atom_site_fract_x
  _atom_site_fract_y
  _atom_site_fract_z
  _atom_site_occupancy
  H   H1        1.0  0.66772  0.43179  0.03154  1.0000
  H   H2        1.0  0.33909  0.57340  0.95137  1.0000
  H   H3        1.0  0.62306  0.46428  0.03799  1.0000
  H   H4        1.0  0.38231  0.53908  0.94239  1.0000
  H   H5        1.0  0.52728  0.35368  0.91783  1.0000
  H   H6        1.0  0.47825  0.64653  0.07497  1.0000
  H   H7        1.0  0.57190  0.32001  0.91915  1.0000
  H   H8        1.0  0.43524  0.68203  0.07635  1.0000
  H   H9        1.0  0.51544  0.09402  0.13521  1.0000
  H   H10       1.0  0.90841  0.42530  0.93987  1.0000
  H   H11       1.0  0.58750  0.48741  0.00894  1.0000
  H   H12       1.0  0.49265  0.91148  0.86728  1.0000
  H   H13       1.0  0.09886  0.58310  0.05897  1.0000
  H   H14       1.0  0.41315  0.51132  0.00035  1.0000
  H   H15       1.0  0.45249  0.01785  0.23324  1.0000
  H   H16       1.0  0.98056  0.43732  0.89785  1.0000
  H   H17       1.0  0.55477  0.98701  0.77088  1.0000
  H   H18       1.0  0.02572  0.57022  0.10679  1.0000
  H   H19       1.0  0.58828  0.06304  0.80274  1.0000
  H   H20       1.0  0.94747  0.52610  0.10571  1.0000
  H   H21       1.0  0.41899  0.94178  0.20066  1.0000
  H   H22       1.0  0.05847  0.48090  0.90294  1.0000
  H   H23       1.0  0.66789  0.43338  0.48571  1.0000
  H   H24       1.0  0.42165  0.75810  0.55753  1.0000
  H   H25       1.0  0.62543  0.46823  0.47315  1.0000
  H   H26       1.0  0.45130  0.83391  0.58370  1.0000
  H   H27       1.0  0.51667  0.34798  0.44954  1.0000
  H   H28       1.0  0.34081  0.82942  0.49559  1.0000
  H   H29       1.0  0.56010  0.31355  0.45971  1.0000
  H   H30       1.0  0.31110  0.75296  0.46916  1.0000
  H   H31       1.0  0.50699  0.08954  0.63755  1.0000
  H   H32       1.0  0.90128  0.41654  0.44466  1.0000
  H   H33       1.0  0.56174  0.46720  0.61971  1.0000
  H   H34       1.0  0.48442  0.90547  0.38318  1.0000
  H   H35       1.0  0.09314  0.57761  0.54412  1.0000
  H   H36       1.0  0.43283  0.53031  0.37884  1.0000
  H   H37       1.0  0.44392  0.01359  0.73501  1.0000
  H   H38       1.0  0.97414  0.42941  0.39784  1.0000
  H   H39       1.0  0.55883  0.53137  0.60860  1.0000
  H   H40       1.0  0.54719  0.98039  0.29391  1.0000
  H   H41       1.0  0.01975  0.56338  0.59927  1.0000
  H   H42       1.0  0.43636  0.46711  0.38787  1.0000
  H   H43       1.0  0.58069  0.05692  0.32102  1.0000
  H   H44       1.0  0.94075  0.51829  0.60202  1.0000
  H   H45       1.0  0.47476  0.42910  0.42050  1.0000
  H   H46       1.0  0.41036  0.93709  0.70755  1.0000
  H   H47       1.0  0.05255  0.47405  0.39634  1.0000
  H   H48       1.0  0.52105  0.56974  0.57264  1.0000
  C   C1        1.0  0.65440  0.29520  0.99221  1.0000
  C   C2        1.0  0.70974  0.35874  0.01512  1.0000
  C   C3        1.0  0.64860  0.35407  0.98263  1.0000
  C   C4        1.0  0.35371  0.70948  0.00729  1.0000
  C   C5        1.0  0.29747  0.64639  0.98503  1.0000
  C   C6        1.0  0.35883  0.65022  0.01150  1.0000
  C   C7        1.0  0.62287  0.37395  0.97421  1.0000
  C   C8        1.0  0.38410  0.62964  0.01624  1.0000
  C   C9        1.0  0.63722  0.41516  0.00483  1.0000
  C   C10       1.0  0.36917  0.58882  0.98109  1.0000
  C   C11       1.0  0.61203  0.43326  0.00709  1.0000
  C   C12       1.0  0.39329  0.56952  0.97831  1.0000
  C   C13       1.0  0.57185  0.41112  0.97641  1.0000
  C   C14       1.0  0.43300  0.59018  0.01252  1.0000
  C   C15       1.0  0.55797  0.37019  0.94357  1.0000
  C   C16       1.0  0.44774  0.63096  0.04794  1.0000
  C   C17       1.0  0.58289  0.35171  0.94365  1.0000
  C   C18       1.0  0.42380  0.65055  0.04910  1.0000
  C   C19       1.0  0.54127  0.08896  0.04196  1.0000
  C   C20       1.0  0.91411  0.45283  0.99680  1.0000
  C   C21       1.0  0.55552  0.46493  0.99521  1.0000
  C   C22       1.0  0.46649  0.91597  0.96202  1.0000
  C   C23       1.0  0.09203  0.55415  0.01121  1.0000
  C   C24       1.0  0.44659  0.53433  0.00325  1.0000
  C   C25       1.0  0.52260  0.04509  0.01994  1.0000
  C   C26       1.0  0.95895  0.47882  0.00317  1.0000
  C   C27       1.0  0.48472  0.95980  0.98404  1.0000
  C   C28       1.0  0.04715  0.52832  0.00457  1.0000
  C   C29       1.0  0.47458  0.01087  0.13127  1.0000
  C   C30       1.0  0.99054  0.46620  0.94581  1.0000
  C   C31       1.0  0.53268  0.99405  0.87243  1.0000
  C   C32       1.0  0.01568  0.54112  0.06052  1.0000
  C   C33       1.0  0.55149  0.03619  0.88958  1.0000
  C   C34       1.0  0.97214  0.51674  0.06080  1.0000
  C   C35       1.0  0.45578  0.96870  0.11411  1.0000
  C   C36       1.0  0.03391  0.49037  0.94705  1.0000
  C   C37       1.0  0.64661  0.29135  0.49070  1.0000
  C   C38       1.0  0.70317  0.35467  0.51036  1.0000
  C   C39       1.0  0.64185  0.35085  0.48327  1.0000
  C   C40       1.0  0.34709  0.70577  0.49836  1.0000
  C   C41       1.0  0.29087  0.64144  0.48334  1.0000
  C   C42       1.0  0.35313  0.64697  0.50785  1.0000
  C   C43       1.0  0.61655  0.37121  0.47467  1.0000
  C   C44       1.0  0.36476  0.75091  0.51016  1.0000
  C   C45       1.0  0.63470  0.41499  0.47824  1.0000
  C   C46       1.0  0.40473  0.77426  0.54025  1.0000
  C   C47       1.0  0.61054  0.43405  0.47399  1.0000
  C   C48       1.0  0.42169  0.81681  0.55172  1.0000
  C   C49       1.0  0.56709  0.40965  0.46750  1.0000
  C   C50       1.0  0.39894  0.83722  0.53376  1.0000
  C   C51       1.0  0.54944  0.36611  0.46035  1.0000
  C   C52       1.0  0.35819  0.81342  0.50833  1.0000
  C   C53       1.0  0.57359  0.34711  0.46535  1.0000
  C   C54       1.0  0.34176  0.77112  0.49404  1.0000
  C   C55       1.0  0.53296  0.08423  0.54737  1.0000
  C   C56       1.0  0.90756  0.44507  0.49488  1.0000
  C   C57       1.0  0.54302  0.45670  0.53381  1.0000
  C   C58       1.0  0.45823  0.91034  0.47511  1.0000
  C   C59       1.0  0.08592  0.54774  0.50361  1.0000
  C   C60       1.0  0.45294  0.54218  0.45898  1.0000
  C   C61       1.0  0.51449  0.03994  0.52970  1.0000
  C   C62       1.0  0.95252  0.47119  0.50017  1.0000
  C   C63       1.0  0.51940  0.47777  0.51549  1.0000
  C   C64       1.0  0.47662  0.95405  0.49898  1.0000
  C   C65       1.0  0.04117  0.52159  0.49686  1.0000
  C   C66       1.0  0.47615  0.52087  0.47926  1.0000
  C   C67       1.0  0.46625  0.00600  0.63833  1.0000
  C   C68       1.0  0.98418  0.45862  0.44335  1.0000
  C   C69       1.0  0.53223  0.51753  0.55895  1.0000
  C   C70       1.0  0.52491  0.98792  0.39133  1.0000
  C   C71       1.0  0.00950  0.53416  0.55370  1.0000
  C   C72       1.0  0.46308  0.48094  0.43697  1.0000
  C   C73       1.0  0.54369  0.03033  0.40569  1.0000
  C   C74       1.0  0.96574  0.50932  0.55633  1.0000
  C   C75       1.0  0.48432  0.45962  0.45484  1.0000
  C   C76       1.0  0.44745  0.96357  0.62388  1.0000
  C   C77       1.0  0.02786  0.48337  0.44151  1.0000
  C   C78       1.0  0.51123  0.53902  0.53980  1.0000
  N   N1        1.0  0.63063  0.31242  0.97449  1.0000
  N   N2        1.0  0.69366  0.31672  0.01555  1.0000
  N   N3        1.0  0.68828  0.37873  0.00060  1.0000
  N   N4        1.0  0.37751  0.69190  0.02042  1.0000
  N   N5        1.0  0.31413  0.68842  0.98574  1.0000
  N   N6        1.0  0.31861  0.62590  0.99690  1.0000
  N   N7        1.0  0.58575  0.12018  0.95950  1.0000
  N   N8        1.0  0.88329  0.46217  0.04939  1.0000
  N   N9        1.0  0.54384  0.42647  0.97636  1.0000
  N   N10       1.0  0.42222  0.88425  0.04568  1.0000
  N   N11       1.0  0.12146  0.54309  0.96925  1.0000
  N   N12       1.0  0.46022  0.57389  0.01138  1.0000
  N   N13       1.0  0.62266  0.30878  0.47876  1.0000
  N   N14       1.0  0.68650  0.31264  0.50976  1.0000
  N   N15       1.0  0.68226  0.37533  0.49650  1.0000
  N   N16       1.0  0.37166  0.68908  0.51045  1.0000
  N   N17       1.0  0.30731  0.68379  0.47862  1.0000
  N   N18       1.0  0.31222  0.62142  0.49929  1.0000
  N   N19       1.0  0.57739  0.11559  0.46373  1.0000
  N   N20       1.0  0.87765  0.45559  0.54064  1.0000
  N   N21       1.0  0.54162  0.42709  0.45526  1.0000
  N   N22       1.0  0.41375  0.87923  0.55225  1.0000
  N   N23       1.0  0.11463  0.53587  0.47113  1.0000
  N   N24       1.0  0.45605  0.57338  0.52936  1.0000
  C  Sn1       1.0  0.35175  0.80356  0.06051  1.0000
  C   C79       1.0  0.39156  0.83178  0.08366  1.0000
  C  Sn2       1.0  0.42544  0.82285  0.05694  1.0000
  C  Sn3       1.0  0.41942  0.78493  0.00590  1.0000
  C   C80       1.0  0.26576  0.68114  0.98275  1.0000
  C  Sn4       1.0  0.34573  0.76564  0.00947  1.0000
  O  Te1       1.0  0.31833  0.81313  0.08793  1.0000
  O  Te2       1.0  0.46494  0.85154  0.08096  1.0000
  O  Te3       1.0  0.33901  0.69977  0.97849  1.0000
  O  Te4       1.0  0.19238  0.66137  0.98545  1.0000
  Mg  Mg1       1.0  0.50069  0.82441  0.02768  1.0000
  Mg  Mg2       1.0  0.27050  0.76409  0.03860  1.0000
  C  Sn5       1.0  0.63162  0.18711  0.55521  1.0000
  C   C81       1.0  0.59336  0.15953  0.52216  1.0000
  C  Sn6       1.0  0.57403  0.17700  0.44955  1.0000
  C  Sn7       1.0  0.59336  0.22301  0.40902  1.0000
  C   C82       1.0  0.63161  0.25055  0.44204  1.0000
  C  Sn8       1.0  0.65096  0.23311  0.51468  1.0000
  O  Te5       1.0  0.65039  0.16892  0.62785  1.0000
  O  Te6       1.0  0.53577  0.14877  0.41775  1.0000
  O  Te7       1.0  0.57456  0.24117  0.33633  1.0000
  O  Te8       1.0  0.68920  0.26131  0.54645  1.0000
  Mg  Mg3       1.0  0.52252  0.18924  0.31711  1.0000
  Mg  Mg4       1.0  0.70249  0.22089  0.64699  1.0000
  C  Sn9       1.0  0.58778  0.19690  0.89550  1.0000
  C   C83       1.0  0.60501  0.17154  0.91755  1.0000
  C  Sn10      1.0  0.63644  0.18389  0.99473  1.0000
  C  Sn11      1.0  0.76480  0.29799  0.05116  1.0000
  C   C84       1.0  0.74757  0.32332  0.02913  1.0000
  C  Sn12      1.0  0.60227  0.23539  0.95192  1.0000
  O  Te9       1.0  0.55639  0.18392  0.81802  1.0000
  O  Te10      1.0  0.76707  0.23363  0.01533  1.0000
  O  Te11      1.0  0.79622  0.31095  0.12868  1.0000
  O  Te12      1.0  0.58551  0.26123  0.93135  1.0000
  Mg  Mg5       1.0  0.80922  0.26491  0.12828  1.0000
  Mg  Mg6       1.0  0.54334  0.22997  0.81851  1.0000
  C  Sn13      1.0  0.78672  0.43565  0.44081  1.0000
  C   C85       1.0  0.75815  0.38999  0.47364  1.0000
  C  Sn14      1.0  0.76535  0.36143  0.56038  1.0000
  C  Sn15      1.0  0.80185  0.37886  0.61556  1.0000
  C   C86       1.0  0.83039  0.42450  0.58276  1.0000
  C  Sn16      1.0  0.82322  0.45309  0.49600  1.0000
  O  Te13      1.0  0.77889  0.46359  0.35390  1.0000
  O  Te14      1.0  0.73634  0.31590  0.59166  1.0000
  O  Te15      1.0  0.80966  0.35088  0.70253  1.0000
  O  Te16      1.0  0.85220  0.49859  0.46474  1.0000
  Mg  Mg7       1.0  0.76087  0.29131  0.71490  1.0000
  Mg  Mg8       1.0  0.82769  0.52320  0.34161  1.0000
  C  Sn17      1.0  0.20007  0.61878  0.35655  1.0000
  C   C87       1.0  0.16990  0.57258  0.41105  1.0000
  C  Sn18      1.0  0.17528  0.54588  0.52013  1.0000
  C  Sn19      1.0  0.21155  0.56577  0.57600  1.0000
  C   C88       1.0  0.24169  0.61195  0.52154  1.0000
  C  Sn20      1.0  0.23634  0.63868  0.41243  1.0000
  O  Te17      1.0  0.19405  0.64483  0.24751  1.0000
  O  Te18      1.0  0.14470  0.49977  0.57283  1.0000
  O  Te19      1.0  0.21755  0.53968  0.68512  1.0000
  O  Te20      1.0  0.26689  0.68476  0.35976  1.0000
  Mg  Mg9       1.0  0.16705  0.47839  0.72172  1.0000
  Mg  Mg10      1.0  0.24455  0.70617  0.21096  1.0000
  C  Sn21      1.0  0.81553  0.38339  0.02344  1.0000
  C   C89       1.0  0.84175  0.42859  0.00327  1.0000
  C  Sn22      1.0  0.82179  0.45251  0.01016  1.0000
  C  Sn23      1.0  0.77462  0.43080  0.03791  1.0000
  C   C90       1.0  0.74842  0.38564  0.05809  1.0000
  C  Sn24      1.0  0.76836  0.36169  0.05118  1.0000
  O  Te21      1.0  0.83621  0.36014  0.01610  1.0000
  O  Te22      1.0  0.73483  0.42206  0.98958  1.0000
  O  Te23      1.0  0.75396  0.45411  0.04524  1.0000
  O  Te24      1.0  0.74147  0.31656  0.07178  1.0000
  Mg  Mg11      1.0  0.80489  0.51506  0.00992  1.0000
  Mg  Mg12      1.0  0.78524  0.29913  0.05157  1.0000
  C  Sn25      1.0  0.11001  0.49075  0.98100  1.0000
  C   C91       1.0  0.14002  0.53687  0.93128  1.0000
  C  Sn26      1.0  0.12376  0.56324  0.91158  1.0000
  C  Sn27      1.0  0.07653  0.54309  0.94233  1.0000
  C   C92       1.0  0.04654  0.49700  0.99205  1.0000
  C  Sn28      1.0  0.17664  0.54621  0.01175  1.0000
  O  Te25      1.0  0.12701  0.46503  0.99991  1.0000
  O  Te26      1.0  0.15443  0.60928  0.86170  1.0000
  O  Te27      1.0  0.05954  0.56885  0.92337  1.0000
  O  Te28      1.0  0.14600  0.50020  0.06163  1.0000
  Mg  Mg13      1.0  0.11479  0.63016  0.85322  1.0000
  Mg  Mg14      1.0  0.18559  0.47928  0.07024  1.0000
  C  Sn29      1.0  0.53338  0.54685  0.94026  1.0000
  C   C93       1.0  0.48875  0.52514  0.94704  1.0000
  C  Sn30      1.0  0.46034  0.47891  0.99719  1.0000
  C  Sn31      1.0  0.59075  0.52946  0.04162  1.0000
  C   C94       1.0  0.63535  0.55117  0.03486  1.0000
  C  Sn32      1.0  0.54991  0.52179  0.98469  1.0000
  O  Te29      1.0  0.56118  0.59308  0.88977  1.0000
  O  Te30      1.0  0.52973  0.53356  0.00292  1.0000
  O  Te31      1.0  0.56291  0.48319  0.09213  1.0000
  O  Te32      1.0  0.59437  0.54275  0.97898  1.0000
  Mg  Mg15      1.0  0.50491  0.46987  0.07983  1.0000
  Mg  Mg16      1.0  0.61921  0.60643  0.90219  1.0000
  C  Sn33      1.0  0.43753  0.65580  0.46133  1.0000
  C   C95       1.0  0.39355  0.63550  0.46256  1.0000
  C  Sn34      1.0  0.36407  0.58938  0.51139  1.0000
  C  Sn35      1.0  0.37883  0.56298  0.56012  1.0000
  C   C96       1.0  0.42279  0.58327  0.55890  1.0000
  C  Sn36      1.0  0.45230  0.62940  0.51006  1.0000
  O  Te33      1.0  0.46643  0.70196  0.41207  1.0000
  O  Te34      1.0  0.32026  0.56985  0.51154  1.0000
  O  Te35      1.0  0.34989  0.51678  0.60939  1.0000
  O  Te36      1.0  0.49608  0.64892  0.50993  1.0000
  Mg  Mg17      1.0  0.29342  0.50567  0.58887  1.0000
  Mg  Mg18      1.0  0.52293  0.71309  0.43272  1.0000
