data_image0
_chemical_formula_structural       H48C78N24C2Sn2C2HTe2HMgC2Sn2C2HTe2HMgC2Sn2C2HTe2HMgC2Sn2C2HTe2HMgC2Sn2C2HTe2HMgC2Sn2C2HTe2HMgC2Sn2C2HTe2HMgC2Sn2C2HTe2HMgC2Sn2C2HTe2HMg
_chemical_formula_sum              "H66 C114 N24 Sn18 Te18 Mg9"
_cell_length_a       36.8492
_cell_length_b       36.7976
_cell_length_c       8.06168
_cell_angle_alpha    85.2415
_cell_angle_beta     69.7147
_cell_angle_gamma    120.241

_symmetry_space_group_name_H-M    'P1'
_space_group_IT_number       1

loop_
  _space_group_symop_operation_xyz
  'x, y, z'

loop_
  _atom_site_type_symbol
  _atom_site_label
  _atom_site_symmetry_multiplicity
  _atom_site_fract_x
  _atom_site_fract_y
  _atom_site_fract_z
  _atom_site_occupancy
  H   H1        1.0  0.57943  0.24244  0.93786  1.0000
  H   H2        1.0  0.75657  0.32859  0.09641  1.0000
  H   H3        1.0  0.66772  0.43179  0.03154  1.0000
  H   H4        1.0  0.25520  0.67782  0.86686  1.0000
  H   H5        1.0  0.54844  0.16542  0.92175  1.0000
  H   H6        1.0  0.83206  0.37242  0.11725  1.0000
  H   H7        1.0  0.62306  0.46428  0.03799  1.0000
  H   H8        1.0  0.17893  0.63342  0.85194  1.0000
  H   H9        1.0  0.65953  0.17111  0.01030  1.0000
  H   H10       1.0  0.83640  0.49062  0.98893  1.0000
  H   H11       1.0  0.52728  0.35368  0.91783  1.0000
  H   H12       1.0  0.16327  0.51317  0.07046  1.0000
  H   H13       1.0  0.69023  0.24830  0.02548  1.0000
  H   H14       1.0  0.75979  0.44588  0.97149  1.0000
  H   H15       1.0  0.57190  0.32001  0.91915  1.0000
  H   H16       1.0  0.24135  0.55820  0.07516  1.0000
  H   H17       1.0  0.51544  0.09402  0.13521  1.0000
  H   H18       1.0  0.90841  0.42530  0.93987  1.0000
  H   H19       1.0  0.58750  0.48741  0.00894  1.0000
  H   H20       1.0  0.49265  0.91148  0.86728  1.0000
  H   H21       1.0  0.09886  0.58310  0.05897  1.0000
  H   H22       1.0  0.41315  0.51132  0.00035  1.0000
  H   H23       1.0  0.98056  0.43732  0.89785  1.0000
  H   H24       1.0  0.02572  0.57022  0.10679  1.0000
  H   H25       1.0  0.94747  0.52610  0.10571  1.0000
  H   H26       1.0  0.05847  0.48090  0.90294  1.0000
  H   H27       1.0  0.24744  0.67144  0.36779  1.0000
  H   H28       1.0  0.32758  0.56450  0.51174  1.0000
  H   H29       1.0  0.17093  0.62633  0.35692  1.0000
  H   H30       1.0  0.37109  0.53075  0.52195  1.0000
  H   H31       1.0  0.15694  0.50691  0.57530  1.0000
  H   H32       1.0  0.48123  0.65319  0.52691  1.0000
  H   H33       1.0  0.23543  0.55289  0.57565  1.0000
  H   H34       1.0  0.43670  0.68647  0.51953  1.0000
  H   H35       1.0  0.50699  0.08954  0.63755  1.0000
  H   H36       1.0  0.90128  0.41654  0.44466  1.0000
  H   H37       1.0  0.56174  0.46720  0.61971  1.0000
  H   H38       1.0  0.48442  0.90547  0.38318  1.0000
  H   H39       1.0  0.09314  0.57761  0.54412  1.0000
  H   H40       1.0  0.43283  0.53031  0.37884  1.0000
  H   H41       1.0  0.44392  0.01359  0.73501  1.0000
  H   H42       1.0  0.55883  0.53137  0.60860  1.0000
  H   H43       1.0  0.54719  0.98039  0.29391  1.0000
  H   H44       1.0  0.43636  0.46711  0.38787  1.0000
  H   H45       1.0  0.58069  0.05692  0.32102  1.0000
  H   H46       1.0  0.47476  0.42910  0.42050  1.0000
  H   H47       1.0  0.41036  0.93709  0.70755  1.0000
  H   H48       1.0  0.52105  0.56974  0.57264  1.0000
  C   C1        1.0  0.65440  0.29520  0.99221  1.0000
  C   C2        1.0  0.70974  0.35874  0.01512  1.0000
  C   C3        1.0  0.64860  0.35407  0.98263  1.0000
  C   C4        1.0  0.35371  0.70948  0.00729  1.0000
  C   C5        1.0  0.29747  0.64639  0.98503  1.0000
  C   C6        1.0  0.35883  0.65022  0.01150  1.0000
  C   C7        1.0  0.63625  0.24975  0.98487  1.0000
  C   C8        1.0  0.75420  0.38477  0.02839  1.0000
  C   C9        1.0  0.62287  0.37395  0.97421  1.0000
  C   C10       1.0  0.25259  0.62067  0.97491  1.0000
  C   C11       1.0  0.59593  0.22600  0.95758  1.0000
  C   C12       1.0  0.77492  0.36423  0.06913  1.0000
  C   C13       1.0  0.63722  0.41516  0.00483  1.0000
  C   C14       1.0  0.23448  0.64176  0.91393  1.0000
  C   C15       1.0  0.57840  0.18298  0.95149  1.0000
  C   C16       1.0  0.81726  0.38886  0.07819  1.0000
  C   C17       1.0  0.61203  0.43326  0.00709  1.0000
  C   C18       1.0  0.19147  0.61692  0.90959  1.0000
  C   C19       1.0  0.60103  0.16263  0.97244  1.0000
  C   C20       1.0  0.84040  0.43505  0.04468  1.0000
  C   C21       1.0  0.57185  0.41112  0.97641  1.0000
  C   C22       1.0  0.16488  0.57011  0.97011  1.0000
  C   C23       1.0  0.64220  0.18694  0.99478  1.0000
  C   C24       1.0  0.81876  0.45523  0.00992  1.0000
  C   C25       1.0  0.55797  0.37019  0.94357  1.0000
  C   C26       1.0  0.18373  0.54919  0.02668  1.0000
  C   C27       1.0  0.65917  0.22967  0.00349  1.0000
  C   C28       1.0  0.77647  0.43054  0.00083  1.0000
  C   C29       1.0  0.58289  0.35171  0.94365  1.0000
  C   C30       1.0  0.22684  0.57409  0.02922  1.0000
  C   C31       1.0  0.54127  0.08896  0.04196  1.0000
  C   C32       1.0  0.91411  0.45283  0.99680  1.0000
  C   C33       1.0  0.55552  0.46493  0.99521  1.0000
  C   C34       1.0  0.46649  0.91597  0.96202  1.0000
  C   C35       1.0  0.09203  0.55415  0.01121  1.0000
  C   C36       1.0  0.44659  0.53433  0.00325  1.0000
  C   C37       1.0  0.95895  0.47882  0.00317  1.0000
  C   C38       1.0  0.04715  0.52832  0.00457  1.0000
  C   C39       1.0  0.99054  0.46620  0.94581  1.0000
  C   C40       1.0  0.01568  0.54112  0.06052  1.0000
  C   C41       1.0  0.97214  0.51674  0.06080  1.0000
  C   C42       1.0  0.03391  0.49037  0.94705  1.0000
  C   C43       1.0  0.64661  0.29135  0.49070  1.0000
  C   C44       1.0  0.70317  0.35467  0.51036  1.0000
  C   C45       1.0  0.64185  0.35085  0.48327  1.0000
  C   C46       1.0  0.34709  0.70577  0.49836  1.0000
  C   C47       1.0  0.29087  0.64144  0.48334  1.0000
  C   C48       1.0  0.35313  0.64697  0.50785  1.0000
  C   C49       1.0  0.24574  0.61488  0.47554  1.0000
  C   C50       1.0  0.37947  0.62763  0.51375  1.0000
  C   C51       1.0  0.22697  0.63540  0.41606  1.0000
  C   C52       1.0  0.36135  0.58361  0.51420  1.0000
  C   C53       1.0  0.18389  0.61008  0.41302  1.0000
  C   C54       1.0  0.38608  0.56516  0.51735  1.0000
  C   C55       1.0  0.15783  0.56332  0.47328  1.0000
  C   C56       1.0  0.43023  0.59043  0.51773  1.0000
  C   C57       1.0  0.17706  0.54292  0.53046  1.0000
  C   C58       1.0  0.44795  0.63432  0.52028  1.0000
  C   C59       1.0  0.22039  0.56832  0.53099  1.0000
  C   C60       1.0  0.42314  0.65269  0.51687  1.0000
  C   C61       1.0  0.53296  0.08423  0.54737  1.0000
  C   C62       1.0  0.90756  0.44507  0.49488  1.0000
  C   C63       1.0  0.54302  0.45670  0.53381  1.0000
  C   C64       1.0  0.45823  0.91034  0.47511  1.0000
  C   C65       1.0  0.08592  0.54774  0.50361  1.0000
  C   C66       1.0  0.45294  0.54218  0.45898  1.0000
  C   C67       1.0  0.51449  0.03994  0.52970  1.0000
  C   C68       1.0  0.51940  0.47777  0.51549  1.0000
  C   C69       1.0  0.47662  0.95405  0.49898  1.0000
  C   C70       1.0  0.47615  0.52087  0.47926  1.0000
  C   C71       1.0  0.46625  0.00600  0.63833  1.0000
  C   C72       1.0  0.53223  0.51753  0.55895  1.0000
  C   C73       1.0  0.52491  0.98792  0.39133  1.0000
  C   C74       1.0  0.46308  0.48094  0.43697  1.0000
  C   C75       1.0  0.54369  0.03033  0.40569  1.0000
  C   C76       1.0  0.48432  0.45962  0.45484  1.0000
  C   C77       1.0  0.44745  0.96357  0.62388  1.0000
  C   C78       1.0  0.51123  0.53902  0.53980  1.0000
  N   N1        1.0  0.63063  0.31242  0.97449  1.0000
  N   N2        1.0  0.69366  0.31672  0.01555  1.0000
  N   N3        1.0  0.68828  0.37873  0.00060  1.0000
  N   N4        1.0  0.37751  0.69190  0.02042  1.0000
  N   N5        1.0  0.31413  0.68842  0.98574  1.0000
  N   N6        1.0  0.31861  0.62590  0.99690  1.0000
  N   N7        1.0  0.58575  0.12018  0.95950  1.0000
  N   N8        1.0  0.88329  0.46217  0.04939  1.0000
  N   N9        1.0  0.54384  0.42647  0.97636  1.0000
  N   N10       1.0  0.42222  0.88425  0.04568  1.0000
  N   N11       1.0  0.12146  0.54309  0.96925  1.0000
  N   N12       1.0  0.46022  0.57389  0.01138  1.0000
  N   N13       1.0  0.62266  0.30878  0.47876  1.0000
  N   N14       1.0  0.68650  0.31264  0.50976  1.0000
  N   N15       1.0  0.68226  0.37533  0.49650  1.0000
  N   N16       1.0  0.37166  0.68908  0.51045  1.0000
  N   N17       1.0  0.30731  0.68379  0.47862  1.0000
  N   N18       1.0  0.31222  0.62142  0.49929  1.0000
  N   N19       1.0  0.57739  0.11559  0.46373  1.0000
  N   N20       1.0  0.87765  0.45559  0.54064  1.0000
  N   N21       1.0  0.54162  0.42709  0.45526  1.0000
  N   N22       1.0  0.41375  0.87923  0.55225  1.0000
  N   N23       1.0  0.11463  0.53587  0.47113  1.0000
  N   N24       1.0  0.45605  0.57338  0.52936  1.0000
  C   C79       1.0  0.37114  0.58014  0.96910  1.0000
  C   C80       1.0  0.49140  0.69320  0.01953  1.0000
  C  Sn1       1.0  0.52885  0.71898  0.05976  1.0000
  C  Sn2       1.0  0.56043  0.70696  0.04914  1.0000
  C   C81       1.0  0.43988  0.59384  0.99843  1.0000
  C   C82       1.0  0.40228  0.56827  0.95852  1.0000
  H   H49       1.0  0.34207  0.56037  0.93812  1.0000
  O  Te1       1.0  0.53472  0.75629  0.10999  1.0000
  O  Te2       1.0  0.59817  0.73214  0.08855  1.0000
  H   H50       1.0  0.39736  0.53929  0.91936  1.0000
  Mg  Mg1       1.0  0.59143  0.78005  0.15072  1.0000
  C   C83       1.0  0.80440  0.44989  0.49239  1.0000
  C   C84       1.0  0.82830  0.43444  0.54050  1.0000
  C  Sn3       1.0  0.81129  0.38962  0.57577  1.0000
  C  Sn4       1.0  0.76958  0.35978  0.56246  1.0000
  C   C85       1.0  0.74596  0.37556  0.51409  1.0000
  C   C86       1.0  0.76328  0.42048  0.47916  1.0000
  H   H51       1.0  0.81782  0.48465  0.46525  1.0000
  O  Te3       1.0  0.83559  0.37474  0.62374  1.0000
  O  Te4       1.0  0.75182  0.31481  0.59690  1.0000
  H   H52       1.0  0.74479  0.43244  0.44179  1.0000
  Mg  Mg2       1.0  0.79744  0.31045  0.65763  1.0000
  C   C87       1.0  0.55058  0.35665  0.45548  1.0000
  C   C88       1.0  0.56092  0.39785  0.47287  1.0000
  C  Sn5       1.0  0.60216  0.42743  0.48447  1.0000
  C  Sn6       1.0  0.63356  0.41546  0.47846  1.0000
  C   C89       1.0  0.62291  0.37418  0.46090  1.0000
  C   C90       1.0  0.58154  0.34483  0.44946  1.0000
  H   H53       1.0  0.51858  0.33395  0.44652  1.0000
  O  Te5       1.0  0.61194  0.46844  0.50188  1.0000
  O  Te6       1.0  0.67503  0.44440  0.48971  1.0000
  H   H54       1.0  0.57355  0.31295  0.43587  1.0000
  Mg  Mg3       1.0  0.67287  0.49653  0.51227  1.0000
  C   C91       1.0  0.33971  0.78006  0.49824  1.0000
  C   C92       1.0  0.35935  0.75597  0.49706  1.0000
  C  Sn7       1.0  0.39911  0.77262  0.52746  1.0000
  C  Sn8       1.0  0.41950  0.81417  0.55966  1.0000
  C   C93       1.0  0.39957  0.83800  0.56070  1.0000
  C   C94       1.0  0.35979  0.82103  0.53006  1.0000
  H   H55       1.0  0.30892  0.76693  0.47463  1.0000
  O  Te7       1.0  0.41830  0.74813  0.52575  1.0000
  O  Te8       1.0  0.45924  0.83158  0.59051  1.0000
  H   H56       1.0  0.34457  0.83968  0.53110  1.0000
  Mg  Mg4       1.0  0.47257  0.78580  0.57479  1.0000
  C   C95       1.0  0.47125  0.45321  0.00703  1.0000
  C   C96       1.0  0.40303  0.39930  0.98965  1.0000
  C  Sn9       1.0  0.42717  0.44344  0.98641  1.0000
  C  Sn10      1.0  0.51897  0.54180  0.00092  1.0000
  C   C97       1.0  0.47326  0.51979  0.01839  1.0000
  C   C98       1.0  0.44944  0.47562  0.02141  1.0000
  H   H57       1.0  0.45280  0.41902  0.00948  1.0000
  O  Te9       1.0  0.47278  0.46463  0.96890  1.0000
  O  Te10      1.0  0.42841  0.51032  0.99813  1.0000
  H   H58       1.0  0.41407  0.45882  0.03499  1.0000
  Mg  Mg5       1.0  0.49012  0.52493  0.97182  1.0000
  C   C99       1.0  0.57959  0.21235  0.44430  1.0000
  C   C100      1.0  0.61624  0.23969  0.48611  1.0000
  C  Sn11      1.0  0.64358  0.22612  0.51299  1.0000
  C  Sn12      1.0  0.63399  0.18440  0.49760  1.0000
  C   C101      1.0  0.59726  0.15730  0.45559  1.0000
  C   C102      1.0  0.57011  0.17120  0.42901  1.0000
  H   H59       1.0  0.55859  0.22311  0.42363  1.0000
  O  Te11      1.0  0.68005  0.25384  0.55474  1.0000
  O  Te12      1.0  0.66078  0.17003  0.52372  1.0000
  H   H60       1.0  0.54176  0.15003  0.39652  1.0000
  Mg  Mg6       1.0  0.70668  0.21958  0.57820  1.0000
  C   C103      1.0  0.46387  0.99952  0.14336  1.0000
  C   C104      1.0  0.51058  0.03656  0.05640  1.0000
  C  Sn13      1.0  0.43152  0.95958  0.92022  1.0000
  C  Sn14      1.0  0.92218  0.92036  0.87043  1.0000
  C   C105      1.0  0.87535  0.88349  0.95815  1.0000
  C   C106      1.0  0.95466  0.96083  0.09428  1.0000
  H   H61       1.0  0.43713  0.00086  0.24861  1.0000
  O  Te13      1.0  0.47802  0.99687  0.83478  1.0000
  O  Te14      1.0  0.95628  0.91809  0.73473  1.0000
  H   H62       1.0  0.91850  0.93216  0.16149  1.0000
  Mg  Mg7       1.0  0.51190  0.97756  0.65798  1.0000
  C   C107      1.0  0.24407  0.73264  0.99761  1.0000
  C   C108      1.0  0.39464  0.83529  0.03969  1.0000
  C  Sn15      1.0  0.42218  0.82166  0.06375  1.0000
  C  Sn16      1.0  0.41272  0.78016  0.04520  1.0000
  C   C109      1.0  0.37594  0.75336  0.00294  1.0000
  C   C110      1.0  0.23473  0.69172  0.97921  1.0000
  H   H63       1.0  0.22293  0.74345  0.97914  1.0000
  O  Te15      1.0  0.45869  0.84908  0.10582  1.0000
  O  Te16      1.0  0.43970  0.76573  0.06845  1.0000
  H   H64       1.0  0.20633  0.67078  0.94651  1.0000
  Mg  Mg8       1.0  0.48560  0.81485  0.12464  1.0000
  C   C111      1.0  0.01894  0.47295  0.43697  1.0000
  C   C112      1.0  0.03957  0.51307  0.47455  1.0000
  C  Sn17      1.0  0.01421  0.53153  0.53530  1.0000
  C  Sn18      1.0  0.96733  0.50933  0.55878  1.0000
  C   C113      1.0  0.94700  0.46919  0.52094  1.0000
  C   C114      1.0  0.97270  0.45102  0.46016  1.0000
  H   H65       1.0  0.03881  0.45887  0.39004  1.0000
  O  Te17      1.0  0.03536  0.57165  0.57214  1.0000
  O  Te18      1.0  0.94118  0.52704  0.61939  1.0000
  H   H66       1.0  0.95671  0.41994  0.43120  1.0000
  Mg  Mg9       1.0  0.98541  0.58251  0.65161  1.0000
