data_image0
_chemical_formula_structural       H58C78N36SnCSn2CSnTe4Mg2SnCSn2CSnTe4Mg2SnCSn2CSnTe4Mg2SnCSn2CSnTe4Mg2SnCSn2CSnTe4Mg2SnCSn2CSnTe4Mg2SnCSn2CSnTe4Mg2SnCSn2CSnTe4Mg2SnCSn2CSnTe4Mg2
_chemical_formula_sum              "H58 C96 N36 Sn36 Te36 Mg18"
_cell_length_a       38.6256
_cell_length_b       38.7842
_cell_length_c       8.33149
_cell_angle_alpha    122.877
_cell_angle_beta     81.8219
_cell_angle_gamma    119.8

_symmetry_space_group_name_H-M    'P1'
_space_group_IT_number       1

loop_
  _space_group_symop_operation_xyz
  'x, y, z'

loop_
  _atom_site_type_symbol
  _atom_site_label
  _atom_site_symmetry_multiplicity
  _atom_site_fract_x
  _atom_site_fract_y
  _atom_site_fract_z
  _atom_site_occupancy
  H   H1        1.0  0.35086  0.58731  0.05026  1.0000
  H   H2        1.0  0.40828  0.77021  0.05043  1.0000
  H   H3        1.0  0.40773  0.57367  0.05059  1.0000
  H   H4        1.0  0.42601  0.84070  0.04262  1.0000
  H   H5        1.0  0.48853  0.69337  0.00645  1.0000
  H   H6        1.0  0.29889  0.78951  0.93032  1.0000
  H   H7        1.0  0.43158  0.70642  0.00756  1.0000
  H   H8        1.0  0.28198  0.72032  0.94382  1.0000
  H   H9        1.0  0.49440  0.36797  0.03031  1.0000
  H   H10       1.0  0.63973  0.13758  0.08295  1.0000
  H   H11       1.0  0.87612  0.50816  0.00203  1.0000
  H   H12       1.0  0.50853  0.64206  0.97334  1.0000
  H   H13       1.0  0.34956  0.85390  0.90762  1.0000
  H   H14       1.0  0.10603  0.52779  0.07653  1.0000
  H   H15       1.0  0.95622  0.44530  0.98415  1.0000
  H   H16       1.0  0.01859  0.44312  0.87061  1.0000
  H   H17       1.0  0.50898  0.06233  0.46582  1.0000
  H   H18       1.0  0.60660  0.07182  0.57541  1.0000
  H   H19       1.0  0.46994  0.40972  0.04055  1.0000
  H   H20       1.0  0.44338  0.45636  0.07846  1.0000
  H   H21       1.0  0.44820  0.52309  0.08342  1.0000
  H   H22       1.0  0.53223  0.59132  0.45744  1.0000
  H   H23       1.0  0.07093  0.57061  0.56400  1.0000
  H   H24       1.0  0.01024  0.57383  0.52243  1.0000
  H   H25       1.0  0.39032  0.92151  0.92197  1.0000
  H   H26       1.0  0.56275  0.99929  0.56027  1.0000
  H   H27       1.0  0.93616  0.53888  0.47148  1.0000
  H   H28       1.0  0.64530  0.40549  0.45483  1.0000
  H   H29       1.0  0.35269  0.59220  0.55575  1.0000
  H   H30       1.0  0.22799  0.64394  0.47876  1.0000
  H   H31       1.0  0.59054  0.42186  0.44972  1.0000
  H   H32       1.0  0.40528  0.57253  0.55694  1.0000
  H   H33       1.0  0.15722  0.59105  0.49406  1.0000
  H   H34       1.0  0.50525  0.30291  0.49042  1.0000
  H   H35       1.0  0.49338  0.68832  0.50213  1.0000
  H   H36       1.0  0.19896  0.51240  0.54246  1.0000
  H   H37       1.0  0.56021  0.28697  0.49360  1.0000
  H   H38       1.0  0.44067  0.70775  0.50406  1.0000
  H   H39       1.0  0.26921  0.56532  0.52688  1.0000
  H   H40       1.0  0.48806  0.35620  0.51976  1.0000
  H   H41       1.0  0.64788  0.13903  0.58269  1.0000
  H   H42       1.0  0.86781  0.50939  0.45762  1.0000
  H   H43       1.0  0.50746  0.63234  0.46568  1.0000
  H   H44       1.0  0.35527  0.85880  0.41115  1.0000
  H   H45       1.0  0.13488  0.50663  0.62382  1.0000
  H   H46       1.0  0.93321  0.44474  0.50922  1.0000
  H   H47       1.0  0.99372  0.44070  0.54356  1.0000
  H   H48       1.0  0.44050  0.99815  0.43239  1.0000
  H   H49       1.0  0.59905  0.07122  0.07490  1.0000
  H   H50       1.0  0.46265  0.39803  0.53651  1.0000
  H   H51       1.0  0.56122  0.48897  0.91684  1.0000
  H   H52       1.0  0.56636  0.55631  0.92517  1.0000
  H   H53       1.0  0.53745  0.60283  0.96013  1.0000
  H   H54       1.0  0.07131  0.58310  0.98347  1.0000
  H   H55       1.0  0.00942  0.58553  0.09752  1.0000
  H   H56       1.0  0.39669  0.92596  0.41749  1.0000
  H   H57       1.0  0.49425  0.93525  0.52774  1.0000
  H   H58       1.0  0.94012  0.54316  0.05714  1.0000
  C   C1        1.0  0.64118  0.34084  0.98348  1.0000
  C   C2        1.0  0.65901  0.29440  0.99714  1.0000
  C   C3        1.0  0.70745  0.36021  0.00081  1.0000
  C   C4        1.0  0.35451  0.65575  0.02252  1.0000
  C   C5        1.0  0.33421  0.70010  0.00648  1.0000
  C   C6        1.0  0.28834  0.63618  0.02086  1.0000
  C   C7        1.0  0.38755  0.64771  0.02862  1.0000
  C   C8        1.0  0.34408  0.74086  0.99835  1.0000
  C   C9        1.0  0.38109  0.61015  0.03993  1.0000
  C   C10       1.0  0.38469  0.77506  0.02515  1.0000
  C   C11       1.0  0.41258  0.60234  0.03968  1.0000
  C   C12       1.0  0.39471  0.81420  0.02122  1.0000
  C   C13       1.0  0.45158  0.63237  0.02723  1.0000
  C   C14       1.0  0.36374  0.81958  0.98585  1.0000
  C   C15       1.0  0.45845  0.67032  0.01753  1.0000
  C   C16       1.0  0.32290  0.78575  0.96012  1.0000
  C   C17       1.0  0.42687  0.67777  0.01836  1.0000
  C   C18       1.0  0.31337  0.74698  0.96641  1.0000
  C   C19       1.0  0.49054  0.41789  0.49756  1.0000
  C   C20       1.0  0.58086  0.07147  0.53134  1.0000
  C   C21       1.0  0.93241  0.51313  0.50180  1.0000
  C   C22       1.0  0.50465  0.57256  0.50153  1.0000
  C   C23       1.0  0.42235  0.92626  0.46142  1.0000
  C   C24       1.0  0.07277  0.50674  0.60333  1.0000
  C   C25       1.0  0.54055  0.03518  0.51482  1.0000
  C   C26       1.0  0.96753  0.50992  0.51730  1.0000
  C   C27       1.0  0.46273  0.96234  0.47780  1.0000
  C   C28       1.0  0.03653  0.50613  0.56043  1.0000
  C   C29       1.0  0.50555  0.03463  0.48037  1.0000
  C   C30       1.0  0.96339  0.47217  0.52178  1.0000
  C   C31       1.0  0.49771  0.96296  0.51308  1.0000
  C   C32       1.0  0.04066  0.54287  0.54936  1.0000
  C   C33       1.0  0.53584  0.99881  0.53152  1.0000
  C   C34       1.0  0.00669  0.54467  0.52713  1.0000
  C   C35       1.0  0.46741  0.99871  0.46147  1.0000
  C   C36       1.0  0.99727  0.47017  0.54135  1.0000
  C   C37       1.0  0.63891  0.33712  0.48453  1.0000
  C   C38       1.0  0.66054  0.29367  0.49847  1.0000
  C   C39       1.0  0.70606  0.36041  0.50270  1.0000
  C   C40       1.0  0.36157  0.66073  0.51957  1.0000
  C   C41       1.0  0.34203  0.70563  0.50476  1.0000
  C   C42       1.0  0.29485  0.63954  0.50123  1.0000
  C   C43       1.0  0.60621  0.34526  0.47446  1.0000
  C   C44       1.0  0.39323  0.65099  0.52889  1.0000
  C   C45       1.0  0.25295  0.60789  0.50220  1.0000
  C   C46       1.0  0.61448  0.38338  0.46278  1.0000
  C   C47       1.0  0.38364  0.61286  0.54360  1.0000
  C   C48       1.0  0.22114  0.61489  0.49186  1.0000
  C   C49       1.0  0.58427  0.39275  0.46080  1.0000
  C   C50       1.0  0.41264  0.60159  0.54301  1.0000
  C   C51       1.0  0.18189  0.58547  0.49869  1.0000
  C   C52       1.0  0.54466  0.36367  0.47127  1.0000
  C   C53       1.0  0.45242  0.62869  0.52646  1.0000
  C   C54       1.0  0.17382  0.54841  0.51775  1.0000
  C   C55       1.0  0.53593  0.32514  0.48113  1.0000
  C   C56       1.0  0.46255  0.66747  0.51523  1.0000
  C   C57       1.0  0.20546  0.54099  0.52682  1.0000
  C   C58       1.0  0.56637  0.31609  0.48247  1.0000
  C   C59       1.0  0.43332  0.67844  0.51646  1.0000
  C   C60       1.0  0.24437  0.57030  0.51845  1.0000
  C   C61       1.0  0.49789  0.42888  0.99951  1.0000
  C   C62       1.0  0.57304  0.07048  0.03197  1.0000
  C   C63       1.0  0.93904  0.51320  0.04797  1.0000
  C   C64       1.0  0.51023  0.58279  0.00182  1.0000
  C   C65       1.0  0.41633  0.92217  0.96505  1.0000
  C   C66       1.0  0.07612  0.50286  0.76668  1.0000
  C   C67       1.0  0.50188  0.46754  0.99539  1.0000
  C   C68       1.0  0.97726  0.51408  0.03429  1.0000
  C   C69       1.0  0.50755  0.54460  0.00544  1.0000
  C   C70       1.0  0.04808  0.51161  0.90634  1.0000
  C   C71       1.0  0.53671  0.49679  0.95420  1.0000
  C   C72       1.0  0.98158  0.47564  0.98592  1.0000
  C   C73       1.0  0.47274  0.51535  0.04661  1.0000
  C   C74       1.0  0.04639  0.55318  0.98616  1.0000
  C   C75       1.0  0.47009  0.47783  0.04170  1.0000
  C   C76       1.0  0.01151  0.55440  0.04915  1.0000
  C   C77       1.0  0.53947  0.53454  0.96002  1.0000
  C   C78       1.0  0.01667  0.47458  0.92290  1.0000
  N   N1        1.0  0.62921  0.30192  0.98496  1.0000
  N   N2        1.0  0.69863  0.32275  0.00688  1.0000
  N   N3        1.0  0.67996  0.37112  0.99078  1.0000
  N   N4        1.0  0.36474  0.69330  0.01391  1.0000
  N   N5        1.0  0.29539  0.67227  0.00892  1.0000
  N   N6        1.0  0.31646  0.62570  0.02520  1.0000
  N   N7        1.0  0.51949  0.38216  0.97738  1.0000
  N   N8        1.0  0.61693  0.13413  0.01595  1.0000
  N   N9        1.0  0.87187  0.48271  0.02273  1.0000
  N   N10       1.0  0.48438  0.62649  0.02681  1.0000
  N   N11       1.0  0.37236  0.85782  0.97674  1.0000
  N   N12       1.0  0.12076  0.51270  0.97193  1.0000
  N   N13       1.0  0.52639  0.41822  0.96482  1.0000
  N   N14       1.0  0.57833  0.10167  0.99678  1.0000
  N   N15       1.0  0.90412  0.47845  0.03172  1.0000
  N   N16       1.0  0.48047  0.59139  0.03790  1.0000
  N   N17       1.0  0.41103  0.89080  0.99805  1.0000
  N   N18       1.0  0.10675  0.49920  0.79091  1.0000
  N   N19       1.0  0.62914  0.29883  0.48632  1.0000
  N   N20       1.0  0.69960  0.32346  0.50714  1.0000
  N   N21       1.0  0.67687  0.36901  0.49324  1.0000
  N   N22       1.0  0.37267  0.69952  0.51861  1.0000
  N   N23       1.0  0.30259  0.67652  0.49444  1.0000
  N   N24       1.0  0.32317  0.62975  0.51114  1.0000
  N   N25       1.0  0.51312  0.37131  0.46908  1.0000
  N   N26       1.0  0.62484  0.13531  0.51609  1.0000
  N   N27       1.0  0.86537  0.48888  0.50419  1.0000
  N   N28       1.0  0.48289  0.61903  0.52310  1.0000
  N   N29       1.0  0.37820  0.86332  0.48216  1.0000
  N   N30       1.0  0.13619  0.51960  0.53955  1.0000
  N   N31       1.0  0.51938  0.40777  0.46147  1.0000
  N   N32       1.0  0.58635  0.10257  0.49699  1.0000
  N   N33       1.0  0.89761  0.48581  0.52334  1.0000
  N   N34       1.0  0.47621  0.58335  0.53788  1.0000
  N   N35       1.0  0.41676  0.89549  0.49864  1.0000
  N   N36       1.0  0.10325  0.52060  0.51550  1.0000
  C  Sn1       1.0  0.20911  0.62120  0.08690  1.0000
  C   C79       1.0  0.24158  0.61466  0.08678  1.0000
  C  Sn2       1.0  0.23458  0.57041  0.03216  1.0000
  C  Sn3       1.0  0.23081  0.66657  0.97637  1.0000
  C   C80       1.0  0.19837  0.67312  0.97647  1.0000
  C  Sn4       1.0  0.16881  0.58267  0.03111  1.0000
  O  Te1       1.0  0.21682  0.66575  0.14203  1.0000
  O  Te2       1.0  0.26753  0.56474  0.03326  1.0000
  O  Te3       1.0  0.22312  0.62201  0.92122  1.0000
  O  Te4       1.0  0.13589  0.58835  0.03000  1.0000
  Mg  Mg1       1.0  0.27803  0.63193  0.94618  1.0000
  Mg  Mg2       1.0  0.16187  0.65582  0.11694  1.0000
  C  Sn5       1.0  0.40249  0.80599  0.47025  1.0000
  C   C81       1.0  0.37537  0.81763  0.44788  1.0000
  C  Sn6       1.0  0.33511  0.79537  0.46958  1.0000
  C  Sn7       1.0  0.32168  0.76077  0.51469  1.0000
  C   C82       1.0  0.34879  0.74914  0.53706  1.0000
  C  Sn8       1.0  0.38905  0.77138  0.51536  1.0000
  O  Te5       1.0  0.44260  0.82869  0.44792  1.0000
  O  Te6       1.0  0.30856  0.80759  0.44646  1.0000
  O  Te7       1.0  0.28153  0.73806  0.53701  1.0000
  O  Te8       1.0  0.41560  0.75918  0.53849  1.0000
  Mg  Mg3       1.0  0.25685  0.76682  0.49139  1.0000
  Mg  Mg4       1.0  0.46731  0.79994  0.49370  1.0000
  C  Sn9       1.0  0.67230  0.22296  0.09427  1.0000
  C   C83       1.0  0.63349  0.18567  0.06288  1.0000
  C  Sn10      1.0  0.63659  0.31324  0.97690  1.0000
  C  Sn11      1.0  0.64206  0.34403  0.92100  1.0000
  C   C84       1.0  0.68085  0.38128  0.95236  1.0000
  C  Sn12      1.0  0.67777  0.25374  0.03837  1.0000
  O  Te9       1.0  0.70529  0.22940  0.18045  1.0000
  O  Te10      1.0  0.59809  0.27573  0.94706  1.0000
  O  Te11      1.0  0.60903  0.33755  0.83477  1.0000
  O  Te12      1.0  0.71626  0.29122  0.06819  1.0000
  Mg  Mg5       1.0  0.56261  0.28146  0.82435  1.0000
  Mg  Mg6       1.0  0.75176  0.28551  0.19078  1.0000
  C  Sn13      1.0  0.52935  0.50764  0.40005  1.0000
  C   C85       1.0  0.50161  0.52348  0.44750  1.0000
  C  Sn14      1.0  0.47026  0.50855  0.54222  1.0000
  C  Sn15      1.0  0.46659  0.47715  0.59063  1.0000
  C   C86       1.0  0.49432  0.46132  0.54321  1.0000
  C  Sn16      1.0  0.52568  0.47623  0.44846  1.0000
  O  Te13      1.0  0.56045  0.52303  0.30537  1.0000
  O  Te14      1.0  0.44288  0.52486  0.58811  1.0000
  O  Te15      1.0  0.43545  0.46176  0.68538  1.0000
  O  Te16      1.0  0.55305  0.45994  0.40260  1.0000
  Mg  Mg7       1.0  0.40568  0.49385  0.71736  1.0000
  Mg  Mg8       1.0  0.59027  0.49096  0.27345  1.0000
  C  Sn17      1.0  0.79151  0.40241  0.58284  1.0000
  C   C87       1.0  0.75567  0.40146  0.56304  1.0000
  C  Sn18      1.0  0.75452  0.42704  0.49596  1.0000
  C  Sn19      1.0  0.78994  0.45412  0.44755  1.0000
  C   C88       1.0  0.82575  0.45505  0.46733  1.0000
  C  Sn20      1.0  0.82692  0.42948  0.53443  1.0000
  O  Te17      1.0  0.79196  0.37656  0.65016  1.0000
  O  Te18      1.0  0.71834  0.42556  0.47743  1.0000
  O  Te19      1.0  0.78947  0.47998  0.38020  1.0000
  O  Te20      1.0  0.86308  0.43095  0.55293  1.0000
  Mg  Mg9       1.0  0.73293  0.46672  0.37954  1.0000
  Mg  Mg10      1.0  0.84852  0.38979  0.65071  1.0000
  C  Sn21      1.0  0.84833  0.53040  0.96872  1.0000
  C   C89       1.0  0.86465  0.57074  0.96200  1.0000
  C  Sn22      1.0  0.84199  0.59224  0.99394  1.0000
  C  Sn23      1.0  0.76565  0.43835  0.03355  1.0000
  C   C90       1.0  0.74935  0.39804  0.04030  1.0000
  C  Sn24      1.0  0.77200  0.37651  0.00834  1.0000
  O  Te21      1.0  0.87154  0.50949  0.93635  1.0000
  O  Te22      1.0  0.85895  0.63253  0.98641  1.0000
  O  Te23      1.0  0.74245  0.45930  0.06593  1.0000
  O  Te24      1.0  0.75506  0.33625  0.01589  1.0000
  Mg  Mg11      1.0  0.77885  0.51364  0.04049  1.0000
  Mg  Mg12      1.0  0.83513  0.45513  0.96193  1.0000
  C  Sn25      1.0  0.60605  0.21538  0.52794  1.0000
  C   C91       1.0  0.64422  0.25236  0.55018  1.0000
  C  Sn26      1.0  0.67847  0.24792  0.53499  1.0000
  C  Sn27      1.0  0.67449  0.20562  0.49664  1.0000
  C   C92       1.0  0.63633  0.16866  0.47439  1.0000
  C  Sn28      1.0  0.60206  0.17307  0.48959  1.0000
  O  Te25      1.0  0.57222  0.22059  0.54370  1.0000
  O  Te26      1.0  0.71632  0.28539  0.55785  1.0000
  O  Te27      1.0  0.70836  0.20044  0.48089  1.0000
  O  Te28      1.0  0.56423  0.13563  0.46672  1.0000
  Mg  Mg13      1.0  0.75340  0.26137  0.52334  1.0000
  Mg  Mg14      1.0  0.52714  0.15960  0.50110  1.0000
  C  Sn29      1.0  0.46593  0.99556  0.90579  1.0000
  C   C93       1.0  0.45739  0.95884  0.92666  1.0000
  C  Sn30      1.0  0.45127  0.82652  0.01184  1.0000
  C  Sn31      1.0  0.49104  0.86643  0.07765  1.0000
  C   C94       1.0  0.49956  0.90313  0.05681  1.0000
  C  Sn32      1.0  0.50570  0.03548  0.97161  1.0000
  O  Te29      1.0  0.43505  0.99245  0.82022  1.0000
  O  Te30      1.0  0.44200  0.78936  0.03106  1.0000
  O  Te31      1.0  0.52192  0.86952  0.16328  1.0000
  O  Te32      1.0  0.51495  0.07261  0.95241  1.0000
  Mg  Mg15      1.0  0.49435  0.80996  0.15730  1.0000
  Mg  Mg16      1.0  0.46262  0.05206  0.82629  1.0000
  C  Sn33      1.0  0.51067  0.20337  0.04747  1.0000
  C   C95       1.0  0.51465  0.23884  0.02898  1.0000
  C  Sn34      1.0  0.58480  0.39630  0.96305  1.0000
  C  Sn35      1.0  0.61505  0.38333  0.91447  1.0000
  C   C96       1.0  0.61106  0.34788  0.93294  1.0000
  C  Sn36      1.0  0.57746  0.32509  0.99889  1.0000
  O  Te33      1.0  0.47682  0.18108  0.11366  1.0000
  O  Te34      1.0  0.58811  0.43167  0.94582  1.0000
  O  Te35      1.0  0.64893  0.40566  0.84825  1.0000
  O  Te36      1.0  0.53760  0.15505  0.01610  1.0000
  Mg  Mg17      1.0  0.63982  0.45167  0.84916  1.0000
  Mg  Mg18      1.0  0.48590  0.13501  0.11265  1.0000
