data_image0
_chemical_formula_structural       H22C24N36C2Sn2C2HTe2HMgC2Sn2C2HTe2HMgC2Sn2C2HTe2HMgC2Sn2C2HTe2HMgC2Sn2C2HTe2HMgC2Sn2C2HTe2HMgC2Sn2C2HTe2HMgC2Sn2C2HTe2HMgC2Sn2C2HTe2HMgC2Sn2C2HTe2HMgC2Sn2C2HTe2HMgC2Sn2C2HTe2HMgC2Sn2C2HTe2HMgC2Sn2C2HTe2HMgC2Sn2C2HTe2HMgC2Sn2C2HTe2HMgC2Sn2C2HTe2HMgC2Sn2C2HTe2HMg
_chemical_formula_sum              "H58 C96 N36 Sn36 Te36 Mg18"
_cell_length_a       38.6256
_cell_length_b       38.7842
_cell_length_c       8.33149
_cell_angle_alpha    122.877
_cell_angle_beta     81.8219
_cell_angle_gamma    119.8

_symmetry_space_group_name_H-M    'P1'
_space_group_IT_number       1

loop_
  _space_group_symop_operation_xyz
  'x, y, z'

loop_
  _atom_site_type_symbol
  _atom_site_label
  _atom_site_symmetry_multiplicity
  _atom_site_fract_x
  _atom_site_fract_y
  _atom_site_fract_z
  _atom_site_occupancy
  H   H1        1.0  0.49440  0.36797  0.03031  1.0000
  H   H2        1.0  0.63973  0.13758  0.08295  1.0000
  H   H3        1.0  0.87612  0.50816  0.00203  1.0000
  H   H4        1.0  0.50853  0.64206  0.97334  1.0000
  H   H5        1.0  0.34956  0.85390  0.90762  1.0000
  H   H6        1.0  0.10603  0.52779  0.07653  1.0000
  H   H7        1.0  0.60660  0.07182  0.57541  1.0000
  H   H8        1.0  0.46994  0.40972  0.04055  1.0000
  H   H9        1.0  0.53223  0.59132  0.45744  1.0000
  H   H10       1.0  0.39032  0.92151  0.92197  1.0000
  H   H11       1.0  0.93616  0.53888  0.47148  1.0000
  H   H12       1.0  0.48806  0.35620  0.51976  1.0000
  H   H13       1.0  0.64788  0.13903  0.58269  1.0000
  H   H14       1.0  0.86781  0.50939  0.45762  1.0000
  H   H15       1.0  0.50746  0.63234  0.46568  1.0000
  H   H16       1.0  0.35527  0.85880  0.41115  1.0000
  H   H17       1.0  0.13488  0.50663  0.62382  1.0000
  H   H18       1.0  0.59905  0.07122  0.07490  1.0000
  H   H19       1.0  0.46265  0.39803  0.53651  1.0000
  H   H20       1.0  0.53745  0.60283  0.96013  1.0000
  H   H21       1.0  0.39669  0.92596  0.41749  1.0000
  H   H22       1.0  0.94012  0.54316  0.05714  1.0000
  C   C1        1.0  0.64118  0.34084  0.98348  1.0000
  C   C2        1.0  0.65901  0.29440  0.99714  1.0000
  C   C3        1.0  0.70745  0.36021  0.00081  1.0000
  C   C4        1.0  0.35451  0.65575  0.02252  1.0000
  C   C5        1.0  0.33421  0.70010  0.00648  1.0000
  C   C6        1.0  0.28834  0.63618  0.02086  1.0000
  C   C7        1.0  0.49054  0.41789  0.49756  1.0000
  C   C8        1.0  0.58086  0.07147  0.53134  1.0000
  C   C9        1.0  0.93241  0.51313  0.50180  1.0000
  C   C10       1.0  0.50465  0.57256  0.50153  1.0000
  C   C11       1.0  0.42235  0.92626  0.46142  1.0000
  C   C12       1.0  0.07277  0.50674  0.60333  1.0000
  C   C13       1.0  0.63891  0.33712  0.48453  1.0000
  C   C14       1.0  0.66054  0.29367  0.49847  1.0000
  C   C15       1.0  0.70606  0.36041  0.50270  1.0000
  C   C16       1.0  0.36157  0.66073  0.51957  1.0000
  C   C17       1.0  0.34203  0.70563  0.50476  1.0000
  C   C18       1.0  0.29485  0.63954  0.50123  1.0000
  C   C19       1.0  0.49789  0.42888  0.99951  1.0000
  C   C20       1.0  0.57304  0.07048  0.03197  1.0000
  C   C21       1.0  0.93904  0.51320  0.04797  1.0000
  C   C22       1.0  0.51023  0.58279  0.00182  1.0000
  C   C23       1.0  0.41633  0.92217  0.96505  1.0000
  C   C24       1.0  0.07612  0.50286  0.76668  1.0000
  N   N1        1.0  0.62921  0.30192  0.98496  1.0000
  N   N2        1.0  0.69863  0.32275  0.00688  1.0000
  N   N3        1.0  0.67996  0.37112  0.99078  1.0000
  N   N4        1.0  0.36474  0.69330  0.01391  1.0000
  N   N5        1.0  0.29539  0.67227  0.00892  1.0000
  N   N6        1.0  0.31646  0.62570  0.02520  1.0000
  N   N7        1.0  0.51949  0.38216  0.97738  1.0000
  N   N8        1.0  0.61693  0.13413  0.01595  1.0000
  N   N9        1.0  0.87187  0.48271  0.02273  1.0000
  N   N10       1.0  0.48438  0.62649  0.02681  1.0000
  N   N11       1.0  0.37236  0.85782  0.97674  1.0000
  N   N12       1.0  0.12076  0.51270  0.97193  1.0000
  N   N13       1.0  0.52639  0.41822  0.96482  1.0000
  N   N14       1.0  0.57833  0.10167  0.99678  1.0000
  N   N15       1.0  0.90412  0.47845  0.03172  1.0000
  N   N16       1.0  0.48047  0.59139  0.03790  1.0000
  N   N17       1.0  0.41103  0.89080  0.99805  1.0000
  N   N18       1.0  0.10675  0.49920  0.79091  1.0000
  N   N19       1.0  0.62914  0.29883  0.48632  1.0000
  N   N20       1.0  0.69960  0.32346  0.50714  1.0000
  N   N21       1.0  0.67687  0.36901  0.49324  1.0000
  N   N22       1.0  0.37267  0.69952  0.51861  1.0000
  N   N23       1.0  0.30259  0.67652  0.49444  1.0000
  N   N24       1.0  0.32317  0.62975  0.51114  1.0000
  N   N25       1.0  0.51312  0.37131  0.46908  1.0000
  N   N26       1.0  0.62484  0.13531  0.51609  1.0000
  N   N27       1.0  0.86537  0.48888  0.50419  1.0000
  N   N28       1.0  0.48289  0.61903  0.52310  1.0000
  N   N29       1.0  0.37820  0.86332  0.48216  1.0000
  N   N30       1.0  0.13619  0.51960  0.53955  1.0000
  N   N31       1.0  0.51938  0.40777  0.46147  1.0000
  N   N32       1.0  0.58635  0.10257  0.49699  1.0000
  N   N33       1.0  0.89761  0.48581  0.52334  1.0000
  N   N34       1.0  0.47621  0.58335  0.53788  1.0000
  N   N35       1.0  0.41676  0.89549  0.49864  1.0000
  N   N36       1.0  0.10325  0.52060  0.51550  1.0000
  C   C25       1.0  0.60084  0.40375  0.96319  1.0000
  C   C26       1.0  0.55933  0.37880  0.96052  1.0000
  C  Sn1       1.0  0.54302  0.33957  0.97504  1.0000
  C  Sn2       1.0  0.56883  0.32515  0.99259  1.0000
  C   C27       1.0  0.61033  0.35037  0.99525  1.0000
  C   C28       1.0  0.62633  0.38956  0.98057  1.0000
  H   H23       1.0  0.61323  0.43410  0.95193  1.0000
  O  Te1       1.0  0.50147  0.31503  0.97206  1.0000
  O  Te2       1.0  0.51681  0.15139  0.00741  1.0000
  H   H24       1.0  0.65848  0.40890  0.98276  1.0000
  Mg  Mg1       1.0  0.49469  0.26407  0.99648  1.0000
  C   C29       1.0  0.59236  0.18592  0.96820  1.0000
  C   C30       1.0  0.61755  0.17128  0.98401  1.0000
  C  Sn3       1.0  0.62310  0.06517  0.01687  1.0000
  C  Sn4       1.0  0.64020  0.10922  0.03421  1.0000
  C   C31       1.0  0.61474  0.12356  0.01831  1.0000
  C   C32       1.0  0.60920  0.22937  0.98536  1.0000
  H   H25       1.0  0.55981  0.16359  0.94281  1.0000
  O  Te3       1.0  0.64782  0.05000  0.03221  1.0000
  O  Te4       1.0  0.68216  0.13849  0.06714  1.0000
  H   H26       1.0  0.58971  0.24073  0.97326  1.0000
  Mg  Mg2       1.0  0.70323  0.10232  0.07731  1.0000
  C   C33       1.0  0.81366  0.40256  0.03368  1.0000
  C   C34       1.0  0.83014  0.44002  0.00718  1.0000
  C  Sn5       1.0  0.84200  0.58932  0.98615  1.0000
  C  Sn6       1.0  0.80007  0.56595  0.99186  1.0000
  C   C35       1.0  0.74735  0.39385  0.01858  1.0000
  C   C36       1.0  0.77230  0.37950  0.03941  1.0000
  H   H27       1.0  0.83297  0.39148  0.04991  1.0000
  O  Te5       1.0  0.85896  0.62679  0.95972  1.0000
  O  Te6       1.0  0.77473  0.57984  0.97130  1.0000
  H   H28       1.0  0.75954  0.35052  0.06005  1.0000
  Mg  Mg3       1.0  0.81203  0.63276  0.93851  1.0000
  C   C37       1.0  0.45468  0.67672  0.01055  1.0000
  C   C38       1.0  0.45504  0.64411  0.03591  1.0000
  C  Sn7       1.0  0.41931  0.61063  0.05087  1.0000
  C  Sn8       1.0  0.38257  0.60986  0.04014  1.0000
  C   C39       1.0  0.38252  0.64261  0.01461  1.0000
  C   C40       1.0  0.45499  0.81066  0.99987  1.0000
  H   H29       1.0  0.51900  0.83720  0.99903  1.0000
  O  Te7       1.0  0.42021  0.57832  0.07625  1.0000
  O  Te8       1.0  0.34642  0.57677  0.05459  1.0000
  H   H30       1.0  0.45469  0.83588  0.98010  1.0000
  Mg  Mg4       1.0  0.36311  0.54005  0.08832  1.0000
  C   C41       1.0  0.30975  0.75413  0.96466  1.0000
  C   C42       1.0  0.33567  0.74060  0.98292  1.0000
  C  Sn9       1.0  0.34110  0.63484  0.01270  1.0000
  C  Sn10      1.0  0.35733  0.67811  0.02440  1.0000
  C   C43       1.0  0.33115  0.69135  0.00609  1.0000
  C   C44       1.0  0.32573  0.79682  0.97627  1.0000
  H   H31       1.0  0.27730  0.73154  0.94169  1.0000
  O  Te9       1.0  0.36655  0.62077  0.03056  1.0000
  O  Te10      1.0  0.39914  0.70771  0.05416  1.0000
  H   H32       1.0  0.30568  0.80732  0.96226  1.0000
  Mg  Mg5       1.0  0.42142  0.67314  0.06961  1.0000
  C   C45       1.0  0.20602  0.61471  0.02287  1.0000
  C   C46       1.0  0.23948  0.61157  0.04306  1.0000
  C  Sn11      1.0  0.23399  0.57289  0.04089  1.0000
  C  Sn12      1.0  0.19425  0.53672  0.01801  1.0000
  C   C47       1.0  0.19751  0.67486  0.99779  1.0000
  C   C48       1.0  0.16681  0.57905  0.00022  1.0000
  H   H33       1.0  0.21053  0.64477  0.02464  1.0000
  O  Te11      1.0  0.26775  0.57031  0.06132  1.0000
  O  Te12      1.0  0.18790  0.49766  0.01526  1.0000
  H   H34       1.0  0.17743  0.71614  0.98446  1.0000
  Mg  Mg6       1.0  0.24354  0.51012  0.04848  1.0000
  C   C49       1.0  0.45932  0.49431  0.54999  1.0000
  C   C50       1.0  0.49233  0.52876  0.52779  1.0000
  C  Sn13      1.0  0.52725  0.52562  0.47950  1.0000
  C  Sn14      1.0  0.52907  0.48723  0.45299  1.0000
  C   C51       1.0  0.49588  0.45293  0.47540  1.0000
  C   C52       1.0  0.46108  0.45643  0.52380  1.0000
  H   H35       1.0  0.43239  0.49700  0.58733  1.0000
  O  Te13      1.0  0.55996  0.56036  0.45794  1.0000
  O  Te14      1.0  0.56359  0.48322  0.40461  1.0000
  H   H36       1.0  0.43552  0.42973  0.54085  1.0000
  Mg  Mg7       1.0  0.60033  0.53941  0.39122  1.0000
  C   C53       1.0  0.99334  0.02861  0.46666  1.0000
  C   C54       1.0  0.03125  0.03757  0.51724  1.0000
  C  Sn15      1.0  0.03416  0.00610  0.54137  1.0000
  C  Sn16      1.0  0.99841  0.96492  0.51421  1.0000
  C   C55       1.0  0.96063  0.95626  0.46348  1.0000
  C   C56       1.0  0.95807  0.98799  0.43977  1.0000
  H   H37       1.0  0.99135  0.05314  0.44820  1.0000
  O  Te15      1.0  0.07228  0.01560  0.59200  1.0000
  O  Te16      1.0  0.00045  0.93287  0.53733  1.0000
  H   H38       1.0  0.92871  0.98103  0.40048  1.0000
  Mg  Mg8       1.0  0.05939  0.96131  0.60700  1.0000
  C   C57       1.0  0.03633  0.54843  0.53953  1.0000
  C   C58       1.0  0.03878  0.51700  0.56580  1.0000
  C  Sn17      1.0  0.00352  0.47869  0.55536  1.0000
  C  Sn18      1.0  0.96515  0.47180  0.51785  1.0000
  C   C59       1.0  0.96303  0.50342  0.49164  1.0000
  C   C60       1.0  0.99849  0.54165  0.50245  1.0000
  H   H39       1.0  0.06377  0.57800  0.54778  1.0000
  O  Te17      1.0  0.00652  0.44763  0.58204  1.0000
  O  Te18      1.0  0.92944  0.43379  0.50659  1.0000
  H   H40       1.0  0.99659  0.56596  0.48197  1.0000
  Mg  Mg9       1.0  0.94921  0.40112  0.55320  1.0000
  C   C61       1.0  0.59537  0.39694  0.46480  1.0000
  C   C62       1.0  0.55390  0.37033  0.45794  1.0000
  C  Sn19      1.0  0.53870  0.33075  0.46902  1.0000
  C  Sn20      1.0  0.56559  0.31767  0.48737  1.0000
  C   C63       1.0  0.60703  0.34454  0.49424  1.0000
  C   C64       1.0  0.62192  0.38407  0.48297  1.0000
  H   H41       1.0  0.60689  0.42754  0.45619  1.0000
  O  Te19      1.0  0.49718  0.30455  0.46187  1.0000
  O  Te20      1.0  0.55122  0.27829  0.49881  1.0000
  H   H42       1.0  0.65403  0.40469  0.48841  1.0000
  Mg  Mg10      1.0  0.49215  0.25381  0.48276  1.0000
  C   C65       1.0  0.59763  0.18552  0.47365  1.0000
  C   C66       1.0  0.62404  0.17224  0.48911  1.0000
  C  Sn21      1.0  0.66592  0.20183  0.52022  1.0000
  C  Sn22      1.0  0.68156  0.24550  0.53612  1.0000
  C   C67       1.0  0.65490  0.25847  0.52058  1.0000
  C   C68       1.0  0.61304  0.22859  0.48939  1.0000
  H   H43       1.0  0.56525  0.16241  0.44962  1.0000
  O  Te21      1.0  0.69186  0.18801  0.53525  1.0000
  O  Te22      1.0  0.72329  0.27575  0.56728  1.0000
  H   H44       1.0  0.59261  0.23889  0.47755  1.0000
  Mg  Mg11      1.0  0.74638  0.24130  0.57770  1.0000
  C   C69       1.0  0.78317  0.45857  0.48677  1.0000
  C   C70       1.0  0.81963  0.46170  0.51591  1.0000
  C  Sn23      1.0  0.81955  0.42798  0.53463  1.0000
  C  Sn24      1.0  0.78222  0.39047  0.52388  1.0000
  C   C71       1.0  0.74591  0.38764  0.49455  1.0000
  C   C72       1.0  0.74634  0.42158  0.47607  1.0000
  H   H45       1.0  0.78349  0.48482  0.47236  1.0000
  O  Te23      1.0  0.85625  0.43164  0.56375  1.0000
  O  Te24      1.0  0.78127  0.35628  0.54204  1.0000
  H   H46       1.0  0.71810  0.41914  0.45338  1.0000
  Mg  Mg12      1.0  0.83926  0.37646  0.58006  1.0000
  C   C73       1.0  0.40215  0.59950  0.55040  1.0000
  C   C74       1.0  0.44224  0.61970  0.52278  1.0000
  C  Sn25      1.0  0.45858  0.65848  0.50508  1.0000
  C  Sn26      1.0  0.43427  0.67730  0.51535  1.0000
  C   C75       1.0  0.39421  0.65686  0.54316  1.0000
  C   C76       1.0  0.37815  0.61806  0.56063  1.0000
  H   H47       1.0  0.38974  0.56950  0.56402  1.0000
  O  Te25      1.0  0.49868  0.67822  0.47747  1.0000
  O  Te26      1.0  0.44984  0.71604  0.49820  1.0000
  H   H48       1.0  0.34712  0.60245  0.58214  1.0000
  Mg  Mg13      1.0  0.50618  0.73066  0.46211  1.0000
  C   C77       1.0  0.40554  0.81459  0.53575  1.0000
  C   C78       1.0  0.37903  0.82446  0.49388  1.0000
  C  Sn27      1.0  0.33716  0.79482  0.46264  1.0000
  C  Sn28      1.0  0.32163  0.75458  0.47369  1.0000
  C   C79       1.0  0.34841  0.74504  0.51581  1.0000
  C   C80       1.0  0.39025  0.77493  0.54675  1.0000
  H   H49       1.0  0.43792  0.83773  0.55980  1.0000
  O  Te27      1.0  0.31110  0.80519  0.42089  1.0000
  O  Te28      1.0  0.27992  0.72438  0.44318  1.0000
  H   H50       1.0  0.41077  0.76730  0.57930  1.0000
  Mg  Mg14      1.0  0.25665  0.75340  0.39054  1.0000
  C   C81       1.0  0.21606  0.54328  0.52192  1.0000
  C   C82       1.0  0.18154  0.54692  0.53009  1.0000
  C  Sn29      1.0  0.18291  0.58160  0.51407  1.0000
  C  Sn30      1.0  0.21956  0.61317  0.48937  1.0000
  C   C83       1.0  0.25392  0.60922  0.48124  1.0000
  C   C84       1.0  0.25221  0.57439  0.49749  1.0000
  H   H51       1.0  0.21474  0.51632  0.53438  1.0000
  O  Te29      1.0  0.14814  0.58475  0.52260  1.0000
  O  Te30      1.0  0.22176  0.64815  0.47290  1.0000
  H   H52       1.0  0.27894  0.57157  0.49104  1.0000
  Mg  Mg15      1.0  0.16629  0.63832  0.49325  1.0000
  C   C85       1.0  0.46629  0.50452  0.04835  1.0000
  C   C86       1.0  0.49896  0.53878  0.02394  1.0000
  C  Sn31      1.0  0.57052  0.67058  0.97552  1.0000
  C  Sn32      1.0  0.57278  0.63263  0.95114  1.0000
  C   C87       1.0  0.53993  0.59852  0.97575  1.0000
  C   C88       1.0  0.46850  0.46708  0.02426  1.0000
  H   H53       1.0  0.43928  0.50702  0.08578  1.0000
  O  Te31      1.0  0.60288  0.70511  0.95174  1.0000
  O  Te32      1.0  0.60742  0.62887  0.90268  1.0000
  H   H54       1.0  0.44320  0.44053  0.04303  1.0000
  Mg  Mg16      1.0  0.64357  0.68465  0.88584  1.0000
  C   C89       1.0  0.50337  0.96619  0.01968  1.0000
  C   C90       1.0  0.50152  0.09448  0.99837  1.0000
  C  Sn33      1.0  0.49709  0.12526  0.97538  1.0000
  C  Sn34      1.0  0.03277  0.16312  0.97369  1.0000
  C   C91       1.0  0.07104  0.16919  0.99498  1.0000
  C   C92       1.0  0.03859  0.00350  0.01796  1.0000
  H   H55       1.0  0.50654  0.94219  0.03736  1.0000
  O  Te33      1.0  0.45852  0.11837  0.95434  1.0000
  O  Te34      1.0  0.02921  0.19439  0.95086  1.0000
  H   H56       1.0  0.06832  0.00845  0.03432  1.0000
  Mg  Mg17      1.0  0.97019  0.17037  0.92751  1.0000
  C   C93       1.0  0.02228  0.56093  0.04439  1.0000
  C   C94       1.0  0.98572  0.52527  0.04300  1.0000
  C  Sn35      1.0  0.01821  0.61670  0.98463  1.0000
  C  Sn36      1.0  0.05144  0.60909  0.92671  1.0000
  C   C95       1.0  0.08790  0.64500  0.92874  1.0000
  C   C96       1.0  0.09161  0.68816  0.98735  1.0000
  H   H57       1.0  0.02516  0.59433  0.08984  1.0000
  O  Te35      1.0  0.98146  0.58144  0.98404  1.0000
  O  Te36      1.0  0.04824  0.56620  0.86777  1.0000
  H   H58       1.0  0.11993  0.71577  0.98853  1.0000
  Mg  Mg18      1.0  0.99194  0.52900  0.89172  1.0000
