data_image0
_chemical_formula_structural       H12C24N24SnCSn2CSnTe4Mg2SnCSn2CSnTe4Mg2SnCSn2CSnTe4Mg2SnCSn2CSnTe4Mg2SnCSn2CSnTe4Mg2SnCSn2CSnTe4Mg2SnCSn2CSnTe4Mg2SnCSn2CSnTe4Mg2SnCSn2CSnTe4Mg2SnCSn2CSnTe4Mg2SnCSn2CSnTe4Mg2SnCSn2CSnTe4Mg2SnCSn2CSnTe4Mg2SnCSn2CSnTe4Mg2SnCSn2CSnTe4Mg2SnCSn2CSnTe4Mg2SnCSn2CSnTe4Mg2SnCSn2CSnTe4Mg2
_chemical_formula_sum              "H12 C60 N24 Sn72 Te72 Mg36"
_cell_length_a       36.8492
_cell_length_b       36.7976
_cell_length_c       8.06168
_cell_angle_alpha    85.2415
_cell_angle_beta     69.7147
_cell_angle_gamma    120.241

_symmetry_space_group_name_H-M    'P1'
_space_group_IT_number       1

loop_
  _space_group_symop_operation_xyz
  'x, y, z'

loop_
  _atom_site_type_symbol
  _atom_site_label
  _atom_site_symmetry_multiplicity
  _atom_site_fract_x
  _atom_site_fract_y
  _atom_site_fract_z
  _atom_site_occupancy
  H   H1        1.0  0.51544  0.09402  0.13521  1.0000
  H   H2        1.0  0.90841  0.42530  0.93987  1.0000
  H   H3        1.0  0.58750  0.48741  0.00894  1.0000
  H   H4        1.0  0.49265  0.91148  0.86728  1.0000
  H   H5        1.0  0.09886  0.58310  0.05897  1.0000
  H   H6        1.0  0.41315  0.51132  0.00035  1.0000
  H   H7        1.0  0.50699  0.08954  0.63755  1.0000
  H   H8        1.0  0.90128  0.41654  0.44466  1.0000
  H   H9        1.0  0.56174  0.46720  0.61971  1.0000
  H   H10       1.0  0.48442  0.90547  0.38318  1.0000
  H   H11       1.0  0.09314  0.57761  0.54412  1.0000
  H   H12       1.0  0.43283  0.53031  0.37884  1.0000
  C   C1        1.0  0.65440  0.29520  0.99221  1.0000
  C   C2        1.0  0.70974  0.35874  0.01512  1.0000
  C   C3        1.0  0.64860  0.35407  0.98263  1.0000
  C   C4        1.0  0.35371  0.70948  0.00729  1.0000
  C   C5        1.0  0.29747  0.64639  0.98503  1.0000
  C   C6        1.0  0.35883  0.65022  0.01150  1.0000
  C   C7        1.0  0.54127  0.08896  0.04196  1.0000
  C   C8        1.0  0.91411  0.45283  0.99680  1.0000
  C   C9        1.0  0.55552  0.46493  0.99521  1.0000
  C   C10       1.0  0.46649  0.91597  0.96202  1.0000
  C   C11       1.0  0.09203  0.55415  0.01121  1.0000
  C   C12       1.0  0.44659  0.53433  0.00325  1.0000
  C   C13       1.0  0.64661  0.29135  0.49070  1.0000
  C   C14       1.0  0.70317  0.35467  0.51036  1.0000
  C   C15       1.0  0.64185  0.35085  0.48327  1.0000
  C   C16       1.0  0.34709  0.70577  0.49836  1.0000
  C   C17       1.0  0.29087  0.64144  0.48334  1.0000
  C   C18       1.0  0.35313  0.64697  0.50785  1.0000
  C   C19       1.0  0.53296  0.08423  0.54737  1.0000
  C   C20       1.0  0.90756  0.44507  0.49488  1.0000
  C   C21       1.0  0.54302  0.45670  0.53381  1.0000
  C   C22       1.0  0.45823  0.91034  0.47511  1.0000
  C   C23       1.0  0.08592  0.54774  0.50361  1.0000
  C   C24       1.0  0.45294  0.54218  0.45898  1.0000
  N   N1        1.0  0.63063  0.31242  0.97449  1.0000
  N   N2        1.0  0.69366  0.31672  0.01555  1.0000
  N   N3        1.0  0.68828  0.37873  0.00060  1.0000
  N   N4        1.0  0.37751  0.69190  0.02042  1.0000
  N   N5        1.0  0.31413  0.68842  0.98574  1.0000
  N   N6        1.0  0.31861  0.62590  0.99690  1.0000
  N   N7        1.0  0.58575  0.12018  0.95950  1.0000
  N   N8        1.0  0.88329  0.46217  0.04939  1.0000
  N   N9        1.0  0.54384  0.42647  0.97636  1.0000
  N   N10       1.0  0.42222  0.88425  0.04568  1.0000
  N   N11       1.0  0.12146  0.54309  0.96925  1.0000
  N   N12       1.0  0.46022  0.57389  0.01138  1.0000
  N   N13       1.0  0.62266  0.30878  0.47876  1.0000
  N   N14       1.0  0.68650  0.31264  0.50976  1.0000
  N   N15       1.0  0.68226  0.37533  0.49650  1.0000
  N   N16       1.0  0.37166  0.68908  0.51045  1.0000
  N   N17       1.0  0.30731  0.68379  0.47862  1.0000
  N   N18       1.0  0.31222  0.62142  0.49929  1.0000
  N   N19       1.0  0.57739  0.11559  0.46373  1.0000
  N   N20       1.0  0.87765  0.45559  0.54064  1.0000
  N   N21       1.0  0.54162  0.42709  0.45526  1.0000
  N   N22       1.0  0.41375  0.87923  0.55225  1.0000
  N   N23       1.0  0.11463  0.53587  0.47113  1.0000
  N   N24       1.0  0.45605  0.57338  0.52936  1.0000
  C  Sn1       1.0  0.69533  0.28742  0.00954  1.0000
  C   C25       1.0  0.73511  0.31574  0.03274  1.0000
  C  Sn2       1.0  0.76892  0.30678  0.00735  1.0000
  C  Sn3       1.0  0.64899  0.19312  0.95763  1.0000
  C   C26       1.0  0.60924  0.16483  0.93442  1.0000
  C  Sn4       1.0  0.57541  0.17377  0.95981  1.0000
  O  Te1       1.0  0.66199  0.29704  0.03561  1.0000
  O  Te2       1.0  0.80838  0.33557  0.03139  1.0000
  O  Te3       1.0  0.68238  0.18352  0.93156  1.0000
  O  Te4       1.0  0.53597  0.14501  0.93576  1.0000
  Mg  Mg1       1.0  0.73016  0.23273  0.98021  1.0000
  Mg  Mg2       1.0  0.50031  0.17222  0.98681  1.0000
  C  Sn5       1.0  0.80273  0.45035  0.06020  1.0000
  C   C27       1.0  0.82853  0.43546  0.09346  1.0000
  C  Sn6       1.0  0.81884  0.39427  0.07911  1.0000
  C  Sn7       1.0  0.78262  0.36740  0.03039  1.0000
  C   C28       1.0  0.64298  0.30669  0.99713  1.0000
  C  Sn8       1.0  0.76651  0.42348  0.01148  1.0000
  O  Te5       1.0  0.81302  0.49165  0.07533  1.0000
  O  Te6       1.0  0.84510  0.38009  0.11308  1.0000
  O  Te7       1.0  0.77235  0.32607  0.01528  1.0000
  O  Te8       1.0  0.62640  0.36206  0.97751  1.0000
  Mg  Mg3       1.0  0.81788  0.32130  0.07488  1.0000
  Mg  Mg4       1.0  0.76749  0.49645  0.01558  1.0000
  C  Sn9       1.0  0.51386  0.36278  0.95337  1.0000
  C   C29       1.0  0.47279  0.34492  0.93170  1.0000
  C  Sn10      1.0  0.44616  0.30020  0.94538  1.0000
  C  Sn11      1.0  0.46087  0.27275  0.98161  1.0000
  C   C30       1.0  0.61578  0.36621  0.00329  1.0000
  C  Sn12      1.0  0.52856  0.33533  0.98959  1.0000
  O  Te9       1.0  0.53993  0.40758  0.93913  1.0000
  O  Te10      1.0  0.40525  0.28310  0.92313  1.0000
  O  Te11      1.0  0.43476  0.22792  0.99583  1.0000
  O  Te12      1.0  0.68333  0.42803  0.01185  1.0000
  Mg  Mg5       1.0  0.38162  0.22004  0.95499  1.0000
  Mg  Mg6       1.0  0.59309  0.41547  0.98013  1.0000
  C  Sn13      1.0  0.41053  0.78284  0.10302  1.0000
  C   C31       1.0  0.37203  0.75541  0.07103  1.0000
  C  Sn14      1.0  0.35240  0.77300  0.00130  1.0000
  C  Sn15      1.0  0.25780  0.74336  0.96263  1.0000
  C   C32       1.0  0.29629  0.77077  0.99458  1.0000
  C  Sn16      1.0  0.42981  0.82881  0.06434  1.0000
  O  Te13      1.0  0.42960  0.76455  0.17277  1.0000
  O  Te14      1.0  0.20002  0.66931  0.97051  1.0000
  O  Te15      1.0  0.23870  0.76165  0.89283  1.0000
  O  Te16      1.0  0.46829  0.85687  0.09510  1.0000
  Mg  Mg7       1.0  0.18641  0.70989  0.87398  1.0000
  Mg  Mg8       1.0  0.48195  0.81633  0.19153  1.0000
  C  Sn17      1.0  0.11001  0.49075  0.98100  1.0000
  C   C33       1.0  0.14002  0.53687  0.93128  1.0000
  C  Sn18      1.0  0.12376  0.56324  0.91158  1.0000
  C  Sn19      1.0  0.07653  0.54309  0.94233  1.0000
  C   C34       1.0  0.04654  0.49700  0.99205  1.0000
  C  Sn20      1.0  0.17664  0.54621  0.01175  1.0000
  O  Te17      1.0  0.12701  0.46503  0.99991  1.0000
  O  Te18      1.0  0.15443  0.60928  0.86170  1.0000
  O  Te19      1.0  0.05954  0.56885  0.92337  1.0000
  O  Te20      1.0  0.14600  0.50020  0.06163  1.0000
  Mg  Mg9       1.0  0.11479  0.63016  0.85322  1.0000
  Mg  Mg10      1.0  0.18559  0.47928  0.07024  1.0000
  C  Sn21      1.0  0.39426  0.57783  0.92125  1.0000
  C   C35       1.0  0.43341  0.59312  0.95514  1.0000
  C  Sn22      1.0  0.56000  0.70147  0.04137  1.0000
  C  Sn23      1.0  0.53302  0.71930  0.09497  1.0000
  C   C36       1.0  0.49390  0.70401  0.06111  1.0000
  C  Sn24      1.0  0.36728  0.59566  0.97485  1.0000
  O  Te21      1.0  0.38219  0.54507  0.83487  1.0000
  O  Te22      1.0  0.59929  0.71623  0.07374  1.0000
  O  Te23      1.0  0.54513  0.75209  0.18141  1.0000
  O  Te24      1.0  0.32802  0.58090  0.94251  1.0000
  Mg  Mg11      1.0  0.60161  0.76138  0.19569  1.0000
  Mg  Mg12      1.0  0.32565  0.53574  0.82066  1.0000
  C  Sn25      1.0  0.04003  0.00057  0.90541  1.0000
  C   C37       1.0  0.10740  0.03891  0.00125  1.0000
  C  Sn26      1.0  0.07116  0.04338  0.10033  1.0000
  C  Sn27      1.0  0.08162  0.08598  0.10360  1.0000
  C   C38       1.0  0.12810  0.12320  0.00778  1.0000
  C  Sn28      1.0  0.05049  0.04317  0.90868  1.0000
  O  Te25      1.0  0.07570  0.99533  0.80726  1.0000
  O  Te26      1.0  0.02494  0.00564  0.19512  1.0000
  O  Te27      1.0  0.04590  0.09119  0.20187  1.0000
  O  Te28      1.0  0.09668  0.08087  0.81391  1.0000
  Mg  Mg13      1.0  0.98851  0.02982  0.30895  1.0000
  Mg  Mg14      1.0  0.13313  0.05674  0.69996  1.0000
  C  Sn29      1.0  0.99449  0.46160  0.99497  1.0000
  C   C39       1.0  0.07386  0.54581  0.04062  1.0000
  C  Sn30      1.0  0.08452  0.58722  0.05562  1.0000
  C  Sn31      1.0  0.13064  0.62074  0.02421  1.0000
  C   C40       1.0  0.05124  0.53651  0.97855  1.0000
  C  Sn32      1.0  0.04061  0.49511  0.96356  1.0000
  O  Te29      1.0  0.98305  0.41996  0.98072  1.0000
  O  Te30      1.0  0.04944  0.59505  0.10149  1.0000
  O  Te31      1.0  0.14206  0.66239  0.03850  1.0000
  O  Te32      1.0  0.07566  0.48728  0.91769  1.0000
  Mg  Mg15      1.0  0.08223  0.65707  0.10434  1.0000
  Mg  Mg16      1.0  0.04292  0.42528  0.91470  1.0000
  C  Sn33      1.0  0.45372  0.46215  0.05949  1.0000
  C   C41       1.0  0.46612  0.50506  0.05425  1.0000
  C  Sn34      1.0  0.51273  0.53931  0.00323  1.0000
  C  Sn35      1.0  0.43382  0.45488  0.95633  1.0000
  C   C42       1.0  0.42141  0.41199  0.96154  1.0000
  C  Sn36      1.0  0.48868  0.45333  0.01259  1.0000
  O  Te33      1.0  0.40690  0.42842  0.11089  1.0000
  O  Te34      1.0  0.41040  0.50633  0.99908  1.0000
  O  Te35      1.0  0.48066  0.48865  0.90490  1.0000
  O  Te36      1.0  0.47713  0.41072  0.01672  1.0000
  Mg  Mg17      1.0  0.47897  0.54124  0.92007  1.0000
  Mg  Mg18      1.0  0.40858  0.37580  0.09561  1.0000
  C  Sn37      1.0  0.65799  0.22154  0.44785  1.0000
  C   C43       1.0  0.63937  0.24600  0.43388  1.0000
  C  Sn38      1.0  0.59364  0.22498  0.45271  1.0000
  C  Sn39      1.0  0.56593  0.17852  0.48631  1.0000
  C   C44       1.0  0.58454  0.15408  0.50030  1.0000
  C  Sn40      1.0  0.63028  0.17508  0.48146  1.0000
  O  Te37      1.0  0.70379  0.24325  0.42858  1.0000
  O  Te38      1.0  0.57580  0.25014  0.43813  1.0000
  O  Te39      1.0  0.52009  0.15681  0.50557  1.0000
  O  Te40      1.0  0.64812  0.14994  0.49605  1.0000
  Mg  Mg19      1.0  0.51147  0.20543  0.47464  1.0000
  Mg  Mg20      1.0  0.71243  0.19461  0.45966  1.0000
  C  Sn41      1.0  0.80866  0.37732  0.51547  1.0000
  C   C45       1.0  0.83549  0.42240  0.49635  1.0000
  C  Sn42      1.0  0.81607  0.44687  0.50586  1.0000
  C  Sn43      1.0  0.76884  0.42584  0.53520  1.0000
  C   C46       1.0  0.74203  0.38079  0.55433  1.0000
  C  Sn44      1.0  0.76142  0.35629  0.54482  1.0000
  O  Te41      1.0  0.82879  0.35350  0.50551  1.0000
  O  Te42      1.0  0.84359  0.49190  0.48628  1.0000
  O  Te43      1.0  0.74872  0.44970  0.54515  1.0000
  O  Te44      1.0  0.73392  0.31128  0.56441  1.0000
  Mg  Mg21      1.0  0.80037  0.51023  0.51030  1.0000
  Mg  Mg22      1.0  0.77711  0.29291  0.54051  1.0000
  C  Sn45      1.0  0.54496  0.35470  0.51740  1.0000
  C   C47       1.0  0.55855  0.39775  0.51561  1.0000
  C  Sn46      1.0  0.60486  0.43031  0.47645  1.0000
  C  Sn47      1.0  0.63829  0.41962  0.43815  1.0000
  C   C48       1.0  0.62469  0.37659  0.43992  1.0000
  C  Sn48      1.0  0.57839  0.34401  0.47910  1.0000
  O  Te45      1.0  0.49848  0.32267  0.55689  1.0000
  O  Te46      1.0  0.61762  0.47312  0.47553  1.0000
  O  Te47      1.0  0.68480  0.45169  0.39865  1.0000
  O  Te48      1.0  0.56563  0.30123  0.48000  1.0000
  Mg  Mg23      1.0  0.68516  0.50527  0.41385  1.0000
  Mg  Mg24      1.0  0.49811  0.26905  0.54157  1.0000
  C  Sn49      1.0  0.40230  0.77799  0.60111  1.0000
  C   C49       1.0  0.36447  0.75112  0.56451  1.0000
  C  Sn50      1.0  0.34505  0.76909  0.49549  1.0000
  C  Sn51      1.0  0.36384  0.81489  0.46224  1.0000
  C   C50       1.0  0.40165  0.84173  0.49880  1.0000
  C  Sn52      1.0  0.42110  0.82378  0.56785  1.0000
  O  Te49      1.0  0.42117  0.75931  0.67005  1.0000
  O  Te50      1.0  0.30723  0.74157  0.46004  1.0000
  O  Te51      1.0  0.34494  0.83355  0.39325  1.0000
  O  Te52      1.0  0.45890  0.85128  0.60327  1.0000
  Mg  Mg25      1.0  0.29363  0.78251  0.36675  1.0000
  Mg  Mg26      1.0  0.47254  0.81039  0.69647  1.0000
  C  Sn53      1.0  0.21732  0.56045  0.48323  1.0000
  C   C51       1.0  0.24705  0.60663  0.43219  1.0000
  C  Sn54      1.0  0.23032  0.63260  0.41341  1.0000
  C  Sn55      1.0  0.18286  0.61200  0.44646  1.0000
  C   C52       1.0  0.15316  0.56585  0.49750  1.0000
  C  Sn56      1.0  0.16986  0.53985  0.51627  1.0000
  O  Te53      1.0  0.23480  0.53514  0.50118  1.0000
  O  Te54      1.0  0.26072  0.67871  0.36218  1.0000
  O  Te55      1.0  0.16540  0.63736  0.42846  1.0000
  O  Te56      1.0  0.13949  0.49377  0.56750  1.0000
  Mg  Mg27      1.0  0.22043  0.69894  0.35578  1.0000
  Mg  Mg28      1.0  0.17973  0.47351  0.57404  1.0000
  C  Sn57      1.0  0.43753  0.65580  0.46133  1.0000
  C   C53       1.0  0.39355  0.63550  0.46256  1.0000
  C  Sn58      1.0  0.36407  0.58938  0.51139  1.0000
  C  Sn59      1.0  0.37883  0.56298  0.56012  1.0000
  C   C54       1.0  0.42279  0.58327  0.55890  1.0000
  C  Sn60      1.0  0.45230  0.62940  0.51006  1.0000
  O  Te57      1.0  0.46643  0.70196  0.41207  1.0000
  O  Te58      1.0  0.32026  0.56985  0.51154  1.0000
  O  Te59      1.0  0.34989  0.51678  0.60939  1.0000
  O  Te60      1.0  0.49608  0.64892  0.50993  1.0000
  Mg  Mg29      1.0  0.29342  0.50567  0.58887  1.0000
  Mg  Mg30      1.0  0.52293  0.71309  0.43272  1.0000
  C  Sn61      1.0  0.54007  0.02575  0.35231  1.0000
  C   C55       1.0  0.51656  0.04049  0.47170  1.0000
  C  Sn62      1.0  0.47239  0.01003  0.62294  1.0000
  C  Sn63      1.0  0.45130  0.96389  0.65561  1.0000
  C   C56       1.0  0.97774  0.94917  0.53628  1.0000
  C  Sn64      1.0  0.51898  0.97960  0.38498  1.0000
  O  Te61      1.0  0.58420  0.05678  0.20198  1.0000
  O  Te62      1.0  0.44956  0.02557  0.74033  1.0000
  O  Te63      1.0  0.91006  0.93285  0.80608  1.0000
  O  Te64      1.0  0.04473  0.96408  0.26765  1.0000
  Mg  Mg31      1.0  0.39000  0.97031  0.92663  1.0000
  Mg  Mg32      1.0  0.60138  0.01930  0.08137  1.0000
  C  Sn65      1.0  0.02505  0.48362  0.38383  1.0000
  C   C57       1.0  0.04299  0.52121  0.44058  1.0000
  C  Sn66      1.0  0.01315  0.53212  0.54669  1.0000
  C  Sn67      1.0  0.96437  0.50488  0.59725  1.0000
  C   C58       1.0  0.94646  0.46731  0.54054  1.0000
  C  Sn68      1.0  0.97627  0.45638  0.43439  1.0000
  O  Te65      1.0  0.05553  0.47334  0.27782  1.0000
  O  Te66      1.0  0.03190  0.56987  0.60173  1.0000
  O  Te67      1.0  0.93390  0.51519  0.70334  1.0000
  O  Te68      1.0  0.95754  0.41865  0.37938  1.0000
  Mg  Mg33      1.0  0.97616  0.57003  0.74488  1.0000
  Mg  Mg34      1.0  0.01324  0.41845  0.23632  1.0000
  C  Sn69      1.0  0.51957  0.51739  0.61230  1.0000
  C   C59       1.0  0.51190  0.47857  0.57280  1.0000
  C  Sn70      1.0  0.48839  0.46187  0.46530  1.0000
  C  Sn71      1.0  0.47225  0.48447  0.39573  1.0000
  C   C60       1.0  0.47994  0.52327  0.43521  1.0000
  C  Sn72      1.0  0.50343  0.53998  0.54273  1.0000
  O  Te69      1.0  0.54315  0.53348  0.72004  1.0000
  O  Te70      1.0  0.48111  0.42300  0.42772  1.0000
  O  Te71      1.0  0.44865  0.46834  0.28792  1.0000
  O  Te72      1.0  0.51072  0.57884  0.58029  1.0000
  Mg  Mg35      1.0  0.44722  0.41420  0.27447  1.0000
  Mg  Mg36      1.0  0.54463  0.58768  0.73343  1.0000
