data_image0
_chemical_formula_structural       H12C24N24C2Sn2C2HTe2HMgC2Sn2C2HTe2HMgC2Sn2C2HTe2HMgC2Sn2C2HTe2HMgC2Sn2C2HTe2HMgC2Sn2C2HTe2HMgC2Sn2C2HTe2HMgC2Sn2C2HTe2HMgC2Sn2C2HTe2HMgC2Sn2C2HTe2HMgC2Sn2C2HTe2HMgC2Sn2C2HTe2HMgC2Sn2C2HTe2HMgC2Sn2C2HTe2HMgC2Sn2C2HTe2HMgC2Sn2C2HTe2HMgC2Sn2C2HTe2HMgC2Sn2C2HTe2HMg
_chemical_formula_sum              "H48 C96 N24 Sn36 Te36 Mg18"
_cell_length_a       36.8492
_cell_length_b       36.7976
_cell_length_c       8.06168
_cell_angle_alpha    85.2415
_cell_angle_beta     69.7147
_cell_angle_gamma    120.241

_symmetry_space_group_name_H-M    'P1'
_space_group_IT_number       1

loop_
  _space_group_symop_operation_xyz
  'x, y, z'

loop_
  _atom_site_type_symbol
  _atom_site_label
  _atom_site_symmetry_multiplicity
  _atom_site_fract_x
  _atom_site_fract_y
  _atom_site_fract_z
  _atom_site_occupancy
  H   H1        1.0  0.51544  0.09402  0.13521  1.0000
  H   H2        1.0  0.90841  0.42530  0.93987  1.0000
  H   H3        1.0  0.58750  0.48741  0.00894  1.0000
  H   H4        1.0  0.49265  0.91148  0.86728  1.0000
  H   H5        1.0  0.09886  0.58310  0.05897  1.0000
  H   H6        1.0  0.41315  0.51132  0.00035  1.0000
  H   H7        1.0  0.50699  0.08954  0.63755  1.0000
  H   H8        1.0  0.90128  0.41654  0.44466  1.0000
  H   H9        1.0  0.56174  0.46720  0.61971  1.0000
  H   H10       1.0  0.48442  0.90547  0.38318  1.0000
  H   H11       1.0  0.09314  0.57761  0.54412  1.0000
  H   H12       1.0  0.43283  0.53031  0.37884  1.0000
  C   C1        1.0  0.65440  0.29520  0.99221  1.0000
  C   C2        1.0  0.70974  0.35874  0.01512  1.0000
  C   C3        1.0  0.64860  0.35407  0.98263  1.0000
  C   C4        1.0  0.35371  0.70948  0.00729  1.0000
  C   C5        1.0  0.29747  0.64639  0.98503  1.0000
  C   C6        1.0  0.35883  0.65022  0.01150  1.0000
  C   C7        1.0  0.54127  0.08896  0.04196  1.0000
  C   C8        1.0  0.91411  0.45283  0.99680  1.0000
  C   C9        1.0  0.55552  0.46493  0.99521  1.0000
  C   C10       1.0  0.46649  0.91597  0.96202  1.0000
  C   C11       1.0  0.09203  0.55415  0.01121  1.0000
  C   C12       1.0  0.44659  0.53433  0.00325  1.0000
  C   C13       1.0  0.64661  0.29135  0.49070  1.0000
  C   C14       1.0  0.70317  0.35467  0.51036  1.0000
  C   C15       1.0  0.64185  0.35085  0.48327  1.0000
  C   C16       1.0  0.34709  0.70577  0.49836  1.0000
  C   C17       1.0  0.29087  0.64144  0.48334  1.0000
  C   C18       1.0  0.35313  0.64697  0.50785  1.0000
  C   C19       1.0  0.53296  0.08423  0.54737  1.0000
  C   C20       1.0  0.90756  0.44507  0.49488  1.0000
  C   C21       1.0  0.54302  0.45670  0.53381  1.0000
  C   C22       1.0  0.45823  0.91034  0.47511  1.0000
  C   C23       1.0  0.08592  0.54774  0.50361  1.0000
  C   C24       1.0  0.45294  0.54218  0.45898  1.0000
  N   N1        1.0  0.63063  0.31242  0.97449  1.0000
  N   N2        1.0  0.69366  0.31672  0.01555  1.0000
  N   N3        1.0  0.68828  0.37873  0.00060  1.0000
  N   N4        1.0  0.37751  0.69190  0.02042  1.0000
  N   N5        1.0  0.31413  0.68842  0.98574  1.0000
  N   N6        1.0  0.31861  0.62590  0.99690  1.0000
  N   N7        1.0  0.58575  0.12018  0.95950  1.0000
  N   N8        1.0  0.88329  0.46217  0.04939  1.0000
  N   N9        1.0  0.54384  0.42647  0.97636  1.0000
  N   N10       1.0  0.42222  0.88425  0.04568  1.0000
  N   N11       1.0  0.12146  0.54309  0.96925  1.0000
  N   N12       1.0  0.46022  0.57389  0.01138  1.0000
  N   N13       1.0  0.62266  0.30878  0.47876  1.0000
  N   N14       1.0  0.68650  0.31264  0.50976  1.0000
  N   N15       1.0  0.68226  0.37533  0.49650  1.0000
  N   N16       1.0  0.37166  0.68908  0.51045  1.0000
  N   N17       1.0  0.30731  0.68379  0.47862  1.0000
  N   N18       1.0  0.31222  0.62142  0.49929  1.0000
  N   N19       1.0  0.57739  0.11559  0.46373  1.0000
  N   N20       1.0  0.87765  0.45559  0.54064  1.0000
  N   N21       1.0  0.54162  0.42709  0.45526  1.0000
  N   N22       1.0  0.41375  0.87923  0.55225  1.0000
  N   N23       1.0  0.11463  0.53587  0.47113  1.0000
  N   N24       1.0  0.45605  0.57338  0.52936  1.0000
  C   C25       1.0  0.58769  0.21643  0.94661  1.0000
  C   C26       1.0  0.62434  0.24360  0.98870  1.0000
  C  Sn1       1.0  0.76565  0.30559  0.01411  1.0000
  C  Sn2       1.0  0.64227  0.18839  0.99692  1.0000
  C   C27       1.0  0.60554  0.16147  0.95464  1.0000
  C   C28       1.0  0.57830  0.17541  0.92956  1.0000
  H   H13       1.0  0.56662  0.22722  0.92709  1.0000
  O  Te1       1.0  0.80213  0.33313  0.05617  1.0000
  O  Te2       1.0  0.78303  0.24959  0.02155  1.0000
  H   H14       1.0  0.54994  0.15438  0.89685  1.0000
  Mg  Mg1       1.0  0.82890  0.29889  0.07715  1.0000
  C   C29       1.0  0.78496  0.36462  0.07279  1.0000
  C   C30       1.0  0.75760  0.37832  0.04716  1.0000
  C  Sn3       1.0  0.77358  0.42288  0.01382  1.0000
  C  Sn4       1.0  0.81780  0.45423  0.00603  1.0000
  C   C31       1.0  0.84492  0.44019  0.03172  1.0000
  C   C32       1.0  0.82858  0.39551  0.06505  1.0000
  H   H15       1.0  0.77233  0.33006  0.09848  1.0000
  O  Te3       1.0  0.63192  0.36040  0.98859  1.0000
  O  Te4       1.0  0.72076  0.42337  0.97285  1.0000
  H   H16       1.0  0.84979  0.38492  0.08477  1.0000
  Mg  Mg2       1.0  0.67005  0.42507  0.94728  1.0000
  C   C33       1.0  0.62147  0.43362  0.01628  1.0000
  C   C34       1.0  0.46943  0.34312  0.97611  1.0000
  C  Sn5       1.0  0.44923  0.30291  0.93898  1.0000
  C  Sn6       1.0  0.46766  0.27719  0.94228  1.0000
  C   C35       1.0  0.50583  0.29236  0.98275  1.0000
  C   C36       1.0  0.63966  0.40826  0.01964  1.0000
  H   H17       1.0  0.63690  0.46478  0.04493  1.0000
  O  Te5       1.0  0.41111  0.28853  0.89903  1.0000
  O  Te6       1.0  0.44813  0.23687  0.90576  1.0000
  H   H18       1.0  0.66920  0.41977  0.05086  1.0000
  Mg  Mg3       1.0  0.39658  0.23134  0.85850  1.0000
  C   C37       1.0  0.46118  0.85976  0.00224  1.0000
  C   C38       1.0  0.48067  0.83558  0.00279  1.0000
  C  Sn7       1.0  0.52090  0.85267  0.03013  1.0000
  C  Sn8       1.0  0.54191  0.89475  0.05745  1.0000
  C   C39       1.0  0.52212  0.91867  0.05680  1.0000
  C   C40       1.0  0.48187  0.90126  0.02925  1.0000
  H   H19       1.0  0.31615  0.77068  0.98104  1.0000
  O  Te7       1.0  0.53992  0.82808  0.03019  1.0000
  O  Te8       1.0  0.58212  0.91261  0.08516  1.0000
  H   H20       1.0  0.46677  0.91998  0.02896  1.0000
  Mg  Mg4       1.0  0.59500  0.86649  0.07356  1.0000
  C   C41       1.0  0.20118  0.62800  0.90656  1.0000
  C   C42       1.0  0.17260  0.58228  0.94053  1.0000
  C  Sn9       1.0  0.29750  0.63021  0.00540  1.0000
  C  Sn10      1.0  0.33791  0.64873  0.03676  1.0000
  C   C43       1.0  0.36626  0.69450  0.00247  1.0000
  C   C44       1.0  0.24104  0.64629  0.93752  1.0000
  H   H21       1.0  0.19239  0.64919  0.85640  1.0000
  O  Te9       1.0  0.26857  0.58461  0.03856  1.0000
  O  Te10      1.0  0.34974  0.62183  0.10162  1.0000
  H   H22       1.0  0.26316  0.68168  0.91135  1.0000
  Mg  Mg5       1.0  0.29935  0.56165  0.12625  1.0000
  C   C45       1.0  0.43283  0.65037  0.05979  1.0000
  C   C46       1.0  0.39592  0.63749  0.01297  1.0000
  C  Sn11      1.0  0.26162  0.52239  0.97075  1.0000
  C  Sn12      1.0  0.27852  0.49536  0.97567  1.0000
  C   C47       1.0  0.42930  0.58413  0.02281  1.0000
  C   C48       1.0  0.44950  0.62372  0.06475  1.0000
  H   H23       1.0  0.44844  0.68098  0.09235  1.0000
  O  Te11      1.0  0.22479  0.51003  0.92418  1.0000
  O  Te12      1.0  0.25873  0.45572  0.93416  1.0000
  H   H24       1.0  0.47806  0.63367  0.10112  1.0000
  Mg  Mg6       1.0  0.20930  0.45306  0.87862  1.0000
  C   C49       1.0  0.03988  0.00601  0.85343  1.0000
  C   C50       1.0  0.99486  0.96720  0.96045  1.0000
  C  Sn13      1.0  0.07410  0.04397  0.09897  1.0000
  C  Sn14      1.0  0.08485  0.08480  0.13058  1.0000
  C   C51       1.0  0.12999  0.12345  0.02267  1.0000
  C   C52       1.0  0.05051  0.04630  0.88446  1.0000
  H   H25       1.0  0.06648  0.00482  0.74642  1.0000
  O  Te13      1.0  0.02931  0.00488  0.20467  1.0000
  O  Te14      1.0  0.05091  0.08691  0.26807  1.0000
  H   H26       1.0  0.08535  0.07636  0.80154  1.0000
  Mg  Mg7       1.0  0.99496  0.02470  0.37586  1.0000
  C   C53       1.0  0.98005  0.52577  0.07497  1.0000
  C   C54       1.0  0.96228  0.48964  0.00958  1.0000
  C  Sn15      1.0  0.87389  0.39579  0.94631  1.0000
  C  Sn16      1.0  0.91796  0.41413  0.94877  1.0000
  C   C55       1.0  0.04928  0.52586  0.01458  1.0000
  C   C56       1.0  0.02350  0.54386  0.07751  1.0000
  H   H27       1.0  0.96009  0.53969  0.12377  1.0000
  O  Te15      1.0  0.85564  0.35971  0.88137  1.0000
  O  Te16      1.0  0.94415  0.39653  0.88641  1.0000
  H   H28       1.0  0.03724  0.57182  0.12825  1.0000
  Mg  Mg8       1.0  0.90445  0.34735  0.81085  1.0000
  C   C57       1.0  0.54435  0.53594  0.99100  1.0000
  C   C58       1.0  0.64550  0.56819  0.00680  1.0000
  C  Sn17      1.0  0.60281  0.53625  0.01093  1.0000
  C  Sn18      1.0  0.45850  0.47243  0.99894  1.0000
  C   C59       1.0  0.47157  0.51591  0.98304  1.0000
  C   C60       1.0  0.51437  0.54760  0.97910  1.0000
  H   H29       1.0  0.57747  0.56048  0.98785  1.0000
  O  Te17      1.0  0.59062  0.49308  0.02684  1.0000
  O  Te18      1.0  0.52951  0.51677  0.00267  1.0000
  H   H30       1.0  0.52423  0.58118  0.96675  1.0000
  Mg  Mg9       1.0  0.52850  0.46224  0.02606  1.0000
  C   C61       1.0  0.64350  0.19326  0.49671  1.0000
  C   C62       1.0  0.60264  0.16344  0.48313  1.0000
  C  Sn19      1.0  0.57481  0.17672  0.45950  1.0000
  C  Sn20      1.0  0.58822  0.22069  0.44928  1.0000
  C   C63       1.0  0.62918  0.25028  0.46288  1.0000
  C   C64       1.0  0.65677  0.23664  0.48657  1.0000
  H   H31       1.0  0.66486  0.18271  0.51493  1.0000
  O  Te19      1.0  0.53408  0.14650  0.44625  1.0000
  O  Te20      1.0  0.56106  0.23484  0.42564  1.0000
  H   H32       1.0  0.68842  0.25974  0.49696  1.0000
  Mg  Mg10      1.0  0.50864  0.18146  0.41484  1.0000
  C   C65       1.0  0.80009  0.37151  0.57822  1.0000
  C   C66       1.0  0.82993  0.41723  0.54078  1.0000
  C  Sn21      1.0  0.81671  0.44502  0.49953  1.0000
  C  Sn22      1.0  0.77277  0.42660  0.49584  1.0000
  C   C67       1.0  0.74315  0.38082  0.53362  1.0000
  C   C68       1.0  0.75674  0.35331  0.57468  1.0000
  H   H33       1.0  0.81059  0.35022  0.61009  1.0000
  O  Te21      1.0  0.84695  0.49063  0.46239  1.0000
  O  Te22      1.0  0.75867  0.45362  0.45508  1.0000
  H   H34       1.0  0.73362  0.31791  0.60378  1.0000
  Mg  Mg11      1.0  0.81207  0.51377  0.41402  1.0000
  C   C69       1.0  0.56254  0.34558  0.46795  1.0000
  C   C70       1.0  0.60684  0.36495  0.46308  1.0000
  C  Sn23      1.0  0.63156  0.40848  0.46659  1.0000
  C  Sn24      1.0  0.61147  0.43298  0.47519  1.0000
  C   C71       1.0  0.56712  0.41329  0.48015  1.0000
  C   C72       1.0  0.54269  0.36972  0.47651  1.0000
  H   H35       1.0  0.54362  0.31185  0.46524  1.0000
  O  Te23      1.0  0.67579  0.42733  0.46156  1.0000
  O  Te24      1.0  0.63541  0.47654  0.47893  1.0000
  H   H36       1.0  0.50838  0.35472  0.48041  1.0000
  Mg  Mg12      1.0  0.69469  0.48772  0.46945  1.0000
  C   C73       1.0  0.33971  0.78006  0.49824  1.0000
  C   C74       1.0  0.35935  0.75597  0.49706  1.0000
  C  Sn25      1.0  0.39911  0.77262  0.52746  1.0000
  C  Sn26      1.0  0.41950  0.81417  0.55966  1.0000
  C   C75       1.0  0.39957  0.83800  0.56070  1.0000
  C   C76       1.0  0.35979  0.82103  0.53006  1.0000
  H   H37       1.0  0.30892  0.76693  0.47463  1.0000
  O  Te25      1.0  0.41830  0.74813  0.52575  1.0000
  O  Te26      1.0  0.45924  0.83158  0.59051  1.0000
  H   H38       1.0  0.34457  0.83968  0.53110  1.0000
  Mg  Mg13      1.0  0.47257  0.78580  0.57479  1.0000
  C   C77       1.0  0.21845  0.63513  0.40010  1.0000
  C   C78       1.0  0.24027  0.62095  0.47225  1.0000
  C  Sn27      1.0  0.22076  0.57572  0.53811  1.0000
  C  Sn28      1.0  0.17863  0.54419  0.53140  1.0000
  C   C79       1.0  0.15710  0.55871  0.45885  1.0000
  C   C80       1.0  0.17691  0.60405  0.39337  1.0000
  H   H39       1.0  0.23379  0.67020  0.34934  1.0000
  O  Te27      1.0  0.24300  0.56212  0.60981  1.0000
  O  Te28      1.0  0.15839  0.49878  0.59623  1.0000
  H   H40       1.0  0.16004  0.61502  0.33741  1.0000
  Mg  Mg14      1.0  0.20183  0.49662  0.68135  1.0000
  C   C81       1.0  0.43319  0.65368  0.52299  1.0000
  C   C82       1.0  0.39165  0.63565  0.50479  1.0000
  C  Sn29      1.0  0.36713  0.59194  0.50307  1.0000
  C  Sn30      1.0  0.38459  0.56588  0.51997  1.0000
  C   C83       1.0  0.42615  0.58421  0.53824  1.0000
  C   C84       1.0  0.45042  0.62798  0.53973  1.0000
  H   H41       1.0  0.45195  0.68754  0.52425  1.0000
  O  Te29      1.0  0.32570  0.57446  0.48471  1.0000
  O  Te30      1.0  0.36077  0.52209  0.51873  1.0000
  H   H42       1.0  0.48256  0.64192  0.55395  1.0000
  Mg  Mg15      1.0  0.30583  0.51315  0.49044  1.0000
  C   C85       1.0  0.54601  0.02236  0.38678  1.0000
  C   C86       1.0  0.52239  0.03904  0.49057  1.0000
  C  Sn31      1.0  0.47415  0.01094  0.60972  1.0000
  C  Sn32      1.0  0.44918  0.96529  0.62498  1.0000
  C   C87       1.0  0.97607  0.94892  0.52066  1.0000
  C   C88       1.0  0.52142  0.97734  0.40181  1.0000
  H   H43       1.0  0.58337  0.04434  0.29490  1.0000
  O  Te31      1.0  0.45109  0.02815  0.71235  1.0000
  O  Te32      1.0  0.90388  0.93646  0.74306  1.0000
  H   H44       1.0  0.04263  0.96441  0.32156  1.0000
  Mg  Mg16      1.0  0.38514  0.97565  0.85423  1.0000
  C   C89       1.0  0.97369  0.51845  0.56999  1.0000
  C   C90       1.0  0.95586  0.48206  0.50613  1.0000
  C  Sn33      1.0  0.98154  0.46402  0.44238  1.0000
  C  Sn34      1.0  0.02587  0.48283  0.44279  1.0000
  C   C91       1.0  0.04339  0.51922  0.50708  1.0000
  C   C92       1.0  0.01741  0.53701  0.57051  1.0000
  H   H45       1.0  0.95358  0.53221  0.61917  1.0000
  O  Te33      1.0  0.96321  0.42766  0.37898  1.0000
  O  Te34      1.0  0.05226  0.46545  0.37991  1.0000
  H   H46       1.0  0.03121  0.56517  0.62006  1.0000
  Mg  Mg17      1.0  0.01237  0.41575  0.30699  1.0000
  C   C93       1.0  0.47468  0.45914  0.44693  1.0000
  C   C94       1.0  0.51212  0.47336  0.49139  1.0000
  C  Sn35      1.0  0.53061  0.51220  0.53954  1.0000
  C  Sn36      1.0  0.51117  0.53719  0.54317  1.0000
  C   C95       1.0  0.47369  0.52267  0.49859  1.0000
  C   C96       1.0  0.45547  0.48376  0.45055  1.0000
  H   H47       1.0  0.46056  0.42903  0.40986  1.0000
  O  Te35      1.0  0.56804  0.52595  0.58350  1.0000
  O  Te36      1.0  0.52896  0.57613  0.59086  1.0000
  H   H48       1.0  0.42646  0.47274  0.41625  1.0000
  Mg  Mg18      1.0  0.58017  0.58125  0.63970  1.0000
