data_image0
_chemical_formula_structural       H58C78N36C2Sn2C2HTe2HMgC2Sn2C2HTe2HMgC2Sn2C2HTe2HMgC2Sn2C2HTe2HMgC2Sn2C2HTe2HMgC2Sn2C2HTe2HMgC2Sn2C2HTe2HMgC2Sn2C2HTe2HMgC2Sn2C2HTe2HMg
_chemical_formula_sum              "H76 C114 N36 Sn18 Te18 Mg9"
_cell_length_a       38.6256
_cell_length_b       38.7842
_cell_length_c       8.33149
_cell_angle_alpha    122.877
_cell_angle_beta     81.8219
_cell_angle_gamma    119.8

_symmetry_space_group_name_H-M    'P1'
_space_group_IT_number       1

loop_
  _space_group_symop_operation_xyz
  'x, y, z'

loop_
  _atom_site_type_symbol
  _atom_site_label
  _atom_site_symmetry_multiplicity
  _atom_site_fract_x
  _atom_site_fract_y
  _atom_site_fract_z
  _atom_site_occupancy
  H   H1        1.0  0.65001  0.41002  0.94878  1.0000
  H   H2        1.0  0.58362  0.22364  0.94102  1.0000
  H   H3        1.0  0.77189  0.35334  0.03400  1.0000
  H   H4        1.0  0.35086  0.58731  0.05026  1.0000
  H   H5        1.0  0.40828  0.77021  0.05043  1.0000
  H   H6        1.0  0.59699  0.42903  0.94626  1.0000
  H   H7        1.0  0.56419  0.15200  0.94417  1.0000
  H   H8        1.0  0.84460  0.40618  0.04276  1.0000
  H   H9        1.0  0.40773  0.57367  0.05059  1.0000
  H   H10       1.0  0.42601  0.84070  0.04262  1.0000
  H   H11       1.0  0.50932  0.31300  0.00065  1.0000
  H   H12       1.0  0.69069  0.20181  0.06684  1.0000
  H   H13       1.0  0.80999  0.48895  0.98267  1.0000
  H   H14       1.0  0.48853  0.69337  0.00645  1.0000
  H   H15       1.0  0.29889  0.78951  0.93032  1.0000
  H   H16       1.0  0.56241  0.29436  0.00050  1.0000
  H   H17       1.0  0.70923  0.27184  0.05656  1.0000
  H   H18       1.0  0.73803  0.43636  0.97623  1.0000
  H   H19       1.0  0.43158  0.70642  0.00756  1.0000
  H   H20       1.0  0.28198  0.72032  0.94382  1.0000
  H   H21       1.0  0.49440  0.36797  0.03031  1.0000
  H   H22       1.0  0.63973  0.13758  0.08295  1.0000
  H   H23       1.0  0.87612  0.50816  0.00203  1.0000
  H   H24       1.0  0.50853  0.64206  0.97334  1.0000
  H   H25       1.0  0.34956  0.85390  0.90762  1.0000
  H   H26       1.0  0.10603  0.52779  0.07653  1.0000
  H   H27       1.0  0.50898  0.06233  0.46582  1.0000
  H   H28       1.0  0.60660  0.07182  0.57541  1.0000
  H   H29       1.0  0.46994  0.40972  0.04055  1.0000
  H   H30       1.0  0.44338  0.45636  0.07846  1.0000
  H   H31       1.0  0.44820  0.52309  0.08342  1.0000
  H   H32       1.0  0.53223  0.59132  0.45744  1.0000
  H   H33       1.0  0.39032  0.92151  0.92197  1.0000
  H   H34       1.0  0.56275  0.99929  0.56027  1.0000
  H   H35       1.0  0.93616  0.53888  0.47148  1.0000
  H   H36       1.0  0.35269  0.59220  0.55575  1.0000
  H   H37       1.0  0.22799  0.64394  0.47876  1.0000
  H   H38       1.0  0.40528  0.57253  0.55694  1.0000
  H   H39       1.0  0.15722  0.59105  0.49406  1.0000
  H   H40       1.0  0.49338  0.68832  0.50213  1.0000
  H   H41       1.0  0.19896  0.51240  0.54246  1.0000
  H   H42       1.0  0.44067  0.70775  0.50406  1.0000
  H   H43       1.0  0.26921  0.56532  0.52688  1.0000
  H   H44       1.0  0.48806  0.35620  0.51976  1.0000
  H   H45       1.0  0.64788  0.13903  0.58269  1.0000
  H   H46       1.0  0.86781  0.50939  0.45762  1.0000
  H   H47       1.0  0.50746  0.63234  0.46568  1.0000
  H   H48       1.0  0.35527  0.85880  0.41115  1.0000
  H   H49       1.0  0.13488  0.50663  0.62382  1.0000
  H   H50       1.0  0.44050  0.99815  0.43239  1.0000
  H   H51       1.0  0.59905  0.07122  0.07490  1.0000
  H   H52       1.0  0.46265  0.39803  0.53651  1.0000
  H   H53       1.0  0.56122  0.48897  0.91684  1.0000
  H   H54       1.0  0.56636  0.55631  0.92517  1.0000
  H   H55       1.0  0.53745  0.60283  0.96013  1.0000
  H   H56       1.0  0.39669  0.92596  0.41749  1.0000
  H   H57       1.0  0.49425  0.93525  0.52774  1.0000
  H   H58       1.0  0.94012  0.54316  0.05714  1.0000
  C   C1        1.0  0.64118  0.34084  0.98348  1.0000
  C   C2        1.0  0.65901  0.29440  0.99714  1.0000
  C   C3        1.0  0.70745  0.36021  0.00081  1.0000
  C   C4        1.0  0.35451  0.65575  0.02252  1.0000
  C   C5        1.0  0.33421  0.70010  0.00648  1.0000
  C   C6        1.0  0.28834  0.63618  0.02086  1.0000
  C   C7        1.0  0.60973  0.35107  0.97522  1.0000
  C   C8        1.0  0.64765  0.25239  0.99892  1.0000
  C   C9        1.0  0.75018  0.39131  0.00452  1.0000
  C   C10       1.0  0.38755  0.64771  0.02862  1.0000
  C   C11       1.0  0.34408  0.74086  0.99835  1.0000
  C   C12       1.0  0.61911  0.38916  0.96064  1.0000
  C   C13       1.0  0.60669  0.21818  0.96725  1.0000
  C   C14       1.0  0.78066  0.38299  0.02141  1.0000
  C   C15       1.0  0.38109  0.61015  0.03993  1.0000
  C   C16       1.0  0.38469  0.77506  0.02515  1.0000
  C   C17       1.0  0.58984  0.40003  0.96011  1.0000
  C   C18       1.0  0.59575  0.17847  0.96889  1.0000
  C   C19       1.0  0.82115  0.41235  0.02697  1.0000
  C   C20       1.0  0.41258  0.60234  0.03968  1.0000
  C   C21       1.0  0.39471  0.81420  0.02122  1.0000
  C   C22       1.0  0.55003  0.37267  0.97551  1.0000
  C   C23       1.0  0.62604  0.17248  0.00631  1.0000
  C   C24       1.0  0.83203  0.45114  0.01519  1.0000
  C   C25       1.0  0.45158  0.63237  0.02723  1.0000
  C   C26       1.0  0.36374  0.81958  0.98585  1.0000
  C   C27       1.0  0.54009  0.33407  0.98767  1.0000
  C   C28       1.0  0.66719  0.20603  0.03504  1.0000
  C   C29       1.0  0.80177  0.45970  0.99730  1.0000
  C   C30       1.0  0.45845  0.67032  0.01753  1.0000
  C   C31       1.0  0.32290  0.78575  0.96012  1.0000
  C   C32       1.0  0.56959  0.32351  0.98733  1.0000
  C   C33       1.0  0.67763  0.24532  0.03135  1.0000
  C   C34       1.0  0.76152  0.43018  0.99216  1.0000
  C   C35       1.0  0.42687  0.67777  0.01836  1.0000
  C   C36       1.0  0.31337  0.74698  0.96641  1.0000
  C   C37       1.0  0.49054  0.41789  0.49756  1.0000
  C   C38       1.0  0.58086  0.07147  0.53134  1.0000
  C   C39       1.0  0.93241  0.51313  0.50180  1.0000
  C   C40       1.0  0.50465  0.57256  0.50153  1.0000
  C   C41       1.0  0.42235  0.92626  0.46142  1.0000
  C   C42       1.0  0.07277  0.50674  0.60333  1.0000
  C   C43       1.0  0.54055  0.03518  0.51482  1.0000
  C   C44       1.0  0.46273  0.96234  0.47780  1.0000
  C   C45       1.0  0.50555  0.03463  0.48037  1.0000
  C   C46       1.0  0.49771  0.96296  0.51308  1.0000
  C   C47       1.0  0.53584  0.99881  0.53152  1.0000
  C   C48       1.0  0.46741  0.99871  0.46147  1.0000
  C   C49       1.0  0.63891  0.33712  0.48453  1.0000
  C   C50       1.0  0.66054  0.29367  0.49847  1.0000
  C   C51       1.0  0.70606  0.36041  0.50270  1.0000
  C   C52       1.0  0.36157  0.66073  0.51957  1.0000
  C   C53       1.0  0.34203  0.70563  0.50476  1.0000
  C   C54       1.0  0.29485  0.63954  0.50123  1.0000
  C   C55       1.0  0.39323  0.65099  0.52889  1.0000
  C   C56       1.0  0.25295  0.60789  0.50220  1.0000
  C   C57       1.0  0.38364  0.61286  0.54360  1.0000
  C   C58       1.0  0.22114  0.61489  0.49186  1.0000
  C   C59       1.0  0.41264  0.60159  0.54301  1.0000
  C   C60       1.0  0.18189  0.58547  0.49869  1.0000
  C   C61       1.0  0.45242  0.62869  0.52646  1.0000
  C   C62       1.0  0.17382  0.54841  0.51775  1.0000
  C   C63       1.0  0.46255  0.66747  0.51523  1.0000
  C   C64       1.0  0.20546  0.54099  0.52682  1.0000
  C   C65       1.0  0.43332  0.67844  0.51646  1.0000
  C   C66       1.0  0.24437  0.57030  0.51845  1.0000
  C   C67       1.0  0.49789  0.42888  0.99951  1.0000
  C   C68       1.0  0.57304  0.07048  0.03197  1.0000
  C   C69       1.0  0.93904  0.51320  0.04797  1.0000
  C   C70       1.0  0.51023  0.58279  0.00182  1.0000
  C   C71       1.0  0.41633  0.92217  0.96505  1.0000
  C   C72       1.0  0.07612  0.50286  0.76668  1.0000
  C   C73       1.0  0.50188  0.46754  0.99539  1.0000
  C   C74       1.0  0.50755  0.54460  0.00544  1.0000
  C   C75       1.0  0.53671  0.49679  0.95420  1.0000
  C   C76       1.0  0.47274  0.51535  0.04661  1.0000
  C   C77       1.0  0.47009  0.47783  0.04170  1.0000
  C   C78       1.0  0.53947  0.53454  0.96002  1.0000
  N   N1        1.0  0.62921  0.30192  0.98496  1.0000
  N   N2        1.0  0.69863  0.32275  0.00688  1.0000
  N   N3        1.0  0.67996  0.37112  0.99078  1.0000
  N   N4        1.0  0.36474  0.69330  0.01391  1.0000
  N   N5        1.0  0.29539  0.67227  0.00892  1.0000
  N   N6        1.0  0.31646  0.62570  0.02520  1.0000
  N   N7        1.0  0.51949  0.38216  0.97738  1.0000
  N   N8        1.0  0.61693  0.13413  0.01595  1.0000
  N   N9        1.0  0.87187  0.48271  0.02273  1.0000
  N   N10       1.0  0.48438  0.62649  0.02681  1.0000
  N   N11       1.0  0.37236  0.85782  0.97674  1.0000
  N   N12       1.0  0.12076  0.51270  0.97193  1.0000
  N   N13       1.0  0.52639  0.41822  0.96482  1.0000
  N   N14       1.0  0.57833  0.10167  0.99678  1.0000
  N   N15       1.0  0.90412  0.47845  0.03172  1.0000
  N   N16       1.0  0.48047  0.59139  0.03790  1.0000
  N   N17       1.0  0.41103  0.89080  0.99805  1.0000
  N   N18       1.0  0.10675  0.49920  0.79091  1.0000
  N   N19       1.0  0.62914  0.29883  0.48632  1.0000
  N   N20       1.0  0.69960  0.32346  0.50714  1.0000
  N   N21       1.0  0.67687  0.36901  0.49324  1.0000
  N   N22       1.0  0.37267  0.69952  0.51861  1.0000
  N   N23       1.0  0.30259  0.67652  0.49444  1.0000
  N   N24       1.0  0.32317  0.62975  0.51114  1.0000
  N   N25       1.0  0.51312  0.37131  0.46908  1.0000
  N   N26       1.0  0.62484  0.13531  0.51609  1.0000
  N   N27       1.0  0.86537  0.48888  0.50419  1.0000
  N   N28       1.0  0.48289  0.61903  0.52310  1.0000
  N   N29       1.0  0.37820  0.86332  0.48216  1.0000
  N   N30       1.0  0.13619  0.51960  0.53955  1.0000
  N   N31       1.0  0.51938  0.40777  0.46147  1.0000
  N   N32       1.0  0.58635  0.10257  0.49699  1.0000
  N   N33       1.0  0.89761  0.48581  0.52334  1.0000
  N   N34       1.0  0.47621  0.58335  0.53788  1.0000
  N   N35       1.0  0.41676  0.89549  0.49864  1.0000
  N   N36       1.0  0.10325  0.52060  0.51550  1.0000
  C   C79       1.0  0.61119  0.39006  0.45514  1.0000
  C   C80       1.0  0.60965  0.35678  0.48204  1.0000
  C  Sn1       1.0  0.57292  0.32406  0.49515  1.0000
  C  Sn2       1.0  0.53712  0.32474  0.48097  1.0000
  C   C81       1.0  0.53897  0.35814  0.45392  1.0000
  C   C82       1.0  0.57588  0.39074  0.44106  1.0000
  H   H59       1.0  0.63974  0.41526  0.44508  1.0000
  O  Te1       1.0  0.57193  0.29107  0.52211  1.0000
  O  Te2       1.0  0.50001  0.29243  0.49351  1.0000
  H   H60       1.0  0.57706  0.41647  0.42010  1.0000
  Mg  Mg1       1.0  0.51411  0.25431  0.53051  1.0000
  C   C83       1.0  0.22595  0.55473  0.02954  1.0000
  C   C84       1.0  0.24366  0.59502  0.02144  1.0000
  C  Sn3       1.0  0.22010  0.61262  0.01674  1.0000
  C  Sn4       1.0  0.17803  0.58938  0.02028  1.0000
  C   C85       1.0  0.16060  0.54912  0.02853  1.0000
  C   C86       1.0  0.18446  0.53180  0.03311  1.0000
  H   H61       1.0  0.24440  0.54134  0.03319  1.0000
  O  Te3       1.0  0.23829  0.65290  0.00859  1.0000
  O  Te4       1.0  0.15378  0.60622  0.01580  1.0000
  H   H62       1.0  0.17073  0.50062  0.03951  1.0000
  Mg  Mg2       1.0  0.19256  0.66231  0.00490  1.0000
  C   C87       1.0  0.53758  0.51737  0.45826  1.0000
  C   C88       1.0  0.50865  0.53085  0.48551  1.0000
  C  Sn5       1.0  0.47147  0.50747  0.53101  1.0000
  C  Sn6       1.0  0.46319  0.46993  0.54953  1.0000
  C   C89       1.0  0.49235  0.45674  0.52212  1.0000
  C   C90       1.0  0.52945  0.48036  0.47657  1.0000
  H   H63       1.0  0.56629  0.53566  0.42313  1.0000
  O  Te5       1.0  0.44290  0.52138  0.55769  1.0000
  O  Te6       1.0  0.42629  0.44598  0.59497  1.0000
  H   H64       1.0  0.55185  0.46994  0.45560  1.0000
  Mg  Mg3       1.0  0.39705  0.47791  0.61763  1.0000
  C   C91       1.0  0.01799  0.55082  0.53848  1.0000
  C   C92       1.0  0.97698  0.51749  0.50380  1.0000
  C  Sn7       1.0  0.96543  0.47718  0.50403  1.0000
  C  Sn8       1.0  0.99555  0.47022  0.53974  1.0000
  C   C93       1.0  0.03649  0.50379  0.57442  1.0000
  C   C94       1.0  0.04772  0.54399  0.57380  1.0000
  H   H65       1.0  0.02668  0.58193  0.53811  1.0000
  O  Te7       1.0  0.92432  0.44423  0.46904  1.0000
  O  Te8       1.0  0.98484  0.43027  0.54087  1.0000
  H   H66       1.0  0.07948  0.56980  0.60078  1.0000
  Mg  Mg4       1.0  0.92487  0.39543  0.48550  1.0000
  C   C95       1.0  0.50337  0.96619  0.01968  1.0000
  C   C96       1.0  0.50152  0.09448  0.99837  1.0000
  C  Sn9       1.0  0.49709  0.12526  0.97538  1.0000
  C  Sn10      1.0  0.03277  0.16312  0.97369  1.0000
  C   C97       1.0  0.07104  0.16919  0.99498  1.0000
  C   C98       1.0  0.03859  0.00350  0.01796  1.0000
  H   H67       1.0  0.50654  0.94219  0.03736  1.0000
  O  Te9       1.0  0.45852  0.11837  0.95434  1.0000
  O  Te10      1.0  0.02921  0.19439  0.95086  1.0000
  H   H68       1.0  0.06832  0.00845  0.03432  1.0000
  Mg  Mg5       1.0  0.97019  0.17037  0.92751  1.0000
  C   C99       1.0  0.78317  0.45857  0.48677  1.0000
  C   C100      1.0  0.81963  0.46170  0.51591  1.0000
  C  Sn11      1.0  0.81955  0.42798  0.53463  1.0000
  C  Sn12      1.0  0.78222  0.39047  0.52388  1.0000
  C   C101      1.0  0.74591  0.38764  0.49455  1.0000
  C   C102      1.0  0.74634  0.42158  0.47607  1.0000
  H   H69       1.0  0.78349  0.48482  0.47236  1.0000
  O  Te11      1.0  0.85625  0.43164  0.56375  1.0000
  O  Te12      1.0  0.78127  0.35628  0.54204  1.0000
  H   H70       1.0  0.71810  0.41914  0.45338  1.0000
  Mg  Mg6       1.0  0.83926  0.37646  0.58006  1.0000
  C   C103      1.0  0.40020  0.79202  0.52721  1.0000
  C   C104      1.0  0.36251  0.75617  0.51678  1.0000
  C  Sn13      1.0  0.32700  0.75448  0.48496  1.0000
  C  Sn14      1.0  0.32936  0.78939  0.46316  1.0000
  C   C105      1.0  0.36720  0.82509  0.47369  1.0000
  C   C106      1.0  0.40255  0.82644  0.50565  1.0000
  H   H71       1.0  0.42755  0.79306  0.55183  1.0000
  O  Te13      1.0  0.28960  0.71843  0.47501  1.0000
  O  Te14      1.0  0.29434  0.78853  0.43115  1.0000
  H   H72       1.0  0.43172  0.85419  0.51359  1.0000
  Mg  Mg7       1.0  0.25044  0.73233  0.42907  1.0000
  C   C107      1.0  0.68134  0.21855  0.53551  1.0000
  C   C108      1.0  0.64363  0.18273  0.52516  1.0000
  C  Sn15      1.0  0.60811  0.18078  0.49117  1.0000
  C  Sn16      1.0  0.61048  0.21537  0.46711  1.0000
  C   C109      1.0  0.64835  0.25104  0.47758  1.0000
  C   C110      1.0  0.68370  0.25267  0.51171  1.0000
  H   H73       1.0  0.70869  0.21980  0.56181  1.0000
  O  Te15      1.0  0.57070  0.14476  0.48134  1.0000
  O  Te16      1.0  0.57546  0.21424  0.43291  1.0000
  H   H74       1.0  0.71288  0.28039  0.51959  1.0000
  Mg  Mg8       1.0  0.53154  0.15821  0.43193  1.0000
  C   C111      1.0  0.00388  0.42465  0.00117  1.0000
  C   C112      1.0  0.05048  0.52481  0.94584  1.0000
  C  Sn17      1.0  0.02234  0.48285  0.93532  1.0000
  C  Sn18      1.0  0.98343  0.47540  0.98108  1.0000
  C   C113      1.0  0.93711  0.37545  0.03615  1.0000
  C   C114      1.0  0.96550  0.41732  0.04626  1.0000
  H   H75       1.0  0.02583  0.45703  0.00890  1.0000
  O  Te17      1.0  0.03290  0.44873  0.87984  1.0000
  O  Te18      1.0  0.95472  0.43377  0.97169  1.0000
  H   H76       1.0  0.95769  0.44403  0.08898  1.0000
  Mg  Mg9       1.0  0.98341  0.39783  0.88863  1.0000
