data_image0
_chemical_formula_structural       H22C24N36SnCSn2CSnTe4Mg2SnCSn2CSnTe4Mg2SnCSn2CSnTe4Mg2SnCSn2CSnTe4Mg2SnCSn2CSnTe4Mg2SnCSn2CSnTe4Mg2SnCSn2CSnTe4Mg2SnCSn2CSnTe4Mg2SnCSn2CSnTe4Mg2SnCSn2CSnTe4Mg2SnCSn2CSnTe4Mg2SnCSn2CSnTe4Mg2SnCSn2CSnTe4Mg2SnCSn2CSnTe4Mg2SnCSn2CSnTe4Mg2SnCSn2CSnTe4Mg2SnCSn2CSnTe4Mg2SnCSn2CSnTe4Mg2
_chemical_formula_sum              "H22 C60 N36 Sn72 Te72 Mg36"
_cell_length_a       38.6256
_cell_length_b       38.7842
_cell_length_c       8.33149
_cell_angle_alpha    122.877
_cell_angle_beta     81.8219
_cell_angle_gamma    119.8

_symmetry_space_group_name_H-M    'P1'
_space_group_IT_number       1

loop_
  _space_group_symop_operation_xyz
  'x, y, z'

loop_
  _atom_site_type_symbol
  _atom_site_label
  _atom_site_symmetry_multiplicity
  _atom_site_fract_x
  _atom_site_fract_y
  _atom_site_fract_z
  _atom_site_occupancy
  H   H1        1.0  0.49440  0.36797  0.03031  1.0000
  H   H2        1.0  0.63973  0.13758  0.08295  1.0000
  H   H3        1.0  0.87612  0.50816  0.00203  1.0000
  H   H4        1.0  0.50853  0.64206  0.97334  1.0000
  H   H5        1.0  0.34956  0.85390  0.90762  1.0000
  H   H6        1.0  0.10603  0.52779  0.07653  1.0000
  H   H7        1.0  0.60660  0.07182  0.57541  1.0000
  H   H8        1.0  0.46994  0.40972  0.04055  1.0000
  H   H9        1.0  0.53223  0.59132  0.45744  1.0000
  H   H10       1.0  0.39032  0.92151  0.92197  1.0000
  H   H11       1.0  0.93616  0.53888  0.47148  1.0000
  H   H12       1.0  0.48806  0.35620  0.51976  1.0000
  H   H13       1.0  0.64788  0.13903  0.58269  1.0000
  H   H14       1.0  0.86781  0.50939  0.45762  1.0000
  H   H15       1.0  0.50746  0.63234  0.46568  1.0000
  H   H16       1.0  0.35527  0.85880  0.41115  1.0000
  H   H17       1.0  0.13488  0.50663  0.62382  1.0000
  H   H18       1.0  0.59905  0.07122  0.07490  1.0000
  H   H19       1.0  0.46265  0.39803  0.53651  1.0000
  H   H20       1.0  0.53745  0.60283  0.96013  1.0000
  H   H21       1.0  0.39669  0.92596  0.41749  1.0000
  H   H22       1.0  0.94012  0.54316  0.05714  1.0000
  C   C1        1.0  0.64118  0.34084  0.98348  1.0000
  C   C2        1.0  0.65901  0.29440  0.99714  1.0000
  C   C3        1.0  0.70745  0.36021  0.00081  1.0000
  C   C4        1.0  0.35451  0.65575  0.02252  1.0000
  C   C5        1.0  0.33421  0.70010  0.00648  1.0000
  C   C6        1.0  0.28834  0.63618  0.02086  1.0000
  C   C7        1.0  0.49054  0.41789  0.49756  1.0000
  C   C8        1.0  0.58086  0.07147  0.53134  1.0000
  C   C9        1.0  0.93241  0.51313  0.50180  1.0000
  C   C10       1.0  0.50465  0.57256  0.50153  1.0000
  C   C11       1.0  0.42235  0.92626  0.46142  1.0000
  C   C12       1.0  0.07277  0.50674  0.60333  1.0000
  C   C13       1.0  0.63891  0.33712  0.48453  1.0000
  C   C14       1.0  0.66054  0.29367  0.49847  1.0000
  C   C15       1.0  0.70606  0.36041  0.50270  1.0000
  C   C16       1.0  0.36157  0.66073  0.51957  1.0000
  C   C17       1.0  0.34203  0.70563  0.50476  1.0000
  C   C18       1.0  0.29485  0.63954  0.50123  1.0000
  C   C19       1.0  0.49789  0.42888  0.99951  1.0000
  C   C20       1.0  0.57304  0.07048  0.03197  1.0000
  C   C21       1.0  0.93904  0.51320  0.04797  1.0000
  C   C22       1.0  0.51023  0.58279  0.00182  1.0000
  C   C23       1.0  0.41633  0.92217  0.96505  1.0000
  C   C24       1.0  0.07612  0.50286  0.76668  1.0000
  N   N1        1.0  0.62921  0.30192  0.98496  1.0000
  N   N2        1.0  0.69863  0.32275  0.00688  1.0000
  N   N3        1.0  0.67996  0.37112  0.99078  1.0000
  N   N4        1.0  0.36474  0.69330  0.01391  1.0000
  N   N5        1.0  0.29539  0.67227  0.00892  1.0000
  N   N6        1.0  0.31646  0.62570  0.02520  1.0000
  N   N7        1.0  0.51949  0.38216  0.97738  1.0000
  N   N8        1.0  0.61693  0.13413  0.01595  1.0000
  N   N9        1.0  0.87187  0.48271  0.02273  1.0000
  N   N10       1.0  0.48438  0.62649  0.02681  1.0000
  N   N11       1.0  0.37236  0.85782  0.97674  1.0000
  N   N12       1.0  0.12076  0.51270  0.97193  1.0000
  N   N13       1.0  0.52639  0.41822  0.96482  1.0000
  N   N14       1.0  0.57833  0.10167  0.99678  1.0000
  N   N15       1.0  0.90412  0.47845  0.03172  1.0000
  N   N16       1.0  0.48047  0.59139  0.03790  1.0000
  N   N17       1.0  0.41103  0.89080  0.99805  1.0000
  N   N18       1.0  0.10675  0.49920  0.79091  1.0000
  N   N19       1.0  0.62914  0.29883  0.48632  1.0000
  N   N20       1.0  0.69960  0.32346  0.50714  1.0000
  N   N21       1.0  0.67687  0.36901  0.49324  1.0000
  N   N22       1.0  0.37267  0.69952  0.51861  1.0000
  N   N23       1.0  0.30259  0.67652  0.49444  1.0000
  N   N24       1.0  0.32317  0.62975  0.51114  1.0000
  N   N25       1.0  0.51312  0.37131  0.46908  1.0000
  N   N26       1.0  0.62484  0.13531  0.51609  1.0000
  N   N27       1.0  0.86537  0.48888  0.50419  1.0000
  N   N28       1.0  0.48289  0.61903  0.52310  1.0000
  N   N29       1.0  0.37820  0.86332  0.48216  1.0000
  N   N30       1.0  0.13619  0.51960  0.53955  1.0000
  N   N31       1.0  0.51938  0.40777  0.46147  1.0000
  N   N32       1.0  0.58635  0.10257  0.49699  1.0000
  N   N33       1.0  0.89761  0.48581  0.52334  1.0000
  N   N34       1.0  0.47621  0.58335  0.53788  1.0000
  N   N35       1.0  0.41676  0.89549  0.49864  1.0000
  N   N36       1.0  0.10325  0.52060  0.51550  1.0000
  C  Sn1       1.0  0.59532  0.39159  0.90058  1.0000
  C   C25       1.0  0.55477  0.36902  0.91829  1.0000
  C  Sn2       1.0  0.54170  0.33901  0.98466  1.0000
  C  Sn3       1.0  0.53323  0.19672  0.03449  1.0000
  C   C26       1.0  0.57375  0.21929  0.01681  1.0000
  C  Sn4       1.0  0.62338  0.38400  0.95041  1.0000
  O  Te1       1.0  0.60771  0.42146  0.83393  1.0000
  O  Te2       1.0  0.46448  0.18213  0.00108  1.0000
  O  Te3       1.0  0.52080  0.16683  0.10117  1.0000
  O  Te4       1.0  0.66404  0.40618  0.93401  1.0000
  Mg  Mg1       1.0  0.46224  0.14468  0.09882  1.0000
  Mg  Mg2       1.0  0.66632  0.44366  0.83639  1.0000
  C  Sn5       1.0  0.71492  0.36536  0.97767  1.0000
  C   C27       1.0  0.68903  0.37755  0.94791  1.0000
  C  Sn6       1.0  0.64824  0.35587  0.96374  1.0000
  C  Sn7       1.0  0.59648  0.18661  0.01041  1.0000
  C   C28       1.0  0.62237  0.17444  0.04018  1.0000
  C  Sn8       1.0  0.66317  0.19611  0.02434  1.0000
  O  Te5       1.0  0.75559  0.38750  0.96111  1.0000
  O  Te6       1.0  0.62293  0.36863  0.93328  1.0000
  O  Te7       1.0  0.55577  0.16448  0.02695  1.0000
  O  Te8       1.0  0.68846  0.18337  0.05481  1.0000
  Mg  Mg3       1.0  0.56982  0.32853  0.97225  1.0000
  Mg  Mg4       1.0  0.74158  0.22346  0.01597  1.0000
  C  Sn9       1.0  0.84833  0.53040  0.96872  1.0000
  C   C29       1.0  0.86465  0.57074  0.96200  1.0000
  C  Sn10      1.0  0.84199  0.59224  0.99394  1.0000
  C  Sn11      1.0  0.76565  0.43835  0.03355  1.0000
  C   C30       1.0  0.74935  0.39804  0.04030  1.0000
  C  Sn12      1.0  0.77200  0.37651  0.00834  1.0000
  O  Te9       1.0  0.87154  0.50949  0.93635  1.0000
  O  Te10      1.0  0.85895  0.63253  0.98641  1.0000
  O  Te11      1.0  0.74245  0.45930  0.06593  1.0000
  O  Te12      1.0  0.75506  0.33625  0.01589  1.0000
  Mg  Mg5       1.0  0.77885  0.51364  0.04049  1.0000
  Mg  Mg6       1.0  0.83513  0.45513  0.96193  1.0000
  C  Sn13      1.0  0.43787  0.72716  0.98194  1.0000
  C   C31       1.0  0.47845  0.75401  0.97624  1.0000
  C  Sn14      1.0  0.45694  0.66456  0.01434  1.0000
  C  Sn15      1.0  0.43087  0.68336  0.05919  1.0000
  C   C32       1.0  0.39033  0.65651  0.06491  1.0000
  C  Sn16      1.0  0.37528  0.61127  0.02679  1.0000
  O  Te13      1.0  0.42351  0.68202  0.94337  1.0000
  O  Te14      1.0  0.49761  0.69073  0.00772  1.0000
  O  Te15      1.0  0.44528  0.72853  0.09777  1.0000
  O  Te16      1.0  0.33464  0.58510  0.03343  1.0000
  Mg  Mg7       1.0  0.50296  0.75050  0.07115  1.0000
  Mg  Mg8       1.0  0.36579  0.66004  0.97013  1.0000
  C  Sn17      1.0  0.38966  0.79193  0.08458  1.0000
  C   C33       1.0  0.35124  0.75413  0.05353  1.0000
  C  Sn18      1.0  0.35378  0.88106  0.96897  1.0000
  C  Sn19      1.0  0.35827  0.91170  0.91417  1.0000
  C   C34       1.0  0.39667  0.94946  0.94519  1.0000
  C  Sn20      1.0  0.39415  0.82257  0.02979  1.0000
  O  Te17      1.0  0.42322  0.79902  0.16934  1.0000
  O  Te18      1.0  0.31568  0.84305  0.93945  1.0000
  O  Te19      1.0  0.32466  0.90458  0.82937  1.0000
  O  Te20      1.0  0.43223  0.86055  0.05928  1.0000
  Mg  Mg9       1.0  0.27913  0.84797  0.81884  1.0000
  Mg  Mg10      1.0  0.46881  0.85564  0.17977  1.0000
  C  Sn21      1.0  0.20361  0.54676  0.07776  1.0000
  C   C35       1.0  0.17083  0.55184  0.06646  1.0000
  C  Sn22      1.0  0.17508  0.58310  0.01933  1.0000
  C  Sn23      1.0  0.24940  0.74450  0.98261  1.0000
  C   C36       1.0  0.28215  0.73940  0.99389  1.0000
  C  Sn24      1.0  0.24140  0.57347  0.04104  1.0000
  O  Te21      1.0  0.19868  0.51530  0.12510  1.0000
  O  Te22      1.0  0.14188  0.58759  0.00897  1.0000
  O  Te23      1.0  0.25431  0.77597  0.93525  1.0000
  O  Te24      1.0  0.27458  0.56897  0.05137  1.0000
  Mg  Mg11      1.0  0.20017  0.76971  0.93896  1.0000
  Mg  Mg12      1.0  0.25284  0.52153  0.12127  1.0000
  C  Sn25      1.0  0.46765  0.50516  0.60832  1.0000
  C   C37       1.0  0.49938  0.53625  0.56581  1.0000
  C  Sn26      1.0  0.52852  0.52519  0.46836  1.0000
  C  Sn27      1.0  0.52586  0.48214  0.41211  1.0000
  C   C38       1.0  0.49413  0.45108  0.45459  1.0000
  C  Sn28      1.0  0.46499  0.46211  0.55208  1.0000
  O  Te25      1.0  0.43886  0.51695  0.70586  1.0000
  O  Te26      1.0  0.55998  0.55684  0.42752  1.0000
  O  Te27      1.0  0.55468  0.47038  0.31451  1.0000
  O  Te28      1.0  0.43354  0.43049  0.59288  1.0000
  Mg  Mg13      1.0  0.59183  0.52496  0.29165  1.0000
  Mg  Mg14      1.0  0.40166  0.46231  0.72865  1.0000
  C  Sn29      1.0  0.50743  0.97713  0.57699  1.0000
  C   C39       1.0  0.46986  0.97033  0.53637  1.0000
  C  Sn30      1.0  0.46698  0.99427  0.46488  1.0000
  C  Sn31      1.0  0.50238  0.02563  0.43321  1.0000
  C   C40       1.0  0.53992  0.03241  0.47379  1.0000
  C  Sn32      1.0  0.54284  0.00849  0.54532  1.0000
  O  Te29      1.0  0.50960  0.95282  0.64836  1.0000
  O  Te30      1.0  0.42908  0.98692  0.42541  1.0000
  O  Te31      1.0  0.00116  0.04994  0.36179  1.0000
  O  Te32      1.0  0.58070  0.01582  0.58475  1.0000
  Mg  Mg15      1.0  0.44169  0.02814  0.33002  1.0000
  Mg  Mg16      1.0  0.56813  0.97461  0.68005  1.0000
  C  Sn33      1.0  0.98730  0.46000  0.47843  1.0000
  C   C41       1.0  0.02803  0.49212  0.49893  1.0000
  C  Sn34      1.0  0.03985  0.53745  0.54679  1.0000
  C  Sn35      1.0  0.01037  0.55098  0.57486  1.0000
  C   C42       1.0  0.96968  0.51887  0.55439  1.0000
  C  Sn36      1.0  0.95782  0.47352  0.50650  1.0000
  O  Te33      1.0  0.97616  0.41486  0.43052  1.0000
  O  Te34      1.0  0.08075  0.56894  0.56643  1.0000
  O  Te35      1.0  0.02154  0.59615  0.62279  1.0000
  O  Te36      1.0  0.91696  0.44205  0.48690  1.0000
  Mg  Mg17      1.0  0.08094  0.62645  0.63340  1.0000
  Mg  Mg18      1.0  0.91673  0.38454  0.42003  1.0000
  C  Sn37      1.0  0.54303  0.32919  0.54111  1.0000
  C   C43       1.0  0.54584  0.36447  0.52480  1.0000
  C  Sn38      1.0  0.57935  0.38880  0.46325  1.0000
  C  Sn39      1.0  0.61071  0.37761  0.41691  1.0000
  C   C44       1.0  0.60789  0.34234  0.43320  1.0000
  C  Sn40      1.0  0.57439  0.31800  0.49478  1.0000
  O  Te37      1.0  0.50925  0.30533  0.60292  1.0000
  O  Te38      1.0  0.58149  0.42394  0.44813  1.0000
  O  Te39      1.0  0.64451  0.40151  0.35507  1.0000
  O  Te40      1.0  0.57224  0.28287  0.50987  1.0000
  Mg  Mg19      1.0  0.63358  0.44651  0.35743  1.0000
  Mg  Mg20      1.0  0.52016  0.26026  0.60045  1.0000
  C  Sn41      1.0  0.67835  0.22481  0.59597  1.0000
  C   C45       1.0  0.64017  0.18674  0.56519  1.0000
  C  Sn42      1.0  0.60587  0.17846  0.48068  1.0000
  C  Sn43      1.0  0.60981  0.20886  0.42567  1.0000
  C   C46       1.0  0.64797  0.24691  0.45642  1.0000
  C  Sn44      1.0  0.68229  0.25521  0.54096  1.0000
  O  Te41      1.0  0.71222  0.23242  0.68067  1.0000
  O  Te42      1.0  0.56802  0.14018  0.45143  1.0000
  O  Te43      1.0  0.57589  0.20123  0.34092  1.0000
  O  Te44      1.0  0.72012  0.29347  0.57018  1.0000
  Mg  Mg21      1.0  0.53087  0.14442  0.33079  1.0000
  Mg  Mg22      1.0  0.75729  0.28925  0.69071  1.0000
  C  Sn45      1.0  0.81067  0.40325  0.46689  1.0000
  C   C47       1.0  0.82341  0.44268  0.45790  1.0000
  C  Sn46      1.0  0.79808  0.46119  0.49197  1.0000
  C  Sn47      1.0  0.75921  0.43987  0.53608  1.0000
  C   C48       1.0  0.74650  0.40046  0.54509  1.0000
  C  Sn48      1.0  0.77181  0.38192  0.51101  1.0000
  O  Te45      1.0  0.83650  0.38533  0.43233  1.0000
  O  Te46      1.0  0.81147  0.50064  0.48210  1.0000
  O  Te47      1.0  0.73339  0.45781  0.57065  1.0000
  O  Te48      1.0  0.75843  0.34251  0.52090  1.0000
  Mg  Mg23      1.0  0.76530  0.51208  0.54062  1.0000
  Mg  Mg24      1.0  0.80458  0.33104  0.46250  1.0000
  C  Sn49      1.0  0.46123  0.68126  0.57290  1.0000
  C   C49       1.0  0.45649  0.64403  0.58033  1.0000
  C  Sn50      1.0  0.41785  0.60613  0.54525  1.0000
  C  Sn51      1.0  0.38321  0.60541  0.50172  1.0000
  C   C50       1.0  0.38796  0.64261  0.49428  1.0000
  C  Sn52      1.0  0.42660  0.68053  0.52937  1.0000
  O  Te49      1.0  0.50016  0.71879  0.60845  1.0000
  O  Te50      1.0  0.41387  0.56933  0.55356  1.0000
  O  Te51      1.0  0.34427  0.56783  0.46617  1.0000
  O  Te52      1.0  0.43058  0.71731  0.52104  1.0000
  Mg  Mg25      1.0  0.35448  0.52599  0.49416  1.0000
  Mg  Mg26      1.0  0.48995  0.76066  0.58032  1.0000
  C  Sn53      1.0  0.32517  0.78983  0.52489  1.0000
  C   C51       1.0  0.36330  0.82607  0.54150  1.0000
  C  Sn54      1.0  0.39727  0.82099  0.52309  1.0000
  C  Sn55      1.0  0.39304  0.77879  0.48721  1.0000
  C   C52       1.0  0.35493  0.74258  0.47059  1.0000
  C  Sn56      1.0  0.32094  0.74763  0.48901  1.0000
  O  Te53      1.0  0.29162  0.79568  0.54380  1.0000
  O  Te54      1.0  0.43508  0.85771  0.54032  1.0000
  O  Te55      1.0  0.42663  0.77297  0.46831  1.0000
  O  Te56      1.0  0.28315  0.71093  0.47177  1.0000
  Mg  Mg27      1.0  0.47173  0.83301  0.50326  1.0000
  Mg  Mg28      1.0  0.24648  0.73559  0.50870  1.0000
  C  Sn57      1.0  0.23470  0.55337  0.46279  1.0000
  C   C53       1.0  0.24835  0.59250  0.45024  1.0000
  C  Sn58      1.0  0.22450  0.61305  0.48969  1.0000
  C  Sn59      1.0  0.18620  0.59410  0.54291  1.0000
  C   C54       1.0  0.17256  0.55500  0.55547  1.0000
  C  Sn60      1.0  0.19639  0.53443  0.51601  1.0000
  O  Te57      1.0  0.25905  0.53341  0.42272  1.0000
  O  Te58      1.0  0.23879  0.65213  0.47612  1.0000
  O  Te59      1.0  0.16184  0.61411  0.58298  1.0000
  O  Te60      1.0  0.18212  0.49537  0.52959  1.0000
  Mg  Mg29      1.0  0.19455  0.66696  0.54483  1.0000
  Mg  Mg30      1.0  0.22635  0.48054  0.46101  1.0000
  C  Sn61      1.0  0.47468  0.51555  0.10651  1.0000
  C   C55       1.0  0.50606  0.54640  0.06182  1.0000
  C  Sn62      1.0  0.57176  0.67012  0.96432  1.0000
  C  Sn63      1.0  0.56951  0.62741  0.91024  1.0000
  C   C56       1.0  0.53814  0.59659  0.95489  1.0000
  C  Sn64      1.0  0.47243  0.47284  0.05243  1.0000
  O  Te61      1.0  0.44585  0.52723  0.20406  1.0000
  O  Te62      1.0  0.60286  0.70152  0.92129  1.0000
  O  Te63      1.0  0.59838  0.61575  0.81262  1.0000
  O  Te64      1.0  0.44134  0.44146  0.09542  1.0000
  Mg  Mg31      1.0  0.63494  0.66991  0.78633  1.0000
  Mg  Mg32      1.0  0.40923  0.47302  0.23028  1.0000
  C  Sn65      1.0  0.50181  0.97570  0.08003  1.0000
  C   C57       1.0  0.46356  0.96729  0.03864  1.0000
  C  Sn66      1.0  0.49574  0.12475  0.96490  1.0000
  C  Sn67      1.0  0.03133  0.15656  0.93170  1.0000
  C   C58       1.0  0.06956  0.16494  0.97305  1.0000
  C  Sn68      1.0  0.03740  0.00751  0.04684  1.0000
  O  Te65      1.0  0.50545  0.95254  0.15366  1.0000
  O  Te66      1.0  0.45718  0.11579  0.92470  1.0000
  O  Te67      1.0  0.02766  0.17972  0.85802  1.0000
  O  Te68      1.0  0.07593  0.01644  0.08700  1.0000
  Mg  Mg33      1.0  0.96875  0.15588  0.82606  1.0000
  Mg  Mg34      1.0  0.56439  0.97636  0.18554  1.0000
  C  Sn69      1.0  0.00846  0.42772  0.05707  1.0000
  C   C59       1.0  0.05270  0.52529  0.98330  1.0000
  C  Sn70      1.0  0.02102  0.47960  0.92469  1.0000
  C  Sn71      1.0  0.98079  0.47082  0.93999  1.0000
  C   C60       1.0  0.93657  0.37324  0.01369  1.0000
  C  Sn72      1.0  0.96824  0.41895  0.07238  1.0000
  O  Te69      1.0  0.04060  0.47312  0.11479  1.0000
  O  Te70      1.0  0.02947  0.44305  0.85146  1.0000
  O  Te71      1.0  0.94865  0.42538  0.88220  1.0000
  O  Te72      1.0  0.95980  0.45548  0.14553  1.0000
  Mg  Mg35      1.0  0.97548  0.38727  0.79174  1.0000
  Mg  Mg36      1.0  0.01376  0.51127  0.20519  1.0000
