data_image0
_chemical_formula_structural       H84C120N18O12SnCSn2CSnTe4Mg2SnCSn2CSnTe4Mg2SnCSn2CSnTe4Mg2SnCSn2CSnTe4Mg2SnCSn2CSnTe4Mg2SnCSn2CSnTe4Mg2
_chemical_formula_sum              "H84 C132 N18 O12 Sn24 Te24 Mg12"
_cell_length_a       29.0952
_cell_length_b       28.7407
_cell_length_c       7.67171
_cell_angle_alpha    91.1804
_cell_angle_beta     88.394
_cell_angle_gamma    120.257

_symmetry_space_group_name_H-M    'P1'
_space_group_IT_number       1

loop_
  _space_group_symop_operation_xyz
  'x, y, z'

loop_
  _atom_site_type_symbol
  _atom_site_label
  _atom_site_symmetry_multiplicity
  _atom_site_fract_x
  _atom_site_fract_y
  _atom_site_fract_z
  _atom_site_occupancy
  H   H1        1.0  0.19617  0.03164  0.17229  1.0000
  H   H2        1.0  0.96289  0.16668  0.19326  1.0000
  H   H3        1.0  0.83659  0.80424  0.18655  1.0000
  H   H4        1.0  0.29468  0.20821  0.38235  1.0000
  H   H5        1.0  0.78982  0.08315  0.38944  1.0000
  H   H6        1.0  0.91367  0.70670  0.36771  1.0000
  H   H7        1.0  0.20523  0.17588  0.98707  1.0000
  H   H8        1.0  0.82278  0.02606  0.01163  1.0000
  H   H9        1.0  0.97316  0.80124  0.97463  1.0000
  H   H10       1.0  0.13338  0.03023  0.32450  1.0000
  H   H11       1.0  0.98895  0.10988  0.13863  1.0000
  H   H12       1.0  0.89419  0.86957  0.31684  1.0000
  H   H13       1.0  0.17228  0.83662  0.37448  1.0000
  H   H14       1.0  0.15654  0.33621  0.36971  1.0000
  H   H15       1.0  0.66687  0.82740  0.40214  1.0000
  H   H16       1.0  0.04513  0.13063  0.27920  1.0000
  H   H17       1.0  0.87676  0.91856  0.23958  1.0000
  H   H18       1.0  0.08330  0.95897  0.29080  1.0000
  H   H19       1.0  0.36592  0.22818  0.27068  1.0000
  H   H20       1.0  0.77124  0.13314  0.26859  1.0000
  H   H21       1.0  0.86242  0.63246  0.26917  1.0000
  H   H22       1.0  0.45246  0.13423  0.51739  1.0000
  H   H23       1.0  0.85962  0.31787  0.51742  1.0000
  H   H24       1.0  0.68014  0.54436  0.52575  1.0000
  H   H25       1.0  0.46351  0.27079  0.25873  1.0000
  H   H26       1.0  0.72719  0.18699  0.25799  1.0000
  H   H27       1.0  0.80664  0.53383  0.26273  1.0000
  H   H28       1.0  0.53647  0.31085  0.41176  1.0000
  H   H29       1.0  0.68520  0.22156  0.40447  1.0000
  H   H30       1.0  0.77236  0.46199  0.42200  1.0000
  H   H31       1.0  0.54271  0.20931  0.93588  1.0000
  H   H32       1.0  0.78499  0.34761  0.92212  1.0000
  H   H33       1.0  0.67158  0.45714  0.93682  1.0000
  H   H34       1.0  0.39560  0.04000  0.04283  1.0000
  H   H35       1.0  0.95551  0.35624  0.03039  1.0000
  H   H36       1.0  0.64731  0.60243  0.05492  1.0000
  H   H37       1.0  0.34126  0.01628  0.19741  1.0000
  H   H38       1.0  0.97976  0.32883  0.18727  1.0000
  H   H39       1.0  0.67599  0.65595  0.21234  1.0000
  H   H40       1.0  0.39857  0.08125  0.22388  1.0000
  H   H41       1.0  0.91514  0.32085  0.21483  1.0000
  H   H42       1.0  0.68322  0.59836  0.23322  1.0000
  H   H43       1.0  0.19695  0.03268  0.68366  1.0000
  H   H44       1.0  0.96164  0.16597  0.69105  1.0000
  H   H45       1.0  0.83479  0.80366  0.67644  1.0000
  H   H46       1.0  0.29891  0.20966  0.88963  1.0000
  H   H47       1.0  0.79096  0.08428  0.89181  1.0000
  H   H48       1.0  0.91441  0.70633  0.87794  1.0000
  H   H49       1.0  0.20193  0.17436  0.49134  1.0000
  H   H50       1.0  0.82153  0.02522  0.51022  1.0000
  H   H51       1.0  0.97191  0.80129  0.46717  1.0000
  H   H52       1.0  0.13033  0.02500  0.81505  1.0000
  H   H53       1.0  0.98774  0.10733  0.62604  1.0000
  H   H54       1.0  0.89320  0.86704  0.82301  1.0000
  H   H55       1.0  0.17450  0.83631  0.86488  1.0000
  H   H56       1.0  0.15765  0.33186  0.86085  1.0000
  H   H57       1.0  0.67047  0.82874  0.88617  1.0000
  H   H58       1.0  0.04281  0.12845  0.77575  1.0000
  H   H59       1.0  0.87537  0.91685  0.72378  1.0000
  H   H60       1.0  0.08048  0.95595  0.80131  1.0000
  H   H61       1.0  0.36968  0.22729  0.76944  1.0000
  H   H62       1.0  0.77229  0.13514  0.77466  1.0000
  H   H63       1.0  0.86254  0.63570  0.75955  1.0000
  H   H64       1.0  0.45385  0.13264  0.02801  1.0000
  H   H65       1.0  0.86366  0.32037  0.01877  1.0000
  H   H66       1.0  0.68266  0.54456  0.03667  1.0000
  H   H67       1.0  0.46718  0.26884  0.76090  1.0000
  H   H68       1.0  0.73004  0.19063  0.76246  1.0000
  H   H69       1.0  0.80699  0.53669  0.74600  1.0000
  H   H70       1.0  0.53914  0.31030  0.91915  1.0000
  H   H71       1.0  0.69036  0.22373  0.92215  1.0000
  H   H72       1.0  0.77571  0.46270  0.90351  1.0000
  H   H73       1.0  0.53964  0.20972  0.42232  1.0000
  H   H74       1.0  0.78471  0.32707  0.42337  1.0000
  H   H75       1.0  0.64980  0.43438  0.42880  1.0000
  H   H76       1.0  0.39511  0.04158  0.53433  1.0000
  H   H77       1.0  0.95177  0.35502  0.53451  1.0000
  H   H78       1.0  0.64644  0.60189  0.55535  1.0000
  H   H79       1.0  0.34239  0.01866  0.69479  1.0000
  H   H80       1.0  0.97541  0.32713  0.69140  1.0000
  H   H81       1.0  0.67625  0.65587  0.71126  1.0000
  H   H82       1.0  0.39969  0.08385  0.71430  1.0000
  H   H83       1.0  0.91039  0.31814  0.71595  1.0000
  H   H84       1.0  0.68368  0.59833  0.72980  1.0000
  C   C1        1.0  0.19480  0.10198  0.08830  1.0000
  C   C2        1.0  0.89573  0.09242  0.10544  1.0000
  C   C3        1.0  0.90908  0.80875  0.08904  1.0000
  C   C4        1.0  0.21763  0.06936  0.10223  1.0000
  C   C5        1.0  0.92760  0.14865  0.11387  1.0000
  C   C6        1.0  0.85369  0.78417  0.11077  1.0000
  C   C7        1.0  0.26826  0.08452  0.02936  1.0000
  C   C8        1.0  0.91285  0.18267  0.03313  1.0000
  C   C9        1.0  0.81895  0.73335  0.03729  1.0000
  C   C10       1.0  0.29686  0.13727  0.45645  1.0000
  C   C11       1.0  0.86009  0.15816  0.45559  1.0000
  C   C12       1.0  0.84038  0.70276  0.45207  1.0000
  C   C13       1.0  0.27281  0.16901  0.44393  1.0000
  C   C14       1.0  0.82863  0.10159  0.44871  1.0000
  C   C15       1.0  0.89611  0.72828  0.43186  1.0000
  C   C16       1.0  0.22413  0.15192  0.00326  1.0000
  C   C17       1.0  0.84678  0.06968  0.01926  1.0000
  C   C18       1.0  0.93031  0.78081  0.99623  1.0000
  C   C19       1.0  0.29009  0.04902  0.02070  1.0000
  C   C20       1.0  0.94766  0.24038  0.02042  1.0000
  C   C21       1.0  0.76183  0.71053  0.03388  1.0000
  C   C22       1.0  0.05802  0.02728  0.27319  1.0000
  C   C23       1.0  0.97808  0.03652  0.25002  1.0000
  C   C24       1.0  0.96854  0.94629  0.27394  1.0000
  C   C25       1.0  0.03392  0.05920  0.26431  1.0000
  C   C26       1.0  0.94616  0.97969  0.26281  1.0000
  C   C27       1.0  0.02437  0.97079  0.28082  1.0000
  C   C28       1.0  0.11524  0.04919  0.24991  1.0000
  C   C29       1.0  0.95814  0.07068  0.19245  1.0000
  C   C30       1.0  0.93331  0.88840  0.24812  1.0000
  C   C31       1.0  0.35205  0.15737  0.40754  1.0000
  C   C32       1.0  0.83993  0.19277  0.40586  1.0000
  C   C33       1.0  0.80524  0.64657  0.40882  1.0000
  C   C34       1.0  0.38453  0.20764  0.32800  1.0000
  C   C35       1.0  0.79050  0.17328  0.32613  1.0000
  C   C36       1.0  0.82282  0.61360  0.32879  1.0000
  C   C37       1.0  0.37661  0.12846  0.46503  1.0000
  C   C38       1.0  0.86750  0.24751  0.46295  1.0000
  C   C39       1.0  0.75152  0.62142  0.47132  1.0000
  C   C40       1.0  0.43256  0.15372  0.46253  1.0000
  C   C41       1.0  0.84147  0.27770  0.46094  1.0000
  C   C42       1.0  0.72022  0.56481  0.47061  1.0000
  C   C43       1.0  0.46369  0.20605  0.39893  1.0000
  C   C44       1.0  0.78990  0.25481  0.39717  1.0000
  C   C45       1.0  0.74067  0.53276  0.40616  1.0000
  C   C46       1.0  0.43957  0.23226  0.32297  1.0000
  C   C47       1.0  0.76523  0.20316  0.32132  1.0000
  C   C48       1.0  0.79181  0.55791  0.32677  1.0000
  C   C49       1.0  0.55286  0.28419  0.41439  1.0000
  C   C50       1.0  0.71154  0.26508  0.41013  1.0000
  C   C51       1.0  0.72927  0.44556  0.42177  1.0000
  C   C52       1.0  0.60767  0.30622  0.42221  1.0000
  C   C53       1.0  0.68902  0.29786  0.41987  1.0000
  C   C54       1.0  0.69697  0.38857  0.42531  1.0000
  C   C55       1.0  0.63121  0.27162  0.42272  1.0000
  C   C56       1.0  0.72268  0.35625  0.42618  1.0000
  C   C57       1.0  0.64103  0.36373  0.42659  1.0000
  C   C58       1.0  0.37193  0.05159  0.12823  1.0000
  C   C59       1.0  0.94460  0.32238  0.11877  1.0000
  C   C60       1.0  0.68145  0.62593  0.14005  1.0000
  C   C61       1.0  0.19346  0.10184  0.59646  1.0000
  C   C62       1.0  0.89466  0.09177  0.60297  1.0000
  C   C63       1.0  0.90758  0.80820  0.58291  1.0000
  C   C64       1.0  0.21703  0.06986  0.61022  1.0000
  C   C65       1.0  0.92645  0.14803  0.61108  1.0000
  C   C66       1.0  0.85215  0.78360  0.60201  1.0000
  C   C67       1.0  0.26696  0.08494  0.53202  1.0000
  C   C68       1.0  0.91144  0.18200  0.53080  1.0000
  C   C69       1.0  0.81774  0.73271  0.52824  1.0000
  C   C70       1.0  0.29924  0.13736  0.95814  1.0000
  C   C71       1.0  0.86135  0.15912  0.95919  1.0000
  C   C72       1.0  0.84136  0.70357  0.95853  1.0000
  C   C73       1.0  0.27592  0.16980  0.94622  1.0000
  C   C74       1.0  0.82976  0.10253  0.95140  1.0000
  C   C75       1.0  0.89707  0.72846  0.93956  1.0000
  C   C76       1.0  0.22159  0.15109  0.50668  1.0000
  C   C77       1.0  0.84563  0.06884  0.51730  1.0000
  C   C78       1.0  0.92908  0.78061  0.48931  1.0000
  C   C79       1.0  0.28909  0.04969  0.52182  1.0000
  C   C80       1.0  0.94564  0.23984  0.52019  1.0000
  C   C81       1.0  0.76062  0.70976  0.52429  1.0000
  C   C82       1.0  0.05622  0.02544  0.77518  1.0000
  C   C83       1.0  0.97639  0.03487  0.74593  1.0000
  C   C84       1.0  0.96655  0.94475  0.77558  1.0000
  C   C85       1.0  0.03210  0.05738  0.76173  1.0000
  C   C86       1.0  0.94435  0.97804  0.75733  1.0000
  C   C87       1.0  0.02222  0.96895  0.78652  1.0000
  C   C88       1.0  0.11315  0.04687  0.75165  1.0000
  C   C89       1.0  0.95689  0.06919  0.68560  1.0000
  C   C90       1.0  0.93149  0.88663  0.74953  1.0000
  C   C91       1.0  0.35459  0.15694  0.91185  1.0000
  C   C92       1.0  0.84160  0.19411  0.91085  1.0000
  C   C93       1.0  0.80600  0.64783  0.91095  1.0000
  C   C94       1.0  0.38772  0.20674  0.83049  1.0000
  C   C95       1.0  0.79217  0.17536  0.83164  1.0000
  C   C96       1.0  0.82353  0.61595  0.82334  1.0000
  C   C97       1.0  0.37849  0.12754  0.97107  1.0000
  C   C98       1.0  0.86988  0.24886  0.96745  1.0000
  C   C99       1.0  0.75239  0.62221  0.97517  1.0000
  C   C100      1.0  0.43450  0.15248  0.97163  1.0000
  C   C101      1.0  0.84465  0.27974  0.96590  1.0000
  C   C102      1.0  0.72184  0.56543  0.97474  1.0000
  C   C103      1.0  0.46637  0.20480  0.90780  1.0000
  C   C104      1.0  0.79291  0.25793  0.90374  1.0000
  C   C105      1.0  0.74306  0.53484  0.90362  1.0000
  C   C106      1.0  0.44273  0.23080  0.82739  1.0000
  C   C107      1.0  0.76785  0.20612  0.82696  1.0000
  C   C108      1.0  0.79298  0.56025  0.81800  1.0000
  C   C109      1.0  0.55542  0.28353  0.92351  1.0000
  C   C110      1.0  0.71684  0.26745  0.92014  1.0000
  C   C111      1.0  0.73275  0.44532  0.91411  1.0000
  C   C112      1.0  0.61028  0.30651  0.92965  1.0000
  C   C113      1.0  0.69225  0.29942  0.92436  1.0000
  C   C114      1.0  0.69998  0.38961  0.92450  1.0000
  C   C115      1.0  0.63447  0.27276  0.92959  1.0000
  C   C116      1.0  0.72368  0.35620  0.92424  1.0000
  C   C117      1.0  0.64215  0.36514  0.93522  1.0000
  C   C118      1.0  0.37218  0.05356  0.62184  1.0000
  C   C119      1.0  0.94056  0.32066  0.62099  1.0000
  C   C120      1.0  0.68121  0.62573  0.63772  1.0000
  N   N1        1.0  0.14251  0.08665  0.13804  1.0000
  N   N2        1.0  0.90849  0.05679  0.18137  1.0000
  N   N3        1.0  0.94573  0.86149  0.13943  1.0000
  N   N4        1.0  0.51903  0.23095  0.41188  1.0000
  N   N5        1.0  0.76413  0.28490  0.40962  1.0000
  N   N6        1.0  0.70821  0.47682  0.41954  1.0000
  N   N7        1.0  0.34643  0.07529  0.03027  1.0000
  N   N8        1.0  0.92169  0.27087  0.02503  1.0000
  N   N9        1.0  0.73163  0.65333  0.04027  1.0000
  N   N10       1.0  0.14158  0.08698  0.64943  1.0000
  N   N11       1.0  0.90741  0.05630  0.67996  1.0000
  N   N12       1.0  0.94367  0.86098  0.63484  1.0000
  N   N13       1.0  0.52177  0.23011  0.92370  1.0000
  N   N14       1.0  0.76905  0.28973  0.91611  1.0000
  N   N15       1.0  0.71319  0.47868  0.91817  1.0000
  N   N16       1.0  0.34546  0.07640  0.52628  1.0000
  N   N17       1.0  0.91894  0.26980  0.52374  1.0000
  N   N18       1.0  0.73073  0.65284  0.53445  1.0000
  O   O1        1.0  0.06680  0.11356  0.27346  1.0000
  O   O2        1.0  0.89258  0.95754  0.24956  1.0000
  O   O3        1.0  0.04462  0.93734  0.29190  1.0000
  O   O4        1.0  0.60192  0.22066  0.42502  1.0000
  O   O5        1.0  0.77309  0.37894  0.43221  1.0000
  O   O6        1.0  0.61791  0.39363  0.43219  1.0000
  O   O7        1.0  0.06485  0.11180  0.76620  1.0000
  O   O8        1.0  0.89108  0.95582  0.73363  1.0000
  O   O9        1.0  0.04175  0.93509  0.80502  1.0000
  O   O10       1.0  0.60604  0.22172  0.93367  1.0000
  O   O11       1.0  0.77639  0.37998  0.92480  1.0000
  O   O12       1.0  0.62041  0.39394  0.94759  1.0000
  C  Sn1       1.0  0.17680  0.92595  0.38440  1.0000
  C   C121      1.0  0.19348  0.88833  0.36065  1.0000
  C  Sn2       1.0  0.24415  0.90061  0.41128  1.0000
  C  Sn3       1.0  0.27888  0.95155  0.48733  1.0000
  C   C122      1.0  0.26220  0.98913  0.51108  1.0000
  C  Sn4       1.0  0.21153  0.97688  0.46046  1.0000
  O  Te1       1.0  0.12597  0.91280  0.33283  1.0000
  O  Te2       1.0  0.25993  0.86235  0.38617  1.0000
  O  Te3       1.0  0.32975  0.96467  0.53891  1.0000
  O  Te4       1.0  0.69801  0.01510  0.48556  1.0000
  Mg  Mg1       1.0  0.33301  0.89913  0.47779  1.0000
  Mg  Mg2       1.0  0.12267  0.97836  0.39407  1.0000
  C  Sn5       1.0  0.06879  0.25021  0.38348  1.0000
  C   C123      1.0  0.10537  0.30470  0.35558  1.0000
  C  Sn6       1.0  0.09248  0.34398  0.40334  1.0000
  C  Sn7       1.0  0.04198  0.32847  0.48069  1.0000
  C   C124      1.0  0.00543  0.27400  0.50858  1.0000
  C  Sn8       1.0  0.01829  0.23469  0.46084  1.0000
  O  Te5       1.0  0.08253  0.21163  0.33473  1.0000
  O  Te6       1.0  0.12970  0.39821  0.37409  1.0000
  O  Te7       1.0  0.02826  0.36710  0.52944  1.0000
  O  Te8       1.0  0.98111  0.18049  0.49007  1.0000
  Mg  Mg3       1.0  0.09242  0.43582  0.46304  1.0000
  Mg  Mg4       1.0  0.01835  0.14286  0.40126  1.0000
  C  Sn9       1.0  0.67161  0.71856  0.41502  1.0000
  C   C125      1.0  0.72546  0.73584  0.43558  1.0000
  C  Sn10      1.0  0.76197  0.79014  0.46726  1.0000
  C  Sn11      1.0  0.74429  0.82796  0.47873  1.0000
  C   C126      1.0  0.69046  0.81068  0.45820  1.0000
  C  Sn12      1.0  0.65392  0.75639  0.42649  1.0000
  O  Te9       1.0  0.63581  0.66408  0.38345  1.0000
  O  Te10      1.0  0.81561  0.80645  0.48730  1.0000
  O  Te11      1.0  0.78014  0.88248  0.51032  1.0000
  O  Te12      1.0  0.60032  0.74007  0.40648  1.0000
  Mg  Mg5       1.0  0.84910  0.88503  0.52846  1.0000
  Mg  Mg6       1.0  0.56679  0.66150  0.36541  1.0000
  C  Sn13      1.0  0.19794  0.94726  0.00612  1.0000
  C   C127      1.0  0.25308  0.97972  0.02028  1.0000
  C  Sn14      1.0  0.28060  0.96400  0.95613  1.0000
  C  Sn15      1.0  0.25880  0.91245  0.87606  1.0000
  C   C128      1.0  0.20370  0.88003  0.86190  1.0000
  C  Sn16      1.0  0.16990  0.89804  0.92605  1.0000
  O  Te13      1.0  0.16495  0.96612  0.07116  1.0000
  O  Te14      1.0  0.33559  0.99716  0.97184  1.0000
  O  Te15      1.0  0.29185  0.89362  0.81101  1.0000
  O  Te16      1.0  0.11495  0.86491  0.91034  1.0000
  Mg  Mg7       1.0  0.36412  0.95358  0.86307  1.0000
  Mg  Mg8       1.0  0.09262  0.90614  0.01898  1.0000
  C  Sn17      1.0  0.05122  0.23733  0.01140  1.0000
  C   C129      1.0  0.01972  0.26136  0.01813  1.0000
  C  Sn18      1.0  0.03211  0.31441  0.94541  1.0000
  C  Sn19      1.0  0.08328  0.34169  0.86417  1.0000
  C   C130      1.0  0.11475  0.31767  0.85745  1.0000
  C  Sn20      1.0  0.09616  0.26694  0.93016  1.0000
  O  Te17      1.0  0.03179  0.18659  0.08494  1.0000
  O  Te18      1.0  0.99989  0.33761  0.95380  1.0000
  O  Te19      1.0  0.10269  0.39248  0.79061  1.0000
  O  Te20      1.0  0.12833  0.24373  0.92178  1.0000
  Mg  Mg9       1.0  0.04398  0.40741  0.83478  1.0000
  Mg  Mg10      1.0  0.09052  0.17161  0.04067  1.0000
  C  Sn21      1.0  0.75387  0.82379  0.89071  1.0000
  C   C131      1.0  0.70008  0.80702  0.87142  1.0000
  C  Sn22      1.0  0.66070  0.75609  0.92790  1.0000
  C  Sn23      1.0  0.68162  0.71888  0.00538  1.0000
  C   C132      1.0  0.73538  0.73566  0.02467  1.0000
  C  Sn24      1.0  0.76855  0.78890  0.96820  1.0000
  O  Te21      1.0  0.79256  0.87488  0.83332  1.0000
  O  Te22      1.0  0.60719  0.74021  0.90716  1.0000
  O  Te23      1.0  0.64287  0.66776  0.06278  1.0000
  O  Te24      1.0  0.82203  0.80479  0.98894  1.0000
  Mg  Mg11      1.0  0.57534  0.66446  0.00606  1.0000
  Mg  Mg12      1.0  0.86015  0.87821  0.89017  1.0000
