data_image0
_chemical_formula_structural       H24C24N36SnCSn2CSnTe4Mg2SnCSn2CSnTe4Mg2SnCSn2CSnTe4Mg2SnCSn2CSnTe4Mg2SnCSn2CSnTe4Mg2SnCSn2CSnTe4Mg2SnCSn2CSnTe4Mg2SnCSn2CSnTe4Mg2SnCSn2CSnTe4Mg2SnCSn2CSnTe4Mg2SnCSn2CSnTe4Mg2SnCSn2CSnTe4Mg2SnCSn2CSnTe4Mg2SnCSn2CSnTe4Mg2SnCSn2CSnTe4Mg2SnCSn2CSnTe4Mg2SnCSn2CSnTe4Mg2SnCSn2CSnTe4Mg2SnCSn2CSnTe4Mg2SnCSn2CSnTe4Mg2SnCSn2CSnTe4Mg2SnCSn2CSnTe4Mg2SnCSn2CSnTe4Mg2SnCSn2CSnTe4Mg2SnCSn2CSnTe4Mg2SnCSn2CSnTe4Mg2SnCSn2CSnTe4Mg2SnCSn2CSnTe4Mg2SnCSn2CSnTe4Mg2SnCSn2CSnTe4Mg2SnCSn2CSnTe4Mg2SnCSn2CSnTe4Mg2SnCSn2CSnTe4Mg2SnCSn2CSnTe4Mg2SnCSn2CSnTe4Mg2SnCSn2CSnTe4Mg2SnCSn2CSnTe4Mg2SnCSn2CSnTe4Mg2SnCSn2CSnTe4Mg2SnCSn2CSnTe4Mg2SnCSn2CSnTe4Mg2SnCSn2CSnTe4Mg2
_chemical_formula_sum              "H24 C108 N36 Sn168 Te168 Mg84"
_cell_length_a       42.1334
_cell_length_b       43.0589
_cell_length_c       8.39532
_cell_angle_alpha    91.8472
_cell_angle_beta     86.2719
_cell_angle_gamma    118.785

_symmetry_space_group_name_H-M    'P1'
_space_group_IT_number       1

loop_
  _space_group_symop_operation_xyz
  'x, y, z'

loop_
  _atom_site_type_symbol
  _atom_site_label
  _atom_site_symmetry_multiplicity
  _atom_site_fract_x
  _atom_site_fract_y
  _atom_site_fract_z
  _atom_site_occupancy
  H   H1        1.0  0.53054  0.84001  0.13384  1.0000
  H   H2        1.0  0.46982  0.16155  0.34716  1.0000
  H   H3        1.0  0.30925  0.84517  0.09418  1.0000
  H   H4        1.0  0.69327  0.15914  0.41192  1.0000
  H   H5        1.0  0.27234  0.39388  0.13718  1.0000
  H   H6        1.0  0.72805  0.60922  0.37499  1.0000
  H   H7        1.0  0.59848  0.72694  0.31229  1.0000
  H   H8        1.0  0.40081  0.27453  0.18602  1.0000
  H   H9        1.0  0.13048  0.72396  0.31902  1.0000
  H   H10       1.0  0.87201  0.27765  0.17314  1.0000
  H   H11       1.0  0.15470  0.46169  0.32627  1.0000
  H   H12       1.0  0.84672  0.54304  0.16913  1.0000
  H   H13       1.0  0.53541  0.83944  0.60380  1.0000
  H   H14       1.0  0.46617  0.15867  0.87270  1.0000
  H   H15       1.0  0.31303  0.83665  0.62627  1.0000
  H   H16       1.0  0.69026  0.15752  0.88135  1.0000
  H   H17       1.0  0.27743  0.40216  0.58605  1.0000
  H   H18       1.0  0.72116  0.59507  0.92009  1.0000
  H   H19       1.0  0.59734  0.72437  0.82907  1.0000
  H   H20       1.0  0.40202  0.27412  0.69087  1.0000
  H   H21       1.0  0.12815  0.72490  0.79816  1.0000
  H   H22       1.0  0.87161  0.27452  0.67807  1.0000
  H   H23       1.0  0.14608  0.44778  0.87315  1.0000
  H   H24       1.0  0.85257  0.55205  0.60789  1.0000
  C   C1        1.0  0.55353  0.84428  0.20360  1.0000
  C   C2        1.0  0.44560  0.15675  0.28561  1.0000
  C   C3        1.0  0.29112  0.84493  0.19518  1.0000
  C   C4        1.0  0.71110  0.15810  0.31253  1.0000
  C   C5        1.0  0.27492  0.41640  0.21135  1.0000
  C   C6        1.0  0.72533  0.58631  0.30347  1.0000
  C   C7        1.0  0.57157  0.72181  0.27850  1.0000
  C   C8        1.0  0.42739  0.27940  0.22367  1.0000
  C   C9        1.0  0.15253  0.71976  0.26359  1.0000
  C   C10       1.0  0.85016  0.28217  0.22853  1.0000
  C   C11       1.0  0.15081  0.43793  0.25876  1.0000
  C   C12       1.0  0.85082  0.56652  0.23965  1.0000
  C   C13       1.0  0.55448  0.84228  0.69399  1.0000
  C   C14       1.0  0.44482  0.15520  0.79395  1.0000
  C   C15       1.0  0.29230  0.84000  0.69968  1.0000
  C   C16       1.0  0.70966  0.15475  0.79582  1.0000
  C   C17       1.0  0.27587  0.41766  0.69020  1.0000
  C   C18       1.0  0.72295  0.58027  0.81365  1.0000
  C   C19       1.0  0.57146  0.71954  0.78287  1.0000
  C   C20       1.0  0.42858  0.27887  0.72801  1.0000
  C   C21       1.0  0.15023  0.71916  0.75866  1.0000
  C   C22       1.0  0.84888  0.27896  0.72156  1.0000
  C   C23       1.0  0.14682  0.43158  0.77026  1.0000
  C   C24       1.0  0.85173  0.56718  0.71469  1.0000
  N   N1        1.0  0.56887  0.00272  0.24607  1.0000
  N   N2        1.0  0.43241  0.99985  0.27131  1.0000
  N   N3        1.0  0.57527  0.87455  0.26590  1.0000
  N   N4        1.0  0.42323  0.12599  0.22971  1.0000
  N   N5        1.0  0.29971  0.87143  0.29220  1.0000
  N   N6        1.0  0.70193  0.13100  0.21872  1.0000
  N   N7        1.0  0.56322  0.56797  0.25535  1.0000
  N   N8        1.0  0.43634  0.43346  0.24015  1.0000
  N   N9        1.0  0.30398  0.43727  0.28396  1.0000
  N   N10       1.0  0.69609  0.56493  0.23293  1.0000
  N   N11       1.0  0.54547  0.68990  0.26080  1.0000
  N   N12       1.0  0.45332  0.31115  0.24709  1.0000
  N   N13       1.0  0.00628  0.57005  0.26471  1.0000
  N   N14       1.0  0.99541  0.43335  0.21959  1.0000
  N   N15       1.0  0.14706  0.68837  0.22507  1.0000
  N   N16       1.0  0.85571  0.31373  0.26483  1.0000
  N   N17       1.0  0.12098  0.41708  0.19121  1.0000
  N   N18       1.0  0.88108  0.58738  0.30444  1.0000
  N   N19       1.0  0.56681  0.99952  0.74441  1.0000
  N   N20       1.0  0.43075  0.99790  0.77380  1.0000
  N   N21       1.0  0.57248  0.87112  0.77429  1.0000
  N   N22       1.0  0.42400  0.12538  0.72575  1.0000
  N   N23       1.0  0.29877  0.86896  0.77553  1.0000
  N   N24       1.0  0.70163  0.12610  0.71409  1.0000
  N   N25       1.0  0.56330  0.56569  0.76138  1.0000
  N   N26       1.0  0.43585  0.43196  0.73869  1.0000
  N   N27       1.0  0.30166  0.43276  0.78786  1.0000
  N   N28       1.0  0.69734  0.56547  0.71489  1.0000
  N   N29       1.0  0.54615  0.68785  0.75387  1.0000
  N   N30       1.0  0.45438  0.31055  0.75262  1.0000
  N   N31       1.0  0.00478  0.56744  0.76803  1.0000
  N   N32       1.0  0.99299  0.43032  0.72993  1.0000
  N   N33       1.0  0.14444  0.68707  0.73372  1.0000
  N   N34       1.0  0.85348  0.31057  0.74858  1.0000
  N   N35       1.0  0.12039  0.41643  0.67540  1.0000
  N   N36       1.0  0.87779  0.58129  0.81153  1.0000
  C  Sn1       1.0  0.49402  0.96786  0.31230  1.0000
  C   C25       1.0  0.52665  0.99240  0.23544  1.0000
  C  Sn2       1.0  0.03871  0.02457  0.18137  1.0000
  C  Sn3       1.0  0.00965  0.03237  0.20469  1.0000
  C   C26       1.0  0.97705  0.00784  0.28153  1.0000
  C  Sn4       1.0  0.46496  0.97567  0.33562  1.0000
  O  Te1       1.0  0.49047  0.93587  0.36537  1.0000
  O  Te2       1.0  0.07159  0.04868  0.10481  1.0000
  O  Te3       1.0  0.01323  0.06439  0.15153  1.0000
  O  Te4       1.0  0.43210  0.95157  0.41216  1.0000
  Mg  Mg1       1.0  0.06328  0.08868  0.05398  1.0000
  Mg  Mg2       1.0  0.44040  0.91157  0.46311  1.0000
  C  Sn5       1.0  0.60658  0.96474  0.27511  1.0000
  C   C27       1.0  0.58007  0.97144  0.21756  1.0000
  C  Sn6       1.0  0.54585  0.94347  0.18691  1.0000
  C  Sn7       1.0  0.53795  0.90807  0.21443  1.0000
  C   C28       1.0  0.56445  0.90139  0.27197  1.0000
  C  Sn8       1.0  0.59868  0.92935  0.30263  1.0000
  O  Te5       1.0  0.64060  0.99311  0.30493  1.0000
  O  Te6       1.0  0.51979  0.95082  0.12936  1.0000
  O  Te7       1.0  0.50390  0.87969  0.18455  1.0000
  O  Te8       1.0  0.62472  0.92201  0.36017  1.0000
  Mg  Mg3       1.0  0.47742  0.90320  0.10699  1.0000
  Mg  Mg4       1.0  0.66709  0.96960  0.38266  1.0000
  C  Sn9       1.0  0.46289  0.09145  0.31121  1.0000
  C   C29       1.0  0.43895  0.09810  0.22936  1.0000
  C  Sn10      1.0  0.40767  0.07007  0.17061  1.0000
  C  Sn11      1.0  0.40015  0.03465  0.19425  1.0000
  C   C30       1.0  0.42408  0.02802  0.27608  1.0000
  C  Sn12      1.0  0.45537  0.05603  0.33485  1.0000
  O  Te9       1.0  0.49400  0.11988  0.36892  1.0000
  O  Te10      1.0  0.38414  0.07738  0.08911  1.0000
  O  Te11      1.0  0.36901  0.00622  0.13646  1.0000
  O  Te12      1.0  0.47889  0.04874  0.41633  1.0000
  Mg  Mg5       1.0  0.34527  0.02969  0.03311  1.0000
  Mg  Mg6       1.0  0.51776  0.09641  0.47245  1.0000
  C  Sn13      1.0  0.33855  0.94315  0.31755  1.0000
  C   C31       1.0  0.33265  0.91037  0.25607  1.0000
  C  Sn14      1.0  0.36195  0.90461  0.21192  1.0000
  C  Sn15      1.0  0.39788  0.93219  0.22966  1.0000
  C   C32       1.0  0.40377  0.96495  0.29113  1.0000
  C  Sn16      1.0  0.37449  0.97074  0.33530  1.0000
  O  Te13      1.0  0.30886  0.94832  0.36092  1.0000
  O  Te14      1.0  0.35537  0.87161  0.15069  1.0000
  O  Te15      1.0  0.42758  0.92700  0.18622  1.0000
  O  Te16      1.0  0.88895  0.00371  0.39652  1.0000
  Mg  Mg7       1.0  0.40473  0.87745  0.10860  1.0000
  Mg  Mg8       1.0  0.33171  0.99789  0.43871  1.0000
  C  Sn17      1.0  0.60715  0.07646  0.29445  1.0000
  C   C33       1.0  0.60005  0.04456  0.21868  1.0000
  C  Sn18      1.0  0.62856  0.03908  0.15701  1.0000
  C  Sn19      1.0  0.66492  0.06602  0.17146  1.0000
  C   C34       1.0  0.67201  0.09789  0.24721  1.0000
  C  Sn20      1.0  0.64351  0.10340  0.30890  1.0000
  O  Te17      1.0  0.57823  0.08137  0.35522  1.0000
  O  Te18      1.0  0.62078  0.00697  0.08172  1.0000
  O  Te19      1.0  0.69385  0.06108  0.11060  1.0000
  O  Te20      1.0  0.65127  0.13548  0.38418  1.0000
  Mg  Mg9       1.0  0.66945  0.01283  0.01828  1.0000
  Mg  Mg10      1.0  0.60264  0.12965  0.44773  1.0000
  C  Sn21      1.0  0.48011  0.50193  0.11922  1.0000
  C   C35       1.0  0.47323  0.47054  0.19352  1.0000
  C  Sn22      1.0  0.49465  0.47124  0.31522  1.0000
  C  Sn23      1.0  0.52355  0.50400  0.36376  1.0000
  C   C36       1.0  0.53041  0.53536  0.28950  1.0000
  C  Sn24      1.0  0.50901  0.53469  0.16775  1.0000
  O  Te21      1.0  0.44551  0.50083  0.99782  1.0000
  O  Te22      1.0  0.48725  0.43951  0.38769  1.0000
  O  Te23      1.0  0.54531  0.50531  0.48526  1.0000
  O  Te24      1.0  0.51639  0.56639  0.09533  1.0000
  Mg  Mg11      1.0  0.52451  0.45501  0.54760  1.0000
  Mg  Mg12      1.0  0.46630  0.55116  0.93548  1.0000
  C  Sn25      1.0  0.38820  0.45367  0.39245  1.0000
  C   C37       1.0  0.39773  0.43093  0.30499  1.0000
  C  Sn26      1.0  0.37628  0.40984  0.18350  1.0000
  C  Sn27      1.0  0.34466  0.41153  0.14863  1.0000
  C   C38       1.0  0.33514  0.43427  0.23604  1.0000
  C  Sn28      1.0  0.35657  0.45536  0.35758  1.0000
  O  Te25      1.0  0.41004  0.47452  0.51337  1.0000
  O  Te26      1.0  0.38635  0.38730  0.09774  1.0000
  O  Te27      1.0  0.32281  0.39066  0.02760  1.0000
  O  Te28      1.0  0.34652  0.47789  0.44329  1.0000
  Mg  Mg13      1.0  0.33500  0.36438  0.94421  1.0000
  Mg  Mg14      1.0  0.38502  0.50108  0.59678  1.0000
  C  Sn29      1.0  0.65002  0.59060  0.37384  1.0000
  C   C39       1.0  0.66008  0.56762  0.29198  1.0000
  C  Sn30      1.0  0.63951  0.54619  0.16911  1.0000
  C  Sn31      1.0  0.60826  0.54777  0.12711  1.0000
  C   C40       1.0  0.59822  0.57074  0.20893  1.0000
  C  Sn32      1.0  0.61876  0.59219  0.33184  1.0000
  O  Te29      1.0  0.67098  0.61179  0.49626  1.0000
  O  Te30      1.0  0.65010  0.52341  0.08904  1.0000
  O  Te31      1.0  0.58729  0.52655  0.00458  1.0000
  O  Te32      1.0  0.60820  0.61495  0.41187  1.0000
  Mg  Mg15      1.0  0.59991  0.50005  0.93075  1.0000
  Mg  Mg16      1.0  0.64553  0.63858  0.57011  1.0000
  C  Sn33      1.0  0.20564  0.40015  0.11721  1.0000
  C   C41       1.0  0.23990  0.42215  0.17412  1.0000
  C  Sn34      1.0  0.24482  0.44871  0.28536  1.0000
  C  Sn35      1.0  0.21486  0.45336  0.34098  1.0000
  C   C42       1.0  0.18063  0.43136  0.28411  1.0000
  C  Sn36      1.0  0.17569  0.40480  0.17283  1.0000
  O  Te33      1.0  0.20135  0.37376  0.00602  1.0000
  O  Te34      1.0  0.27933  0.47039  0.34047  1.0000
  O  Te35      1.0  0.21918  0.47977  0.45225  1.0000
  O  Te36      1.0  0.14120  0.38312  0.11775  1.0000
  Mg  Mg17      1.0  0.27147  0.50261  0.49170  1.0000
  Mg  Mg18      1.0  0.13618  0.35112  0.96660  1.0000
  C  Sn37      1.0  0.78092  0.54987  0.15611  1.0000
  C   C43       1.0  0.81550  0.57235  0.20877  1.0000
  C  Sn38      1.0  0.82081  0.59914  0.31926  1.0000
  C  Sn39      1.0  0.79092  0.60355  0.37844  1.0000
  C   C44       1.0  0.75636  0.58108  0.32581  1.0000
  C  Sn40      1.0  0.75104  0.55428  0.21529  1.0000
  O  Te37      1.0  0.77625  0.52326  0.04560  1.0000
  O  Te38      1.0  0.85563  0.62129  0.37009  1.0000
  O  Te39      1.0  0.79562  0.63019  0.48902  1.0000
  O  Te40      1.0  0.71624  0.53214  0.16449  1.0000
  Mg  Mg19      1.0  0.84824  0.65366  0.52205  1.0000
  Mg  Mg20      1.0  0.72359  0.49975  0.01260  1.0000
  C  Sn41      1.0  0.59344  0.64165  0.21858  1.0000
  C   C45       1.0  0.56992  0.60864  0.28685  1.0000
  C  Sn42      1.0  0.53434  0.60009  0.33613  1.0000
  C  Sn43      1.0  0.52201  0.62505  0.31669  1.0000
  C   C46       1.0  0.54552  0.65803  0.24843  1.0000
  C  Sn44      1.0  0.58111  0.66660  0.19914  1.0000
  O  Te41      1.0  0.62889  0.64962  0.17017  1.0000
  O  Te42      1.0  0.51133  0.56693  0.40411  1.0000
  O  Te43      1.0  0.48653  0.61704  0.36518  1.0000
  O  Te44      1.0  0.60411  0.69974  0.13117  1.0000
  Mg  Mg21      1.0  0.46543  0.56842  0.45125  1.0000
  Mg  Mg22      1.0  0.65001  0.69827  0.08391  1.0000
  C  Sn45      1.0  0.40751  0.34219  0.27392  1.0000
  C   C47       1.0  0.43654  0.33761  0.21131  1.0000
  C  Sn46      1.0  0.46998  0.36697  0.17035  1.0000
  C  Sn47      1.0  0.47452  0.40164  0.19253  1.0000
  C   C48       1.0  0.44551  0.40621  0.25514  1.0000
  C  Sn48      1.0  0.41205  0.37686  0.29610  1.0000
  O  Te45      1.0  0.37432  0.31246  0.31404  1.0000
  O  Te46      1.0  0.49859  0.36171  0.10791  1.0000
  O  Te47      1.0  0.50774  0.43137  0.15235  1.0000
  O  Te48      1.0  0.38345  0.38210  0.35854  1.0000
  Mg  Mg23      1.0  0.53858  0.41058  0.07145  1.0000
  Mg  Mg24      1.0  0.34346  0.33326  0.39511  1.0000
  C  Sn49      1.0  0.59770  0.81317  0.25881  1.0000
  C   C49       1.0  0.56854  0.81481  0.19689  1.0000
  C  Sn50      1.0  0.53581  0.78390  0.17641  1.0000
  C  Sn51      1.0  0.53213  0.75066  0.21878  1.0000
  C   C50       1.0  0.56127  0.74903  0.28068  1.0000
  C  Sn52      1.0  0.59402  0.77993  0.30118  1.0000
  O  Te49      1.0  0.63017  0.84441  0.27828  1.0000
  O  Te50      1.0  0.50705  0.78621  0.11424  1.0000
  O  Te51      1.0  0.49963  0.71941  0.19926  1.0000
  O  Te52      1.0  0.62276  0.77763  0.36334  1.0000
  Mg  Mg25      1.0  0.46826  0.73623  0.11006  1.0000
  Mg  Mg26      1.0  0.66156  0.82760  0.36764  1.0000
  C  Sn53      1.0  0.41214  0.19220  0.14693  1.0000
  C   C51       1.0  0.43998  0.18969  0.21726  1.0000
  C  Sn54      1.0  0.46313  0.21670  0.31672  1.0000
  C  Sn55      1.0  0.45832  0.24682  0.34659  1.0000
  C   C52       1.0  0.43048  0.24931  0.27630  1.0000
  C  Sn56      1.0  0.40733  0.22232  0.17680  1.0000
  O  Te53      1.0  0.38932  0.16488  0.04791  1.0000
  O  Te54      1.0  0.49078  0.21360  0.38564  1.0000
  O  Te55      1.0  0.48117  0.27414  0.44570  1.0000
  O  Te56      1.0  0.37969  0.22540  0.10792  1.0000
  Mg  Mg27      1.0  0.51488  0.25775  0.51194  1.0000
  Mg  Mg28      1.0  0.34273  0.18150  0.98168  1.0000
  C  Sn57      1.0  0.96502  0.47741  0.29855  1.0000
  C   C53       1.0  0.98806  0.46720  0.21277  1.0000
  C  Sn58      1.0  0.02238  0.49270  0.15424  1.0000
  C  Sn59      1.0  0.03393  0.52916  0.18211  1.0000
  C   C54       1.0  0.01090  0.53935  0.26786  1.0000
  C  Sn60      1.0  0.97657  0.51387  0.32641  1.0000
  O  Te57      1.0  0.93083  0.45146  0.35595  1.0000
  O  Te58      1.0  0.04492  0.48185  0.06877  1.0000
  O  Te59      1.0  0.06815  0.55511  0.12462  1.0000
  O  Te60      1.0  0.95404  0.52470  0.41186  1.0000
  Mg  Mg29      1.0  0.08905  0.52714  0.01492  1.0000
  Mg  Mg30      1.0  0.90992  0.47943  0.46583  1.0000
  C  Sn61      1.0  0.07566  0.61012  0.38120  1.0000
  C   C55       1.0  0.04459  0.60531  0.30944  1.0000
  C  Sn62      1.0  0.04735  0.62733  0.18468  1.0000
  C  Sn63      1.0  0.08190  0.65471  0.13043  1.0000
  C   C56       1.0  0.11294  0.65951  0.20216  1.0000
  C  Sn64      1.0  0.11020  0.63750  0.32696  1.0000
  O  Te61      1.0  0.07226  0.58779  0.50574  1.0000
  O  Te62      1.0  0.01591  0.62201  0.11484  1.0000
  O  Te63      1.0  0.08528  0.67704  0.00580  1.0000
  O  Te64      1.0  0.14163  0.64280  0.39676  1.0000
  Mg  Mg31      1.0  0.02170  0.65951  0.94890  1.0000
  Mg  Mg32      1.0  0.12303  0.60555  0.56264  1.0000
  C  Sn65      1.0  0.92056  0.40179  0.20757  1.0000
  C   C57       1.0  0.95336  0.40503  0.25280  1.0000
  C  Sn66      1.0  0.95607  0.37493  0.28783  1.0000
  C  Sn67      1.0  0.92536  0.34087  0.27735  1.0000
  C   C58       1.0  0.89258  0.33764  0.23212  1.0000
  C  Sn68      1.0  0.88984  0.36774  0.19709  1.0000
  O  Te65      1.0  0.91847  0.43225  0.17309  1.0000
  O  Te66      1.0  0.98915  0.37883  0.33284  1.0000
  O  Te67      1.0  0.92747  0.31040  0.31188  1.0000
  O  Te68      1.0  0.85679  0.36384  0.15208  1.0000
  Mg  Mg33      1.0  0.97845  0.32940  0.36783  1.0000
  Mg  Mg34      1.0  0.86746  0.41326  0.11699  1.0000
  C  Sn69      1.0  0.22375  0.80316  0.36615  1.0000
  C   C59       1.0  0.25370  0.80869  0.26516  1.0000
  C  Sn70      1.0  0.24969  0.78603  0.13608  1.0000
  C  Sn71      1.0  0.21500  0.75727  0.10725  1.0000
  C   C60       1.0  0.18507  0.75176  0.20818  1.0000
  C  Sn72      1.0  0.18907  0.77440  0.33733  1.0000
  O  Te69      1.0  0.22839  0.82615  0.49448  1.0000
  O  Te70      1.0  0.28004  0.79209  0.03680  1.0000
  O  Te71      1.0  0.19754  0.73452  0.97880  1.0000
  O  Te72      1.0  0.15874  0.76837  0.43654  1.0000
  Mg  Mg35      1.0  0.24708  0.75372  0.87736  1.0000
  Mg  Mg36      1.0  0.17882  0.80696  0.59596  1.0000
  C  Sn73      1.0  0.78569  0.19088  0.21621  1.0000
  C   C61       1.0  0.75500  0.18730  0.30603  1.0000
  C  Sn74      1.0  0.75308  0.21726  0.36246  1.0000
  C  Sn75      1.0  0.78243  0.25151  0.32834  1.0000
  C   C62       1.0  0.81309  0.25508  0.23856  1.0000
  C  Sn76      1.0  0.81505  0.22514  0.18209  1.0000
  O  Te73      1.0  0.78703  0.16057  0.16100  1.0000
  O  Te74      1.0  0.72212  0.21300  0.45206  1.0000
  O  Te75      1.0  0.78107  0.28184  0.38365  1.0000
  O  Te76      1.0  0.84598  0.22938  0.09252  1.0000
  Mg  Mg37      1.0  0.73309  0.26236  0.50074  1.0000
  Mg  Mg38      1.0  0.83502  0.18004  0.04372  1.0000
  C  Sn77      1.0  0.06965  0.46187  0.26350  1.0000
  C   C63       1.0  0.03748  0.44054  0.18839  1.0000
  C  Sn78      1.0  0.03030  0.40730  0.12825  1.0000
  C  Sn79      1.0  0.05579  0.39511  0.14359  1.0000
  C   C64       1.0  0.08793  0.41642  0.21868  1.0000
  C  Sn80      1.0  0.09514  0.44967  0.27883  1.0000
  O  Te77      1.0  0.07626  0.49500  0.32274  1.0000
  O  Te78      1.0  0.99795  0.38647  0.05358  1.0000
  O  Te79      1.0  0.04915  0.36194  0.08426  1.0000
  O  Te80      1.0  0.12746  0.47049  0.35348  1.0000
  Mg  Mg39      1.0  0.98839  0.34351  0.99229  1.0000
  Mg  Mg40      1.0  0.12420  0.51368  0.41490  1.0000
  C  Sn81      1.0  0.91331  0.54301  0.25075  1.0000
  C   C65       1.0  0.90840  0.57080  0.31563  1.0000
  C  Sn82      1.0  0.93831  0.60312  0.35201  1.0000
  C  Sn83      1.0  0.97387  0.60776  0.32285  1.0000
  C   C66       1.0  0.97876  0.57999  0.25799  1.0000
  C  Sn84      1.0  0.94887  0.54766  0.22160  1.0000
  O  Te81      1.0  0.88302  0.51094  0.21530  1.0000
  O  Te82      1.0  0.93271  0.63051  0.41683  1.0000
  O  Te83      1.0  0.00416  0.63987  0.35837  1.0000
  O  Te84      1.0  0.95445  0.52028  0.15679  1.0000
  Mg  Mg41      1.0  0.98260  0.66926  0.44497  1.0000
  Mg  Mg42      1.0  0.90459  0.48153  0.12852  1.0000
  C  Sn85      1.0  0.49172  0.96493  0.81138  1.0000
  C   C67       1.0  0.52437  0.98898  0.73284  1.0000
  C  Sn86      1.0  0.03694  0.02132  0.67867  1.0000
  C  Sn87      1.0  0.00839  0.02983  0.70360  1.0000
  C   C68       1.0  0.97577  0.00580  0.78212  1.0000
  C  Sn88      1.0  0.46318  0.97344  0.83631  1.0000
  O  Te85      1.0  0.48766  0.93275  0.86452  1.0000
  O  Te86      1.0  0.06982  0.04493  0.60042  1.0000
  O  Te87      1.0  0.01248  0.06205  0.65038  1.0000
  O  Te88      1.0  0.43033  0.94985  0.91454  1.0000
  Mg  Mg43      1.0  0.06231  0.08546  0.55020  1.0000
  Mg  Mg44      1.0  0.43781  0.90932  0.96488  1.0000
  C  Sn89      1.0  0.58958  0.93723  0.88047  1.0000
  C   C69       1.0  0.56689  0.90520  0.80660  1.0000
  C  Sn90      1.0  0.54568  0.90436  0.68368  1.0000
  C  Sn91      1.0  0.54720  0.93621  0.63344  1.0000
  C   C70       1.0  0.56989  0.96822  0.70727  1.0000
  C  Sn92      1.0  0.59110  0.96908  0.83024  1.0000
  O  Te89      1.0  0.62338  0.93721  0.00311  1.0000
  O  Te90      1.0  0.52319  0.87201  0.61168  1.0000
  O  Te91      1.0  0.52621  0.93597  0.51070  1.0000
  O  Te92      1.0  0.12149  0.00140  0.90219  1.0000
  Mg  Mg45      1.0  0.49982  0.88535  0.44963  1.0000
  Mg  Mg46      1.0  0.64982  0.98786  0.06419  1.0000
  C  Sn93      1.0  0.45312  0.06778  0.87473  1.0000
  C   C71       1.0  0.42852  0.03447  0.81720  1.0000
  C  Sn94      1.0  0.40385  0.03132  0.70604  1.0000
  C  Sn95      1.0  0.40379  0.06209  0.65114  1.0000
  C   C72       1.0  0.42838  0.09537  0.70864  1.0000
  C  Sn96      1.0  0.45305  0.09855  0.81983  1.0000
  O  Te93      1.0  0.47753  0.07030  0.98582  1.0000
  O  Te94      1.0  0.87161  0.99774  0.65030  1.0000
  O  Te95      1.0  0.37934  0.05954  0.53997  1.0000
  O  Te96      1.0  0.47739  0.13211  0.87554  1.0000
  Mg  Mg47      1.0  0.35151  0.00797  0.49949  1.0000
  Mg  Mg48      1.0  0.51825  0.12168  0.02628  1.0000
  C  Sn97      1.0  0.38833  0.93115  0.64289  1.0000
  C   C73       1.0  0.39482  0.96182  0.72858  1.0000
  C  Sn98      1.0  0.37038  0.96069  0.85195  1.0000
  C  Sn99      1.0  0.33881  0.92822  0.89054  1.0000
  C   C74       1.0  0.33233  0.89757  0.80490  1.0000
  C  Sn100     1.0  0.35675  0.89868  0.68149  1.0000
  O  Te97      1.0  0.41313  0.93290  0.52004  1.0000
  O  Te98      1.0  0.37744  0.99170  0.93588  1.0000
  O  Te99      1.0  0.32684  0.92625  0.01351  1.0000
  O  Te100     1.0  0.34970  0.86769  0.59760  1.0000
  Mg  Mg49      1.0  0.34840  0.97561  0.09321  1.0000
  Mg  Mg50      1.0  0.39158  0.88351  0.44031  1.0000
  C  Sn101     1.0  0.63045  0.08566  0.85639  1.0000
  C   C75       1.0  0.66341  0.09249  0.77756  1.0000
  C  Sn102     1.0  0.66461  0.06938  0.65959  1.0000
  C  Sn103     1.0  0.63217  0.03883  0.61949  1.0000
  C   C76       1.0  0.59924  0.03201  0.69827  1.0000
  C  Sn104     1.0  0.59801  0.05510  0.81628  1.0000
  O  Te101     1.0  0.62989  0.10912  0.97393  1.0000
  O  Te102     1.0  0.69789  0.07676  0.58248  1.0000
  O  Te103     1.0  0.63276  0.01536  0.50184  1.0000
  O  Te104     1.0  0.56476  0.04773  0.89334  1.0000
  Mg  Mg51      1.0  0.68469  0.03685  0.43059  1.0000
  Mg  Mg52      1.0  0.59076  0.08740  0.04519  1.0000
  C  Sn105     1.0  0.50151  0.47806  0.87126  1.0000
  C   C77       1.0  0.47002  0.46896  0.79206  1.0000
  C  Sn106     1.0  0.46986  0.49137  0.67581  1.0000
  C  Sn107     1.0  0.50186  0.52354  0.63785  1.0000
  C   C78       1.0  0.53332  0.53262  0.71700  1.0000
  C  Sn108     1.0  0.53350  0.51022  0.83329  1.0000
  O  Te105     1.0  0.50104  0.45525  0.98706  1.0000
  O  Te106     1.0  0.43805  0.48171  0.59829  1.0000
  O  Te107     1.0  0.50230  0.54634  0.52195  1.0000
  O  Te108     1.0  0.56529  0.51987  0.91077  1.0000
  Mg  Mg53      1.0  0.45223  0.52156  0.44931  1.0000
  Mg  Mg54      1.0  0.56398  0.47979  0.05970  1.0000
  C  Sn109     1.0  0.38833  0.45399  0.88161  1.0000
  C   C79       1.0  0.39762  0.43019  0.80256  1.0000
  C  Sn110     1.0  0.37488  0.40620  0.69176  1.0000
  C  Sn111     1.0  0.34217  0.40600  0.65922  1.0000
  C   C80       1.0  0.33289  0.42980  0.73823  1.0000
  C  Sn112     1.0  0.35562  0.45379  0.84907  1.0000
  O  Te109     1.0  0.41147  0.47774  0.99191  1.0000
  O  Te110     1.0  0.38474  0.38265  0.61426  1.0000
  O  Te111     1.0  0.31902  0.38222  0.54883  1.0000
  O  Te112     1.0  0.34577  0.47734  0.92652  1.0000
  Mg  Mg55      1.0  0.34427  0.35535  0.47391  1.0000
  Mg  Mg56      1.0  0.39907  0.50442  0.06683  1.0000
  C  Sn113     1.0  0.65081  0.58839  0.87205  1.0000
  C   C81       1.0  0.66119  0.56658  0.78186  1.0000
  C  Sn114     1.0  0.64014  0.54569  0.65895  1.0000
  C  Sn115     1.0  0.60805  0.54663  0.62541  1.0000
  C   C82       1.0  0.59769  0.56843  0.71555  1.0000
  C  Sn116     1.0  0.61872  0.58933  0.83851  1.0000
  O  Te113     1.0  0.67227  0.60905  0.99436  1.0000
  O  Te114     1.0  0.65107  0.52409  0.57046  1.0000
  O  Te115     1.0  0.58660  0.52595  0.50299  1.0000
  O  Te116     1.0  0.60781  0.61092  0.92695  1.0000
  Mg  Mg57      1.0  0.61280  0.50082  0.41591  1.0000
  Mg  Mg58      1.0  0.65891  0.63398  0.08147  1.0000
  C  Sn117     1.0  0.22138  0.45766  0.80727  1.0000
  C   C83       1.0  0.18881  0.43820  0.73223  1.0000
  C  Sn118     1.0  0.18152  0.40669  0.65232  1.0000
  C  Sn119     1.0  0.20730  0.39437  0.64738  1.0000
  C   C84       1.0  0.23984  0.41382  0.72241  1.0000
  C  Sn120     1.0  0.24717  0.44533  0.80233  1.0000
  O  Te117     1.0  0.22810  0.48908  0.88647  1.0000
  O  Te118     1.0  0.14877  0.38770  0.57815  1.0000
  O  Te119     1.0  0.20056  0.36292  0.56809  1.0000
  O  Te120     1.0  0.27988  0.46431  0.87649  1.0000
  Mg  Mg59      1.0  0.15206  0.34642  0.48532  1.0000
  Mg  Mg60      1.0  0.27662  0.50559  0.96942  1.0000
  C  Sn121     1.0  0.75927  0.54298  0.69351  1.0000
  C   C85       1.0  0.75304  0.56531  0.80016  1.0000
  C  Sn122     1.0  0.78200  0.59380  0.87083  1.0000
  C  Sn123     1.0  0.81795  0.60011  0.83407  1.0000
  C   C86       1.0  0.82417  0.57778  0.72747  1.0000
  C  Sn124     1.0  0.79522  0.54928  0.65676  1.0000
  O  Te121     1.0  0.72991  0.51466  0.62426  1.0000
  O  Te122     1.0  0.77508  0.61576  0.97713  1.0000
  O  Te123     1.0  0.84731  0.62845  0.90344  1.0000
  O  Te124     1.0  0.80212  0.52734  0.55050  1.0000
  Mg  Mg61      1.0  0.83691  0.65068  0.04078  1.0000
  Mg  Mg62      1.0  0.75316  0.49218  0.48672  1.0000
  C  Sn125     1.0  0.59398  0.63934  0.72663  1.0000
  C   C87       1.0  0.56956  0.60609  0.79020  1.0000
  C  Sn126     1.0  0.53360  0.59754  0.83076  1.0000
  C  Sn127     1.0  0.52179  0.62275  0.80720  1.0000
  C   C88       1.0  0.54620  0.65598  0.74364  1.0000
  C  Sn128     1.0  0.58217  0.66455  0.70306  1.0000
  O  Te125     1.0  0.62981  0.64732  0.68692  1.0000
  O  Te126     1.0  0.50969  0.56412  0.89419  1.0000
  O  Te127     1.0  0.48593  0.61474  0.84698  1.0000
  O  Te128     1.0  0.60607  0.69794  0.63965  1.0000
  Mg  Mg63      1.0  0.46358  0.56573  0.92959  1.0000
  Mg  Mg64      1.0  0.65218  0.69636  0.60413  1.0000
  C  Sn129     1.0  0.46508  0.38978  0.60914  1.0000
  C   C89       1.0  0.43824  0.39568  0.68832  1.0000
  C  Sn130     1.0  0.41683  0.37398  0.81533  1.0000
  C  Sn131     1.0  0.42237  0.34581  0.86430  1.0000
  C   C90       1.0  0.44920  0.33993  0.78516  1.0000
  C  Sn132     1.0  0.47062  0.36161  0.65810  1.0000
  O  Te129     1.0  0.48617  0.41180  0.48247  1.0000
  O  Te130     1.0  0.39015  0.38038  0.89262  1.0000
  O  Te131     1.0  0.40124  0.32378  0.99107  1.0000
  O  Te132     1.0  0.49728  0.35522  0.58086  1.0000
  Mg  Mg65      1.0  0.38119  0.34290  0.05874  1.0000
  Mg  Mg66      1.0  0.51912  0.39246  0.41479  1.0000
  C  Sn133     1.0  0.58457  0.78803  0.87222  1.0000
  C   C91       1.0  0.56518  0.75442  0.80460  1.0000
  C  Sn134     1.0  0.54354  0.74931  0.67672  1.0000
  C  Sn135     1.0  0.54125  0.77840  0.61505  1.0000
  C   C92       1.0  0.56064  0.81199  0.68264  1.0000
  C  Sn136     1.0  0.58228  0.81712  0.81055  1.0000
  O  Te133     1.0  0.60604  0.79252  1.00000  1.0000
  O  Te134     1.0  0.52439  0.71545  0.61113  1.0000
  O  Te135     1.0  0.51976  0.77388  0.48718  1.0000
  O  Te136     1.0  0.60143  0.85095  0.87610  1.0000
  Mg  Mg67      1.0  0.49883  0.72271  0.43832  1.0000
  Mg  Mg68      1.0  0.63986  0.84349  0.04886  1.0000
  C  Sn137     1.0  0.47202  0.24679  0.78649  1.0000
  C   C93       1.0  0.44450  0.24957  0.71448  1.0000
  C  Sn138     1.0  0.41209  0.21921  0.68256  1.0000
  C  Sn139     1.0  0.40706  0.18538  0.72357  1.0000
  C   C94       1.0  0.43456  0.18261  0.79557  1.0000
  C  Sn140     1.0  0.46699  0.21296  0.82750  1.0000
  O  Te137     1.0  0.50420  0.27750  0.81730  1.0000
  O  Te138     1.0  0.38498  0.22265  0.61043  1.0000
  O  Te139     1.0  0.37485  0.15466  0.69269  1.0000
  O  Te140     1.0  0.49409  0.20953  0.89961  1.0000
  Mg  Mg69      1.0  0.34594  0.17303  0.59267  1.0000
  Mg  Mg70      1.0  0.53313  0.25913  0.91750  1.0000
  C  Sn141     1.0  0.02070  0.51770  0.61362  1.0000
  C   C95       1.0  0.99950  0.52893  0.70751  1.0000
  C  Sn142     1.0  0.97666  0.50796  0.83340  1.0000
  C  Sn143     1.0  0.97497  0.47508  0.86622  1.0000
  C   C96       1.0  0.99617  0.46386  0.77239  1.0000
  C  Sn144     1.0  0.01902  0.48482  0.64644  1.0000
  O  Te141     1.0  0.04335  0.53909  0.48837  1.0000
  O  Te142     1.0  0.95571  0.51975  0.92557  1.0000
  O  Te143     1.0  0.95230  0.45368  0.99159  1.0000
  O  Te144     1.0  0.03995  0.47304  0.55432  1.0000
  Mg  Mg71      1.0  0.94189  0.48098  0.08318  1.0000
  Mg  Mg72      1.0  0.06664  0.51157  0.39674  1.0000
  C  Sn145     1.0  0.06839  0.65771  0.72762  1.0000
  C   C97       1.0  0.10113  0.66128  0.77558  1.0000
  C  Sn146     1.0  0.10447  0.63131  0.80603  1.0000
  C  Sn147     1.0  0.07447  0.59705  0.78808  1.0000
  C   C98       1.0  0.04175  0.59349  0.74012  1.0000
  C  Sn148     1.0  0.03838  0.62345  0.70967  1.0000
  O  Te145     1.0  0.06566  0.68804  0.69781  1.0000
  O  Te146     1.0  0.13748  0.63556  0.85389  1.0000
  O  Te147     1.0  0.07722  0.56672  0.81793  1.0000
  O  Te148     1.0  0.00540  0.61922  0.66181  1.0000
  Mg  Mg73      1.0  0.12781  0.58618  0.88033  1.0000
  Mg  Mg74      1.0  0.01504  0.66857  0.63526  1.0000
  C  Sn149     1.0  0.90361  0.37505  0.62091  1.0000
  C   C99       1.0  0.89238  0.34249  0.69476  1.0000
  C  Sn150     1.0  0.91401  0.33892  0.80422  1.0000
  C  Sn151     1.0  0.94754  0.36852  0.84072  1.0000
  C   C100      1.0  0.95875  0.40105  0.76692  1.0000
  C  Sn152     1.0  0.93714  0.40465  0.65741  1.0000
  O  Te149     1.0  0.88155  0.37802  0.51186  1.0000
  O  Te150     1.0  0.90221  0.30610  0.87648  1.0000
  O  Te151     1.0  0.96960  0.36553  0.94986  1.0000
  O  Te152     1.0  0.94892  0.43745  0.58520  1.0000
  Mg  Mg75      1.0  0.95463  0.31509  0.01710  1.0000
  Mg  Mg76      1.0  0.90936  0.42826  0.44463  1.0000
  C  Sn153     1.0  0.19646  0.79321  0.74921  1.0000
  C   C101      1.0  0.18605  0.75811  0.70656  1.0000
  C  Sn154     1.0  0.21212  0.74709  0.67704  1.0000
  C  Sn155     1.0  0.24936  0.77167  0.69053  1.0000
  C   C102      1.0  0.25975  0.80675  0.73319  1.0000
  C  Sn156     1.0  0.23371  0.81780  0.76270  1.0000
  O  Te153     1.0  0.16994  0.80364  0.77818  1.0000
  O  Te154     1.0  0.20105  0.71185  0.63452  1.0000
  O  Te155     1.0  0.27589  0.76121  0.66152  1.0000
  O  Te156     1.0  0.24475  0.85301  0.80523  1.0000
  Mg  Mg77      1.0  0.24734  0.71038  0.60714  1.0000
  Mg  Mg78      1.0  0.19849  0.85451  0.83271  1.0000
  C  Sn157     1.0  0.79896  0.20992  0.63268  1.0000
  C   C103      1.0  0.80960  0.24347  0.69885  1.0000
  C  Sn158     1.0  0.78837  0.24809  0.82229  1.0000
  C  Sn159     1.0  0.75584  0.21856  0.88090  1.0000
  C   C104      1.0  0.74522  0.18504  0.81477  1.0000
  C  Sn160     1.0  0.76643  0.18039  0.69130  1.0000
  O  Te157     1.0  0.82060  0.20591  0.50937  1.0000
  O  Te158     1.0  0.79955  0.28188  0.88649  1.0000
  O  Te159     1.0  0.74703  0.22236  0.00431  1.0000
  O  Te160     1.0  0.75526  0.14662  0.62713  1.0000
  Mg  Mg79      1.0  0.77372  0.27365  0.05289  1.0000
  Mg  Mg80      1.0  0.79392  0.15459  0.46079  1.0000
  C  Sn161     1.0  0.06800  0.46022  0.75052  1.0000
  C   C105      1.0  0.03432  0.43688  0.69172  1.0000
  C  Sn162     1.0  0.02678  0.40288  0.64164  1.0000
  C  Sn163     1.0  0.05346  0.39196  0.65061  1.0000
  C   C106      1.0  0.08711  0.41529  0.70941  1.0000
  C  Sn164     1.0  0.09467  0.44930  0.75949  1.0000
  O  Te161     1.0  0.07494  0.49409  0.79993  1.0000
  O  Te162     1.0  0.99292  0.38002  0.58323  1.0000
  O  Te163     1.0  0.04649  0.35806  0.60113  1.0000
  O  Te164     1.0  0.12851  0.47215  0.81789  1.0000
  Mg  Mg81      1.0  0.99633  0.33654  0.53049  1.0000
  Mg  Mg82      1.0  0.12512  0.51563  0.87075  1.0000
  C  Sn165     1.0  0.95015  0.60790  0.84789  1.0000
  C   C107      1.0  0.91817  0.58692  0.77088  1.0000
  C  Sn166     1.0  0.91185  0.55462  0.70196  1.0000
  C  Sn167     1.0  0.93802  0.54304  0.71025  1.0000
  C   C108      1.0  0.96998  0.56401  0.78724  1.0000
  C  Sn168     1.0  0.97633  0.59632  0.85618  1.0000
  O  Te165     1.0  0.95590  0.64010  0.91596  1.0000
  O  Te166     1.0  0.87968  0.53411  0.62557  1.0000
  O  Te167     1.0  0.93224  0.51082  0.64209  1.0000
  O  Te168     1.0  0.00847  0.61682  0.93255  1.0000
  Mg  Mg83      1.0  0.88424  0.49226  0.55113  1.0000
  Mg  Mg84      1.0  0.01677  0.65843  0.00709  1.0000
