data_image0
_chemical_formula_structural       H72C144S24N36SnCSn2CSnTe4Mg2SnCSn2CSnTe4Mg2SnCSn2CSnTe4Mg2SnCSn2CSnTe4Mg2SnCSn2CSnTe4Mg2SnCSn2CSnTe4Mg2SnCSn2CSnTe4Mg2SnCSn2CSnTe4Mg2SnCSn2CSnTe4Mg2SnCSn2CSnTe4Mg2SnCSn2CSnTe4Mg2SnCSn2CSnTe4Mg2SnCSn2CSnTe4Mg2SnCSn2CSnTe4Mg2SnCSn2CSnTe4Mg2SnCSn2CSnTe4Mg2SnCSn2CSnTe4Mg2SnCSn2CSnTe4Mg2SnCSn2CSnTe4Mg2SnCSn2CSnTe4Mg2SnCSn2CSnTe4Mg2SnCSn2CSnTe4Mg2SnCSn2CSnTe4Mg2SnCSn2CSnTe4Mg2SnCSn2CSnTe4Mg2SnCSn2CSnTe4Mg2SnCSn2CSnTe4Mg2SnCSn2CSnTe4Mg2SnCSn2CSnTe4Mg2SnCSn2CSnTe4Mg2
_chemical_formula_sum              "H72 C204 S24 N36 Sn120 Te120 Mg60"
_cell_length_a       50.7302
_cell_length_b       50.892
_cell_length_c       8.37379
_cell_angle_alpha    101.116
_cell_angle_beta     79.1061
_cell_angle_gamma    119.887

_symmetry_space_group_name_H-M    'P1'
_space_group_IT_number       1

loop_
  _space_group_symop_operation_xyz
  'x, y, z'

loop_
  _atom_site_type_symbol
  _atom_site_label
  _atom_site_symmetry_multiplicity
  _atom_site_fract_x
  _atom_site_fract_y
  _atom_site_fract_z
  _atom_site_occupancy
  H   H1        1.0  0.51804  0.85526  0.54407  1.0000
  H   H2        1.0  0.48135  0.14668  0.94834  1.0000
  H   H3        1.0  0.50518  0.79752  0.53276  1.0000
  H   H4        1.0  0.49716  0.20613  0.95038  1.0000
  H   H5        1.0  0.34711  0.86333  0.31590  1.0000
  H   H6        1.0  0.66042  0.13981  0.17066  1.0000
  H   H7        1.0  0.30588  0.80728  0.25837  1.0000
  H   H8        1.0  0.70079  0.19726  0.21462  1.0000
  H   H9        1.0  0.30542  0.41399  0.34495  1.0000
  H   H10       1.0  0.69662  0.58395  0.11642  1.0000
  H   H11       1.0  0.24755  0.40238  0.36680  1.0000
  H   H12       1.0  0.75502  0.59595  0.08273  1.0000
  H   H13       1.0  0.26262  0.49989  0.08378  1.0000
  H   H14       1.0  0.74447  0.50718  0.42465  1.0000
  H   H15       1.0  0.19320  0.40411  0.35584  1.0000
  H   H16       1.0  0.81017  0.59623  0.09619  1.0000
  H   H17       1.0  0.58655  0.69528  0.30780  1.0000
  H   H18       1.0  0.41541  0.30086  0.14148  1.0000
  H   H19       1.0  0.59849  0.75253  0.33102  1.0000
  H   H20       1.0  0.40144  0.24250  0.13511  1.0000
  H   H21       1.0  0.49652  0.73849  0.09297  1.0000
  H   H22       1.0  0.50017  0.25729  0.41023  1.0000
  H   H23       1.0  0.59827  0.80677  0.31711  1.0000
  H   H24       1.0  0.40048  0.18798  0.16779  1.0000
  H   H25       1.0  0.10224  0.68303  0.06964  1.0000
  H   H26       1.0  0.88842  0.31079  0.41632  1.0000
  H   H27       1.0  0.14412  0.73997  0.16827  1.0000
  H   H28       1.0  0.84559  0.25369  0.32713  1.0000
  H   H29       1.0  0.25160  0.75165  0.23149  1.0000
  H   H30       1.0  0.75465  0.25380  0.23256  1.0000
  H   H31       1.0  0.19796  0.79635  0.20546  1.0000
  H   H32       1.0  0.79173  0.19759  0.30294  1.0000
  H   H33       1.0  0.14842  0.48614  0.07246  1.0000
  H   H34       1.0  0.85821  0.52184  0.42498  1.0000
  H   H35       1.0  0.19830  0.49161  0.60338  1.0000
  H   H36       1.0  0.79459  0.49813  0.86549  1.0000
  H   H37       1.0  0.51468  0.85376  0.06609  1.0000
  H   H38       1.0  0.48518  0.14535  0.44881  1.0000
  H   H39       1.0  0.49784  0.79348  0.06598  1.0000
  H   H40       1.0  0.49930  0.20331  0.44479  1.0000
  H   H41       1.0  0.33276  0.86627  0.78509  1.0000
  H   H42       1.0  0.65950  0.13006  0.75318  1.0000
  H   H43       1.0  0.29371  0.81076  0.71830  1.0000
  H   H44       1.0  0.69936  0.18514  0.80916  1.0000
  H   H45       1.0  0.30020  0.40756  0.85969  1.0000
  H   H46       1.0  0.69664  0.59320  0.69356  1.0000
  H   H47       1.0  0.24005  0.39376  0.88912  1.0000
  H   H48       1.0  0.75497  0.60563  0.67112  1.0000
  H   H49       1.0  0.25298  0.49135  0.61640  1.0000
  H   H50       1.0  0.73997  0.49918  0.85317  1.0000
  H   H51       1.0  0.18513  0.39412  0.87834  1.0000
  H   H52       1.0  0.80972  0.60404  0.67540  1.0000
  H   H53       1.0  0.58605  0.69919  0.86120  1.0000
  H   H54       1.0  0.41416  0.30478  0.64869  1.0000
  H   H55       1.0  0.59775  0.75741  0.88625  1.0000
  H   H56       1.0  0.40182  0.24710  0.62909  1.0000
  H   H57       1.0  0.50477  0.74314  0.56027  1.0000
  H   H58       1.0  0.49875  0.26102  0.91831  1.0000
  H   H59       1.0  0.59759  0.81177  0.86274  1.0000
  H   H60       1.0  0.40071  0.19252  0.65839  1.0000
  H   H61       1.0  0.10647  0.69502  0.53411  1.0000
  H   H62       1.0  0.90162  0.30911  0.97551  1.0000
  H   H63       1.0  0.14853  0.75166  0.60357  1.0000
  H   H64       1.0  0.85995  0.25157  0.90920  1.0000
  H   H65       1.0  0.24115  0.75447  0.68988  1.0000
  H   H66       1.0  0.75259  0.24054  0.83038  1.0000
  H   H67       1.0  0.20268  0.80741  0.62793  1.0000
  H   H68       1.0  0.80595  0.19582  0.88260  1.0000
  H   H69       1.0  0.13988  0.47733  0.60957  1.0000
  H   H70       1.0  0.85376  0.51221  0.85901  1.0000
  H   H71       1.0  0.20805  0.50088  0.06702  1.0000
  H   H72       1.0  0.79950  0.50775  0.44103  1.0000
  C   C1        1.0  0.53499  0.85916  0.12204  1.0000
  C   C2        1.0  0.46406  0.13809  0.39511  1.0000
  C   C3        1.0  0.53827  0.83406  0.15001  1.0000
  C   C4        1.0  0.45928  0.16202  0.36276  1.0000
  C   C5        1.0  0.51920  0.80302  0.11888  1.0000
  C   C6        1.0  0.47802  0.19320  0.39031  1.0000
  C   C7        1.0  0.33024  0.86903  0.39423  1.0000
  C   C8        1.0  0.67760  0.13465  0.09162  1.0000
  C   C9        1.0  0.29041  0.84165  0.92967  1.0000
  C   C10       1.0  0.70069  0.15318  0.59836  1.0000
  C   C11       1.0  0.29056  0.81414  0.34128  1.0000
  C   C12       1.0  0.71655  0.19016  0.13883  1.0000
  C   C13       1.0  0.31216  0.43278  0.27323  1.0000
  C   C14       1.0  0.69121  0.56712  0.19894  1.0000
  C   C15       1.0  0.28832  0.43912  0.25563  1.0000
  C   C16       1.0  0.71570  0.56196  0.21809  1.0000
  C   C17       1.0  0.25734  0.42272  0.30517  1.0000
  C   C18       1.0  0.74620  0.57755  0.15817  1.0000
  C   C19       1.0  0.24001  0.43543  0.26840  1.0000
  C   C20       1.0  0.76436  0.56654  0.20308  1.0000
  C   C21       1.0  0.25935  0.46280  0.19087  1.0000
  C   C22       1.0  0.74602  0.54121  0.29729  1.0000
  C   C23       1.0  0.24770  0.47942  0.14363  1.0000
  C   C24       1.0  0.75851  0.52629  0.35342  1.0000
  C   C25       1.0  0.21583  0.46850  0.17058  1.0000
  C   C26       1.0  0.79027  0.53711  0.31930  1.0000
  C   C27       1.0  0.19651  0.44097  0.24670  1.0000
  C   C28       1.0  0.80871  0.56273  0.22715  1.0000
  C   C29       1.0  0.20818  0.42467  0.29666  1.0000
  C   C30       1.0  0.79611  0.57727  0.16831  1.0000
  C   C31       1.0  0.56472  0.68789  0.26166  1.0000
  C   C32       1.0  0.43469  0.30749  0.21003  1.0000
  C   C33       1.0  0.55860  0.71173  0.24407  1.0000
  C   C34       1.0  0.44016  0.28336  0.23146  1.0000
  C   C35       1.0  0.57689  0.74278  0.28020  1.0000
  C   C36       1.0  0.42230  0.25226  0.19309  1.0000
  C   C37       1.0  0.56417  0.76028  0.24686  1.0000
  C   C38       1.0  0.43416  0.23477  0.23719  1.0000
  C   C39       1.0  0.53504  0.74112  0.18432  1.0000
  C   C40       1.0  0.46255  0.25414  0.30700  1.0000
  C   C41       1.0  0.51840  0.75317  0.14145  1.0000
  C   C42       1.0  0.47874  0.24240  0.35771  1.0000
  C   C43       1.0  0.53104  0.78515  0.15867  1.0000
  C   C44       1.0  0.46622  0.21050  0.34391  1.0000
  C   C45       1.0  0.56017  0.80421  0.22141  1.0000
  C   C46       1.0  0.43748  0.19108  0.27766  1.0000
  C   C47       1.0  0.57655  0.79217  0.26681  1.0000
  C   C48       1.0  0.42172  0.20283  0.22243  1.0000
  C   C49       1.0  0.11791  0.68351  0.95863  1.0000
  C   C50       1.0  0.87407  0.31031  0.53304  1.0000
  C   C51       1.0  0.14780  0.70966  0.95367  1.0000
  C   C52       1.0  0.84416  0.28422  0.54601  1.0000
  C   C53       1.0  0.15823  0.73621  0.06130  1.0000
  C   C54       1.0  0.83258  0.25763  0.43911  1.0000
  C   C55       1.0  0.18926  0.75779  0.01716  1.0000
  C   C56       1.0  0.80191  0.23620  0.49114  1.0000
  C   C57       1.0  0.21002  0.74884  0.37296  1.0000
  C   C58       1.0  0.79708  0.25565  0.11062  1.0000
  C   C59       1.0  0.24111  0.76340  0.31950  1.0000
  C   C60       1.0  0.76571  0.24135  0.15690  1.0000
  C   C61       1.0  0.24963  0.79262  0.87843  1.0000
  C   C62       1.0  0.74236  0.20211  0.64152  1.0000
  C   C63       1.0  0.23701  0.80438  0.02447  1.0000
  C   C64       1.0  0.75378  0.18989  0.49245  1.0000
  C   C65       1.0  0.20721  0.78733  0.09431  1.0000
  C   C66       1.0  0.78317  0.20667  0.41658  1.0000
  C   C67       1.0  0.14238  0.46698  0.13946  1.0000
  C   C68       1.0  0.86399  0.53974  0.34898  1.0000
  C   C69       1.0  0.16711  0.46294  0.16841  1.0000
  C   C70       1.0  0.83920  0.54315  0.31613  1.0000
  C   C71       1.0  0.19826  0.48048  0.12809  1.0000
  C   C72       1.0  0.80841  0.52645  0.36756  1.0000
  C   C73       1.0  0.53780  0.86234  0.60969  1.0000
  C   C74       1.0  0.46077  0.14066  0.89292  1.0000
  C   C75       1.0  0.54223  0.83828  0.64324  1.0000
  C   C76       1.0  0.45752  0.16545  0.85940  1.0000
  C   C77       1.0  0.52479  0.80720  0.60138  1.0000
  C   C78       1.0  0.47649  0.19654  0.89065  1.0000
  C   C79       1.0  0.31924  0.86826  0.90160  1.0000
  C   C80       1.0  0.67144  0.12726  0.63236  1.0000
  C   C81       1.0  0.30008  0.84371  0.41623  1.0000
  C   C82       1.0  0.70751  0.16031  0.07024  1.0000
  C   C83       1.0  0.28001  0.81447  0.82759  1.0000
  C   C84       1.0  0.71214  0.18071  0.69772  1.0000
  C   C85       1.0  0.30527  0.42633  0.79215  1.0000
  C   C86       1.0  0.68984  0.57158  0.73918  1.0000
  C   C87       1.0  0.28034  0.43137  0.78038  1.0000
  C   C88       1.0  0.71402  0.56506  0.74676  1.0000
  C   C89       1.0  0.24950  0.41433  0.82999  1.0000
  C   C90       1.0  0.74521  0.58327  0.71183  1.0000
  C   C91       1.0  0.23162  0.42658  0.79480  1.0000
  C   C92       1.0  0.76271  0.56962  0.73410  1.0000
  C   C93       1.0  0.25049  0.45424  0.71932  1.0000
  C   C94       1.0  0.74328  0.53969  0.78494  1.0000
  C   C95       1.0  0.23842  0.47063  0.67469  1.0000
  C   C96       1.0  0.75500  0.52175  0.81463  1.0000
  C   C97       1.0  0.20652  0.45912  0.70197  1.0000
  C   C98       1.0  0.78699  0.53380  0.79704  1.0000
  C   C99       1.0  0.18753  0.43112  0.77408  1.0000
  C   C100      1.0  0.80643  0.56386  0.74805  1.0000
  C   C101      1.0  0.19970  0.41505  0.82192  1.0000
  C   C102      1.0  0.79471  0.58156  0.71507  1.0000
  C   C103      1.0  0.56688  0.69257  0.79180  1.0000
  C   C104      1.0  0.43424  0.31176  0.71146  1.0000
  C   C105      1.0  0.56160  0.71673  0.76822  1.0000
  C   C106      1.0  0.43999  0.28780  0.73168  1.0000
  C   C107      1.0  0.57815  0.74766  0.81748  1.0000
  C   C108      1.0  0.42237  0.25678  0.68973  1.0000
  C   C109      1.0  0.56652  0.76516  0.77108  1.0000
  C   C110      1.0  0.43416  0.23918  0.73276  1.0000
  C   C111      1.0  0.53992  0.74599  0.68549  1.0000
  C   C112      1.0  0.46215  0.25831  0.80675  1.0000
  C   C113      1.0  0.52453  0.75781  0.62730  1.0000
  C   C114      1.0  0.47789  0.24633  0.86000  1.0000
  C   C115      1.0  0.53585  0.78965  0.65234  1.0000
  C   C116      1.0  0.46543  0.21435  0.84244  1.0000
  C   C117      1.0  0.56260  0.80885  0.73660  1.0000
  C   C118      1.0  0.43715  0.19525  0.77106  1.0000
  C   C119      1.0  0.57774  0.79699  0.79673  1.0000
  C   C120      1.0  0.42176  0.20725  0.71482  1.0000
  C   C121      1.0  0.12310  0.69112  0.44188  1.0000
  C   C122      1.0  0.88397  0.31326  0.05625  1.0000
  C   C123      1.0  0.15386  0.71584  0.43649  1.0000
  C   C124      1.0  0.85341  0.28837  0.05734  1.0000
  C   C125      1.0  0.16378  0.74484  0.51985  1.0000
  C   C126      1.0  0.84414  0.25889  0.98222  1.0000
  C   C127      1.0  0.19573  0.76446  0.48520  1.0000
  C   C128      1.0  0.81205  0.23942  0.01162  1.0000
  C   C129      1.0  0.20209  0.74606  0.87170  1.0000
  C   C130      1.0  0.79046  0.24812  0.64145  1.0000
  C   C131      1.0  0.23185  0.76311  0.80220  1.0000
  C   C132      1.0  0.76100  0.23157  0.71587  1.0000
  C   C133      1.0  0.25874  0.79435  0.37827  1.0000
  C   C134      1.0  0.74848  0.20998  0.10518  1.0000
  C   C135      1.0  0.24434  0.81011  0.48813  1.0000
  C   C136      1.0  0.76351  0.19376  0.00668  1.0000
  C   C137      1.0  0.21331  0.79545  0.54294  1.0000
  C   C138      1.0  0.79480  0.20815  0.95879  1.0000
  C   C139      1.0  0.13321  0.45702  0.66825  1.0000
  C   C140      1.0  0.86022  0.53437  0.82129  1.0000
  C   C141      1.0  0.15762  0.45288  0.69991  1.0000
  C   C142      1.0  0.83575  0.53950  0.79998  1.0000
  C   C143      1.0  0.18872  0.47099  0.66213  1.0000
  C   C144      1.0  0.80451  0.52052  0.82490  1.0000
  S   S1        1.0  0.57177  0.84288  0.22847  1.0000
  S   S2        1.0  0.42610  0.15251  0.27792  1.0000
  S   S3        1.0  0.26327  0.84166  0.09368  1.0000
  S   S4        1.0  0.72665  0.15253  0.42864  1.0000
  S   S5        1.0  0.29771  0.47131  0.16396  1.0000
  S   S6        1.0  0.70763  0.53255  0.32974  1.0000
  S   S7        1.0  0.52456  0.70248  0.17020  1.0000
  S   S8        1.0  0.47291  0.29270  0.31936  1.0000
  S   S9        1.0  0.18359  0.71109  0.31391  1.0000
  S   S10       1.0  0.82301  0.29381  0.16437  1.0000
  S   S11       1.0  0.15788  0.43100  0.26241  1.0000
  S   S12       1.0  0.84743  0.57264  0.20443  1.0000
  S   S13       1.0  0.57315  0.84747  0.74768  1.0000
  S   S14       1.0  0.42516  0.15655  0.76891  1.0000
  S   S15       1.0  0.27033  0.84850  0.53766  1.0000
  S   S16       1.0  0.73787  0.15519  0.95995  1.0000
  S   S17       1.0  0.28903  0.46366  0.69184  1.0000
  S   S18       1.0  0.70465  0.52984  0.80420  1.0000
  S   S19       1.0  0.53054  0.70756  0.66490  1.0000
  S   S20       1.0  0.47241  0.29692  0.82226  1.0000
  S   S21       1.0  0.17581  0.70948  0.79573  1.0000
  S   S22       1.0  0.81780  0.28445  0.71419  1.0000
  S   S23       1.0  0.14875  0.42042  0.78733  1.0000
  S   S24       1.0  0.84512  0.57460  0.74039  1.0000
  N   N1        1.0  0.56170  0.99865  0.13260  1.0000
  N   N2        1.0  0.45048  0.00220  0.35786  1.0000
  N   N3        1.0  0.55652  0.88657  0.16183  1.0000
  N   N4        1.0  0.44381  0.10984  0.35978  1.0000
  N   N5        1.0  0.32778  0.89309  0.00298  1.0000
  N   N6        1.0  0.66062  0.10234  0.53188  1.0000
  N   N7        1.0  0.55621  0.55587  0.25371  1.0000
  N   N8        1.0  0.44601  0.44190  0.24390  1.0000
  N   N9        1.0  0.33980  0.44925  0.20687  1.0000
  N   N10       1.0  0.66445  0.55175  0.27725  1.0000
  N   N11       1.0  0.54508  0.65960  0.22185  1.0000
  N   N12       1.0  0.45243  0.33522  0.27078  1.0000
  N   N13       1.0  0.11644  0.66621  0.34222  1.0000
  N   N14       1.0  0.88932  0.33874  0.14819  1.0000
  N   N15       1.0  0.11464  0.44755  0.19054  1.0000
  N   N16       1.0  0.89161  0.55818  0.29121  1.0000
  N   N17       1.0  0.00180  0.55901  0.32477  1.0000
  N   N18       1.0  0.00336  0.44618  0.17324  1.0000
  N   N19       1.0  0.54760  0.99665  0.65779  1.0000
  N   N20       1.0  0.43734  0.00205  0.88312  1.0000
  N   N21       1.0  0.55668  0.89050  0.65768  1.0000
  N   N22       1.0  0.43940  0.11297  0.85664  1.0000
  N   N23       1.0  0.33661  0.89649  0.46112  1.0000
  N   N24       1.0  0.67231  0.10741  0.02510  1.0000
  N   N25       1.0  0.55413  0.55740  0.75900  1.0000
  N   N26       1.0  0.44291  0.44447  0.73739  1.0000
  N   N27       1.0  0.33223  0.44442  0.72473  1.0000
  N   N28       1.0  0.66178  0.55212  0.78526  1.0000
  N   N29       1.0  0.54918  0.66483  0.73077  1.0000
  N   N30       1.0  0.45225  0.33968  0.76838  1.0000
  N   N31       1.0  0.11098  0.66178  0.83748  1.0000
  N   N32       1.0  0.88239  0.33198  0.65421  1.0000
  N   N33       1.0  0.10513  0.43669  0.70661  1.0000
  N   N34       1.0  0.88824  0.55591  0.79582  1.0000
  N   N35       1.0  0.99738  0.55337  0.81808  1.0000
  N   N36       1.0  0.99700  0.43944  0.66262  1.0000
  C  Sn1       1.0  0.50299  0.01637  0.13558  1.0000
  C   C145      1.0  0.97900  0.99909  0.24798  1.0000
  C  Sn2       1.0  0.98345  0.98319  0.34967  1.0000
  C  Sn3       1.0  0.01236  0.98461  0.33888  1.0000
  C   C146      1.0  0.03621  0.00189  0.22655  1.0000
  C  Sn4       1.0  0.53190  0.01779  0.12478  1.0000
  O  Te1       1.0  0.49803  0.03209  0.03513  1.0000
  O  Te2       1.0  0.95923  0.96605  0.46105  1.0000
  O  Te3       1.0  0.01730  0.96887  0.43944  1.0000
  O  Te4       1.0  0.55610  0.03493  0.01348  1.0000
  Mg  Mg1       1.0  0.97725  0.94865  0.57164  1.0000
  Mg  Mg2       1.0  0.51770  0.07393  0.90290  1.0000
  C  Sn5       1.0  0.53577  0.91970  0.02851  1.0000
  C   C147      1.0  0.55654  0.91368  0.08162  1.0000
  C  Sn6       1.0  0.58011  0.93670  0.16984  1.0000
  C  Sn7       1.0  0.58296  0.96634  0.20582  1.0000
  C   C148      1.0  0.56219  0.97234  0.15275  1.0000
  C  Sn8       1.0  0.53862  0.94934  0.06449  1.0000
  O  Te5       1.0  0.49199  0.91793  0.94050  1.0000
  O  Te6       1.0  0.60060  0.93014  0.22159  1.0000
  O  Te7       1.0  0.60636  0.98970  0.29391  1.0000
  O  Te8       1.0  0.51814  0.95589  0.01278  1.0000
  Mg  Mg3       1.0  0.62861  0.96955  0.33788  1.0000
  Mg  Mg4       1.0  0.46971  0.93808  0.89656  1.0000
  C  Sn9       1.0  0.42488  0.03434  0.28103  1.0000
  C   C149      1.0  0.44800  0.03077  0.32573  1.0000
  C  Sn10      1.0  0.47093  0.05487  0.41348  1.0000
  C  Sn11      1.0  0.47075  0.08313  0.45758  1.0000
  C   C150      1.0  0.44764  0.08669  0.41292  1.0000
  C  Sn12      1.0  0.42469  0.06260  0.32513  1.0000
  O  Te9       1.0  0.40219  0.00994  0.19333  1.0000
  O  Te10      1.0  0.49381  0.05076  0.45673  1.0000
  O  Te11      1.0  0.49347  0.10754  0.54535  1.0000
  O  Te12      1.0  0.40182  0.06670  0.28191  1.0000
  Mg  Mg5       1.0  0.51974  0.09078  0.57614  1.0000
  Mg  Mg6       1.0  0.37588  0.02669  0.16259  1.0000
  C  Sn13      1.0  0.40789  0.94313  0.24703  1.0000
  C   C151      1.0  0.41829  0.97159  0.34119  1.0000
  C  Sn14      1.0  0.40292  0.97483  0.49451  1.0000
  C  Sn15      1.0  0.37663  0.94908  0.55504  1.0000
  C   C152      1.0  0.36625  0.92065  0.46092  1.0000
  C  Sn16      1.0  0.38160  0.91739  0.30756  1.0000
  O  Te13      1.0  0.42361  0.94043  0.09409  1.0000
  O  Te14      1.0  0.41374  0.00352  0.58638  1.0000
  O  Te15      1.0  0.36091  0.95181  0.70810  1.0000
  O  Te16      1.0  0.37080  0.88872  0.21573  1.0000
  Mg  Mg7       1.0  0.38451  0.99564  0.78753  1.0000
  Mg  Mg8       1.0  0.40002  0.89657  0.01461  1.0000
  C  Sn17      1.0  0.64469  0.00841  0.01870  1.0000
  C   C153      1.0  0.61838  0.00382  0.12544  1.0000
  C  Sn18      1.0  0.61318  0.02839  0.19261  1.0000
  C  Sn19      1.0  0.63469  0.05816  0.15217  1.0000
  C   C154      1.0  0.66097  0.06273  0.04547  1.0000
  C  Sn20      1.0  0.64580  0.05977  0.97826  1.0000
  O  Te17      1.0  0.12890  0.00510  0.95298  1.0000
  O  Te18      1.0  0.58672  0.02324  0.29908  1.0000
  O  Te19      1.0  0.62993  0.08306  0.21800  1.0000
  O  Te20      1.0  0.67223  0.06490  0.87183  1.0000
  Mg  Mg9       1.0  0.59046  0.06447  0.35711  1.0000
  Mg  Mg10      1.0  0.66851  0.02369  0.81367  1.0000
  C  Sn21      1.0  0.52245  0.49483  0.12367  1.0000
  C   C155      1.0  0.52667  0.52344  0.19950  1.0000
  C  Sn22      1.0  0.50420  0.52591  0.31669  1.0000
  C  Sn23      1.0  0.47693  0.49923  0.35907  1.0000
  C   C156      1.0  0.47272  0.47064  0.28329  1.0000
  C  Sn24      1.0  0.49518  0.46815  0.16605  1.0000
  O  Te21      1.0  0.54522  0.49290  0.00685  1.0000
  O  Te22      1.0  0.50894  0.55477  0.39079  1.0000
  O  Te23      1.0  0.45415  0.50118  0.47600  1.0000
  O  Te24      1.0  0.49045  0.43931  0.09200  1.0000
  Mg  Mg11      1.0  0.47121  0.54560  0.54282  1.0000
  Mg  Mg12      1.0  0.50776  0.47004  0.94002  1.0000
  C  Sn25      1.0  0.36998  0.42756  0.35399  1.0000
  C   C157      1.0  0.36629  0.44622  0.26759  1.0000
  C  Sn26      1.0  0.38883  0.46173  0.14516  1.0000
  C  Sn27      1.0  0.41561  0.45851  0.10822  1.0000
  C   C158      1.0  0.41929  0.43986  0.19457  1.0000
  C  Sn28      1.0  0.39676  0.42434  0.31705  1.0000
  O  Te25      1.0  0.34715  0.41227  0.47589  1.0000
  O  Te26      1.0  0.38463  0.48026  0.06049  1.0000
  O  Te27      1.0  0.41805  0.49541  0.98621  1.0000
  O  Te28      1.0  0.40094  0.40582  0.40166  1.0000
  Mg  Mg13      1.0  0.40182  0.51799  0.90496  1.0000
  Mg  Mg14      1.0  0.36337  0.38965  0.55716  1.0000
  C  Sn29      1.0  0.61787  0.57440  0.14020  1.0000
  C   C159      1.0  0.58850  0.55531  0.21006  1.0000
  C  Sn30      1.0  0.58439  0.53737  0.32898  1.0000
  C  Sn31      1.0  0.61018  0.53854  0.37921  1.0000
  C   C160      1.0  0.63952  0.55763  0.30939  1.0000
  C  Sn32      1.0  0.64365  0.57557  0.19043  1.0000
  O  Te29      1.0  0.62144  0.59213  0.02152  1.0000
  O  Te30      1.0  0.55481  0.51845  0.39701  1.0000
  O  Te31      1.0  0.60658  0.52078  0.49799  1.0000
  O  Te32      1.0  0.67322  0.59448  0.12243  1.0000
  Mg  Mg15      1.0  0.56171  0.49863  0.55453  1.0000
  Mg  Mg16      1.0  0.64594  0.63591  0.96498  1.0000
  C  Sn33      1.0  0.53538  0.58703  0.11787  1.0000
  C   C161      1.0  0.55593  0.58453  0.19604  1.0000
  C  Sn34      1.0  0.57246  0.60769  0.31423  1.0000
  C  Sn35      1.0  0.56837  0.63389  0.35524  1.0000
  C   C162      1.0  0.54783  0.63638  0.27711  1.0000
  C  Sn36      1.0  0.53129  0.61323  0.15887  1.0000
  O  Te33      1.0  0.51909  0.56360  0.00008  1.0000
  O  Te34      1.0  0.59288  0.60468  0.39067  1.0000
  O  Te35      1.0  0.58468  0.65734  0.47312  1.0000
  O  Te36      1.0  0.51088  0.61623  0.08248  1.0000
  Mg  Mg17      1.0  0.60980  0.64271  0.54323  1.0000
  Mg  Mg18      1.0  0.47353  0.59980  0.92998  1.0000
  C  Sn37      1.0  0.46669  0.39400  0.37552  1.0000
  C   C163      1.0  0.44762  0.36446  0.30698  1.0000
  C  Sn38      1.0  0.42848  0.35968  0.19225  1.0000
  C  Sn39      1.0  0.42843  0.38495  0.14494  1.0000
  C   C164      1.0  0.44750  0.41447  0.21343  1.0000
  C  Sn40      1.0  0.46663  0.41927  0.32821  1.0000
  O  Te37      1.0  0.48563  0.39824  0.49000  1.0000
  O  Te38      1.0  0.40961  0.32994  0.12547  1.0000
  O  Te39      1.0  0.40947  0.38069  0.03036  1.0000
  O  Te40      1.0  0.48550  0.44899  0.39494  1.0000
  Mg  Mg19      1.0  0.36748  0.35744  0.97401  1.0000
  Mg  Mg20      1.0  0.50725  0.44310  0.54634  1.0000
  C  Sn41      1.0  0.98600  0.48710  0.11110  1.0000
  C   C165      1.0  0.00495  0.47869  0.16455  1.0000
  C  Sn42      1.0  0.02162  0.49583  0.29691  1.0000
  C  Sn43      1.0  0.01930  0.52191  0.37762  1.0000
  C   C166      1.0  0.00036  0.53030  0.32420  1.0000
  C  Sn44      1.0  0.98368  0.51317  0.19181  1.0000
  O  Te41      1.0  0.94913  0.49121  0.97853  1.0000
  O  Te42      1.0  0.04042  0.48699  0.34808  1.0000
  O  Te43      1.0  0.03578  0.53938  0.51029  1.0000
  O  Te44      1.0  0.96488  0.52200  0.14066  1.0000
  Mg  Mg21      1.0  0.05829  0.51813  0.53452  1.0000
  Mg  Mg22      1.0  0.92659  0.51246  0.95431  1.0000
  C  Sn45      1.0  0.05568  0.63129  0.48471  1.0000
  C   C167      1.0  0.08361  0.63769  0.39042  1.0000
  C  Sn46      1.0  0.08471  0.61927  0.24500  1.0000
  C  Sn47      1.0  0.05733  0.59393  0.19266  1.0000
  C   C168      1.0  0.02942  0.58754  0.28690  1.0000
  C  Sn48      1.0  0.02830  0.60595  0.43237  1.0000
  O  Te45      1.0  0.05512  0.65001  0.62967  1.0000
  O  Te46      1.0  0.11290  0.62612  0.15283  1.0000
  O  Te47      1.0  0.05791  0.57520  0.04758  1.0000
  O  Te48      1.0  0.00013  0.59911  0.52449  1.0000
  Mg  Mg23      1.0  0.08147  0.61544  0.96431  1.0000
  Mg  Mg24      1.0  0.01113  0.63137  0.71298  1.0000
  C  Sn49      1.0  0.92376  0.39931  0.22603  1.0000
  C   C169      1.0  0.91834  0.37115  0.13748  1.0000
  C  Sn50      1.0  0.94269  0.36542  0.07236  1.0000
  C  Sn51      1.0  0.97309  0.38830  0.09633  1.0000
  C   C170      1.0  0.97849  0.41643  0.18486  1.0000
  C  Sn52      1.0  0.95416  0.42218  0.25000  1.0000
  O  Te49      1.0  0.89907  0.40453  0.29003  1.0000
  O  Te50      1.0  0.91630  0.35870  0.98422  1.0000
  O  Te51      1.0  0.99779  0.38305  0.03224  1.0000
  O  Te52      1.0  0.96013  0.45048  0.33811  1.0000
  Mg  Mg25      1.0  0.95757  0.36245  0.92115  1.0000
  Mg  Mg26      1.0  0.91888  0.44674  0.40131  1.0000
  C  Sn53      1.0  0.06517  0.46647  0.04706  1.0000
  C   C171      1.0  0.03609  0.44520  0.10895  1.0000
  C  Sn54      1.0  0.03282  0.42583  0.21753  1.0000
  C  Sn55      1.0  0.05917  0.42779  0.26535  1.0000
  C   C172      1.0  0.08823  0.44906  0.20350  1.0000
  C  Sn56      1.0  0.09152  0.46843  0.09488  1.0000
  O  Te53      1.0  0.04749  0.50720  0.93867  1.0000
  O  Te54      1.0  0.00351  0.40473  0.27772  1.0000
  O  Te55      1.0  0.05642  0.40863  0.37383  1.0000
  O  Te56      1.0  0.12081  0.48952  0.03473  1.0000
  Mg  Mg27      1.0  0.01162  0.38365  0.42242  1.0000
  Mg  Mg28      1.0  0.09232  0.53221  0.89009  1.0000
  C  Sn57      1.0  0.92342  0.53709  0.43459  1.0000
  C   C173      1.0  0.91844  0.55752  0.37115  1.0000
  C  Sn58      1.0  0.94173  0.57883  0.27271  1.0000
  C  Sn59      1.0  0.97062  0.57972  0.23683  1.0000
  C   C174      1.0  0.97559  0.55930  0.30022  1.0000
  C  Sn60      1.0  0.95231  0.53799  0.39871  1.0000
  O  Te57      1.0  0.89980  0.51599  0.53272  1.0000
  O  Te58      1.0  0.93621  0.59902  0.21075  1.0000
  O  Te59      1.0  0.99424  0.60085  0.13862  1.0000
  O  Te60      1.0  0.95782  0.51780  0.46063  1.0000
  Mg  Mg29      1.0  0.97560  0.62359  0.08290  1.0000
  Mg  Mg30      1.0  0.91845  0.49321  0.58841  1.0000
  C  Sn61      1.0  0.51330  0.02698  0.70227  1.0000
  C   C175      1.0  0.02217  0.00730  0.74092  1.0000
  C  Sn62      1.0  0.00090  0.98143  0.81702  1.0000
  C  Sn63      1.0  0.96999  0.97510  0.85521  1.0000
  C   C176      1.0  0.96101  0.99477  0.81654  1.0000
  C  Sn64      1.0  0.48238  0.02065  0.74045  1.0000
  O  Te61      1.0  0.53495  0.05271  0.62619  1.0000
  O  Te62      1.0  0.01044  0.96210  0.85452  1.0000
  O  Te63      1.0  0.94834  0.94935  0.93135  1.0000
  O  Te64      1.0  0.47286  0.03997  0.70294  1.0000
  Mg  Mg31      1.0  0.97244  0.92990  0.95795  1.0000
  Mg  Mg32      1.0  0.51084  0.07217  0.59944  1.0000
  C  Sn65      1.0  0.52943  0.91944  0.53705  1.0000
  C   C177      1.0  0.55280  0.91658  0.58417  1.0000
  C  Sn66      1.0  0.57439  0.94053  0.67977  1.0000
  C  Sn67      1.0  0.57259  0.96791  0.72942  1.0000
  C   C178      1.0  0.54923  0.97075  0.68234  1.0000
  C  Sn68      1.0  0.52762  0.94682  0.58670  1.0000
  O  Te65      1.0  0.50808  0.89521  0.44147  1.0000
  O  Te66      1.0  0.59755  0.93714  0.72530  1.0000
  O  Te67      1.0  0.59396  0.99215  0.82507  1.0000
  O  Te68      1.0  0.50447  0.95020  0.54120  1.0000
  Mg  Mg33      1.0  0.62124  0.97659  0.85611  1.0000
  Mg  Mg34      1.0  0.48076  0.91076  0.41047  1.0000
  C  Sn69      1.0  0.41529  0.03614  0.79234  1.0000
  C   C179      1.0  0.43603  0.03076  0.85057  1.0000
  C  Sn70      1.0  0.45882  0.05410  0.94219  1.0000
  C  Sn71      1.0  0.46090  0.08344  0.97641  1.0000
  C   C180      1.0  0.44017  0.08881  0.91822  1.0000
  C  Sn72      1.0  0.41738  0.06548  0.82656  1.0000
  O  Te69      1.0  0.89257  0.01247  0.70100  1.0000
  O  Te70      1.0  0.47930  0.04817  0.99904  1.0000
  O  Te71      1.0  0.50393  0.08553  0.06783  1.0000
  O  Te72      1.0  0.39690  0.07140  0.76975  1.0000
  Mg  Mg35      1.0  0.52648  0.06623  0.11840  1.0000
  Mg  Mg36      1.0  0.37010  0.03177  0.65045  1.0000
  C  Sn73      1.0  0.38301  0.96866  0.07223  1.0000
  C   C181      1.0  0.38798  0.99488  0.95748  1.0000
  C  Sn74      1.0  0.38651  0.97187  0.83184  1.0000
  C  Sn75      1.0  0.35911  0.94365  0.82059  1.0000
  C   C182      1.0  0.33375  0.93904  0.93527  1.0000
  C  Sn76      1.0  0.35561  0.94044  0.06098  1.0000
  O  Te73      1.0  0.38499  0.99199  0.19680  1.0000
  O  Te74      1.0  0.41218  0.97703  0.71859  1.0000
  O  Te75      1.0  0.35714  0.92032  0.69588  1.0000
  O  Te76      1.0  0.32996  0.93530  0.17416  1.0000
  Mg  Mg37      1.0  0.39821  0.93826  0.57095  1.0000
  Mg  Mg38      1.0  0.34389  0.97405  0.32179  1.0000
  C  Sn77      1.0  0.61628  0.04478  0.44085  1.0000
  C   C183      1.0  0.62653  0.07393  0.52723  1.0000
  C  Sn78      1.0  0.61191  0.07820  0.68123  1.0000
  C  Sn79      1.0  0.58653  0.05281  0.75039  1.0000
  C   C184      1.0  0.57629  0.02369  0.66404  1.0000
  C  Sn80      1.0  0.59089  0.01940  0.51001  1.0000
  O  Te77      1.0  0.63124  0.04105  0.28708  1.0000
  O  Te78      1.0  0.62257  0.10755  0.76523  1.0000
  O  Te79      1.0  0.57156  0.05657  0.90428  1.0000
  O  Te80      1.0  0.08013  0.99007  0.42604  1.0000
  Mg  Mg39      1.0  0.59460  0.10101  0.97102  1.0000
  Mg  Mg40      1.0  0.10808  0.99658  0.22029  1.0000
  C  Sn81      1.0  0.49278  0.52102  0.87654  1.0000
  C   C185      1.0  0.52213  0.52672  0.80605  1.0000
  C  Sn82      1.0  0.52620  0.50539  0.68632  1.0000
  C  Sn83      1.0  0.50040  0.47780  0.63590  1.0000
  C   C186      1.0  0.47107  0.47212  0.70635  1.0000
  C  Sn84      1.0  0.46698  0.49343  0.82612  1.0000
  O  Te81      1.0  0.48925  0.54266  0.99602  1.0000
  O  Te82      1.0  0.55577  0.51159  0.61768  1.0000
  O  Te83      1.0  0.50395  0.45616  0.51632  1.0000
  O  Te84      1.0  0.43743  0.48725  0.89472  1.0000
  Mg  Mg41      1.0  0.54881  0.47502  0.45916  1.0000
  Mg  Mg42      1.0  0.46477  0.50222  0.05318  1.0000
  C  Sn85      1.0  0.36546  0.42355  0.84999  1.0000
  C   C187      1.0  0.35998  0.44276  0.77831  1.0000
  C  Sn86      1.0  0.38216  0.46158  0.66533  1.0000
  C  Sn87      1.0  0.41039  0.46118  0.62301  1.0000
  C   C188      1.0  0.41585  0.44197  0.69464  1.0000
  C  Sn88      1.0  0.39369  0.42315  0.80767  1.0000
  O  Te85      1.0  0.34296  0.40493  0.96263  1.0000
  O  Te86      1.0  0.37617  0.48060  0.59534  1.0000
  O  Te87      1.0  0.43289  0.47982  0.51026  1.0000
  O  Te88      1.0  0.39967  0.40413  0.87761  1.0000
  Mg  Mg43      1.0  0.41399  0.50176  0.44811  1.0000
  Mg  Mg44      1.0  0.38226  0.36136  0.02478  1.0000
  C  Sn89      1.0  0.58781  0.53928  0.89466  1.0000
  C   C189      1.0  0.58376  0.55891  0.81805  1.0000
  C  Sn90      1.0  0.60643  0.57630  0.70163  1.0000
  C  Sn91      1.0  0.63371  0.57402  0.66082  1.0000
  C   C190      1.0  0.63775  0.55440  0.73738  1.0000
  C  Sn92      1.0  0.61510  0.53700  0.85386  1.0000
  O  Te89      1.0  0.58525  0.50051  0.01069  1.0000
  O  Te90      1.0  0.60186  0.59577  0.62673  1.0000
  O  Te91      1.0  0.65668  0.59123  0.54469  1.0000
  O  Te92      1.0  0.61965  0.51754  0.92871  1.0000
  Mg  Mg45      1.0  0.63982  0.61448  0.47627  1.0000
  Mg  Mg46      1.0  0.60211  0.47722  0.07912  1.0000
  C  Sn93      1.0  0.58185  0.63671  0.79560  1.0000
  C   C191      1.0  0.56198  0.64073  0.72021  1.0000
  C  Sn94      1.0  0.53502  0.61562  0.66962  1.0000
  C  Sn95      1.0  0.52776  0.58588  0.69500  1.0000
  C   C192      1.0  0.54762  0.58186  0.77037  1.0000
  C  Sn96      1.0  0.57459  0.60696  0.82098  1.0000
  O  Te93      1.0  0.60868  0.66213  0.84519  1.0000
  O  Te94      1.0  0.51551  0.62022  0.59447  1.0000
  O  Te95      1.0  0.50091  0.56044  0.64533  1.0000
  O  Te96      1.0  0.59409  0.60238  0.89611  1.0000
  Mg  Mg47      1.0  0.48166  0.57839  0.54852  1.0000
  Mg  Mg48      1.0  0.62794  0.64419  0.94218  1.0000
  C  Sn97      1.0  0.43098  0.36964  0.61721  1.0000
  C   C193      1.0  0.44952  0.36616  0.70617  1.0000
  C  Sn98      1.0  0.46415  0.38841  0.83261  1.0000
  C  Sn99      1.0  0.46016  0.41468  0.87101  1.0000
  C   C194      1.0  0.44163  0.41815  0.78210  1.0000
  C  Sn100     1.0  0.42698  0.39592  0.65561  1.0000
  O  Te97      1.0  0.41657  0.34711  0.49133  1.0000
  O  Te98      1.0  0.48259  0.38442  0.91978  1.0000
  O  Te99      1.0  0.47459  0.43722  0.99701  1.0000
  O  Te100     1.0  0.40856  0.39989  0.56849  1.0000
  Mg  Mg49      1.0  0.51779  0.39986  0.08051  1.0000
  Mg  Mg50      1.0  0.39373  0.36287  0.40780  1.0000
  C  Sn101     1.0  0.96813  0.49093  0.71027  1.0000
  C   C195      1.0  0.98836  0.51756  0.79876  1.0000
  C  Sn102     1.0  0.01589  0.52082  0.83164  1.0000
  C  Sn103     1.0  0.02338  0.49698  0.77479  1.0000
  C   C196      1.0  0.00316  0.47037  0.68634  1.0000
  C  Sn104     1.0  0.97561  0.46709  0.65342  1.0000
  O  Te101     1.0  0.94073  0.48817  0.67881  1.0000
  O  Te102     1.0  0.03574  0.54765  0.92039  1.0000
  O  Te103     1.0  0.05080  0.49976  0.80633  1.0000
  O  Te104     1.0  0.95577  0.44028  0.56470  1.0000
  Mg  Mg51      1.0  0.07035  0.54066  0.93214  1.0000
  Mg  Mg52      1.0  0.92117  0.44725  0.55281  1.0000
  C  Sn105     1.0  0.07272  0.60600  0.68420  1.0000
  C   C197      1.0  0.07853  0.63353  0.78159  1.0000
  C  Sn106     1.0  0.05794  0.63438  0.91662  1.0000
  C  Sn107     1.0  0.03099  0.60715  0.95518  1.0000
  C   C198      1.0  0.02519  0.57965  0.85783  1.0000
  C  Sn108     1.0  0.04577  0.57877  0.72276  1.0000
  O  Te105     1.0  0.09362  0.60568  0.54980  1.0000
  O  Te106     1.0  0.08465  0.64058  0.01214  1.0000
  O  Te107     1.0  0.03048  0.58590  0.08970  1.0000
  O  Te108     1.0  0.03948  0.55100  0.62729  1.0000
  Mg  Mg53      1.0  0.04920  0.62934  0.18268  1.0000
  Mg  Mg54      1.0  0.07492  0.56222  0.45678  1.0000
  C  Sn109     1.0  0.94668  0.36116  0.57020  1.0000
  C   C199      1.0  0.91875  0.35532  0.66303  1.0000
  C  Sn110     1.0  0.91432  0.37932  0.75131  1.0000
  C  Sn111     1.0  0.93829  0.40979  0.74664  1.0000
  C   C200      1.0  0.96620  0.41562  0.65383  1.0000
  C  Sn112     1.0  0.97065  0.39163  0.56553  1.0000
  O  Te109     1.0  0.95060  0.33682  0.48289  1.0000
  O  Te110     1.0  0.88620  0.37291  0.84328  1.0000
  O  Te111     1.0  0.93435  0.43414  0.83405  1.0000
  O  Te112     1.0  0.99875  0.39803  0.47358  1.0000
  Mg  Mg55      1.0  0.89192  0.41381  0.94131  1.0000
  Mg  Mg56      1.0  0.99305  0.35715  0.37545  1.0000
  C  Sn113     1.0  0.05942  0.45897  0.55274  1.0000
  C   C201      1.0  0.02960  0.43761  0.60452  1.0000
  C  Sn114     1.0  0.02442  0.41692  0.70991  1.0000
  C  Sn115     1.0  0.04957  0.41761  0.76479  1.0000
  C   C202      1.0  0.07937  0.43896  0.71305  1.0000
  C  Sn116     1.0  0.08457  0.45965  0.60763  1.0000
  O  Te113     1.0  0.06405  0.47943  0.44737  1.0000
  O  Te114     1.0  0.99440  0.39577  0.75995  1.0000
  O  Te115     1.0  0.04491  0.39712  0.87025  1.0000
  O  Te116     1.0  0.11457  0.48080  0.55762  1.0000
  Mg  Mg57      1.0  0.99981  0.37262  0.90421  1.0000
  Mg  Mg58      1.0  0.10918  0.50397  0.41344  1.0000
  C  Sn117     1.0  0.93375  0.52463  0.85435  1.0000
  C   C203      1.0  0.96335  0.54591  0.79895  1.0000
  C  Sn118     1.0  0.96925  0.57422  0.76383  1.0000
  C  Sn119     1.0  0.94506  0.58140  0.78461  1.0000
  C   C204      1.0  0.91548  0.56012  0.84000  1.0000
  C  Sn120     1.0  0.90956  0.53181  0.87513  1.0000
  O  Te117     1.0  0.92838  0.49647  0.88873  1.0000
  O  Te118     1.0  0.99903  0.59512  0.70855  1.0000
  O  Te119     1.0  0.95045  0.60958  0.75017  1.0000
  O  Te120     1.0  0.87981  0.51092  0.93040  1.0000
  Mg  Mg59      1.0  0.99487  0.63047  0.67808  1.0000
  Mg  Mg60      1.0  0.88394  0.47558  0.96099  1.0000
