data_image0
_chemical_formula_structural       H72C144S24N36C2Sn2C2HTe2HMgC2Sn2C2HTe2HMgC2Sn2C2HTe2HMgC2Sn2C2HTe2HMgC2Sn2C2HTe2HMgC2Sn2C2HTe2HMgC2Sn2C2HTe2HMgC2Sn2C2HTe2HMgC2Sn2C2HTe2HMgC2Sn2C2HTe2HMgC2Sn2C2HTe2HMgC2Sn2C2HTe2HMgC2Sn2C2HTe2HMgC2Sn2C2HTe2HMgC2Sn2C2HTe2HMgC2Sn2C2HTe2HMgC2Sn2C2HTe2HMgC2Sn2C2HTe2HMgC2Sn2C2HTe2HMgC2Sn2C2HTe2HMgC2Sn2C2HTe2HMgC2Sn2C2HTe2HMgC2Sn2C2HTe2HMgC2Sn2C2HTe2HMgC2Sn2C2HTe2HMgC2Sn2C2HTe2HMgC2Sn2C2HTe2HMgC2Sn2C2HTe2HMgC2Sn2C2HTe2HMgC2Sn2C2HTe2HMg
_chemical_formula_sum              "H132 C264 S24 N36 Sn60 Te60 Mg30"
_cell_length_a       50.7302
_cell_length_b       50.892
_cell_length_c       8.37379
_cell_angle_alpha    101.116
_cell_angle_beta     79.1061
_cell_angle_gamma    119.887

_symmetry_space_group_name_H-M    'P1'
_space_group_IT_number       1

loop_
  _space_group_symop_operation_xyz
  'x, y, z'

loop_
  _atom_site_type_symbol
  _atom_site_label
  _atom_site_symmetry_multiplicity
  _atom_site_fract_x
  _atom_site_fract_y
  _atom_site_fract_z
  _atom_site_occupancy
  H   H1        1.0  0.51804  0.85526  0.54407  1.0000
  H   H2        1.0  0.48135  0.14668  0.94834  1.0000
  H   H3        1.0  0.50518  0.79752  0.53276  1.0000
  H   H4        1.0  0.49716  0.20613  0.95038  1.0000
  H   H5        1.0  0.34711  0.86333  0.31590  1.0000
  H   H6        1.0  0.66042  0.13981  0.17066  1.0000
  H   H7        1.0  0.30588  0.80728  0.25837  1.0000
  H   H8        1.0  0.70079  0.19726  0.21462  1.0000
  H   H9        1.0  0.30542  0.41399  0.34495  1.0000
  H   H10       1.0  0.69662  0.58395  0.11642  1.0000
  H   H11       1.0  0.24755  0.40238  0.36680  1.0000
  H   H12       1.0  0.75502  0.59595  0.08273  1.0000
  H   H13       1.0  0.26262  0.49989  0.08378  1.0000
  H   H14       1.0  0.74447  0.50718  0.42465  1.0000
  H   H15       1.0  0.19320  0.40411  0.35584  1.0000
  H   H16       1.0  0.81017  0.59623  0.09619  1.0000
  H   H17       1.0  0.58655  0.69528  0.30780  1.0000
  H   H18       1.0  0.41541  0.30086  0.14148  1.0000
  H   H19       1.0  0.59849  0.75253  0.33102  1.0000
  H   H20       1.0  0.40144  0.24250  0.13511  1.0000
  H   H21       1.0  0.49652  0.73849  0.09297  1.0000
  H   H22       1.0  0.50017  0.25729  0.41023  1.0000
  H   H23       1.0  0.59827  0.80677  0.31711  1.0000
  H   H24       1.0  0.40048  0.18798  0.16779  1.0000
  H   H25       1.0  0.10224  0.68303  0.06964  1.0000
  H   H26       1.0  0.88842  0.31079  0.41632  1.0000
  H   H27       1.0  0.14412  0.73997  0.16827  1.0000
  H   H28       1.0  0.84559  0.25369  0.32713  1.0000
  H   H29       1.0  0.25160  0.75165  0.23149  1.0000
  H   H30       1.0  0.75465  0.25380  0.23256  1.0000
  H   H31       1.0  0.19796  0.79635  0.20546  1.0000
  H   H32       1.0  0.79173  0.19759  0.30294  1.0000
  H   H33       1.0  0.14842  0.48614  0.07246  1.0000
  H   H34       1.0  0.85821  0.52184  0.42498  1.0000
  H   H35       1.0  0.19830  0.49161  0.60338  1.0000
  H   H36       1.0  0.79459  0.49813  0.86549  1.0000
  H   H37       1.0  0.51468  0.85376  0.06609  1.0000
  H   H38       1.0  0.48518  0.14535  0.44881  1.0000
  H   H39       1.0  0.49784  0.79348  0.06598  1.0000
  H   H40       1.0  0.49930  0.20331  0.44479  1.0000
  H   H41       1.0  0.33276  0.86627  0.78509  1.0000
  H   H42       1.0  0.65950  0.13006  0.75318  1.0000
  H   H43       1.0  0.29371  0.81076  0.71830  1.0000
  H   H44       1.0  0.69936  0.18514  0.80916  1.0000
  H   H45       1.0  0.30020  0.40756  0.85969  1.0000
  H   H46       1.0  0.69664  0.59320  0.69356  1.0000
  H   H47       1.0  0.24005  0.39376  0.88912  1.0000
  H   H48       1.0  0.75497  0.60563  0.67112  1.0000
  H   H49       1.0  0.25298  0.49135  0.61640  1.0000
  H   H50       1.0  0.73997  0.49918  0.85317  1.0000
  H   H51       1.0  0.18513  0.39412  0.87834  1.0000
  H   H52       1.0  0.80972  0.60404  0.67540  1.0000
  H   H53       1.0  0.58605  0.69919  0.86120  1.0000
  H   H54       1.0  0.41416  0.30478  0.64869  1.0000
  H   H55       1.0  0.59775  0.75741  0.88625  1.0000
  H   H56       1.0  0.40182  0.24710  0.62909  1.0000
  H   H57       1.0  0.50477  0.74314  0.56027  1.0000
  H   H58       1.0  0.49875  0.26102  0.91831  1.0000
  H   H59       1.0  0.59759  0.81177  0.86274  1.0000
  H   H60       1.0  0.40071  0.19252  0.65839  1.0000
  H   H61       1.0  0.10647  0.69502  0.53411  1.0000
  H   H62       1.0  0.90162  0.30911  0.97551  1.0000
  H   H63       1.0  0.14853  0.75166  0.60357  1.0000
  H   H64       1.0  0.85995  0.25157  0.90920  1.0000
  H   H65       1.0  0.24115  0.75447  0.68988  1.0000
  H   H66       1.0  0.75259  0.24054  0.83038  1.0000
  H   H67       1.0  0.20268  0.80741  0.62793  1.0000
  H   H68       1.0  0.80595  0.19582  0.88260  1.0000
  H   H69       1.0  0.13988  0.47733  0.60957  1.0000
  H   H70       1.0  0.85376  0.51221  0.85901  1.0000
  H   H71       1.0  0.20805  0.50088  0.06702  1.0000
  H   H72       1.0  0.79950  0.50775  0.44103  1.0000
  C   C1        1.0  0.53499  0.85916  0.12204  1.0000
  C   C2        1.0  0.46406  0.13809  0.39511  1.0000
  C   C3        1.0  0.53827  0.83406  0.15001  1.0000
  C   C4        1.0  0.45928  0.16202  0.36276  1.0000
  C   C5        1.0  0.51920  0.80302  0.11888  1.0000
  C   C6        1.0  0.47802  0.19320  0.39031  1.0000
  C   C7        1.0  0.33024  0.86903  0.39423  1.0000
  C   C8        1.0  0.67760  0.13465  0.09162  1.0000
  C   C9        1.0  0.29041  0.84165  0.92967  1.0000
  C   C10       1.0  0.70069  0.15318  0.59836  1.0000
  C   C11       1.0  0.29056  0.81414  0.34128  1.0000
  C   C12       1.0  0.71655  0.19016  0.13883  1.0000
  C   C13       1.0  0.31216  0.43278  0.27323  1.0000
  C   C14       1.0  0.69121  0.56712  0.19894  1.0000
  C   C15       1.0  0.28832  0.43912  0.25563  1.0000
  C   C16       1.0  0.71570  0.56196  0.21809  1.0000
  C   C17       1.0  0.25734  0.42272  0.30517  1.0000
  C   C18       1.0  0.74620  0.57755  0.15817  1.0000
  C   C19       1.0  0.24001  0.43543  0.26840  1.0000
  C   C20       1.0  0.76436  0.56654  0.20308  1.0000
  C   C21       1.0  0.25935  0.46280  0.19087  1.0000
  C   C22       1.0  0.74602  0.54121  0.29729  1.0000
  C   C23       1.0  0.24770  0.47942  0.14363  1.0000
  C   C24       1.0  0.75851  0.52629  0.35342  1.0000
  C   C25       1.0  0.21583  0.46850  0.17058  1.0000
  C   C26       1.0  0.79027  0.53711  0.31930  1.0000
  C   C27       1.0  0.19651  0.44097  0.24670  1.0000
  C   C28       1.0  0.80871  0.56273  0.22715  1.0000
  C   C29       1.0  0.20818  0.42467  0.29666  1.0000
  C   C30       1.0  0.79611  0.57727  0.16831  1.0000
  C   C31       1.0  0.56472  0.68789  0.26166  1.0000
  C   C32       1.0  0.43469  0.30749  0.21003  1.0000
  C   C33       1.0  0.55860  0.71173  0.24407  1.0000
  C   C34       1.0  0.44016  0.28336  0.23146  1.0000
  C   C35       1.0  0.57689  0.74278  0.28020  1.0000
  C   C36       1.0  0.42230  0.25226  0.19309  1.0000
  C   C37       1.0  0.56417  0.76028  0.24686  1.0000
  C   C38       1.0  0.43416  0.23477  0.23719  1.0000
  C   C39       1.0  0.53504  0.74112  0.18432  1.0000
  C   C40       1.0  0.46255  0.25414  0.30700  1.0000
  C   C41       1.0  0.51840  0.75317  0.14145  1.0000
  C   C42       1.0  0.47874  0.24240  0.35771  1.0000
  C   C43       1.0  0.53104  0.78515  0.15867  1.0000
  C   C44       1.0  0.46622  0.21050  0.34391  1.0000
  C   C45       1.0  0.56017  0.80421  0.22141  1.0000
  C   C46       1.0  0.43748  0.19108  0.27766  1.0000
  C   C47       1.0  0.57655  0.79217  0.26681  1.0000
  C   C48       1.0  0.42172  0.20283  0.22243  1.0000
  C   C49       1.0  0.11791  0.68351  0.95863  1.0000
  C   C50       1.0  0.87407  0.31031  0.53304  1.0000
  C   C51       1.0  0.14780  0.70966  0.95367  1.0000
  C   C52       1.0  0.84416  0.28422  0.54601  1.0000
  C   C53       1.0  0.15823  0.73621  0.06130  1.0000
  C   C54       1.0  0.83258  0.25763  0.43911  1.0000
  C   C55       1.0  0.18926  0.75779  0.01716  1.0000
  C   C56       1.0  0.80191  0.23620  0.49114  1.0000
  C   C57       1.0  0.21002  0.74884  0.37296  1.0000
  C   C58       1.0  0.79708  0.25565  0.11062  1.0000
  C   C59       1.0  0.24111  0.76340  0.31950  1.0000
  C   C60       1.0  0.76571  0.24135  0.15690  1.0000
  C   C61       1.0  0.24963  0.79262  0.87843  1.0000
  C   C62       1.0  0.74236  0.20211  0.64152  1.0000
  C   C63       1.0  0.23701  0.80438  0.02447  1.0000
  C   C64       1.0  0.75378  0.18989  0.49245  1.0000
  C   C65       1.0  0.20721  0.78733  0.09431  1.0000
  C   C66       1.0  0.78317  0.20667  0.41658  1.0000
  C   C67       1.0  0.14238  0.46698  0.13946  1.0000
  C   C68       1.0  0.86399  0.53974  0.34898  1.0000
  C   C69       1.0  0.16711  0.46294  0.16841  1.0000
  C   C70       1.0  0.83920  0.54315  0.31613  1.0000
  C   C71       1.0  0.19826  0.48048  0.12809  1.0000
  C   C72       1.0  0.80841  0.52645  0.36756  1.0000
  C   C73       1.0  0.53780  0.86234  0.60969  1.0000
  C   C74       1.0  0.46077  0.14066  0.89292  1.0000
  C   C75       1.0  0.54223  0.83828  0.64324  1.0000
  C   C76       1.0  0.45752  0.16545  0.85940  1.0000
  C   C77       1.0  0.52479  0.80720  0.60138  1.0000
  C   C78       1.0  0.47649  0.19654  0.89065  1.0000
  C   C79       1.0  0.31924  0.86826  0.90160  1.0000
  C   C80       1.0  0.67144  0.12726  0.63236  1.0000
  C   C81       1.0  0.30008  0.84371  0.41623  1.0000
  C   C82       1.0  0.70751  0.16031  0.07024  1.0000
  C   C83       1.0  0.28001  0.81447  0.82759  1.0000
  C   C84       1.0  0.71214  0.18071  0.69772  1.0000
  C   C85       1.0  0.30527  0.42633  0.79215  1.0000
  C   C86       1.0  0.68984  0.57158  0.73918  1.0000
  C   C87       1.0  0.28034  0.43137  0.78038  1.0000
  C   C88       1.0  0.71402  0.56506  0.74676  1.0000
  C   C89       1.0  0.24950  0.41433  0.82999  1.0000
  C   C90       1.0  0.74521  0.58327  0.71183  1.0000
  C   C91       1.0  0.23162  0.42658  0.79480  1.0000
  C   C92       1.0  0.76271  0.56962  0.73410  1.0000
  C   C93       1.0  0.25049  0.45424  0.71932  1.0000
  C   C94       1.0  0.74328  0.53969  0.78494  1.0000
  C   C95       1.0  0.23842  0.47063  0.67469  1.0000
  C   C96       1.0  0.75500  0.52175  0.81463  1.0000
  C   C97       1.0  0.20652  0.45912  0.70197  1.0000
  C   C98       1.0  0.78699  0.53380  0.79704  1.0000
  C   C99       1.0  0.18753  0.43112  0.77408  1.0000
  C   C100      1.0  0.80643  0.56386  0.74805  1.0000
  C   C101      1.0  0.19970  0.41505  0.82192  1.0000
  C   C102      1.0  0.79471  0.58156  0.71507  1.0000
  C   C103      1.0  0.56688  0.69257  0.79180  1.0000
  C   C104      1.0  0.43424  0.31176  0.71146  1.0000
  C   C105      1.0  0.56160  0.71673  0.76822  1.0000
  C   C106      1.0  0.43999  0.28780  0.73168  1.0000
  C   C107      1.0  0.57815  0.74766  0.81748  1.0000
  C   C108      1.0  0.42237  0.25678  0.68973  1.0000
  C   C109      1.0  0.56652  0.76516  0.77108  1.0000
  C   C110      1.0  0.43416  0.23918  0.73276  1.0000
  C   C111      1.0  0.53992  0.74599  0.68549  1.0000
  C   C112      1.0  0.46215  0.25831  0.80675  1.0000
  C   C113      1.0  0.52453  0.75781  0.62730  1.0000
  C   C114      1.0  0.47789  0.24633  0.86000  1.0000
  C   C115      1.0  0.53585  0.78965  0.65234  1.0000
  C   C116      1.0  0.46543  0.21435  0.84244  1.0000
  C   C117      1.0  0.56260  0.80885  0.73660  1.0000
  C   C118      1.0  0.43715  0.19525  0.77106  1.0000
  C   C119      1.0  0.57774  0.79699  0.79673  1.0000
  C   C120      1.0  0.42176  0.20725  0.71482  1.0000
  C   C121      1.0  0.12310  0.69112  0.44188  1.0000
  C   C122      1.0  0.88397  0.31326  0.05625  1.0000
  C   C123      1.0  0.15386  0.71584  0.43649  1.0000
  C   C124      1.0  0.85341  0.28837  0.05734  1.0000
  C   C125      1.0  0.16378  0.74484  0.51985  1.0000
  C   C126      1.0  0.84414  0.25889  0.98222  1.0000
  C   C127      1.0  0.19573  0.76446  0.48520  1.0000
  C   C128      1.0  0.81205  0.23942  0.01162  1.0000
  C   C129      1.0  0.20209  0.74606  0.87170  1.0000
  C   C130      1.0  0.79046  0.24812  0.64145  1.0000
  C   C131      1.0  0.23185  0.76311  0.80220  1.0000
  C   C132      1.0  0.76100  0.23157  0.71587  1.0000
  C   C133      1.0  0.25874  0.79435  0.37827  1.0000
  C   C134      1.0  0.74848  0.20998  0.10518  1.0000
  C   C135      1.0  0.24434  0.81011  0.48813  1.0000
  C   C136      1.0  0.76351  0.19376  0.00668  1.0000
  C   C137      1.0  0.21331  0.79545  0.54294  1.0000
  C   C138      1.0  0.79480  0.20815  0.95879  1.0000
  C   C139      1.0  0.13321  0.45702  0.66825  1.0000
  C   C140      1.0  0.86022  0.53437  0.82129  1.0000
  C   C141      1.0  0.15762  0.45288  0.69991  1.0000
  C   C142      1.0  0.83575  0.53950  0.79998  1.0000
  C   C143      1.0  0.18872  0.47099  0.66213  1.0000
  C   C144      1.0  0.80451  0.52052  0.82490  1.0000
  S   S1        1.0  0.57177  0.84288  0.22847  1.0000
  S   S2        1.0  0.42610  0.15251  0.27792  1.0000
  S   S3        1.0  0.26327  0.84166  0.09368  1.0000
  S   S4        1.0  0.72665  0.15253  0.42864  1.0000
  S   S5        1.0  0.29771  0.47131  0.16396  1.0000
  S   S6        1.0  0.70763  0.53255  0.32974  1.0000
  S   S7        1.0  0.52456  0.70248  0.17020  1.0000
  S   S8        1.0  0.47291  0.29270  0.31936  1.0000
  S   S9        1.0  0.18359  0.71109  0.31391  1.0000
  S   S10       1.0  0.82301  0.29381  0.16437  1.0000
  S   S11       1.0  0.15788  0.43100  0.26241  1.0000
  S   S12       1.0  0.84743  0.57264  0.20443  1.0000
  S   S13       1.0  0.57315  0.84747  0.74768  1.0000
  S   S14       1.0  0.42516  0.15655  0.76891  1.0000
  S   S15       1.0  0.27033  0.84850  0.53766  1.0000
  S   S16       1.0  0.73787  0.15519  0.95995  1.0000
  S   S17       1.0  0.28903  0.46366  0.69184  1.0000
  S   S18       1.0  0.70465  0.52984  0.80420  1.0000
  S   S19       1.0  0.53054  0.70756  0.66490  1.0000
  S   S20       1.0  0.47241  0.29692  0.82226  1.0000
  S   S21       1.0  0.17581  0.70948  0.79573  1.0000
  S   S22       1.0  0.81780  0.28445  0.71419  1.0000
  S   S23       1.0  0.14875  0.42042  0.78733  1.0000
  S   S24       1.0  0.84512  0.57460  0.74039  1.0000
  N   N1        1.0  0.56170  0.99865  0.13260  1.0000
  N   N2        1.0  0.45048  0.00220  0.35786  1.0000
  N   N3        1.0  0.55652  0.88657  0.16183  1.0000
  N   N4        1.0  0.44381  0.10984  0.35978  1.0000
  N   N5        1.0  0.32778  0.89309  0.00298  1.0000
  N   N6        1.0  0.66062  0.10234  0.53188  1.0000
  N   N7        1.0  0.55621  0.55587  0.25371  1.0000
  N   N8        1.0  0.44601  0.44190  0.24390  1.0000
  N   N9        1.0  0.33980  0.44925  0.20687  1.0000
  N   N10       1.0  0.66445  0.55175  0.27725  1.0000
  N   N11       1.0  0.54508  0.65960  0.22185  1.0000
  N   N12       1.0  0.45243  0.33522  0.27078  1.0000
  N   N13       1.0  0.11644  0.66621  0.34222  1.0000
  N   N14       1.0  0.88932  0.33874  0.14819  1.0000
  N   N15       1.0  0.11464  0.44755  0.19054  1.0000
  N   N16       1.0  0.89161  0.55818  0.29121  1.0000
  N   N17       1.0  0.00180  0.55901  0.32477  1.0000
  N   N18       1.0  0.00336  0.44618  0.17324  1.0000
  N   N19       1.0  0.54760  0.99665  0.65779  1.0000
  N   N20       1.0  0.43734  0.00205  0.88312  1.0000
  N   N21       1.0  0.55668  0.89050  0.65768  1.0000
  N   N22       1.0  0.43940  0.11297  0.85664  1.0000
  N   N23       1.0  0.33661  0.89649  0.46112  1.0000
  N   N24       1.0  0.67231  0.10741  0.02510  1.0000
  N   N25       1.0  0.55413  0.55740  0.75900  1.0000
  N   N26       1.0  0.44291  0.44447  0.73739  1.0000
  N   N27       1.0  0.33223  0.44442  0.72473  1.0000
  N   N28       1.0  0.66178  0.55212  0.78526  1.0000
  N   N29       1.0  0.54918  0.66483  0.73077  1.0000
  N   N30       1.0  0.45225  0.33968  0.76838  1.0000
  N   N31       1.0  0.11098  0.66178  0.83748  1.0000
  N   N32       1.0  0.88239  0.33198  0.65421  1.0000
  N   N33       1.0  0.10513  0.43669  0.70661  1.0000
  N   N34       1.0  0.88824  0.55591  0.79582  1.0000
  N   N35       1.0  0.99738  0.55337  0.81808  1.0000
  N   N36       1.0  0.99700  0.43944  0.66262  1.0000
  C   C145      1.0  0.48889  0.97638  0.35103  1.0000
  C   C146      1.0  0.47956  0.99643  0.32104  1.0000
  C  Sn1       1.0  0.99785  0.01821  0.21290  1.0000
  C  Sn2       1.0  0.02587  0.01990  0.13347  1.0000
  C   C147      1.0  0.53487  0.99972  0.16421  1.0000
  C   C148      1.0  0.51651  0.97802  0.27269  1.0000
  H   H73       1.0  0.47468  0.95958  0.43489  1.0000
  O  Te1       1.0  0.98820  0.03808  0.18438  1.0000
  O  Te2       1.0  0.04447  0.04144  0.02477  1.0000
  H   H74       1.0  0.52373  0.96249  0.29580  1.0000
  Mg  Mg1       1.0  0.02147  0.06351  0.02592  1.0000
  C   C149      1.0  0.58859  0.96422  0.18457  1.0000
  C   C150      1.0  0.56935  0.97075  0.11962  1.0000
  C  Sn3       1.0  0.54164  0.94716  0.06791  1.0000
  C  Sn4       1.0  0.53310  0.91650  0.08167  1.0000
  C   C151      1.0  0.55250  0.91021  0.14693  1.0000
  C   C152      1.0  0.58018  0.93398  0.19825  1.0000
  H   H75       1.0  0.61000  0.98261  0.22437  1.0000
  O  Te3       1.0  0.52270  0.95409  0.00324  1.0000
  O  Te4       1.0  0.50554  0.89249  0.03098  1.0000
  H   H76       1.0  0.59506  0.92891  0.24864  1.0000
  Mg  Mg2       1.0  0.46704  0.93508  0.95092  1.0000
  C   C153      1.0  0.41871  0.04765  0.32310  1.0000
  C   C154      1.0  0.43994  0.07766  0.37329  1.0000
  C  Sn5       1.0  0.46769  0.08405  0.42085  1.0000
  C  Sn6       1.0  0.47425  0.05991  0.41794  1.0000
  C   C155      1.0  0.45287  0.02997  0.36741  1.0000
  C   C156      1.0  0.42517  0.02383  0.32012  1.0000
  H   H77       1.0  0.39728  0.04290  0.28642  1.0000
  O  Te5       1.0  0.48864  0.11416  0.47073  1.0000
  O  Te6       1.0  0.50182  0.06566  0.46478  1.0000
  H   H78       1.0  0.90862  0.00060  0.28116  1.0000
  Mg  Mg3       1.0  0.52305  0.11047  0.52325  1.0000
  C   C157      1.0  0.41171  0.93879  0.27170  1.0000
  C   C158      1.0  0.42148  0.96826  0.35312  1.0000
  C  Sn7       1.0  0.40268  0.97417  0.48315  1.0000
  C  Sn8       1.0  0.37359  0.95007  0.53233  1.0000
  C   C159      1.0  0.36403  0.92066  0.45016  1.0000
  C   C160      1.0  0.38302  0.91500  0.32017  1.0000
  H   H79       1.0  0.42640  0.93440  0.17118  1.0000
  O  Te7       1.0  0.41279  0.00375  0.56312  1.0000
  O  Te8       1.0  0.35435  0.95534  0.66194  1.0000
  H   H80       1.0  0.37546  0.89218  0.25722  1.0000
  Mg  Mg4       1.0  0.37833  0.99952  0.73268  1.0000
  C   C161      1.0  0.62146  0.03054  0.97186  1.0000
  C   C162      1.0  0.61667  0.00340  0.08934  1.0000
  C  Sn9       1.0  0.61460  0.02763  0.19144  1.0000
  C  Sn10      1.0  0.63821  0.05797  0.17530  1.0000
  C   C163      1.0  0.66331  0.06329  0.05731  1.0000
  C   C164      1.0  0.64476  0.06046  0.95582  1.0000
  H   H81       1.0  0.12276  0.01165  0.89326  1.0000
  O  Te9       1.0  0.58927  0.02168  0.30821  1.0000
  O  Te10      1.0  0.63672  0.08262  0.27571  1.0000
  H   H82       1.0  0.66425  0.06477  0.86480  1.0000
  Mg  Mg5       1.0  0.59762  0.06287  0.41652  1.0000
  C   C165      1.0  0.52486  0.49171  0.16319  1.0000
  C   C166      1.0  0.52914  0.52101  0.22331  1.0000
  C  Sn11      1.0  0.50458  0.52514  0.30568  1.0000
  C  Sn12      1.0  0.47522  0.49941  0.32813  1.0000
  C   C167      1.0  0.47119  0.47020  0.26763  1.0000
  C   C168      1.0  0.49592  0.46633  0.18534  1.0000
  H   H83       1.0  0.54400  0.48872  0.09960  1.0000
  O  Te11      1.0  0.50925  0.55457  0.36490  1.0000
  O  Te12      1.0  0.45029  0.50288  0.41005  1.0000
  H   H84       1.0  0.49260  0.44364  0.13891  1.0000
  Mg  Mg6       1.0  0.46814  0.54759  0.46838  1.0000
  C   C169      1.0  0.38193  0.41942  0.32850  1.0000
  C   C170      1.0  0.41111  0.43529  0.24654  1.0000
  C  Sn13      1.0  0.41732  0.45765  0.14985  1.0000
  C  Sn14      1.0  0.39383  0.46420  0.13520  1.0000
  C   C171      1.0  0.36472  0.44821  0.21778  1.0000
  C   C172      1.0  0.35875  0.42587  0.31417  1.0000
  H   H85       1.0  0.37732  0.40215  0.40315  1.0000
  O  Te13      1.0  0.44659  0.47328  0.06875  1.0000
  O  Te14      1.0  0.39941  0.48645  0.03942  1.0000
  H   H86       1.0  0.33616  0.41360  0.37770  1.0000
  Mg  Mg7       1.0  0.42258  0.52317  0.95262  1.0000
  C   C173      1.0  0.60300  0.53131  0.35897  1.0000
  C   C174      1.0  0.63208  0.54853  0.27953  1.0000
  C  Sn15      1.0  0.63764  0.57193  0.19242  1.0000
  C  Sn16      1.0  0.61359  0.57815  0.18496  1.0000
  C   C175      1.0  0.58458  0.56079  0.26495  1.0000
  C   C176      1.0  0.57927  0.53743  0.35172  1.0000
  H   H87       1.0  0.59889  0.51324  0.42619  1.0000
  O  Te15      1.0  0.66683  0.58892  0.11371  1.0000
  O  Te16      1.0  0.61852  0.60141  0.09881  1.0000
  H   H88       1.0  0.55675  0.52411  0.41331  1.0000
  Mg  Mg8       1.0  0.66224  0.61823  0.01169  1.0000
  C   C177      1.0  0.57846  0.61985  0.33123  1.0000
  C   C178      1.0  0.55940  0.58949  0.27388  1.0000
  C  Sn17      1.0  0.53515  0.58211  0.18726  1.0000
  C  Sn18      1.0  0.52995  0.60559  0.15767  1.0000
  C   C179      1.0  0.54916  0.63589  0.21546  1.0000
  C   C180      1.0  0.57335  0.64303  0.30204  1.0000
  H   H89       1.0  0.59719  0.62538  0.39814  1.0000
  O  Te17      1.0  0.51632  0.55166  0.13088  1.0000
  O  Te18      1.0  0.50588  0.59885  0.07139  1.0000
  H   H90       1.0  0.58812  0.66654  0.34634  1.0000
  Mg  Mg9       1.0  0.48650  0.55393  0.01936  1.0000
  C   C181      1.0  0.47271  0.41119  0.34113  1.0000
  C   C182      1.0  0.45317  0.41554  0.26488  1.0000
  C  Sn19      1.0  0.42924  0.39060  0.18726  1.0000
  C  Sn20      1.0  0.42484  0.36077  0.18620  1.0000
  C   C183      1.0  0.44451  0.35665  0.26293  1.0000
  C   C184      1.0  0.46839  0.38177  0.34020  1.0000
  H   H91       1.0  0.49118  0.43062  0.40099  1.0000
  O  Te19      1.0  0.40993  0.39536  0.11161  1.0000
  O  Te20      1.0  0.40110  0.33543  0.10957  1.0000
  H   H92       1.0  0.48351  0.37839  0.39931  1.0000
  Mg  Mg10      1.0  0.38083  0.35360  0.02324  1.0000
  C   C185      1.0  0.97857  0.49881  0.16164  1.0000
  C   C186      1.0  0.99524  0.52435  0.26892  1.0000
  C  Sn21      1.0  0.01795  0.52541  0.34605  1.0000
  C  Sn22      1.0  0.02402  0.50042  0.31492  1.0000
  C   C187      1.0  0.00723  0.47499  0.20730  1.0000
  C   C188      1.0  0.98455  0.47416  0.13082  1.0000
  H   H93       1.0  0.96103  0.49817  0.10239  1.0000
  O  Te21      1.0  0.03438  0.55110  0.45293  1.0000
  O  Te22      1.0  0.04660  0.50090  0.39031  1.0000
  H   H94       1.0  0.97166  0.45439  0.04768  1.0000
  Mg  Mg11      1.0  0.06285  0.54099  0.52617  1.0000
  C   C189      1.0  0.03740  0.62017  0.45864  1.0000
  C   C190      1.0  0.02968  0.59388  0.34692  1.0000
  C  Sn23      1.0  0.05213  0.59086  0.23179  1.0000
  C  Sn24      1.0  0.08286  0.61465  0.22879  1.0000
  C   C191      1.0  0.09036  0.64086  0.34116  1.0000
  C   C192      1.0  0.06772  0.64364  0.45581  1.0000
  H   H95       1.0  0.01989  0.62232  0.54741  1.0000
  O  Te23      1.0  0.04401  0.56444  0.12102  1.0000
  O  Te24      1.0  0.10576  0.61222  0.11507  1.0000
  H   H96       1.0  0.07371  0.66399  0.54237  1.0000
  Mg  Mg12      1.0  0.06295  0.59339  0.98928  1.0000
  C   C193      1.0  0.93986  0.41286  0.27435  1.0000
  C   C194      1.0  0.96910  0.41862  0.20143  1.0000
  C  Sn25      1.0  0.97324  0.39600  0.09361  1.0000
  C  Sn26      1.0  0.94758  0.36712  0.05834  1.0000
  C   C195      1.0  0.91842  0.36160  0.13183  1.0000
  C   C196      1.0  0.91454  0.38439  0.23958  1.0000
  H   H97       1.0  0.93685  0.43050  0.35766  1.0000
  O  Te25      1.0  0.00261  0.40213  0.02187  1.0000
  O  Te26      1.0  0.93066  0.36571  0.95098  1.0000
  H   H98       1.0  0.89189  0.37993  0.29594  1.0000
  Mg  Mg13      1.0  0.97528  0.38503  0.88376  1.0000
  C   C197      1.0  0.08262  0.47375  0.08514  1.0000
  C   C198      1.0  0.08905  0.45526  0.15706  1.0000
  C  Sn27      1.0  0.06528  0.42991  0.22863  1.0000
  C  Sn28      1.0  0.03453  0.42300  0.22796  1.0000
  C   C199      1.0  0.02834  0.44163  0.15561  1.0000
  C   C200      1.0  0.05230  0.46694  0.08438  1.0000
  H   H99       1.0  0.10116  0.49333  0.02995  1.0000
  O  Te27      1.0  0.07211  0.41169  0.30000  1.0000
  O  Te28      1.0  0.01034  0.39780  0.29858  1.0000
  H   H100      1.0  0.04731  0.48124  0.02862  1.0000
  Mg  Mg14      1.0  0.03126  0.37985  0.38074  1.0000
  C   C201      1.0  0.92231  0.53011  0.39022  1.0000
  C   C202      1.0  0.91687  0.55173  0.34320  1.0000
  C  Sn29      1.0  0.94121  0.57810  0.28314  1.0000
  C  Sn30      1.0  0.97153  0.58282  0.27002  1.0000
  C   C203      1.0  0.97673  0.56104  0.31728  1.0000
  C   C204      1.0  0.95220  0.53475  0.37726  1.0000
  H   H101      1.0  0.90333  0.50976  0.43654  1.0000
  O  Te29      1.0  0.93538  0.59948  0.23677  1.0000
  O  Te30      1.0  0.99628  0.60896  0.21036  1.0000
  H   H102      1.0  0.95641  0.51800  0.41355  1.0000
  Mg  Mg15      1.0  0.97668  0.63147  0.16279  1.0000
  C   C205      1.0  0.47531  0.97571  0.87849  1.0000
  C   C206      1.0  0.46653  0.99616  0.84824  1.0000
  C  Sn31      1.0  0.98488  0.01746  0.73765  1.0000
  C  Sn32      1.0  0.01240  0.01823  0.65599  1.0000
  C   C207      1.0  0.52086  0.99766  0.68701  1.0000
  C   C208      1.0  0.50245  0.97645  0.79796  1.0000
  H   H103      1.0  0.46106  0.95929  0.96426  1.0000
  O  Te31      1.0  0.97577  0.03773  0.70889  1.0000
  O  Te32      1.0  0.03105  0.03927  0.54481  1.0000
  H   H104      1.0  0.50925  0.96061  0.82128  1.0000
  Mg  Mg16      1.0  0.00888  0.06220  0.54664  1.0000
  C   C209      1.0  0.58085  0.95271  0.69468  1.0000
  C   C210      1.0  0.55880  0.92231  0.66037  1.0000
  C  Sn33      1.0  0.53132  0.91531  0.60666  1.0000
  C  Sn34      1.0  0.52590  0.93923  0.58701  1.0000
  C   C211      1.0  0.54812  0.96957  0.62155  1.0000
  C   C212      1.0  0.57552  0.97632  0.67527  1.0000
  H   H105      1.0  0.60207  0.95794  0.73616  1.0000
  O  Te33      1.0  0.50953  0.88481  0.57298  1.0000
  O  Te34      1.0  0.49864  0.93287  0.53345  1.0000
  H   H106      1.0  0.59261  0.99986  0.70173  1.0000
  Mg  Mg17      1.0  0.47595  0.88771  0.50323  1.0000
  C   C213      1.0  0.41024  0.05056  0.82745  1.0000
  C   C214      1.0  0.43258  0.08008  0.87687  1.0000
  C  Sn35      1.0  0.45878  0.08472  0.93551  1.0000
  C  Sn36      1.0  0.46262  0.05930  0.94467  1.0000
  C   C215      1.0  0.44016  0.02986  0.89482  1.0000
  C   C216      1.0  0.41403  0.02547  0.83638  1.0000
  H   H107      1.0  0.39003  0.04716  0.78215  1.0000
  O  Te35      1.0  0.48086  0.11436  0.98444  1.0000
  O  Te36      1.0  0.50899  0.04171  0.00274  1.0000
  H   H108      1.0  0.89662  0.00262  0.79802  1.0000
  Mg  Mg18      1.0  0.53268  0.08653  0.05498  1.0000
  C   C217      1.0  0.40215  0.93796  0.81500  1.0000
  C   C218      1.0  0.40858  0.96782  0.87727  1.0000
  C  Sn37      1.0  0.38801  0.97324  0.99679  1.0000
  C  Sn38      1.0  0.38093  0.92666  0.05483  1.0000
  C   C219      1.0  0.35431  0.91846  0.99184  1.0000
  C   C220      1.0  0.37505  0.91330  0.87223  1.0000
  H   H109      1.0  0.41820  0.93396  0.72253  1.0000
  O  Te37      1.0  0.41519  0.98163  0.05763  1.0000
  O  Te38      1.0  0.35997  0.93143  0.17426  1.0000
  H   H110      1.0  0.37007  0.89017  0.82412  1.0000
  Mg  Mg19      1.0  0.37945  0.97645  0.21929  1.0000
  C   C221      1.0  0.62054  0.04100  0.46642  1.0000
  C   C222      1.0  0.63002  0.07096  0.53982  1.0000
  C  Sn39      1.0  0.61160  0.07741  0.67003  1.0000
  C  Sn40      1.0  0.58320  0.05338  0.72760  1.0000
  C   C223      1.0  0.57393  0.02349  0.65342  1.0000
  C   C224      1.0  0.59253  0.01729  0.52316  1.0000
  H   H111      1.0  0.63494  0.03620  0.36569  1.0000
  O  Te39      1.0  0.62141  0.10747  0.74193  1.0000
  O  Te40      1.0  0.56435  0.05919  0.85759  1.0000
  H   H112      1.0  0.08508  0.99409  0.46642  1.0000
  Mg  Mg20      1.0  0.58769  0.10389  0.91549  1.0000
  C   C225      1.0  0.50672  0.47905  0.65296  1.0000
  C   C226      1.0  0.47743  0.47251  0.72859  1.0000
  C  Sn41      1.0  0.47185  0.49589  0.81590  1.0000
  C  Sn42      1.0  0.49610  0.52636  0.82746  1.0000
  C   C227      1.0  0.52532  0.53267  0.75126  1.0000
  C   C228      1.0  0.53064  0.50910  0.66424  1.0000
  H   H113      1.0  0.51084  0.46082  0.58555  1.0000
  O  Te41      1.0  0.44245  0.48896  0.89078  1.0000
  O  Te42      1.0  0.49116  0.55017  0.91391  1.0000
  H   H114      1.0  0.55332  0.51417  0.60561  1.0000
  Mg  Mg21      1.0  0.44712  0.52924  0.99488  1.0000
  C   C229      1.0  0.36354  0.41581  0.80905  1.0000
  C   C230      1.0  0.35789  0.43653  0.75333  1.0000
  C  Sn43      1.0  0.38178  0.46106  0.67620  1.0000
  C  Sn44      1.0  0.41186  0.46486  0.65458  1.0000
  C   C231      1.0  0.41727  0.44400  0.71065  1.0000
  C   C232      1.0  0.39320  0.41953  0.78772  1.0000
  H   H115      1.0  0.34492  0.39687  0.86859  1.0000
  O  Te43      1.0  0.37574  0.48155  0.62132  1.0000
  O  Te44      1.0  0.43615  0.48917  0.57785  1.0000
  H   H116      1.0  0.39758  0.40349  0.83075  1.0000
  Mg  Mg22      1.0  0.41641  0.51106  0.52416  1.0000
  C   C233      1.0  0.60017  0.53171  0.86414  1.0000
  C   C234      1.0  0.62938  0.54890  0.78584  1.0000
  C  Sn45      1.0  0.63517  0.57231  0.69818  1.0000
  C  Sn46      1.0  0.61124  0.57859  0.68898  1.0000
  C   C235      1.0  0.58210  0.56127  0.76784  1.0000
  C   C236      1.0  0.57655  0.53789  0.85519  1.0000
  H   H117      1.0  0.59588  0.51363  0.93181  1.0000
  O  Te45      1.0  0.66448  0.58926  0.62062  1.0000
  O  Te46      1.0  0.61640  0.60186  0.60224  1.0000
  H   H118      1.0  0.55394  0.52459  0.91589  1.0000
  Mg  Mg23      1.0  0.66021  0.61862  0.51718  1.0000
  C   C237      1.0  0.52871  0.60340  0.65114  1.0000
  C   C238      1.0  0.54537  0.63236  0.73389  1.0000
  C  Sn47      1.0  0.56814  0.63795  0.82707  1.0000
  C  Sn48      1.0  0.57430  0.61405  0.83733  1.0000
  C   C239      1.0  0.55753  0.58517  0.75400  1.0000
  C   C240      1.0  0.53478  0.57982  0.66115  1.0000
  H   H119      1.0  0.51112  0.59926  0.57922  1.0000
  O  Te47      1.0  0.58456  0.66701  0.90902  1.0000
  O  Te48      1.0  0.59694  0.61902  0.92955  1.0000
  H   H120      1.0  0.52190  0.55740  0.59701  1.0000
  Mg  Mg24      1.0  0.63354  0.64094  0.01918  1.0000
  C   C241      1.0  0.42234  0.36671  0.65252  1.0000
  C   C242      1.0  0.44279  0.36333  0.72661  1.0000
  C  Sn49      1.0  0.46390  0.38806  0.82125  1.0000
  C  Sn50      1.0  0.46449  0.41668  0.84190  1.0000
  C   C243      1.0  0.44392  0.41982  0.76737  1.0000
  C   C244      1.0  0.42290  0.39492  0.67288  1.0000
  H   H121      1.0  0.40606  0.34744  0.57949  1.0000
  O  Te49      1.0  0.48418  0.38429  0.89436  1.0000
  O  Te50      1.0  0.48534  0.44177  0.93589  1.0000
  H   H122      1.0  0.40705  0.39754  0.61562  1.0000
  Mg  Mg25      1.0  0.52875  0.40368  0.01091  1.0000
  C   C245      1.0  0.02286  0.50064  0.81397  1.0000
  C   C246      1.0  0.00223  0.47340  0.73140  1.0000
  C  Sn51      1.0  0.97877  0.47234  0.66129  1.0000
  C  Sn52      1.0  0.97596  0.49907  0.67424  1.0000
  C   C247      1.0  0.99673  0.52621  0.75700  1.0000
  C   C248      1.0  0.02012  0.52702  0.82675  1.0000
  H   H123      1.0  0.04097  0.50127  0.86787  1.0000
  O  Te51      1.0  0.95835  0.44493  0.57927  1.0000
  O  Te52      1.0  0.95273  0.49865  0.60525  1.0000
  H   H124      1.0  0.03610  0.54812  0.89058  1.0000
  Mg  Mg26      1.0  0.93050  0.45583  0.50571  1.0000
  C   C249      1.0  0.04672  0.63002  0.94398  1.0000
  C   C250      1.0  0.07588  0.63585  0.86902  1.0000
  C  Sn53      1.0  0.07984  0.61344  0.75820  1.0000
  C  Sn54      1.0  0.05410  0.58469  0.72198  1.0000
  C   C251      1.0  0.02502  0.57909  0.79754  1.0000
  C   C252      1.0  0.02132  0.60167  0.90828  1.0000
  H   H125      1.0  0.06426  0.62591  0.02960  1.0000
  O  Te53      1.0  0.10913  0.61965  0.68444  1.0000
  O  Te54      1.0  0.05740  0.56189  0.61165  1.0000
  H   H126      1.0  0.99874  0.59715  0.96622  1.0000
  Mg  Mg27      1.0  0.10196  0.58125  0.54252  1.0000
  C   C253      1.0  0.96100  0.37804  0.53347  1.0000
  C   C254      1.0  0.96795  0.40611  0.62739  1.0000
  C  Sn55      1.0  0.94581  0.40938  0.74402  1.0000
  C  Sn56      1.0  0.91619  0.38404  0.76679  1.0000
  C   C255      1.0  0.90947  0.35605  0.67229  1.0000
  C   C256      1.0  0.93179  0.35303  0.55589  1.0000
  H   H127      1.0  0.97828  0.37570  0.44347  1.0000
  O  Te55      1.0  0.95314  0.43758  0.83677  1.0000
  O  Te56      1.0  0.89363  0.38667  0.88253  1.0000
  H   H128      1.0  0.92641  0.33129  0.48327  1.0000
  Mg  Mg28      1.0  0.91465  0.42981  0.97918  1.0000
  C   C257      1.0  0.06154  0.46602  0.59730  1.0000
  C   C258      1.0  0.03141  0.44342  0.63243  1.0000
  C  Sn57      1.0  0.02544  0.41766  0.69963  1.0000
  C  Sn58      1.0  0.05012  0.41452  0.73218  1.0000
  C   C259      1.0  0.08018  0.43726  0.69671  1.0000
  C   C260      1.0  0.08590  0.46294  0.62943  1.0000
  H   H129      1.0  0.06596  0.48590  0.54533  1.0000
  O  Te57      1.0  0.99521  0.39530  0.73392  1.0000
  O  Te58      1.0  0.04480  0.38901  0.79937  1.0000
  H   H130      1.0  0.10922  0.48044  0.60235  1.0000
  Mg  Mg29      1.0  0.99962  0.36470  0.82480  1.0000
  C   C261      1.0  0.96524  0.58073  0.74407  1.0000
  C   C262      1.0  0.97065  0.56198  0.82008  1.0000
  C  Sn59      1.0  0.94622  0.53726  0.89341  1.0000
  C  Sn60      1.0  0.91583  0.53127  0.89035  1.0000
  C   C263      1.0  0.91066  0.55015  0.81390  1.0000
  C   C264      1.0  0.93528  0.57483  0.74094  1.0000
  H   H131      1.0  0.98429  0.59982  0.68754  1.0000
  O  Te59      1.0  0.95203  0.51876  0.96888  1.0000
  O  Te60      1.0  0.89099  0.50671  0.96265  1.0000
  H   H132      1.0  0.93109  0.58934  0.68201  1.0000
  Mg  Mg30      1.0  0.93100  0.46646  0.05053  1.0000
