data_image0
_chemical_formula_structural       H108C150N36SnCSn2CSnTe4Mg2SnCSn2CSnTe4Mg2SnCSn2CSnTe4Mg2SnCSn2CSnTe4Mg2SnCSn2CSnTe4Mg2SnCSn2CSnTe4Mg2SnCSn2CSnTe4Mg2SnCSn2CSnTe4Mg2SnCSn2CSnTe4Mg2SnCSn2CSnTe4Mg2SnCSn2CSnTe4Mg2SnCSn2CSnTe4Mg2SnCSn2CSnTe4Mg2SnCSn2CSnTe4Mg2SnCSn2CSnTe4Mg2SnCSn2CSnTe4Mg2SnCSn2CSnTe4Mg2SnCSn2CSnTe4Mg2SnCSn2CSnTe4Mg2SnCSn2CSnTe4Mg2SnCSn2CSnTe4Mg2
_chemical_formula_sum              "H108 C192 N36 Sn84 Te84 Mg42"
_cell_length_a       42.1334
_cell_length_b       43.0589
_cell_length_c       8.39532
_cell_angle_alpha    91.8472
_cell_angle_beta     86.2719
_cell_angle_gamma    118.785

_symmetry_space_group_name_H-M    'P1'
_space_group_IT_number       1

loop_
  _space_group_symop_operation_xyz
  'x, y, z'

loop_
  _atom_site_type_symbol
  _atom_site_label
  _atom_site_symmetry_multiplicity
  _atom_site_fract_x
  _atom_site_fract_y
  _atom_site_fract_z
  _atom_site_occupancy
  H   H1        1.0  0.50791  0.95706  0.41074  1.0000
  H   H2        1.0  0.49374  0.04691  0.11586  1.0000
  H   H3        1.0  0.44873  0.95538  0.41894  1.0000
  H   H4        1.0  0.55304  0.04837  0.10602  1.0000
  H   H5        1.0  0.52002  0.94016  0.12721  1.0000
  H   H6        1.0  0.52073  0.88378  0.13318  1.0000
  H   H7        1.0  0.62133  0.93455  0.36702  1.0000
  H   H8        1.0  0.62045  0.99173  0.36238  1.0000
  H   H9        1.0  0.53054  0.84001  0.13384  1.0000
  H   H10       1.0  0.46982  0.16155  0.34716  1.0000
  H   H11       1.0  0.30925  0.84517  0.09418  1.0000
  H   H12       1.0  0.69327  0.15914  0.41192  1.0000
  H   H13       1.0  0.44768  0.49311  0.09809  1.0000
  H   H14       1.0  0.55163  0.50839  0.39713  1.0000
  H   H15       1.0  0.50212  0.55161  0.10730  1.0000
  H   H16       1.0  0.49704  0.45027  0.39128  1.0000
  H   H17       1.0  0.42015  0.47792  0.40887  1.0000
  H   H18       1.0  0.36124  0.47831  0.42374  1.0000
  H   H19       1.0  0.31741  0.38737  0.11426  1.0000
  H   H20       1.0  0.37536  0.38687  0.10135  1.0000
  H   H21       1.0  0.27234  0.39388  0.13718  1.0000
  H   H22       1.0  0.72805  0.60922  0.37499  1.0000
  H   H23       1.0  0.21616  0.48100  0.36508  1.0000
  H   H24       1.0  0.78478  0.52267  0.14323  1.0000
  H   H25       1.0  0.20922  0.37283  0.10438  1.0000
  H   H26       1.0  0.79196  0.63099  0.40270  1.0000
  H   H27       1.0  0.60967  0.63076  0.11907  1.0000
  H   H28       1.0  0.60242  0.68436  0.12162  1.0000
  H   H29       1.0  0.50253  0.62999  0.40576  1.0000
  H   H30       1.0  0.51004  0.57644  0.40599  1.0000
  H   H31       1.0  0.59848  0.72694  0.31229  1.0000
  H   H32       1.0  0.40081  0.27453  0.18602  1.0000
  H   H33       1.0  0.50877  0.77767  0.11197  1.0000
  H   H34       1.0  0.61705  0.78854  0.36477  1.0000
  H   H35       1.0  0.06483  0.57806  0.40782  1.0000
  H   H36       1.0  0.93427  0.42708  0.11024  1.0000
  H   H37       1.0  0.12645  0.62974  0.38791  1.0000
  H   H38       1.0  0.87310  0.37495  0.13646  1.0000
  H   H39       1.0  0.08804  0.68301  0.09318  1.0000
  H   H40       1.0  0.91737  0.31757  0.36462  1.0000
  H   H41       1.0  0.02690  0.63090  0.10850  1.0000
  H   H42       1.0  0.97812  0.37036  0.34692  1.0000
  H   H43       1.0  0.13048  0.72396  0.31902  1.0000
  H   H44       1.0  0.87201  0.27765  0.17314  1.0000
  H   H45       1.0  0.99838  0.62313  0.40303  1.0000
  H   H46       1.0  0.94240  0.62905  0.41680  1.0000
  H   H47       1.0  0.88744  0.53103  0.15953  1.0000
  H   H48       1.0  0.94197  0.52481  0.14897  1.0000
  H   H49       1.0  0.15470  0.46169  0.32627  1.0000
  H   H50       1.0  0.84672  0.54304  0.16913  1.0000
  H   H51       1.0  0.27065  0.47195  0.34470  1.0000
  H   H52       1.0  0.72978  0.53064  0.17240  1.0000
  H   H53       1.0  0.15455  0.38154  0.12705  1.0000
  H   H54       1.0  0.84696  0.62297  0.37373  1.0000
  H   H55       1.0  0.51597  0.72402  0.14753  1.0000
  H   H56       1.0  0.60913  0.84195  0.33570  1.0000
  H   H57       1.0  0.50540  0.95354  0.90721  1.0000
  H   H58       1.0  0.49252  0.04432  0.61358  1.0000
  H   H59       1.0  0.44661  0.95306  0.91875  1.0000
  H   H60       1.0  0.55109  0.04498  0.60275  1.0000
  H   H61       1.0  0.52198  0.93843  0.59980  1.0000
  H   H62       1.0  0.52323  0.88219  0.60520  1.0000
  H   H63       1.0  0.61397  0.92953  0.90496  1.0000
  H   H64       1.0  0.61367  0.98691  0.89243  1.0000
  H   H65       1.0  0.53541  0.83944  0.60380  1.0000
  H   H66       1.0  0.46617  0.15867  0.87270  1.0000
  H   H67       1.0  0.62906  0.01075  0.59130  1.0000
  H   H68       1.0  0.68721  0.06722  0.57936  1.0000
  H   H69       1.0  0.63712  0.11714  0.87242  1.0000
  H   H70       1.0  0.57952  0.06201  0.87802  1.0000
  H   H71       1.0  0.31303  0.83665  0.62627  1.0000
  H   H72       1.0  0.69026  0.15752  0.88135  1.0000
  H   H73       1.0  0.44794  0.49241  0.60135  1.0000
  H   H74       1.0  0.55169  0.50501  0.89378  1.0000
  H   H75       1.0  0.50289  0.55025  0.61115  1.0000
  H   H76       1.0  0.49672  0.44716  0.88386  1.0000
  H   H77       1.0  0.27743  0.40216  0.58605  1.0000
  H   H78       1.0  0.72116  0.59507  0.92009  1.0000
  H   H79       1.0  0.61109  0.62868  0.63042  1.0000
  H   H80       1.0  0.60429  0.68257  0.62904  1.0000
  H   H81       1.0  0.50130  0.62737  0.89007  1.0000
  H   H82       1.0  0.50883  0.57394  0.89736  1.0000
  H   H83       1.0  0.59734  0.72437  0.82907  1.0000
  H   H84       1.0  0.40202  0.27412  0.69087  1.0000
  H   H85       1.0  0.48878  0.22071  0.89827  1.0000
  H   H86       1.0  0.38450  0.21324  0.62285  1.0000
  H   H87       1.0  0.04715  0.54765  0.58909  1.0000
  H   H88       1.0  0.94861  0.44924  0.90181  1.0000
  H   H89       1.0  0.04155  0.48817  0.57152  1.0000
  H   H90       1.0  0.95410  0.50885  0.91914  1.0000
  H   H91       1.0  0.06656  0.57262  0.86665  1.0000
  H   H92       1.0  0.93364  0.42437  0.60391  1.0000
  H   H93       1.0  0.12731  0.62542  0.84669  1.0000
  H   H94       1.0  0.87240  0.37192  0.61628  1.0000
  H   H95       1.0  0.08236  0.68358  0.63050  1.0000
  H   H96       1.0  0.91338  0.31459  0.86877  1.0000
  H   H97       1.0  0.02199  0.63049  0.64444  1.0000
  H   H98       1.0  0.97407  0.36727  0.86138  1.0000
  H   H99       1.0  0.12815  0.72490  0.79816  1.0000
  H   H100      1.0  0.87161  0.27452  0.67807  1.0000
  H   H101      1.0  0.78904  0.27381  0.88306  1.0000
  H   H102      1.0  0.76996  0.15982  0.63620  1.0000
  H   H103      1.0  0.14608  0.44778  0.87315  1.0000
  H   H104      1.0  0.85257  0.55205  0.60789  1.0000
  H   H105      1.0  0.48257  0.27500  0.86673  1.0000
  H   H106      1.0  0.39204  0.15945  0.64564  1.0000
  H   H107      1.0  0.83057  0.21397  0.60775  1.0000
  H   H108      1.0  0.72897  0.21919  0.91959  1.0000
  C   C1        1.0  0.53490  0.00244  0.25501  1.0000
  C   C2        1.0  0.46657  0.00078  0.26682  1.0000
  C   C3        1.0  0.50484  0.97648  0.34351  1.0000
  C   C4        1.0  0.49679  0.02720  0.18090  1.0000
  C   C5        1.0  0.47140  0.97558  0.34868  1.0000
  C   C6        1.0  0.53023  0.02798  0.17509  1.0000
  C   C7        1.0  0.56989  0.97022  0.24655  1.0000
  C   C8        1.0  0.54216  0.93903  0.18141  1.0000
  C   C9        1.0  0.54267  0.90705  0.18549  1.0000
  C   C10       1.0  0.57139  0.90478  0.25251  1.0000
  C   C11       1.0  0.59924  0.93620  0.31477  1.0000
  C   C12       1.0  0.59865  0.96812  0.31235  1.0000
  C   C13       1.0  0.55353  0.84428  0.20360  1.0000
  C   C14       1.0  0.44560  0.15675  0.28561  1.0000
  C   C15       1.0  0.29112  0.84493  0.19518  1.0000
  C   C16       1.0  0.71110  0.15810  0.31253  1.0000
  C   C17       1.0  0.53124  0.53445  0.25170  1.0000
  C   C18       1.0  0.46823  0.46708  0.24311  1.0000
  C   C19       1.0  0.47038  0.49639  0.16445  1.0000
  C   C20       1.0  0.52904  0.50513  0.33025  1.0000
  C   C21       1.0  0.50115  0.52942  0.16939  1.0000
  C   C22       1.0  0.49818  0.47222  0.32658  1.0000
  C   C23       1.0  0.40213  0.43248  0.25367  1.0000
  C   C24       1.0  0.39754  0.45807  0.34525  1.0000
  C   C25       1.0  0.36476  0.45845  0.35313  1.0000
  C   C26       1.0  0.33498  0.43322  0.27089  1.0000
  C   C27       1.0  0.33942  0.40702  0.18210  1.0000
  C   C28       1.0  0.37230  0.40676  0.17334  1.0000
  C   C29       1.0  0.27492  0.41640  0.21135  1.0000
  C   C30       1.0  0.72533  0.58631  0.30347  1.0000
  C   C31       1.0  0.24344  0.42191  0.22420  1.0000
  C   C32       1.0  0.75712  0.58118  0.28916  1.0000
  C   C33       1.0  0.24513  0.45259  0.29710  1.0000
  C   C34       1.0  0.75549  0.55047  0.21678  1.0000
  C   C35       1.0  0.21480  0.45732  0.30830  1.0000
  C   C36       1.0  0.78615  0.54628  0.20083  1.0000
  C   C37       1.0  0.18176  0.43163  0.24763  1.0000
  C   C38       1.0  0.81956  0.57240  0.25688  1.0000
  C   C39       1.0  0.18004  0.40093  0.17479  1.0000
  C   C40       1.0  0.82122  0.60309  0.32965  1.0000
  C   C41       1.0  0.21049  0.39633  0.16262  1.0000
  C   C42       1.0  0.79051  0.60730  0.34554  1.0000
  C   C43       1.0  0.56040  0.59956  0.26251  1.0000
  C   C44       1.0  0.58651  0.63065  0.18443  1.0000
  C   C45       1.0  0.58265  0.66100  0.18775  1.0000
  C   C46       1.0  0.55203  0.66115  0.26521  1.0000
  C   C47       1.0  0.52590  0.62993  0.34295  1.0000
  C   C48       1.0  0.53041  0.60010  0.34426  1.0000
  C   C49       1.0  0.57157  0.72181  0.27850  1.0000
  C   C50       1.0  0.42739  0.27940  0.22367  1.0000
  C   C51       1.0  0.56675  0.75276  0.25876  1.0000
  C   C52       1.0  0.53602  0.74995  0.18845  1.0000
  C   C53       1.0  0.53217  0.77985  0.16974  1.0000
  C   C54       1.0  0.55844  0.81337  0.22317  1.0000
  C   C55       1.0  0.58913  0.81609  0.29397  1.0000
  C   C56       1.0  0.59334  0.78633  0.30964  1.0000
  C   C57       1.0  0.04134  0.60057  0.25868  1.0000
  C   C58       1.0  0.96078  0.40261  0.22632  1.0000
  C   C59       1.0  0.06992  0.60088  0.33754  1.0000
  C   C60       1.0  0.93061  0.40315  0.16643  1.0000
  C   C61       1.0  0.10463  0.62968  0.32533  1.0000
  C   C62       1.0  0.89623  0.37397  0.18146  1.0000
  C   C63       1.0  0.11166  0.66007  0.23947  1.0000
  C   C64       1.0  0.89087  0.34222  0.24934  1.0000
  C   C65       1.0  0.08284  0.66021  0.16437  1.0000
  C   C66       1.0  0.92122  0.34138  0.30576  1.0000
  C   C67       1.0  0.04847  0.63069  0.17155  1.0000
  C   C68       1.0  0.95537  0.37119  0.29726  1.0000
  C   C69       1.0  0.15253  0.71976  0.26359  1.0000
  C   C70       1.0  0.85016  0.28217  0.22853  1.0000
  C   C71       1.0  0.97454  0.57362  0.27441  1.0000
  C   C72       1.0  0.97406  0.60308  0.34960  1.0000
  C   C73       1.0  0.94283  0.60649  0.35679  1.0000
  C   C74       1.0  0.91065  0.58091  0.29001  1.0000
  C   C75       1.0  0.91126  0.55129  0.21573  1.0000
  C   C76       1.0  0.94235  0.54777  0.20807  1.0000
  C   C77       1.0  0.15081  0.43793  0.25876  1.0000
  C   C78       1.0  0.85082  0.56652  0.23965  1.0000
  C   C79       1.0  0.53295  0.99937  0.75393  1.0000
  C   C80       1.0  0.46494  0.99861  0.76758  1.0000
  C   C81       1.0  0.50271  0.97344  0.84199  1.0000
  C   C82       1.0  0.49520  0.02458  0.68005  1.0000
  C   C83       1.0  0.46950  0.97315  0.84878  1.0000
  C   C84       1.0  0.52841  0.02496  0.67376  1.0000
  C   C85       1.0  0.56763  0.96685  0.74667  1.0000
  C   C86       1.0  0.54230  0.93666  0.66637  1.0000
  C   C87       1.0  0.54297  0.90470  0.67081  1.0000
  C   C88       1.0  0.56913  0.90158  0.75618  1.0000
  C   C89       1.0  0.59435  0.93199  0.83575  1.0000
  C   C90       1.0  0.59385  0.96393  0.83035  1.0000
  C   C91       1.0  0.55448  0.84228  0.69399  1.0000
  C   C92       1.0  0.44482  0.15520  0.79395  1.0000
  C   C93       1.0  0.59995  0.03195  0.73681  1.0000
  C   C94       1.0  0.63090  0.03410  0.65247  1.0000
  C   C95       1.0  0.66355  0.06552  0.64738  1.0000
  C   C96       1.0  0.66717  0.09629  0.72693  1.0000
  C   C97       1.0  0.63586  0.09417  0.80917  1.0000
  C   C98       1.0  0.60310  0.06281  0.81363  1.0000
  C   C99       1.0  0.29230  0.84000  0.69968  1.0000
  C   C100      1.0  0.70966  0.15475  0.79582  1.0000
  C   C101      1.0  0.53146  0.53223  0.75446  1.0000
  C   C102      1.0  0.46793  0.46533  0.74274  1.0000
  C   C103      1.0  0.47054  0.49510  0.66662  1.0000
  C   C104      1.0  0.52904  0.50239  0.82909  1.0000
  C   C105      1.0  0.50158  0.52783  0.67249  1.0000
  C   C106      1.0  0.49797  0.46966  0.82344  1.0000
  C   C107      1.0  0.27587  0.41766  0.69020  1.0000
  C   C108      1.0  0.72295  0.58027  0.81365  1.0000
  C   C109      1.0  0.56058  0.59728  0.76541  1.0000
  C   C110      1.0  0.58745  0.62851  0.69104  1.0000
  C   C111      1.0  0.58383  0.65900  0.69193  1.0000
  C   C112      1.0  0.55258  0.65908  0.76228  1.0000
  C   C113      1.0  0.52548  0.62762  0.83473  1.0000
  C   C114      1.0  0.52991  0.59780  0.83982  1.0000
  C   C115      1.0  0.57146  0.71954  0.78287  1.0000
  C   C116      1.0  0.42858  0.27887  0.72801  1.0000
  C   C117      1.0  0.43330  0.24769  0.74276  1.0000
  C   C118      1.0  0.46302  0.24961  0.81877  1.0000
  C   C119      1.0  0.46637  0.21937  0.83523  1.0000
  C   C120      1.0  0.44082  0.18654  0.77280  1.0000
  C   C121      1.0  0.41145  0.18480  0.69423  1.0000
  C   C122      1.0  0.40753  0.21482  0.68169  1.0000
  C   C123      1.0  0.00148  0.53301  0.75762  1.0000
  C   C124      1.0  0.99530  0.46439  0.73843  1.0000
  C   C125      1.0  0.02584  0.52633  0.65997  1.0000
  C   C126      1.0  0.97040  0.47083  0.83376  1.0000
  C   C127      1.0  0.02275  0.49278  0.65015  1.0000
  C   C128      1.0  0.97341  0.50444  0.84313  1.0000
  C   C129      1.0  0.03946  0.59787  0.76071  1.0000
  C   C130      1.0  0.95837  0.39965  0.73143  1.0000
  C   C131      1.0  0.06984  0.59695  0.81621  1.0000
  C   C132      1.0  0.92917  0.40033  0.66216  1.0000
  C   C133      1.0  0.10400  0.62641  0.80391  1.0000
  C   C134      1.0  0.89478  0.37108  0.66998  1.0000
  C   C135      1.0  0.10924  0.65873  0.74268  1.0000
  C   C136      1.0  0.88854  0.33926  0.74061  1.0000
  C   C137      1.0  0.07880  0.65967  0.68738  1.0000
  C   C138      1.0  0.91796  0.33838  0.80728  1.0000
  C   C139      1.0  0.04479  0.62971  0.69383  1.0000
  C   C140      1.0  0.95205  0.36817  0.80503  1.0000
  C   C141      1.0  0.15023  0.71916  0.75866  1.0000
  C   C142      1.0  0.84888  0.27896  0.72156  1.0000
  C   C143      1.0  0.80817  0.21496  0.67577  1.0000
  C   C144      1.0  0.81355  0.24749  0.74290  1.0000
  C   C145      1.0  0.78444  0.24871  0.82990  1.0000
  C   C146      1.0  0.75112  0.21825  0.84907  1.0000
  C   C147      1.0  0.74540  0.18588  0.77845  1.0000
  C   C148      1.0  0.77458  0.18475  0.69114  1.0000
  C   C149      1.0  0.14682  0.43158  0.77026  1.0000
  C   C150      1.0  0.85173  0.56718  0.71469  1.0000
  N   N1        1.0  0.56887  0.00272  0.24607  1.0000
  N   N2        1.0  0.43241  0.99985  0.27131  1.0000
  N   N3        1.0  0.57527  0.87455  0.26590  1.0000
  N   N4        1.0  0.42323  0.12599  0.22971  1.0000
  N   N5        1.0  0.29971  0.87143  0.29220  1.0000
  N   N6        1.0  0.70193  0.13100  0.21872  1.0000
  N   N7        1.0  0.56322  0.56797  0.25535  1.0000
  N   N8        1.0  0.43634  0.43346  0.24015  1.0000
  N   N9        1.0  0.30398  0.43727  0.28396  1.0000
  N   N10       1.0  0.69609  0.56493  0.23293  1.0000
  N   N11       1.0  0.54547  0.68990  0.26080  1.0000
  N   N12       1.0  0.45332  0.31115  0.24709  1.0000
  N   N13       1.0  0.00628  0.57005  0.26471  1.0000
  N   N14       1.0  0.99541  0.43335  0.21959  1.0000
  N   N15       1.0  0.14706  0.68837  0.22507  1.0000
  N   N16       1.0  0.85571  0.31373  0.26483  1.0000
  N   N17       1.0  0.12098  0.41708  0.19121  1.0000
  N   N18       1.0  0.88108  0.58738  0.30444  1.0000
  N   N19       1.0  0.56681  0.99952  0.74441  1.0000
  N   N20       1.0  0.43075  0.99790  0.77380  1.0000
  N   N21       1.0  0.57248  0.87112  0.77429  1.0000
  N   N22       1.0  0.42400  0.12538  0.72575  1.0000
  N   N23       1.0  0.29877  0.86896  0.77553  1.0000
  N   N24       1.0  0.70163  0.12610  0.71409  1.0000
  N   N25       1.0  0.56330  0.56569  0.76138  1.0000
  N   N26       1.0  0.43585  0.43196  0.73869  1.0000
  N   N27       1.0  0.30166  0.43276  0.78786  1.0000
  N   N28       1.0  0.69734  0.56547  0.71489  1.0000
  N   N29       1.0  0.54615  0.68785  0.75387  1.0000
  N   N30       1.0  0.45438  0.31055  0.75262  1.0000
  N   N31       1.0  0.00478  0.56744  0.76803  1.0000
  N   N32       1.0  0.99299  0.43032  0.72993  1.0000
  N   N33       1.0  0.14444  0.68707  0.73372  1.0000
  N   N34       1.0  0.85348  0.31057  0.74858  1.0000
  N   N35       1.0  0.12039  0.41643  0.67540  1.0000
  N   N36       1.0  0.87779  0.58129  0.81153  1.0000
  C  Sn1       1.0  0.38833  0.93115  0.64289  1.0000
  C   C151      1.0  0.39482  0.96182  0.72858  1.0000
  C  Sn2       1.0  0.37038  0.96069  0.85195  1.0000
  C  Sn3       1.0  0.33881  0.92822  0.89054  1.0000
  C   C152      1.0  0.33233  0.89757  0.80490  1.0000
  C  Sn4       1.0  0.35675  0.89868  0.68149  1.0000
  O  Te1       1.0  0.41313  0.93290  0.52004  1.0000
  O  Te2       1.0  0.37744  0.99170  0.93588  1.0000
  O  Te3       1.0  0.32684  0.92625  0.01351  1.0000
  O  Te4       1.0  0.34970  0.86769  0.59760  1.0000
  Mg  Mg1       1.0  0.34840  0.97561  0.09321  1.0000
  Mg  Mg2       1.0  0.39158  0.88351  0.44031  1.0000
  C  Sn5       1.0  0.52751  0.76840  0.68356  1.0000
  C   C153      1.0  0.54886  0.80276  0.74019  1.0000
  C  Sn6       1.0  0.58261  0.81256  0.79974  1.0000
  C  Sn7       1.0  0.59531  0.78749  0.80266  1.0000
  C   C154      1.0  0.57397  0.75315  0.74604  1.0000
  C  Sn8       1.0  0.54021  0.74333  0.68649  1.0000
  O  Te5       1.0  0.49386  0.75919  0.62455  1.0000
  O  Te6       1.0  0.60345  0.84707  0.85574  1.0000
  O  Te7       1.0  0.62899  0.79673  0.86174  1.0000
  O  Te8       1.0  0.51938  0.70885  0.63049  1.0000
  Mg  Mg3       1.0  0.64745  0.84694  0.92456  1.0000
  Mg  Mg4       1.0  0.47539  0.70895  0.56157  1.0000
  C  Sn9       1.0  0.78498  0.55703  0.61418  1.0000
  C   C155      1.0  0.81696  0.57440  0.69522  1.0000
  C  Sn10      1.0  0.81755  0.59151  0.84011  1.0000
  C  Sn11      1.0  0.78552  0.59124  0.90542  1.0000
  C   C156      1.0  0.75357  0.57388  0.82441  1.0000
  C  Sn12      1.0  0.75295  0.55677  0.67949  1.0000
  O  Te9       1.0  0.78501  0.54010  0.46951  1.0000
  O  Te10      1.0  0.84985  0.60870  0.91890  1.0000
  O  Te11      1.0  0.79836  0.60796  0.05021  1.0000
  O  Te12      1.0  0.72068  0.53958  0.60073  1.0000
  Mg  Mg5       1.0  0.84899  0.62775  0.11262  1.0000
  Mg  Mg6       1.0  0.73434  0.52027  0.40706  1.0000
  C  Sn13      1.0  0.40912  0.34172  0.79976  1.0000
  C   C157      1.0  0.43658  0.33623  0.72445  1.0000
  C  Sn14      1.0  0.46856  0.36485  0.66303  1.0000
  C  Sn15      1.0  0.47319  0.39968  0.67726  1.0000
  C   C158      1.0  0.44574  0.40516  0.75255  1.0000
  C  Sn16      1.0  0.41375  0.37655  0.81399  1.0000
  O  Te13      1.0  0.37738  0.31271  0.86029  1.0000
  O  Te14      1.0  0.49563  0.35870  0.58819  1.0000
  O  Te15      1.0  0.50497  0.42869  0.61664  1.0000
  O  Te16      1.0  0.38670  0.38269  0.88881  1.0000
  Mg  Mg7       1.0  0.53399  0.40680  0.52494  1.0000
  Mg  Mg8       1.0  0.34833  0.33461  0.95217  1.0000
  C  Sn17      1.0  0.41527  0.36588  0.35850  1.0000
  C   C159      1.0  0.43917  0.39874  0.28991  1.0000
  C  Sn18      1.0  0.46686  0.40205  0.17930  1.0000
  C  Sn19      1.0  0.47073  0.37188  0.13625  1.0000
  C   C160      1.0  0.44684  0.33904  0.20480  1.0000
  C  Sn20      1.0  0.41915  0.33570  0.31545  1.0000
  O  Te17      1.0  0.38779  0.36318  0.46881  1.0000
  O  Te18      1.0  0.49043  0.43519  0.11238  1.0000
  O  Te19      1.0  0.49825  0.37460  0.02584  1.0000
  O  Te20      1.0  0.39559  0.30259  0.38233  1.0000
  Mg  Mg9       1.0  0.51073  0.42564  0.96751  1.0000
  Mg  Mg10      1.0  0.36242  0.31234  0.52714  1.0000
  C  Sn21      1.0  0.44892  0.06685  0.39240  1.0000
  C   C161      1.0  0.42868  0.03517  0.31083  1.0000
  C  Sn22      1.0  0.40907  0.03436  0.18139  1.0000
  C  Sn23      1.0  0.40973  0.06589  0.13236  1.0000
  C   C162      1.0  0.42997  0.09756  0.21389  1.0000
  C  Sn24      1.0  0.44958  0.09838  0.34337  1.0000
  O  Te21      1.0  0.46832  0.06704  0.52147  1.0000
  O  Te22      1.0  0.38902  0.00236  0.10174  1.0000
  O  Te23      1.0  0.39031  0.06568  0.00318  1.0000
  O  Te24      1.0  0.46962  0.13036  0.42297  1.0000
  Mg  Mg11      1.0  0.35425  0.01583  0.93284  1.0000
  Mg  Mg12      1.0  0.49158  0.11716  0.59184  1.0000
  C  Sn25      1.0  0.65002  0.59060  0.37384  1.0000
  C   C163      1.0  0.66008  0.56762  0.29198  1.0000
  C  Sn26      1.0  0.63951  0.54619  0.16911  1.0000
  C  Sn27      1.0  0.60826  0.54777  0.12711  1.0000
  C   C164      1.0  0.59822  0.57074  0.20893  1.0000
  C  Sn28      1.0  0.61876  0.59219  0.33184  1.0000
  O  Te25      1.0  0.67098  0.61179  0.49626  1.0000
  O  Te26      1.0  0.65010  0.52341  0.08904  1.0000
  O  Te27      1.0  0.58729  0.52655  0.00458  1.0000
  O  Te28      1.0  0.60820  0.61495  0.41187  1.0000
  Mg  Mg13      1.0  0.59991  0.50005  0.93075  1.0000
  Mg  Mg14      1.0  0.64553  0.63858  0.57011  1.0000
  C  Sn29      1.0  0.23167  0.44113  0.86679  1.0000
  C   C165      1.0  0.23852  0.41888  0.76211  1.0000
  C  Sn30      1.0  0.21626  0.40245  0.63552  1.0000
  C  Sn31      1.0  0.18655  0.40841  0.61303  1.0000
  C   C166      1.0  0.17972  0.43065  0.71766  1.0000
  C  Sn32      1.0  0.20195  0.44709  0.84430  1.0000
  O  Te29      1.0  0.25427  0.45728  0.99252  1.0000
  O  Te30      1.0  0.22364  0.38030  0.53246  1.0000
  O  Te31      1.0  0.16394  0.39224  0.48718  1.0000
  O  Te32      1.0  0.19459  0.46923  0.94731  1.0000
  Mg  Mg15      1.0  0.18507  0.36435  0.37871  1.0000
  Mg  Mg16      1.0  0.24599  0.48497  0.10104  1.0000
  C  Sn33      1.0  0.05733  0.40513  0.07379  1.0000
  C   C167      1.0  0.08897  0.42560  0.15389  1.0000
  C  Sn34      1.0  0.08914  0.44763  0.28006  1.0000
  C  Sn35      1.0  0.05700  0.44921  0.32723  1.0000
  C   C168      1.0  0.02539  0.42874  0.24718  1.0000
  C  Sn36      1.0  0.02520  0.40671  0.12097  1.0000
  O  Te33      1.0  0.04494  0.38352  0.94800  1.0000
  O  Te34      1.0  0.12110  0.46786  0.35828  1.0000
  O  Te35      1.0  0.05657  0.47107  0.45313  1.0000
  O  Te36      1.0  0.99325  0.38648  0.04279  1.0000
  Mg  Mg17      1.0  0.10687  0.49355  0.52264  1.0000
  Mg  Mg18      1.0  0.99461  0.36100  0.87847  1.0000
  C  Sn37      1.0  0.47122  0.24781  0.27819  1.0000
  C   C169      1.0  0.44270  0.25006  0.21306  1.0000
  C  Sn38      1.0  0.41003  0.21943  0.18764  1.0000
  C  Sn39      1.0  0.40576  0.18586  0.22826  1.0000
  C   C170      1.0  0.43426  0.18363  0.29338  1.0000
  C  Sn40      1.0  0.46695  0.21424  0.31881  1.0000
  O  Te37      1.0  0.50364  0.27877  0.30257  1.0000
  O  Te38      1.0  0.38191  0.22235  0.12233  1.0000
  O  Te39      1.0  0.37330  0.15489  0.20382  1.0000
  O  Te40      1.0  0.49505  0.21133  0.38411  1.0000
  Mg  Mg19      1.0  0.34291  0.17254  0.11177  1.0000
  Mg  Mg20      1.0  0.53405  0.26112  0.39480  1.0000
  C  Sn41      1.0  0.95015  0.60790  0.84789  1.0000
  C   C171      1.0  0.91817  0.58692  0.77088  1.0000
  C  Sn42      1.0  0.91185  0.55462  0.70196  1.0000
  C  Sn43      1.0  0.93802  0.54304  0.71025  1.0000
  C   C172      1.0  0.96998  0.56401  0.78724  1.0000
  C  Sn44      1.0  0.97633  0.59632  0.85618  1.0000
  O  Te41      1.0  0.95590  0.64010  0.91596  1.0000
  O  Te42      1.0  0.87968  0.53411  0.62557  1.0000
  O  Te43      1.0  0.93224  0.51082  0.64209  1.0000
  O  Te44      1.0  0.00847  0.61682  0.93255  1.0000
  Mg  Mg21      1.0  0.88424  0.49226  0.55113  1.0000
  Mg  Mg22      1.0  0.01677  0.65843  0.00709  1.0000
  C  Sn45      1.0  0.97938  0.50121  0.37988  1.0000
  C   C173      1.0  0.00465  0.53229  0.30124  1.0000
  C  Sn46      1.0  0.02607  0.53087  0.17001  1.0000
  C  Sn47      1.0  0.02214  0.49771  0.11619  1.0000
  C   C174      1.0  0.99689  0.46666  0.19479  1.0000
  C  Sn48      1.0  0.97546  0.46805  0.32605  1.0000
  O  Te45      1.0  0.95825  0.50325  0.51080  1.0000
  O  Te46      1.0  0.05115  0.56230  0.09337  1.0000
  O  Te47      1.0  0.03046  0.49592  0.98515  1.0000
  O  Te48      1.0  0.95039  0.43665  0.40266  1.0000
  Mg  Mg23      1.0  0.06084  0.54605  0.92029  1.0000
  Mg  Mg24      1.0  0.92783  0.45310  0.57569  1.0000
  C  Sn49      1.0  0.38833  0.45399  0.88161  1.0000
  C   C175      1.0  0.39762  0.43019  0.80256  1.0000
  C  Sn50      1.0  0.37488  0.40620  0.69176  1.0000
  C  Sn51      1.0  0.34217  0.40600  0.65922  1.0000
  C   C176      1.0  0.33289  0.42980  0.73823  1.0000
  C  Sn52      1.0  0.35562  0.45379  0.84907  1.0000
  O  Te49      1.0  0.41147  0.47774  0.99191  1.0000
  O  Te50      1.0  0.38474  0.38265  0.61426  1.0000
  O  Te51      1.0  0.31902  0.38222  0.54883  1.0000
  O  Te52      1.0  0.34577  0.47734  0.92652  1.0000
  Mg  Mg25      1.0  0.34427  0.35535  0.47391  1.0000
  Mg  Mg26      1.0  0.39907  0.50442  0.06683  1.0000
  C  Sn53      1.0  0.22008  0.80605  0.82939  1.0000
  C   C177      1.0  0.25204  0.80728  0.76427  1.0000
  C  Sn54      1.0  0.25072  0.77939  0.67005  1.0000
  C  Sn55      1.0  0.21675  0.74966  0.64020  1.0000
  C   C178      1.0  0.18481  0.74845  0.70527  1.0000
  C  Sn56      1.0  0.18610  0.77633  0.79954  1.0000
  O  Te53      1.0  0.22204  0.83424  0.92322  1.0000
  O  Te54      1.0  0.28304  0.78120  0.60629  1.0000
  O  Te55      1.0  0.21481  0.72147  0.54628  1.0000
  O  Te56      1.0  0.15381  0.77452  0.86325  1.0000
  Mg  Mg27      1.0  0.26631  0.73623  0.48594  1.0000
  Mg  Mg28      1.0  0.17051  0.81949  0.98354  1.0000
  C  Sn57      1.0  0.75624  0.23161  0.34028  1.0000
  C   C179      1.0  0.74530  0.19798  0.27455  1.0000
  C  Sn58      1.0  0.77094  0.18922  0.20438  1.0000
  C  Sn59      1.0  0.80830  0.21460  0.19991  1.0000
  C   C180      1.0  0.81922  0.24821  0.26563  1.0000
  C  Sn60      1.0  0.79360  0.25699  0.33580  1.0000
  O  Te57      1.0  0.73014  0.23979  0.40982  1.0000
  O  Te58      1.0  0.75935  0.15543  0.13941  1.0000
  O  Te59      1.0  0.83440  0.20640  0.13028  1.0000
  O  Te60      1.0  0.80518  0.29076  0.40077  1.0000
  Mg  Mg29      1.0  0.80520  0.15687  0.05784  1.0000
  Mg  Mg30      1.0  0.75936  0.28934  0.48243  1.0000
  C  Sn61      1.0  0.38964  0.93142  0.15375  1.0000
  C   C181      1.0  0.39618  0.96355  0.22547  1.0000
  C  Sn62      1.0  0.37143  0.96471  0.34134  1.0000
  C  Sn63      1.0  0.33948  0.93309  0.38657  1.0000
  C   C182      1.0  0.33296  0.90099  0.31490  1.0000
  C  Sn64      1.0  0.35769  0.89980  0.19898  1.0000
  O  Te61      1.0  0.41475  0.93089  0.03819  1.0000
  O  Te62      1.0  0.37856  0.99715  0.41131  1.0000
  O  Te63      1.0  0.31436  0.93366  0.50223  1.0000
  O  Te64      1.0  0.35058  0.86739  0.12905  1.0000
  Mg  Mg31      1.0  0.33615  0.98428  0.56312  1.0000
  Mg  Mg32      1.0  0.38013  0.88046  0.97730  1.0000
  C  Sn65      1.0  0.39208  0.05327  0.72536  1.0000
  C   C183      1.0  0.41753  0.08686  0.77653  1.0000
  C  Sn66      1.0  0.45202  0.09340  0.81417  1.0000
  C  Sn67      1.0  0.46128  0.06578  0.80029  1.0000
  C   C184      1.0  0.43584  0.03221  0.74913  1.0000
  C  Sn68      1.0  0.40134  0.02565  0.71148  1.0000
  O  Te65      1.0  0.35776  0.04733  0.68836  1.0000
  O  Te66      1.0  0.47700  0.12720  0.86512  1.0000
  O  Te67      1.0  0.49563  0.07174  0.83735  1.0000
  O  Te68      1.0  0.86846  0.99188  0.66053  1.0000
  Mg  Mg33      1.0  0.52030  0.12223  0.90155  1.0000
  Mg  Mg34      1.0  0.82517  0.99682  0.62400  1.0000
  C  Sn69      1.0  0.22714  0.75396  0.15755  1.0000
  C   C185      1.0  0.19704  0.74858  0.25719  1.0000
  C  Sn70      1.0  0.19482  0.77739  0.32724  1.0000
  C  Sn71      1.0  0.22326  0.81231  0.29699  1.0000
  C   C186      1.0  0.25333  0.81768  0.19738  1.0000
  C  Sn72      1.0  0.25558  0.78888  0.12730  1.0000
  O  Te69      1.0  0.22878  0.72477  0.08879  1.0000
  O  Te70      1.0  0.16446  0.77134  0.42647  1.0000
  O  Te71      1.0  0.22159  0.84152  0.36585  1.0000
  O  Te72      1.0  0.28591  0.79492  0.02810  1.0000
  Mg  Mg35      1.0  0.17470  0.81970  0.49233  1.0000
  Mg  Mg36      1.0  0.26285  0.74682  0.96212  1.0000
  C  Sn73      1.0  0.07989  0.44699  0.82514  1.0000
  C   C187      1.0  0.08636  0.42163  0.74324  1.0000
  C  Sn74      1.0  0.06250  0.39945  0.63099  1.0000
  C  Sn75      1.0  0.03155  0.40270  0.59986  1.0000
  C   C188      1.0  0.02509  0.42805  0.68171  1.0000
  C  Sn76      1.0  0.04893  0.45024  0.79401  1.0000
  O  Te73      1.0  0.10411  0.46888  0.93685  1.0000
  O  Te74      1.0  0.06954  0.37429  0.55066  1.0000
  O  Te75      1.0  0.00733  0.38078  0.48805  1.0000
  O  Te76      1.0  0.04192  0.47539  0.87429  1.0000
  Mg  Mg37      1.0  0.02859  0.35059  0.40928  1.0000
  Mg  Mg38      1.0  0.09570  0.49888  0.01563  1.0000
  C  Sn77      1.0  0.65573  0.06611  0.10145  1.0000
  C   C189      1.0  0.66325  0.09758  0.18228  1.0000
  C  Sn78      1.0  0.64021  0.09767  0.30951  1.0000
  C  Sn79      1.0  0.60902  0.06562  0.35701  1.0000
  C   C190      1.0  0.60151  0.03417  0.27623  1.0000
  C  Sn80      1.0  0.62453  0.03406  0.14896  1.0000
  O  Te77      1.0  0.66629  0.06688  0.97461  1.0000
  O  Te78      1.0  0.64829  0.12947  0.38845  1.0000
  O  Te79      1.0  0.58560  0.06511  0.48397  1.0000
  O  Te80      1.0  0.61647  0.00228  0.07006  1.0000
  Mg  Mg39      1.0  0.60816  0.11519  0.55416  1.0000
  Mg  Mg40      1.0  0.64375  0.01676  0.90440  1.0000
  C  Sn81      1.0  0.63805  0.60134  0.80132  1.0000
  C   C191      1.0  0.60628  0.57736  0.72969  1.0000
  C  Sn82      1.0  0.60270  0.54551  0.66622  1.0000
  C  Sn83      1.0  0.63146  0.53745  0.67460  1.0000
  C   C192      1.0  0.66320  0.56141  0.74621  1.0000
  C  Sn84      1.0  0.66681  0.59327  0.80970  1.0000
  O  Te81      1.0  0.64104  0.63302  0.86400  1.0000
  O  Te82      1.0  0.57068  0.52196  0.59515  1.0000
  O  Te83      1.0  0.62844  0.50574  0.61184  1.0000
  O  Te84      1.0  0.69880  0.61681  0.88076  1.0000
  Mg  Mg41      1.0  0.57951  0.48220  0.52694  1.0000
  Mg  Mg42      1.0  0.69000  0.65657  0.94907  1.0000
