data_image0
_chemical_formula_structural       H108C150N36C2Sn2C2HTe2HMgC2Sn2C2HTe2HMgC2Sn2C2HTe2HMgC2Sn2C2HTe2HMgC2Sn2C2HTe2HMgC2Sn2C2HTe2HMgC2Sn2C2HTe2HMgC2Sn2C2HTe2HMgC2Sn2C2HTe2HMgC2Sn2C2HTe2HMgC2Sn2C2HTe2HMgC2Sn2C2HTe2HMgC2Sn2C2HTe2HMgC2Sn2C2HTe2HMgC2Sn2C2HTe2HMgC2Sn2C2HTe2HMgC2Sn2C2HTe2HMgC2Sn2C2HTe2HMgC2Sn2C2HTe2HMgC2Sn2C2HTe2HMgC2Sn2C2HTe2HMg
_chemical_formula_sum              "H150 C234 N36 Sn42 Te42 Mg21"
_cell_length_a       42.1334
_cell_length_b       43.0589
_cell_length_c       8.39532
_cell_angle_alpha    91.8472
_cell_angle_beta     86.2719
_cell_angle_gamma    118.785

_symmetry_space_group_name_H-M    'P1'
_space_group_IT_number       1

loop_
  _space_group_symop_operation_xyz
  'x, y, z'

loop_
  _atom_site_type_symbol
  _atom_site_label
  _atom_site_symmetry_multiplicity
  _atom_site_fract_x
  _atom_site_fract_y
  _atom_site_fract_z
  _atom_site_occupancy
  H   H1        1.0  0.50791  0.95706  0.41074  1.0000
  H   H2        1.0  0.49374  0.04691  0.11586  1.0000
  H   H3        1.0  0.44873  0.95538  0.41894  1.0000
  H   H4        1.0  0.55304  0.04837  0.10602  1.0000
  H   H5        1.0  0.47407  0.06078  0.42336  1.0000
  H   H6        1.0  0.47110  0.11613  0.41279  1.0000
  H   H7        1.0  0.38475  0.06757  0.09037  1.0000
  H   H8        1.0  0.38736  0.01124  0.10574  1.0000
  H   H9        1.0  0.53054  0.84001  0.13384  1.0000
  H   H10       1.0  0.46982  0.16155  0.34716  1.0000
  H   H11       1.0  0.63087  0.01664  0.08113  1.0000
  H   H12       1.0  0.68822  0.07362  0.07321  1.0000
  H   H13       1.0  0.63792  0.11960  0.39089  1.0000
  H   H14       1.0  0.58102  0.06349  0.39577  1.0000
  H   H15       1.0  0.30925  0.84517  0.09418  1.0000
  H   H16       1.0  0.69327  0.15914  0.41192  1.0000
  H   H17       1.0  0.27234  0.39388  0.13718  1.0000
  H   H18       1.0  0.72805  0.60922  0.37499  1.0000
  H   H19       1.0  0.78478  0.52267  0.14323  1.0000
  H   H20       1.0  0.79196  0.63099  0.40270  1.0000
  H   H21       1.0  0.60967  0.63076  0.11907  1.0000
  H   H22       1.0  0.60242  0.68436  0.12162  1.0000
  H   H23       1.0  0.50253  0.62999  0.40576  1.0000
  H   H24       1.0  0.51004  0.57644  0.40599  1.0000
  H   H25       1.0  0.59848  0.72694  0.31229  1.0000
  H   H26       1.0  0.40081  0.27453  0.18602  1.0000
  H   H27       1.0  0.05065  0.55189  0.09212  1.0000
  H   H28       1.0  0.95118  0.45173  0.39398  1.0000
  H   H29       1.0  0.04569  0.49243  0.07166  1.0000
  H   H30       1.0  0.95606  0.51082  0.41348  1.0000
  H   H31       1.0  0.13048  0.72396  0.31902  1.0000
  H   H32       1.0  0.87201  0.27765  0.17314  1.0000
  H   H33       1.0  0.00702  0.38504  0.05392  1.0000
  H   H34       1.0  0.99838  0.62313  0.40303  1.0000
  H   H35       1.0  0.06326  0.37951  0.04684  1.0000
  H   H36       1.0  0.94240  0.62905  0.41680  1.0000
  H   H37       1.0  0.11134  0.46935  0.36096  1.0000
  H   H38       1.0  0.88744  0.53103  0.15953  1.0000
  H   H39       1.0  0.05650  0.47518  0.36455  1.0000
  H   H40       1.0  0.94197  0.52481  0.14897  1.0000
  H   H41       1.0  0.15470  0.46169  0.32627  1.0000
  H   H42       1.0  0.84672  0.54304  0.16913  1.0000
  H   H43       1.0  0.72978  0.53064  0.17240  1.0000
  H   H44       1.0  0.84696  0.62297  0.37373  1.0000
  H   H45       1.0  0.52198  0.93843  0.59980  1.0000
  H   H46       1.0  0.52323  0.88219  0.60520  1.0000
  H   H47       1.0  0.61397  0.92953  0.90496  1.0000
  H   H48       1.0  0.61367  0.98691  0.89243  1.0000
  H   H49       1.0  0.53541  0.83944  0.60380  1.0000
  H   H50       1.0  0.46617  0.15867  0.87270  1.0000
  H   H51       1.0  0.36691  0.98259  0.92714  1.0000
  H   H52       1.0  0.31042  0.92495  0.92645  1.0000
  H   H53       1.0  0.36464  0.88186  0.61483  1.0000
  H   H54       1.0  0.42092  0.93813  0.62342  1.0000
  H   H55       1.0  0.31303  0.83665  0.62627  1.0000
  H   H56       1.0  0.69026  0.15752  0.88135  1.0000
  H   H57       1.0  0.42003  0.47909  0.88736  1.0000
  H   H58       1.0  0.36041  0.47764  0.90677  1.0000
  H   H59       1.0  0.31459  0.38059  0.63820  1.0000
  H   H60       1.0  0.37364  0.38173  0.61998  1.0000
  H   H61       1.0  0.27743  0.40216  0.58605  1.0000
  H   H62       1.0  0.72116  0.59507  0.92009  1.0000
  H   H63       1.0  0.20837  0.46809  0.92320  1.0000
  H   H64       1.0  0.21416  0.38083  0.53741  1.0000
  H   H65       1.0  0.39218  0.37156  0.89916  1.0000
  H   H66       1.0  0.39959  0.31798  0.90526  1.0000
  H   H67       1.0  0.49557  0.36880  0.59378  1.0000
  H   H68       1.0  0.48737  0.42181  0.58292  1.0000
  H   H69       1.0  0.59734  0.72437  0.82907  1.0000
  H   H70       1.0  0.40202  0.27412  0.69087  1.0000
  H   H71       1.0  0.51488  0.77714  0.57058  1.0000
  H   H72       1.0  0.48878  0.22071  0.89827  1.0000
  H   H73       1.0  0.61178  0.78483  0.90286  1.0000
  H   H74       1.0  0.38450  0.21324  0.62285  1.0000
  H   H75       1.0  0.04715  0.54765  0.58909  1.0000
  H   H76       1.0  0.94861  0.44924  0.90181  1.0000
  H   H77       1.0  0.04155  0.48817  0.57152  1.0000
  H   H78       1.0  0.95410  0.50885  0.91914  1.0000
  H   H79       1.0  0.06656  0.57262  0.86665  1.0000
  H   H80       1.0  0.12731  0.62542  0.84669  1.0000
  H   H81       1.0  0.08236  0.68358  0.63050  1.0000
  H   H82       1.0  0.02199  0.63049  0.64444  1.0000
  H   H83       1.0  0.12815  0.72490  0.79816  1.0000
  H   H84       1.0  0.87161  0.27452  0.67807  1.0000
  H   H85       1.0  0.21144  0.72008  0.63508  1.0000
  H   H86       1.0  0.78904  0.27381  0.88306  1.0000
  H   H87       1.0  0.23128  0.83884  0.81804  1.0000
  H   H88       1.0  0.76996  0.15982  0.63620  1.0000
  H   H89       1.0  0.00286  0.37965  0.57525  1.0000
  H   H90       1.0  0.99224  0.61419  0.94324  1.0000
  H   H91       1.0  0.05950  0.37509  0.55493  1.0000
  H   H92       1.0  0.93562  0.61886  0.95683  1.0000
  H   H93       1.0  0.11256  0.47068  0.83010  1.0000
  H   H94       1.0  0.88928  0.53277  0.62260  1.0000
  H   H95       1.0  0.05661  0.47499  0.85173  1.0000
  H   H96       1.0  0.94521  0.52818  0.61073  1.0000
  H   H97       1.0  0.14608  0.44778  0.87315  1.0000
  H   H98       1.0  0.85257  0.55205  0.60789  1.0000
  H   H99       1.0  0.26443  0.46228  0.88922  1.0000
  H   H100      1.0  0.15792  0.38639  0.57214  1.0000
  H   H101      1.0  0.52158  0.72357  0.61181  1.0000
  H   H102      1.0  0.48257  0.27500  0.86673  1.0000
  H   H103      1.0  0.60388  0.83802  0.86830  1.0000
  H   H104      1.0  0.39204  0.15945  0.64564  1.0000
  H   H105      1.0  0.16925  0.78636  0.84185  1.0000
  H   H106      1.0  0.83057  0.21397  0.60775  1.0000
  H   H107      1.0  0.27310  0.77287  0.60444  1.0000
  H   H108      1.0  0.72897  0.21919  0.91959  1.0000
  C   C1        1.0  0.53490  0.00244  0.25501  1.0000
  C   C2        1.0  0.46657  0.00078  0.26682  1.0000
  C   C3        1.0  0.50484  0.97648  0.34351  1.0000
  C   C4        1.0  0.49679  0.02720  0.18090  1.0000
  C   C5        1.0  0.47140  0.97558  0.34868  1.0000
  C   C6        1.0  0.53023  0.02798  0.17509  1.0000
  C   C7        1.0  0.43104  0.03212  0.26401  1.0000
  C   C8        1.0  0.45475  0.06236  0.34891  1.0000
  C   C9        1.0  0.45326  0.09379  0.34063  1.0000
  C   C10       1.0  0.42784  0.09625  0.24709  1.0000
  C   C11       1.0  0.40399  0.06566  0.16427  1.0000
  C   C12       1.0  0.40566  0.03437  0.17180  1.0000
  C   C13       1.0  0.55353  0.84428  0.20360  1.0000
  C   C14       1.0  0.44560  0.15675  0.28561  1.0000
  C   C15       1.0  0.60172  0.03557  0.24091  1.0000
  C   C16       1.0  0.63240  0.03911  0.14925  1.0000
  C   C17       1.0  0.66466  0.07086  0.14570  1.0000
  C   C18       1.0  0.66798  0.10065  0.23316  1.0000
  C   C19       1.0  0.63688  0.09729  0.32239  1.0000
  C   C20       1.0  0.60454  0.06546  0.32598  1.0000
  C   C21       1.0  0.29112  0.84493  0.19518  1.0000
  C   C22       1.0  0.71110  0.15810  0.31253  1.0000
  C   C23       1.0  0.27492  0.41640  0.21135  1.0000
  C   C24       1.0  0.72533  0.58631  0.30347  1.0000
  C   C25       1.0  0.75712  0.58118  0.28916  1.0000
  C   C26       1.0  0.75549  0.55047  0.21678  1.0000
  C   C27       1.0  0.78615  0.54628  0.20083  1.0000
  C   C28       1.0  0.81956  0.57240  0.25688  1.0000
  C   C29       1.0  0.82122  0.60309  0.32965  1.0000
  C   C30       1.0  0.79051  0.60730  0.34554  1.0000
  C   C31       1.0  0.56040  0.59956  0.26251  1.0000
  C   C32       1.0  0.58651  0.63065  0.18443  1.0000
  C   C33       1.0  0.58265  0.66100  0.18775  1.0000
  C   C34       1.0  0.55203  0.66115  0.26521  1.0000
  C   C35       1.0  0.52590  0.62993  0.34295  1.0000
  C   C36       1.0  0.53041  0.60010  0.34426  1.0000
  C   C37       1.0  0.57157  0.72181  0.27850  1.0000
  C   C38       1.0  0.42739  0.27940  0.22367  1.0000
  C   C39       1.0  0.00366  0.53590  0.25379  1.0000
  C   C40       1.0  0.99807  0.46751  0.23114  1.0000
  C   C41       1.0  0.02894  0.52998  0.15897  1.0000
  C   C42       1.0  0.97292  0.47350  0.32650  1.0000
  C   C43       1.0  0.02613  0.49647  0.14763  1.0000
  C   C44       1.0  0.97570  0.50694  0.33758  1.0000
  C   C45       1.0  0.15253  0.71976  0.26359  1.0000
  C   C46       1.0  0.85016  0.28217  0.22853  1.0000
  C   C47       1.0  0.02748  0.43022  0.21158  1.0000
  C   C48       1.0  0.97454  0.57362  0.27441  1.0000
  C   C49       1.0  0.02980  0.40320  0.12196  1.0000
  C   C50       1.0  0.97406  0.60308  0.34960  1.0000
  C   C51       1.0  0.06108  0.39998  0.11833  1.0000
  C   C52       1.0  0.94283  0.60649  0.35679  1.0000
  C   C53       1.0  0.09136  0.42345  0.20296  1.0000
  C   C54       1.0  0.91065  0.58091  0.29001  1.0000
  C   C55       1.0  0.08902  0.45084  0.29117  1.0000
  C   C56       1.0  0.91126  0.55129  0.21573  1.0000
  C   C57       1.0  0.05779  0.45405  0.29528  1.0000
  C   C58       1.0  0.94235  0.54777  0.20807  1.0000
  C   C59       1.0  0.15081  0.43793  0.25876  1.0000
  C   C60       1.0  0.85082  0.56652  0.23965  1.0000
  C   C61       1.0  0.56763  0.96685  0.74667  1.0000
  C   C62       1.0  0.54230  0.93666  0.66637  1.0000
  C   C63       1.0  0.54297  0.90470  0.67081  1.0000
  C   C64       1.0  0.56913  0.90158  0.75618  1.0000
  C   C65       1.0  0.59435  0.93199  0.83575  1.0000
  C   C66       1.0  0.59385  0.96393  0.83035  1.0000
  C   C67       1.0  0.55448  0.84228  0.69399  1.0000
  C   C68       1.0  0.44482  0.15520  0.79395  1.0000
  C   C69       1.0  0.39827  0.96477  0.77530  1.0000
  C   C70       1.0  0.36662  0.96043  0.86081  1.0000
  C   C71       1.0  0.33478  0.92836  0.85867  1.0000
  C   C72       1.0  0.33278  0.89918  0.77030  1.0000
  C   C73       1.0  0.36478  0.90342  0.68643  1.0000
  C   C74       1.0  0.39671  0.93547  0.68923  1.0000
  C   C75       1.0  0.29230  0.84000  0.69968  1.0000
  C   C76       1.0  0.70966  0.15475  0.79582  1.0000
  C   C77       1.0  0.40148  0.43071  0.75078  1.0000
  C   C78       1.0  0.39704  0.45759  0.83217  1.0000
  C   C79       1.0  0.36381  0.45704  0.84211  1.0000
  C   C80       1.0  0.33338  0.42992  0.77046  1.0000
  C   C81       1.0  0.33758  0.40247  0.69241  1.0000
  C   C82       1.0  0.37094  0.40293  0.68240  1.0000
  C   C83       1.0  0.27587  0.41766  0.69020  1.0000
  C   C84       1.0  0.72295  0.58027  0.81365  1.0000
  C   C85       1.0  0.24316  0.42130  0.71138  1.0000
  C   C86       1.0  0.24106  0.44602  0.81993  1.0000
  C   C87       1.0  0.20970  0.44906  0.83816  1.0000
  C   C88       1.0  0.17932  0.42763  0.74879  1.0000
  C   C89       1.0  0.18138  0.40285  0.64054  1.0000
  C   C90       1.0  0.21279  0.39988  0.62209  1.0000
  C   C91       1.0  0.43898  0.40049  0.73947  1.0000
  C   C92       1.0  0.41438  0.37072  0.82947  1.0000
  C   C93       1.0  0.41836  0.34043  0.83145  1.0000
  C   C94       1.0  0.44786  0.33936  0.74756  1.0000
  C   C95       1.0  0.47297  0.36956  0.66045  1.0000
  C   C96       1.0  0.46804  0.39906  0.65321  1.0000
  C   C97       1.0  0.57146  0.71954  0.78287  1.0000
  C   C98       1.0  0.42858  0.27887  0.72801  1.0000
  C   C99       1.0  0.56684  0.75056  0.76045  1.0000
  C   C100      1.0  0.43330  0.24769  0.74276  1.0000
  C   C101      1.0  0.53925  0.74868  0.66805  1.0000
  C   C102      1.0  0.46302  0.24961  0.81877  1.0000
  C   C103      1.0  0.53564  0.77863  0.64596  1.0000
  C   C104      1.0  0.46637  0.21937  0.83523  1.0000
  C   C105      1.0  0.55884  0.81117  0.71840  1.0000
  C   C106      1.0  0.44082  0.18654  0.77280  1.0000
  C   C107      1.0  0.58629  0.81294  0.81193  1.0000
  C   C108      1.0  0.41145  0.18480  0.69423  1.0000
  C   C109      1.0  0.59049  0.78323  0.83059  1.0000
  C   C110      1.0  0.40753  0.21482  0.68169  1.0000
  C   C111      1.0  0.00148  0.53301  0.75762  1.0000
  C   C112      1.0  0.99530  0.46439  0.73843  1.0000
  C   C113      1.0  0.02584  0.52633  0.65997  1.0000
  C   C114      1.0  0.97040  0.47083  0.83376  1.0000
  C   C115      1.0  0.02275  0.49278  0.65015  1.0000
  C   C116      1.0  0.97341  0.50444  0.84313  1.0000
  C   C117      1.0  0.03946  0.59787  0.76071  1.0000
  C   C118      1.0  0.06984  0.59695  0.81621  1.0000
  C   C119      1.0  0.10400  0.62641  0.80391  1.0000
  C   C120      1.0  0.10924  0.65873  0.74268  1.0000
  C   C121      1.0  0.07880  0.65967  0.68738  1.0000
  C   C122      1.0  0.04479  0.62971  0.69383  1.0000
  C   C123      1.0  0.15023  0.71916  0.75866  1.0000
  C   C124      1.0  0.84888  0.27896  0.72156  1.0000
  C   C125      1.0  0.19212  0.78344  0.79098  1.0000
  C   C126      1.0  0.80817  0.21496  0.67577  1.0000
  C   C127      1.0  0.18642  0.74960  0.74116  1.0000
  C   C128      1.0  0.81355  0.24749  0.74290  1.0000
  C   C129      1.0  0.21617  0.74621  0.67440  1.0000
  C   C130      1.0  0.78444  0.24871  0.82990  1.0000
  C   C131      1.0  0.25036  0.77568  0.65800  1.0000
  C   C132      1.0  0.75112  0.21825  0.84907  1.0000
  C   C133      1.0  0.25617  0.80936  0.71112  1.0000
  C   C134      1.0  0.74540  0.18588  0.77845  1.0000
  C   C135      1.0  0.22639  0.81273  0.77776  1.0000
  C   C136      1.0  0.77458  0.18475  0.69114  1.0000
  C   C137      1.0  0.02519  0.42732  0.71784  1.0000
  C   C138      1.0  0.97284  0.57094  0.77496  1.0000
  C   C139      1.0  0.02666  0.39920  0.63367  1.0000
  C   C140      1.0  0.96990  0.59675  0.87155  1.0000
  C   C141      1.0  0.05832  0.39651  0.62260  1.0000
  C   C142      1.0  0.93836  0.59955  0.87878  1.0000
  C   C143      1.0  0.08994  0.42150  0.69509  1.0000
  C   C144      1.0  0.90850  0.57679  0.79028  1.0000
  C   C145      1.0  0.08859  0.45016  0.77574  1.0000
  C   C146      1.0  0.91157  0.55085  0.69348  1.0000
  C   C147      1.0  0.05694  0.45282  0.78770  1.0000
  C   C148      1.0  0.94317  0.54816  0.68598  1.0000
  C   C149      1.0  0.14682  0.43158  0.77026  1.0000
  C   C150      1.0  0.85173  0.56718  0.71469  1.0000
  N   N1        1.0  0.56887  0.00272  0.24607  1.0000
  N   N2        1.0  0.43241  0.99985  0.27131  1.0000
  N   N3        1.0  0.57527  0.87455  0.26590  1.0000
  N   N4        1.0  0.42323  0.12599  0.22971  1.0000
  N   N5        1.0  0.29971  0.87143  0.29220  1.0000
  N   N6        1.0  0.70193  0.13100  0.21872  1.0000
  N   N7        1.0  0.56322  0.56797  0.25535  1.0000
  N   N8        1.0  0.43634  0.43346  0.24015  1.0000
  N   N9        1.0  0.30398  0.43727  0.28396  1.0000
  N   N10       1.0  0.69609  0.56493  0.23293  1.0000
  N   N11       1.0  0.54547  0.68990  0.26080  1.0000
  N   N12       1.0  0.45332  0.31115  0.24709  1.0000
  N   N13       1.0  0.00628  0.57005  0.26471  1.0000
  N   N14       1.0  0.99541  0.43335  0.21959  1.0000
  N   N15       1.0  0.14706  0.68837  0.22507  1.0000
  N   N16       1.0  0.85571  0.31373  0.26483  1.0000
  N   N17       1.0  0.12098  0.41708  0.19121  1.0000
  N   N18       1.0  0.88108  0.58738  0.30444  1.0000
  N   N19       1.0  0.56681  0.99952  0.74441  1.0000
  N   N20       1.0  0.43075  0.99790  0.77380  1.0000
  N   N21       1.0  0.57248  0.87112  0.77429  1.0000
  N   N22       1.0  0.42400  0.12538  0.72575  1.0000
  N   N23       1.0  0.29877  0.86896  0.77553  1.0000
  N   N24       1.0  0.70163  0.12610  0.71409  1.0000
  N   N25       1.0  0.56330  0.56569  0.76138  1.0000
  N   N26       1.0  0.43585  0.43196  0.73869  1.0000
  N   N27       1.0  0.30166  0.43276  0.78786  1.0000
  N   N28       1.0  0.69734  0.56547  0.71489  1.0000
  N   N29       1.0  0.54615  0.68785  0.75387  1.0000
  N   N30       1.0  0.45438  0.31055  0.75262  1.0000
  N   N31       1.0  0.00478  0.56744  0.76803  1.0000
  N   N32       1.0  0.99299  0.43032  0.72993  1.0000
  N   N33       1.0  0.14444  0.68707  0.73372  1.0000
  N   N34       1.0  0.85348  0.31057  0.74858  1.0000
  N   N35       1.0  0.12039  0.41643  0.67540  1.0000
  N   N36       1.0  0.87779  0.58129  0.81153  1.0000
  C   C151      1.0  0.64033  0.03930  0.63419  1.0000
  C   C152      1.0  0.60793  0.03109  0.72198  1.0000
  C  Sn1       1.0  0.60422  0.05735  0.81010  1.0000
  C  Sn2       1.0  0.63354  0.09247  0.81007  1.0000
  C   C153      1.0  0.66583  0.10042  0.72176  1.0000
  C   C154      1.0  0.66925  0.07393  0.63404  1.0000
  H   H109      1.0  0.64298  0.01881  0.56625  1.0000
  O  Te1       1.0  0.57167  0.04869  0.89719  1.0000
  O  Te2       1.0  0.63056  0.11923  0.89704  1.0000
  H   H110      1.0  0.69434  0.08030  0.56600  1.0000
  Mg  Mg1       1.0  0.58074  0.09434  0.99697  1.0000
  C   C155      1.0  0.59082  0.63767  0.67533  1.0000
  C   C156      1.0  0.56864  0.60534  0.75203  1.0000
  C  Sn3       1.0  0.53606  0.59920  0.83254  1.0000
  C  Sn4       1.0  0.52557  0.62598  0.83608  1.0000
  C   C157      1.0  0.54793  0.65823  0.75889  1.0000
  C   C158      1.0  0.58048  0.66409  0.67872  1.0000
  H   H111      1.0  0.61599  0.64221  0.61323  1.0000
  O  Te3       1.0  0.51423  0.56675  0.90858  1.0000
  O  Te4       1.0  0.49314  0.62054  0.91562  1.0000
  H   H112      1.0  0.59763  0.68912  0.61927  1.0000
  Mg  Mg2       1.0  0.48542  0.57169  0.00135  1.0000
  C   C159      1.0  0.49262  0.52216  0.65490  1.0000
  C   C160      1.0  0.52362  0.53232  0.73952  1.0000
  C  Sn5       1.0  0.52759  0.50721  0.82503  1.0000
  C  Sn6       1.0  0.49996  0.47128  0.82556  1.0000
  C   C161      1.0  0.46906  0.46139  0.74043  1.0000
  C   C162      1.0  0.46536  0.48674  0.65531  1.0000
  H   H113      1.0  0.48976  0.54177  0.58896  1.0000
  O  Te5       1.0  0.55873  0.51780  0.90898  1.0000
  O  Te6       1.0  0.50324  0.44564  0.90997  1.0000
  H   H114      1.0  0.44137  0.47886  0.58972  1.0000
  Mg  Mg3       1.0  0.56356  0.47286  0.00605  1.0000
  C   C163      1.0  0.53753  0.91187  0.17782  1.0000
  C   C164      1.0  0.56441  0.90484  0.22807  1.0000
  C  Sn7       1.0  0.59502  0.93161  0.29725  1.0000
  C  Sn8       1.0  0.59871  0.96604  0.31636  1.0000
  C   C165      1.0  0.57165  0.97280  0.26580  1.0000
  C   C166      1.0  0.54114  0.94582  0.19668  1.0000
  H   H115      1.0  0.51391  0.89099  0.12441  1.0000
  O  Te7       1.0  0.62162  0.92413  0.34674  1.0000
  O  Te8       1.0  0.62901  0.99328  0.38518  1.0000
  H   H116      1.0  0.52032  0.95127  0.15788  1.0000
  Mg  Mg4       1.0  0.65796  0.97004  0.43377  1.0000
  C   C167      1.0  0.20111  0.79078  0.34906  1.0000
  C   C168      1.0  0.18774  0.75972  0.25814  1.0000
  C  Sn9       1.0  0.21039  0.75472  0.14325  1.0000
  C  Sn10      1.0  0.24709  0.78136  0.11924  1.0000
  C   C169      1.0  0.26021  0.81232  0.21089  1.0000
  C   C170      1.0  0.23730  0.81705  0.32550  1.0000
  H   H117      1.0  0.18340  0.79444  0.43780  1.0000
  O  Te9       1.0  0.19660  0.72354  0.05341  1.0000
  O  Te10      1.0  0.27032  0.77704  0.00526  1.0000
  H   H118      1.0  0.24766  0.84109  0.39595  1.0000
  Mg  Mg5       1.0  0.22603  0.73017  0.91243  1.0000
  C   C171      1.0  0.05437  0.64018  0.15968  1.0000
  C   C172      1.0  0.04279  0.60711  0.22909  1.0000
  C  Sn11      1.0  0.06659  0.60099  0.31473  1.0000
  C  Sn12      1.0  0.10262  0.62855  0.33102  1.0000
  C   C173      1.0  0.11393  0.66155  0.26123  1.0000
  C   C174      1.0  0.08990  0.66738  0.17574  1.0000
  H   H119      1.0  0.03577  0.64470  0.09360  1.0000
  O  Te11      1.0  0.05459  0.56779  0.38327  1.0000
  O  Te12      1.0  0.12697  0.62316  0.41603  1.0000
  H   H120      1.0  0.09886  0.69299  0.12210  1.0000
  Mg  Mg6       1.0  0.09786  0.57334  0.48766  1.0000
  C   C175      1.0  0.39604  0.05371  0.67367  1.0000
  C   C176      1.0  0.41906  0.08680  0.73822  1.0000
  C  Sn13      1.0  0.44948  0.09192  0.81653  1.0000
  C  Sn14      1.0  0.45693  0.06333  0.83023  1.0000
  C   C177      1.0  0.43374  0.03033  0.76515  1.0000
  C   C178      1.0  0.40337  0.02550  0.68708  1.0000
  H   H121      1.0  0.37254  0.04997  0.61318  1.0000
  O  Te13      1.0  0.47220  0.12516  0.88039  1.0000
  O  Te14      1.0  0.48716  0.06772  0.90784  1.0000
  H   H122      1.0  0.87765  0.99987  0.63702  1.0000
  Mg  Mg7       1.0  0.51003  0.11801  0.97527  1.0000
  C   C179      1.0  0.39230  0.46280  0.35775  1.0000
  C   C180      1.0  0.40133  0.43825  0.28480  1.0000
  C  Sn15      1.0  0.37625  0.41042  0.19457  1.0000
  C  Sn16      1.0  0.34152  0.40719  0.17723  1.0000
  C   C181      1.0  0.33275  0.43191  0.25058  1.0000
  C   C182      1.0  0.35804  0.45964  0.34065  1.0000
  H   H123      1.0  0.41187  0.48427  0.42736  1.0000
  O  Te15      1.0  0.38572  0.38612  0.12255  1.0000
  O  Te16      1.0  0.31594  0.37965  0.08766  1.0000
  H   H124      1.0  0.35105  0.47866  0.39702  1.0000
  Mg  Mg8       1.0  0.34159  0.35314  0.01248  1.0000
  C   C183      1.0  0.50513  0.02936  0.66830  1.0000
  C   C184      1.0  0.47174  0.00459  0.73860  1.0000
  C  Sn17      1.0  0.96130  0.97662  0.82825  1.0000
  C  Sn18      1.0  0.99283  0.97347  0.84770  1.0000
  C   C185      1.0  0.02612  0.99841  0.77698  1.0000
  C   C186      1.0  0.53625  0.02628  0.68748  1.0000
  H   H125      1.0  0.50686  0.05094  0.59912  1.0000
  O  Te17      1.0  0.92772  0.95210  0.89762  1.0000
  O  Te18      1.0  0.99107  0.94579  0.93673  1.0000
  H   H126      1.0  0.56211  0.04547  0.63315  1.0000
  Mg  Mg9       1.0  0.95197  0.91877  0.00798  1.0000
  C   C187      1.0  0.80222  0.20938  0.16531  1.0000
  C   C188      1.0  0.81373  0.24334  0.22823  1.0000
  C  Sn19      1.0  0.79069  0.25005  0.33377  1.0000
  C  Sn20      1.0  0.75551  0.22220  0.37692  1.0000
  C   C189      1.0  0.74427  0.18831  0.31340  1.0000
  C   C190      1.0  0.76753  0.18189  0.20785  1.0000
  H   H127      1.0  0.82023  0.20441  0.08371  1.0000
  O  Te19      1.0  0.80261  0.28414  0.39548  1.0000
  O  Te20      1.0  0.73195  0.22817  0.48220  1.0000
  H   H128      1.0  0.75863  0.15559  0.15924  1.0000
  Mg  Mg10      1.0  0.76060  0.27912  0.53457  1.0000
  C   C191      1.0  0.92784  0.34228  0.81431  1.0000
  C   C192      1.0  0.89530  0.33859  0.76306  1.0000
  C  Sn21      1.0  0.89482  0.36645  0.68435  1.0000
  C  Sn22      1.0  0.92759  0.39857  0.65658  1.0000
  C   C193      1.0  0.96001  0.40200  0.70822  1.0000
  C   C194      1.0  0.96017  0.37395  0.78691  1.0000
  H   H129      1.0  0.92797  0.32058  0.87511  1.0000
  O  Te21      1.0  0.86207  0.36232  0.63399  1.0000
  O  Te22      1.0  0.92789  0.42684  0.57815  1.0000
  H   H130      1.0  0.98538  0.37681  0.82648  1.0000
  Mg  Mg11      1.0  0.87638  0.40842  0.53226  1.0000
  C   C195      1.0  0.81278  0.59934  0.87631  1.0000
  C   C196      1.0  0.81893  0.57584  0.77727  1.0000
  C  Sn23      1.0  0.79246  0.55307  0.67551  1.0000
  C  Sn24      1.0  0.75924  0.55391  0.67310  1.0000
  C   C197      1.0  0.75335  0.57753  0.77256  1.0000
  C   C198      1.0  0.78003  0.60019  0.87396  1.0000
  H   H131      1.0  0.83342  0.61689  0.95471  1.0000
  O  Te23      1.0  0.79904  0.52974  0.57738  1.0000
  O  Te24      1.0  0.73232  0.53145  0.57250  1.0000
  H   H132      1.0  0.77526  0.61840  0.95056  1.0000
  Mg  Mg12      1.0  0.75402  0.50434  0.46102  1.0000
  C   C199      1.0  0.47624  0.39752  0.15946  1.0000
  C   C200      1.0  0.44628  0.40183  0.20894  1.0000
  C  Sn25      1.0  0.41587  0.37424  0.28651  1.0000
  C  Sn26      1.0  0.41553  0.34178  0.31494  1.0000
  C   C201      1.0  0.44565  0.33774  0.26507  1.0000
  C   C202      1.0  0.47593  0.36551  0.18751  1.0000
  H   H133      1.0  0.49968  0.41901  0.09952  1.0000
  O  Te25      1.0  0.38616  0.37899  0.33510  1.0000
  O  Te26      1.0  0.38550  0.31379  0.39226  1.0000
  H   H134      1.0  0.49914  0.36217  0.14930  1.0000
  Mg  Mg13      1.0  0.35157  0.33305  0.43585  1.0000
  C   C203      1.0  0.60859  0.53955  0.14381  1.0000
  C   C204      1.0  0.59721  0.56088  0.23182  1.0000
  C  Sn27      1.0  0.62140  0.58855  0.32554  1.0000
  C  Sn28      1.0  0.65764  0.59493  0.33099  1.0000
  C   C205      1.0  0.66877  0.57347  0.24242  1.0000
  C   C206      1.0  0.64433  0.54584  0.14907  1.0000
  H   H135      1.0  0.58969  0.51819  0.07152  1.0000
  O  Te27      1.0  0.60958  0.60959  0.41277  1.0000
  O  Te28      1.0  0.68238  0.62242  0.42362  1.0000
  H   H136      1.0  0.65316  0.52935  0.08086  1.0000
  Mg  Mg14      1.0  0.65339  0.64383  0.52137  1.0000
  C   C207      1.0  0.40380  0.18890  0.18849  1.0000
  C   C208      1.0  0.43314  0.18644  0.24316  1.0000
  C  Sn29      1.0  0.46221  0.21619  0.30631  1.0000
  C  Sn30      1.0  0.46182  0.24897  0.31477  1.0000
  C   C209      1.0  0.43233  0.25114  0.25987  1.0000
  C   C210      1.0  0.40338  0.22121  0.19685  1.0000
  H   H137      1.0  0.38139  0.16573  0.13982  1.0000
  O  Te29      1.0  0.49132  0.21327  0.36033  1.0000
  O  Te30      1.0  0.49052  0.27911  0.37738  1.0000
  H   H138      1.0  0.38066  0.22312  0.15463  1.0000
  Mg  Mg15      1.0  0.52406  0.26181  0.43570  1.0000
  C   C211      1.0  0.94939  0.36208  0.31371  1.0000
  C   C212      1.0  0.96051  0.39454  0.23905  1.0000
  C  Sn31      1.0  0.93516  0.40155  0.17174  1.0000
  C  Sn32      1.0  0.89799  0.37554  0.17956  1.0000
  C   C213      1.0  0.88713  0.34317  0.25462  1.0000
  C   C214      1.0  0.91273  0.33642  0.32153  1.0000
  H   H139      1.0  0.96919  0.35687  0.36556  1.0000
  O  Te31      1.0  0.94674  0.43411  0.09755  1.0000
  O  Te32      1.0  0.87208  0.38186  0.11333  1.0000
  H   H140      1.0  0.90411  0.31130  0.37942  1.0000
  Mg  Mg16      1.0  0.90119  0.43028  0.02488  1.0000
  C   C215      1.0  0.52895  0.77026  0.16053  1.0000
  C   C216      1.0  0.55048  0.80489  0.21374  1.0000
  C  Sn33      1.0  0.58251  0.81389  0.28816  1.0000
  C  Sn34      1.0  0.59311  0.78769  0.30950  1.0000
  C   C217      1.0  0.57139  0.75313  0.25574  1.0000
  C   C218      1.0  0.53939  0.74440  0.18147  1.0000
  H   H141      1.0  0.50419  0.76351  0.10299  1.0000
  O  Te33      1.0  0.60371  0.84861  0.34066  1.0000
  O  Te34      1.0  0.62500  0.79597  0.38344  1.0000
  H   H142      1.0  0.52273  0.71760  0.14020  1.0000
  Mg  Mg17      1.0  0.64478  0.84694  0.43459  1.0000
  C   C219      1.0  0.34074  0.94206  0.36854  1.0000
  C   C220      1.0  0.33324  0.90993  0.29414  1.0000
  C  Sn35      1.0  0.36090  0.90610  0.21023  1.0000
  C  Sn36      1.0  0.39669  0.93501  0.20086  1.0000
  C   C221      1.0  0.40391  0.96703  0.27580  1.0000
  C   C222      1.0  0.37604  0.97059  0.35941  1.0000
  H   H143      1.0  0.31918  0.94481  0.43331  1.0000
  O  Te35      1.0  0.35293  0.87382  0.13655  1.0000
  O  Te36      1.0  0.42484  0.93189  0.11782  1.0000
  H   H144      1.0  0.38186  0.99546  0.41709  1.0000
  Mg  Mg18      1.0  0.40046  0.88256  0.03729  1.0000
  C   C223      1.0  0.20050  0.39246  0.15841  1.0000
  C   C224      1.0  0.23592  0.41568  0.19941  1.0000
  C  Sn37      1.0  0.24397  0.44782  0.27505  1.0000
  C  Sn38      1.0  0.21598  0.45679  0.31019  1.0000
  C   C225      1.0  0.18063  0.43337  0.26878  1.0000
  C   C226      1.0  0.17288  0.40129  0.19307  1.0000
  H   H145      1.0  0.19449  0.36763  0.09991  1.0000
  O  Te37      1.0  0.27951  0.47071  0.31514  1.0000
  O  Te38      1.0  0.22328  0.48873  0.38577  1.0000
  H   H146      1.0  0.14545  0.38331  0.16144  1.0000
  Mg  Mg19      1.0  0.27595  0.51117  0.41674  1.0000
  C   C227      1.0  0.63608  0.59621  0.84974  1.0000
  C   C228      1.0  0.60514  0.57490  0.76663  1.0000
  C  Sn39      1.0  0.60417  0.54803  0.66584  1.0000
  C  Sn40      1.0  0.63476  0.54245  0.64820  1.0000
  C   C229      1.0  0.66558  0.56389  0.73195  1.0000
  C   C230      1.0  0.66627  0.59071  0.83245  1.0000
  H   H147      1.0  0.63661  0.61695  0.92757  1.0000
  O  Te39      1.0  0.57304  0.52699  0.58366  1.0000
  O  Te40      1.0  0.63451  0.51577  0.54830  1.0000
  H   H148      1.0  0.69022  0.60720  0.89686  1.0000
  Mg  Mg20      1.0  0.58579  0.49402  0.46153  1.0000
  C   C231      1.0  0.50787  0.47758  0.33695  1.0000
  C   C232      1.0  0.47466  0.46807  0.27229  1.0000
  C  Sn41      1.0  0.47015  0.49277  0.18613  1.0000
  C  Sn42      1.0  0.49948  0.52760  0.16446  1.0000
  C   C233      1.0  0.53260  0.53684  0.22953  1.0000
  C   C234      1.0  0.53682  0.51193  0.31559  1.0000
  H   H149      1.0  0.51114  0.45830  0.40347  1.0000
  O  Te41      1.0  0.43679  0.48283  0.12238  1.0000
  O  Te42      1.0  0.49572  0.55280  0.07881  1.0000
  H   H150      1.0  0.56254  0.51929  0.36555  1.0000
  Mg  Mg21      1.0  0.44496  0.52657  0.01496  1.0000
