data_image0
_chemical_formula_structural       H132C234S24N36SnCSn2CSnTe4Mg2SnCSn2CSnTe4Mg2SnCSn2CSnTe4Mg2SnCSn2CSnTe4Mg2SnCSn2CSnTe4Mg2SnCSn2CSnTe4Mg2SnCSn2CSnTe4Mg2SnCSn2CSnTe4Mg2SnCSn2CSnTe4Mg2SnCSn2CSnTe4Mg2SnCSn2CSnTe4Mg2SnCSn2CSnTe4Mg2SnCSn2CSnTe4Mg2SnCSn2CSnTe4Mg2SnCSn2CSnTe4Mg2
_chemical_formula_sum              "H132 C264 S24 N36 Sn60 Te60 Mg30"
_cell_length_a       50.7302
_cell_length_b       50.892
_cell_length_c       8.37379
_cell_angle_alpha    101.116
_cell_angle_beta     79.1061
_cell_angle_gamma    119.887

_symmetry_space_group_name_H-M    'P1'
_space_group_IT_number       1

loop_
  _space_group_symop_operation_xyz
  'x, y, z'

loop_
  _atom_site_type_symbol
  _atom_site_label
  _atom_site_symmetry_multiplicity
  _atom_site_fract_x
  _atom_site_fract_y
  _atom_site_fract_z
  _atom_site_occupancy
  H   H1        1.0  0.51604  0.96387  0.34490  1.0000
  H   H2        1.0  0.49586  0.03672  0.14365  1.0000
  H   H3        1.0  0.46776  0.96516  0.44126  1.0000
  H   H4        1.0  0.54416  0.03551  0.04875  1.0000
  H   H5        1.0  0.49439  0.05960  0.44954  1.0000
  H   H6        1.0  0.49240  0.10700  0.45730  1.0000
  H   H7        1.0  0.40249  0.05555  0.29823  1.0000
  H   H8        1.0  0.40402  0.00752  0.29804  1.0000
  H   H9        1.0  0.51804  0.85526  0.54407  1.0000
  H   H10       1.0  0.48135  0.14668  0.94834  1.0000
  H   H11       1.0  0.50518  0.79752  0.53276  1.0000
  H   H12       1.0  0.49716  0.20613  0.95038  1.0000
  H   H13       1.0  0.40455  0.99617  0.58584  1.0000
  H   H14       1.0  0.61251  0.00505  0.93402  1.0000
  H   H15       1.0  0.38415  0.90068  0.21970  1.0000
  H   H16       1.0  0.62198  0.10187  0.24809  1.0000
  H   H17       1.0  0.43367  0.94650  0.18485  1.0000
  H   H18       1.0  0.57508  0.05404  0.29151  1.0000
  H   H19       1.0  0.34711  0.86333  0.31590  1.0000
  H   H20       1.0  0.66042  0.13981  0.17066  1.0000
  H   H21       1.0  0.30588  0.80728  0.25837  1.0000
  H   H22       1.0  0.70079  0.19726  0.21462  1.0000
  H   H23       1.0  0.30542  0.41399  0.34495  1.0000
  H   H24       1.0  0.69662  0.58395  0.11642  1.0000
  H   H25       1.0  0.24755  0.40238  0.36680  1.0000
  H   H26       1.0  0.75502  0.59595  0.08273  1.0000
  H   H27       1.0  0.26262  0.49989  0.08378  1.0000
  H   H28       1.0  0.74447  0.50718  0.42465  1.0000
  H   H29       1.0  0.19320  0.40411  0.35584  1.0000
  H   H30       1.0  0.81017  0.59623  0.09619  1.0000
  H   H31       1.0  0.59214  0.61309  0.39161  1.0000
  H   H32       1.0  0.58783  0.65866  0.38324  1.0000
  H   H33       1.0  0.51157  0.60532  0.10031  1.0000
  H   H34       1.0  0.51621  0.55910  0.10685  1.0000
  H   H35       1.0  0.58655  0.69528  0.30780  1.0000
  H   H36       1.0  0.41541  0.30086  0.14148  1.0000
  H   H37       1.0  0.59849  0.75253  0.33102  1.0000
  H   H38       1.0  0.40144  0.24250  0.13511  1.0000
  H   H39       1.0  0.49652  0.73849  0.09297  1.0000
  H   H40       1.0  0.50017  0.25729  0.41023  1.0000
  H   H41       1.0  0.59827  0.80677  0.31711  1.0000
  H   H42       1.0  0.40048  0.18798  0.16779  1.0000
  H   H43       1.0  0.03993  0.54496  0.42287  1.0000
  H   H44       1.0  0.96609  0.46080  0.06806  1.0000
  H   H45       1.0  0.04047  0.49594  0.36022  1.0000
  H   H46       1.0  0.96504  0.50946  0.13489  1.0000
  H   H47       1.0  0.05434  0.56988  0.13202  1.0000
  H   H48       1.0  0.10389  0.61789  0.14716  1.0000
  H   H49       1.0  0.05590  0.65372  0.01463  1.0000
  H   H50       1.0  0.10224  0.68303  0.06964  1.0000
  H   H51       1.0  0.88842  0.31079  0.41632  1.0000
  H   H52       1.0  0.14412  0.73997  0.16827  1.0000
  H   H53       1.0  0.84559  0.25369  0.32713  1.0000
  H   H54       1.0  0.25160  0.75165  0.23149  1.0000
  H   H55       1.0  0.75465  0.25380  0.23256  1.0000
  H   H56       1.0  0.19796  0.79635  0.20546  1.0000
  H   H57       1.0  0.79173  0.19759  0.30294  1.0000
  H   H58       1.0  0.01195  0.40488  0.27821  1.0000
  H   H59       1.0  0.06184  0.40731  0.28440  1.0000
  H   H60       1.0  0.10774  0.48945  0.04934  1.0000
  H   H61       1.0  0.05851  0.48711  0.04410  1.0000
  H   H62       1.0  0.14842  0.48614  0.07246  1.0000
  H   H63       1.0  0.85821  0.52184  0.42498  1.0000
  H   H64       1.0  0.19830  0.49161  0.60338  1.0000
  H   H65       1.0  0.79459  0.49813  0.86549  1.0000
  H   H66       1.0  0.01264  0.61133  0.51459  1.0000
  H   H67       1.0  0.50562  0.93891  0.55199  1.0000
  H   H68       1.0  0.50923  0.89227  0.54213  1.0000
  H   H69       1.0  0.59641  0.94511  0.73219  1.0000
  H   H70       1.0  0.59339  0.99256  0.73359  1.0000
  H   H71       1.0  0.51468  0.85376  0.06609  1.0000
  H   H72       1.0  0.48518  0.14535  0.44881  1.0000
  H   H73       1.0  0.49784  0.79348  0.06598  1.0000
  H   H74       1.0  0.49930  0.20331  0.44479  1.0000
  H   H75       1.0  0.35456  0.94922  0.62713  1.0000
  H   H76       1.0  0.65957  0.05372  0.88453  1.0000
  H   H77       1.0  0.33276  0.86627  0.78509  1.0000
  H   H78       1.0  0.65950  0.13006  0.75318  1.0000
  H   H79       1.0  0.29371  0.81076  0.71830  1.0000
  H   H80       1.0  0.69936  0.18514  0.80916  1.0000
  H   H81       1.0  0.45000  0.50007  0.88180  1.0000
  H   H82       1.0  0.54663  0.50217  0.61579  1.0000
  H   H83       1.0  0.49764  0.54807  0.89106  1.0000
  H   H84       1.0  0.49897  0.45414  0.60548  1.0000
  H   H85       1.0  0.30020  0.40756  0.85969  1.0000
  H   H86       1.0  0.69664  0.59320  0.69356  1.0000
  H   H87       1.0  0.24005  0.39376  0.88912  1.0000
  H   H88       1.0  0.75497  0.60563  0.67112  1.0000
  H   H89       1.0  0.25298  0.49135  0.61640  1.0000
  H   H90       1.0  0.73997  0.49918  0.85317  1.0000
  H   H91       1.0  0.18513  0.39412  0.87834  1.0000
  H   H92       1.0  0.80972  0.60404  0.67540  1.0000
  H   H93       1.0  0.59078  0.61320  0.90429  1.0000
  H   H94       1.0  0.40884  0.38834  0.58376  1.0000
  H   H95       1.0  0.58987  0.66063  0.89579  1.0000
  H   H96       1.0  0.41186  0.34217  0.59365  1.0000
  H   H97       1.0  0.51500  0.61161  0.60020  1.0000
  H   H98       1.0  0.48317  0.39282  0.91139  1.0000
  H   H99       1.0  0.51636  0.56369  0.60677  1.0000
  H   H100      1.0  0.47942  0.43967  0.90441  1.0000
  H   H101      1.0  0.58605  0.69919  0.86120  1.0000
  H   H102      1.0  0.41416  0.30478  0.64869  1.0000
  H   H103      1.0  0.59775  0.75741  0.88625  1.0000
  H   H104      1.0  0.40182  0.24710  0.62909  1.0000
  H   H105      1.0  0.50477  0.74314  0.56027  1.0000
  H   H106      1.0  0.49875  0.26102  0.91831  1.0000
  H   H107      1.0  0.59759  0.81177  0.86274  1.0000
  H   H108      1.0  0.40071  0.19252  0.65839  1.0000
  H   H109      1.0  0.03545  0.53845  0.91142  1.0000
  H   H110      1.0  0.95864  0.45420  0.57182  1.0000
  H   H111      1.0  0.03537  0.48931  0.84548  1.0000
  H   H112      1.0  0.95907  0.50361  0.63527  1.0000
  H   H113      1.0  0.05133  0.56337  0.64184  1.0000
  H   H114      1.0  0.10009  0.61213  0.65036  1.0000
  H   H115      1.0  0.06157  0.65830  0.53341  1.0000
  H   H116      1.0  0.10647  0.69502  0.53411  1.0000
  H   H117      1.0  0.90162  0.30911  0.97551  1.0000
  H   H118      1.0  0.14853  0.75166  0.60357  1.0000
  H   H119      1.0  0.85995  0.25157  0.90920  1.0000
  H   H120      1.0  0.24115  0.75447  0.68988  1.0000
  H   H121      1.0  0.75259  0.24054  0.83038  1.0000
  H   H122      1.0  0.20268  0.80741  0.62793  1.0000
  H   H123      1.0  0.80595  0.19582  0.88260  1.0000
  H   H124      1.0  0.00232  0.39502  0.75529  1.0000
  H   H125      1.0  0.05124  0.39614  0.77817  1.0000
  H   H126      1.0  0.10159  0.48053  0.56547  1.0000
  H   H127      1.0  0.05365  0.47988  0.54699  1.0000
  H   H128      1.0  0.13988  0.47733  0.60957  1.0000
  H   H129      1.0  0.85376  0.51221  0.85901  1.0000
  H   H130      1.0  0.20805  0.50088  0.06702  1.0000
  H   H131      1.0  0.79950  0.50775  0.44103  1.0000
  H   H132      1.0  0.00718  0.60583  0.99876  1.0000
  C   C1        1.0  0.53382  0.99959  0.18933  1.0000
  C   C2        1.0  0.47820  0.00130  0.30111  1.0000
  C   C3        1.0  0.51154  0.97961  0.29872  1.0000
  C   C4        1.0  0.50048  0.02123  0.19148  1.0000
  C   C5        1.0  0.48426  0.98035  0.35340  1.0000
  C   C6        1.0  0.52771  0.02039  0.13674  1.0000
  C   C7        1.0  0.44938  0.02992  0.37018  1.0000
  C   C8        1.0  0.47399  0.05851  0.41817  1.0000
  C   C9        1.0  0.47285  0.08539  0.42108  1.0000
  C   C10       1.0  0.44711  0.08493  0.37598  1.0000
  C   C11       1.0  0.42230  0.05612  0.33417  1.0000
  C   C12       1.0  0.42332  0.02936  0.33186  1.0000
  C   C13       1.0  0.53499  0.85916  0.12204  1.0000
  C   C14       1.0  0.46406  0.13809  0.39511  1.0000
  C   C15       1.0  0.53827  0.83406  0.15001  1.0000
  C   C16       1.0  0.45928  0.16202  0.36276  1.0000
  C   C17       1.0  0.51920  0.80302  0.11888  1.0000
  C   C18       1.0  0.47802  0.19320  0.39031  1.0000
  C   C19       1.0  0.42270  0.97473  0.38382  1.0000
  C   C20       1.0  0.58932  0.02610  0.10814  1.0000
  C   C21       1.0  0.39998  0.97500  0.50791  1.0000
  C   C22       1.0  0.61406  0.02638  0.99768  1.0000
  C   C23       1.0  0.37202  0.94895  0.52990  1.0000
  C   C24       1.0  0.64069  0.05359  0.97173  1.0000
  C   C25       1.0  0.36559  0.92123  0.42989  1.0000
  C   C26       1.0  0.64418  0.08173  0.05638  1.0000
  C   C27       1.0  0.38857  0.92107  0.30519  1.0000
  C   C28       1.0  0.61969  0.08113  0.17158  1.0000
  C   C29       1.0  0.41654  0.94718  0.28284  1.0000
  C   C30       1.0  0.59307  0.05406  0.19749  1.0000
  C   C31       1.0  0.33024  0.86903  0.39423  1.0000
  C   C32       1.0  0.67760  0.13465  0.09162  1.0000
  C   C33       1.0  0.29041  0.84165  0.92967  1.0000
  C   C34       1.0  0.70069  0.15318  0.59836  1.0000
  C   C35       1.0  0.29056  0.81414  0.34128  1.0000
  C   C36       1.0  0.71655  0.19016  0.13883  1.0000
  C   C37       1.0  0.31216  0.43278  0.27323  1.0000
  C   C38       1.0  0.69121  0.56712  0.19894  1.0000
  C   C39       1.0  0.28832  0.43912  0.25563  1.0000
  C   C40       1.0  0.71570  0.56196  0.21809  1.0000
  C   C41       1.0  0.25734  0.42272  0.30517  1.0000
  C   C42       1.0  0.74620  0.57755  0.15817  1.0000
  C   C43       1.0  0.24001  0.43543  0.26840  1.0000
  C   C44       1.0  0.76436  0.56654  0.20308  1.0000
  C   C45       1.0  0.25935  0.46280  0.19087  1.0000
  C   C46       1.0  0.74602  0.54121  0.29729  1.0000
  C   C47       1.0  0.24770  0.47942  0.14363  1.0000
  C   C48       1.0  0.75851  0.52629  0.35342  1.0000
  C   C49       1.0  0.21583  0.46850  0.17058  1.0000
  C   C50       1.0  0.79027  0.53711  0.31930  1.0000
  C   C51       1.0  0.19651  0.44097  0.24670  1.0000
  C   C52       1.0  0.80871  0.56273  0.22715  1.0000
  C   C53       1.0  0.20818  0.42467  0.29666  1.0000
  C   C54       1.0  0.79611  0.57727  0.16831  1.0000
  C   C55       1.0  0.55472  0.58271  0.24667  1.0000
  C   C56       1.0  0.57505  0.61135  0.32315  1.0000
  C   C57       1.0  0.57263  0.63716  0.31750  1.0000
  C   C58       1.0  0.54965  0.63545  0.23697  1.0000
  C   C59       1.0  0.52909  0.60662  0.16391  1.0000
  C   C60       1.0  0.53183  0.58098  0.16679  1.0000
  C   C61       1.0  0.56472  0.68789  0.26166  1.0000
  C   C62       1.0  0.43469  0.30749  0.21003  1.0000
  C   C63       1.0  0.55860  0.71173  0.24407  1.0000
  C   C64       1.0  0.44016  0.28336  0.23146  1.0000
  C   C65       1.0  0.57689  0.74278  0.28020  1.0000
  C   C66       1.0  0.42230  0.25226  0.19309  1.0000
  C   C67       1.0  0.56417  0.76028  0.24686  1.0000
  C   C68       1.0  0.43416  0.23477  0.23719  1.0000
  C   C69       1.0  0.53504  0.74112  0.18432  1.0000
  C   C70       1.0  0.46255  0.25414  0.30700  1.0000
  C   C71       1.0  0.51840  0.75317  0.14145  1.0000
  C   C72       1.0  0.47874  0.24240  0.35771  1.0000
  C   C73       1.0  0.53104  0.78515  0.15867  1.0000
  C   C74       1.0  0.46622  0.21050  0.34391  1.0000
  C   C75       1.0  0.56017  0.80421  0.22141  1.0000
  C   C76       1.0  0.43748  0.19108  0.27766  1.0000
  C   C77       1.0  0.57655  0.79217  0.26681  1.0000
  C   C78       1.0  0.42172  0.20283  0.22243  1.0000
  C   C79       1.0  0.02365  0.52648  0.34578  1.0000
  C   C80       1.0  0.98180  0.47889  0.14954  1.0000
  C   C81       1.0  0.02403  0.49886  0.30962  1.0000
  C   C82       1.0  0.98125  0.50642  0.18696  1.0000
  C   C83       1.0  0.03002  0.58668  0.32693  1.0000
  C   C84       1.0  0.05600  0.58908  0.22111  1.0000
  C   C85       1.0  0.08377  0.61581  0.22949  1.0000
  C   C86       1.0  0.08699  0.64134  0.34280  1.0000
  C   C87       1.0  0.06050  0.63924  0.44436  1.0000
  C   C88       1.0  0.03275  0.61253  0.43591  1.0000
  C   C89       1.0  0.11791  0.68351  0.95863  1.0000
  C   C90       1.0  0.87407  0.31031  0.53304  1.0000
  C   C91       1.0  0.14780  0.70966  0.95367  1.0000
  C   C92       1.0  0.84416  0.28422  0.54601  1.0000
  C   C93       1.0  0.15823  0.73621  0.06130  1.0000
  C   C94       1.0  0.83258  0.25763  0.43911  1.0000
  C   C95       1.0  0.18926  0.75779  0.01716  1.0000
  C   C96       1.0  0.80191  0.23620  0.49114  1.0000
  C   C97       1.0  0.21002  0.74884  0.37296  1.0000
  C   C98       1.0  0.79708  0.25565  0.11062  1.0000
  C   C99       1.0  0.24111  0.76340  0.31950  1.0000
  C   C100      1.0  0.76571  0.24135  0.15690  1.0000
  C   C101      1.0  0.24963  0.79262  0.87843  1.0000
  C   C102      1.0  0.74236  0.20211  0.64152  1.0000
  C   C103      1.0  0.23701  0.80438  0.02447  1.0000
  C   C104      1.0  0.75378  0.18989  0.49245  1.0000
  C   C105      1.0  0.20721  0.78733  0.09431  1.0000
  C   C106      1.0  0.78317  0.20667  0.41658  1.0000
  C   C107      1.0  0.03152  0.44596  0.16304  1.0000
  C   C108      1.0  0.03287  0.42316  0.22675  1.0000
  C   C109      1.0  0.06070  0.42439  0.22962  1.0000
  C   C110      1.0  0.08852  0.44839  0.16973  1.0000
  C   C111      1.0  0.08700  0.47077  0.10034  1.0000
  C   C112      1.0  0.05908  0.46942  0.09604  1.0000
  C   C113      1.0  0.14238  0.46698  0.13946  1.0000
  C   C114      1.0  0.86399  0.53974  0.34898  1.0000
  C   C115      1.0  0.16711  0.46294  0.16841  1.0000
  C   C116      1.0  0.83920  0.54315  0.31613  1.0000
  C   C117      1.0  0.19826  0.48048  0.12809  1.0000
  C   C118      1.0  0.80841  0.52645  0.36756  1.0000
  C   C119      1.0  0.00214  0.53072  0.28607  1.0000
  C   C120      1.0  0.00309  0.47453  0.21073  1.0000
  C   C121      1.0  0.54919  0.96922  0.64684  1.0000
  C   C122      1.0  0.52572  0.94050  0.59044  1.0000
  C   C123      1.0  0.52773  0.91406  0.58650  1.0000
  C   C124      1.0  0.55311  0.91518  0.64008  1.0000
  C   C125      1.0  0.57688  0.94417  0.69033  1.0000
  C   C126      1.0  0.57505  0.97048  0.69287  1.0000
  C   C127      1.0  0.53780  0.86234  0.60969  1.0000
  C   C128      1.0  0.46077  0.14066  0.89292  1.0000
  C   C129      1.0  0.54223  0.83828  0.64324  1.0000
  C   C130      1.0  0.45752  0.16545  0.85940  1.0000
  C   C131      1.0  0.52479  0.80720  0.60138  1.0000
  C   C132      1.0  0.47649  0.19654  0.89065  1.0000
  C   C133      1.0  0.31924  0.86826  0.90160  1.0000
  C   C134      1.0  0.67144  0.12726  0.63236  1.0000
  C   C135      1.0  0.30008  0.84371  0.41623  1.0000
  C   C136      1.0  0.70751  0.16031  0.07024  1.0000
  C   C137      1.0  0.28001  0.81447  0.82759  1.0000
  C   C138      1.0  0.71214  0.18071  0.69772  1.0000
  C   C139      1.0  0.52625  0.52926  0.75444  1.0000
  C   C140      1.0  0.47042  0.47292  0.74246  1.0000
  C   C141      1.0  0.47104  0.50010  0.82344  1.0000
  C   C142      1.0  0.52556  0.50205  0.67366  1.0000
  C   C143      1.0  0.49828  0.52755  0.82940  1.0000
  C   C144      1.0  0.49840  0.47467  0.66766  1.0000
  C   C145      1.0  0.30527  0.42633  0.79215  1.0000
  C   C146      1.0  0.68984  0.57158  0.73918  1.0000
  C   C147      1.0  0.28034  0.43137  0.78038  1.0000
  C   C148      1.0  0.71402  0.56506  0.74676  1.0000
  C   C149      1.0  0.24950  0.41433  0.82999  1.0000
  C   C150      1.0  0.74521  0.58327  0.71183  1.0000
  C   C151      1.0  0.23162  0.42658  0.79480  1.0000
  C   C152      1.0  0.76271  0.56962  0.73410  1.0000
  C   C153      1.0  0.25049  0.45424  0.71932  1.0000
  C   C154      1.0  0.74328  0.53969  0.78494  1.0000
  C   C155      1.0  0.23842  0.47063  0.67469  1.0000
  C   C156      1.0  0.75500  0.52175  0.81463  1.0000
  C   C157      1.0  0.20652  0.45912  0.70197  1.0000
  C   C158      1.0  0.78699  0.53380  0.79704  1.0000
  C   C159      1.0  0.18753  0.43112  0.77408  1.0000
  C   C160      1.0  0.80643  0.56386  0.74805  1.0000
  C   C161      1.0  0.19970  0.41505  0.82192  1.0000
  C   C162      1.0  0.79471  0.58156  0.71507  1.0000
  C   C163      1.0  0.55391  0.58499  0.75350  1.0000
  C   C164      1.0  0.44400  0.41735  0.74425  1.0000
  C   C165      1.0  0.57469  0.61291  0.83385  1.0000
  C   C166      1.0  0.42471  0.38933  0.65860  1.0000
  C   C167      1.0  0.57402  0.63970  0.82879  1.0000
  C   C168      1.0  0.42650  0.36320  0.66491  1.0000
  C   C169      1.0  0.55226  0.63973  0.74559  1.0000
  C   C170      1.0  0.44796  0.36409  0.75442  1.0000
  C   C171      1.0  0.53138  0.61161  0.66739  1.0000
  C   C172      1.0  0.46720  0.39230  0.83891  1.0000
  C   C173      1.0  0.53233  0.58494  0.67005  1.0000
  C   C174      1.0  0.46501  0.41827  0.83553  1.0000
  C   C175      1.0  0.56688  0.69257  0.79180  1.0000
  C   C176      1.0  0.43424  0.31176  0.71146  1.0000
  C   C177      1.0  0.56160  0.71673  0.76822  1.0000
  C   C178      1.0  0.43999  0.28780  0.73168  1.0000
  C   C179      1.0  0.57815  0.74766  0.81748  1.0000
  C   C180      1.0  0.42237  0.25678  0.68973  1.0000
  C   C181      1.0  0.56652  0.76516  0.77108  1.0000
  C   C182      1.0  0.43416  0.23918  0.73276  1.0000
  C   C183      1.0  0.53992  0.74599  0.68549  1.0000
  C   C184      1.0  0.46215  0.25831  0.80675  1.0000
  C   C185      1.0  0.52453  0.75781  0.62730  1.0000
  C   C186      1.0  0.47789  0.24633  0.86000  1.0000
  C   C187      1.0  0.53585  0.78965  0.65234  1.0000
  C   C188      1.0  0.46543  0.21435  0.84244  1.0000
  C   C189      1.0  0.56260  0.80885  0.73660  1.0000
  C   C190      1.0  0.43715  0.19525  0.77106  1.0000
  C   C191      1.0  0.57774  0.79699  0.79673  1.0000
  C   C192      1.0  0.42176  0.20725  0.71482  1.0000
  C   C193      1.0  0.01886  0.52021  0.83448  1.0000
  C   C194      1.0  0.97559  0.47265  0.64568  1.0000
  C   C195      1.0  0.01889  0.49243  0.79654  1.0000
  C   C196      1.0  0.97568  0.50051  0.68291  1.0000
  C   C197      1.0  0.02572  0.58090  0.82231  1.0000
  C   C198      1.0  0.05228  0.58310  0.72350  1.0000
  C   C199      1.0  0.07973  0.61022  0.72960  1.0000
  C   C200      1.0  0.08210  0.63609  0.83713  1.0000
  C   C201      1.0  0.05521  0.63403  0.93293  1.0000
  C   C202      1.0  0.02771  0.60703  0.92518  1.0000
  C   C203      1.0  0.12310  0.69112  0.44188  1.0000
  C   C204      1.0  0.88397  0.31326  0.05625  1.0000
  C   C205      1.0  0.15386  0.71584  0.43649  1.0000
  C   C206      1.0  0.85341  0.28837  0.05734  1.0000
  C   C207      1.0  0.16378  0.74484  0.51985  1.0000
  C   C208      1.0  0.84414  0.25889  0.98222  1.0000
  C   C209      1.0  0.19573  0.76446  0.48520  1.0000
  C   C210      1.0  0.81205  0.23942  0.01162  1.0000
  C   C211      1.0  0.20209  0.74606  0.87170  1.0000
  C   C212      1.0  0.79046  0.24812  0.64145  1.0000
  C   C213      1.0  0.23185  0.76311  0.80220  1.0000
  C   C214      1.0  0.76100  0.23157  0.71587  1.0000
  C   C215      1.0  0.25874  0.79435  0.37827  1.0000
  C   C216      1.0  0.74848  0.20998  0.10518  1.0000
  C   C217      1.0  0.24434  0.81011  0.48813  1.0000
  C   C218      1.0  0.76351  0.19376  0.00668  1.0000
  C   C219      1.0  0.21331  0.79545  0.54294  1.0000
  C   C220      1.0  0.79480  0.20815  0.95879  1.0000
  C   C221      1.0  0.02445  0.43822  0.65889  1.0000
  C   C222      1.0  0.02411  0.41393  0.71693  1.0000
  C   C223      1.0  0.05124  0.41435  0.72826  1.0000
  C   C224      1.0  0.07992  0.43865  0.68050  1.0000
  C   C225      1.0  0.08011  0.46207  0.61217  1.0000
  C   C226      1.0  0.05298  0.46170  0.60055  1.0000
  C   C227      1.0  0.13321  0.45702  0.66825  1.0000
  C   C228      1.0  0.86022  0.53437  0.82129  1.0000
  C   C229      1.0  0.15762  0.45288  0.69991  1.0000
  C   C230      1.0  0.83575  0.53950  0.79998  1.0000
  C   C231      1.0  0.18872  0.47099  0.66213  1.0000
  C   C232      1.0  0.80451  0.52052  0.82490  1.0000
  C   C233      1.0  0.99728  0.52488  0.77845  1.0000
  C   C234      1.0  0.99732  0.46805  0.70080  1.0000
  S   S1        1.0  0.57177  0.84288  0.22847  1.0000
  S   S2        1.0  0.42610  0.15251  0.27792  1.0000
  S   S3        1.0  0.26327  0.84166  0.09368  1.0000
  S   S4        1.0  0.72665  0.15253  0.42864  1.0000
  S   S5        1.0  0.29771  0.47131  0.16396  1.0000
  S   S6        1.0  0.70763  0.53255  0.32974  1.0000
  S   S7        1.0  0.52456  0.70248  0.17020  1.0000
  S   S8        1.0  0.47291  0.29270  0.31936  1.0000
  S   S9        1.0  0.18359  0.71109  0.31391  1.0000
  S   S10       1.0  0.82301  0.29381  0.16437  1.0000
  S   S11       1.0  0.15788  0.43100  0.26241  1.0000
  S   S12       1.0  0.84743  0.57264  0.20443  1.0000
  S   S13       1.0  0.57315  0.84747  0.74768  1.0000
  S   S14       1.0  0.42516  0.15655  0.76891  1.0000
  S   S15       1.0  0.27033  0.84850  0.53766  1.0000
  S   S16       1.0  0.73787  0.15519  0.95995  1.0000
  S   S17       1.0  0.28903  0.46366  0.69184  1.0000
  S   S18       1.0  0.70465  0.52984  0.80420  1.0000
  S   S19       1.0  0.53054  0.70756  0.66490  1.0000
  S   S20       1.0  0.47241  0.29692  0.82226  1.0000
  S   S21       1.0  0.17581  0.70948  0.79573  1.0000
  S   S22       1.0  0.81780  0.28445  0.71419  1.0000
  S   S23       1.0  0.14875  0.42042  0.78733  1.0000
  S   S24       1.0  0.84512  0.57460  0.74039  1.0000
  N   N1        1.0  0.56170  0.99865  0.13260  1.0000
  N   N2        1.0  0.45048  0.00220  0.35786  1.0000
  N   N3        1.0  0.55652  0.88657  0.16183  1.0000
  N   N4        1.0  0.44381  0.10984  0.35978  1.0000
  N   N5        1.0  0.32778  0.89309  0.00298  1.0000
  N   N6        1.0  0.66062  0.10234  0.53188  1.0000
  N   N7        1.0  0.55621  0.55587  0.25371  1.0000
  N   N8        1.0  0.44601  0.44190  0.24390  1.0000
  N   N9        1.0  0.33980  0.44925  0.20687  1.0000
  N   N10       1.0  0.66445  0.55175  0.27725  1.0000
  N   N11       1.0  0.54508  0.65960  0.22185  1.0000
  N   N12       1.0  0.45243  0.33522  0.27078  1.0000
  N   N13       1.0  0.11644  0.66621  0.34222  1.0000
  N   N14       1.0  0.88932  0.33874  0.14819  1.0000
  N   N15       1.0  0.11464  0.44755  0.19054  1.0000
  N   N16       1.0  0.89161  0.55818  0.29121  1.0000
  N   N17       1.0  0.00180  0.55901  0.32477  1.0000
  N   N18       1.0  0.00336  0.44618  0.17324  1.0000
  N   N19       1.0  0.54760  0.99665  0.65779  1.0000
  N   N20       1.0  0.43734  0.00205  0.88312  1.0000
  N   N21       1.0  0.55668  0.89050  0.65768  1.0000
  N   N22       1.0  0.43940  0.11297  0.85664  1.0000
  N   N23       1.0  0.33661  0.89649  0.46112  1.0000
  N   N24       1.0  0.67231  0.10741  0.02510  1.0000
  N   N25       1.0  0.55413  0.55740  0.75900  1.0000
  N   N26       1.0  0.44291  0.44447  0.73739  1.0000
  N   N27       1.0  0.33223  0.44442  0.72473  1.0000
  N   N28       1.0  0.66178  0.55212  0.78526  1.0000
  N   N29       1.0  0.54918  0.66483  0.73077  1.0000
  N   N30       1.0  0.45225  0.33968  0.76838  1.0000
  N   N31       1.0  0.11098  0.66178  0.83748  1.0000
  N   N32       1.0  0.88239  0.33198  0.65421  1.0000
  N   N33       1.0  0.10513  0.43669  0.70661  1.0000
  N   N34       1.0  0.88824  0.55591  0.79582  1.0000
  N   N35       1.0  0.99738  0.55337  0.81808  1.0000
  N   N36       1.0  0.99700  0.43944  0.66262  1.0000
  C  Sn1       1.0  0.52245  0.49483  0.12367  1.0000
  C   C235      1.0  0.52667  0.52344  0.19950  1.0000
  C  Sn2       1.0  0.50420  0.52591  0.31669  1.0000
  C  Sn3       1.0  0.47693  0.49923  0.35907  1.0000
  C   C236      1.0  0.47272  0.47064  0.28329  1.0000
  C  Sn4       1.0  0.49518  0.46815  0.16605  1.0000
  O  Te1       1.0  0.54522  0.49290  0.00685  1.0000
  O  Te2       1.0  0.50894  0.55477  0.39079  1.0000
  O  Te3       1.0  0.45415  0.50118  0.47600  1.0000
  O  Te4       1.0  0.49045  0.43931  0.09200  1.0000
  Mg  Mg1       1.0  0.47121  0.54560  0.54282  1.0000
  Mg  Mg2       1.0  0.50776  0.47004  0.94002  1.0000
  C  Sn5       1.0  0.60654  0.07174  0.74393  1.0000
  C   C237      1.0  0.63071  0.07513  0.62248  1.0000
  C  Sn6       1.0  0.62636  0.05293  0.48782  1.0000
  C  Sn7       1.0  0.59723  0.02680  0.47419  1.0000
  C   C238      1.0  0.57308  0.02342  0.59557  1.0000
  C  Sn8       1.0  0.57741  0.04561  0.73030  1.0000
  O  Te5       1.0  0.61141  0.09423  0.87749  1.0000
  O  Te6       1.0  0.65087  0.05682  0.36799  1.0000
  O  Te7       1.0  0.09225  0.00431  0.34049  1.0000
  O  Te8       1.0  0.55292  0.04174  0.85006  1.0000
  Mg  Mg3       1.0  0.63286  0.01991  0.20904  1.0000
  Mg  Mg4       1.0  0.59130  0.05705  0.00901  1.0000
  C  Sn9       1.0  0.53577  0.91970  0.02851  1.0000
  C   C239      1.0  0.55654  0.91368  0.08162  1.0000
  C  Sn10      1.0  0.58011  0.93670  0.16984  1.0000
  C  Sn11      1.0  0.58296  0.96634  0.20582  1.0000
  C   C240      1.0  0.56219  0.97234  0.15275  1.0000
  C  Sn12      1.0  0.53862  0.94934  0.06449  1.0000
  O  Te9       1.0  0.49199  0.91793  0.94050  1.0000
  O  Te10      1.0  0.60060  0.93014  0.22159  1.0000
  O  Te11      1.0  0.60636  0.98970  0.29391  1.0000
  O  Te12      1.0  0.51814  0.95589  0.01278  1.0000
  Mg  Mg5       1.0  0.62861  0.96955  0.33788  1.0000
  Mg  Mg6       1.0  0.46971  0.93808  0.89656  1.0000
  C  Sn13      1.0  0.40794  0.05218  0.88207  1.0000
  C   C241      1.0  0.43203  0.08151  0.91642  1.0000
  C  Sn14      1.0  0.46089  0.08574  0.93145  1.0000
  C  Sn15      1.0  0.46579  0.06013  0.91164  1.0000
  C   C242      1.0  0.44171  0.03083  0.87730  1.0000
  C  Sn16      1.0  0.41284  0.02658  0.86227  1.0000
  O  Te13      1.0  0.37927  0.04849  0.86757  1.0000
  O  Te14      1.0  0.48461  0.11528  0.96588  1.0000
  O  Te15      1.0  0.49449  0.06385  0.92619  1.0000
  O  Te16      1.0  0.88900  0.99706  0.82783  1.0000
  Mg  Mg7       1.0  0.51957  0.10860  0.97399  1.0000
  Mg  Mg8       1.0  0.85405  0.00372  0.81961  1.0000
  C  Sn17      1.0  0.42864  0.36511  0.13807  1.0000
  C   C243      1.0  0.44891  0.36146  0.21223  1.0000
  C  Sn18      1.0  0.46737  0.38472  0.32385  1.0000
  C  Sn19      1.0  0.46553  0.41218  0.36225  1.0000
  C   C244      1.0  0.44527  0.41582  0.28813  1.0000
  C  Sn20      1.0  0.42680  0.39258  0.17646  1.0000
  O  Te17      1.0  0.41040  0.34156  0.02685  1.0000
  O  Te18      1.0  0.48746  0.38054  0.39638  1.0000
  O  Te19      1.0  0.48380  0.43574  0.47357  1.0000
  O  Te20      1.0  0.40671  0.39674  0.10399  1.0000
  Mg  Mg9       1.0  0.50758  0.41925  0.54030  1.0000
  Mg  Mg10      1.0  0.36617  0.37964  0.96011  1.0000
  C  Sn21      1.0  0.95416  0.36727  0.09380  1.0000
  C   C245      1.0  0.92522  0.36198  0.17005  1.0000
  C  Sn22      1.0  0.92007  0.38640  0.24201  1.0000
  C  Sn23      1.0  0.94434  0.41674  0.23759  1.0000
  C   C246      1.0  0.97325  0.42202  0.16135  1.0000
  C  Sn24      1.0  0.97843  0.39761  0.08938  1.0000
  O  Te21      1.0  0.95879  0.34251  0.02265  1.0000
  O  Te22      1.0  0.89095  0.38055  0.31758  1.0000
  O  Te23      1.0  0.93969  0.44151  0.30883  1.0000
  O  Te24      1.0  0.00753  0.40345  0.01382  1.0000
  Mg  Mg11      1.0  0.89599  0.42187  0.39719  1.0000
  Mg  Mg12      1.0  0.98211  0.38374  0.93410  1.0000
  C  Sn25      1.0  0.41632  0.47112  0.17627  1.0000
  C   C247      1.0  0.41965  0.45122  0.25459  1.0000
  C  Sn26      1.0  0.39401  0.42493  0.30712  1.0000
  C  Sn27      1.0  0.36442  0.41839  0.28074  1.0000
  C   C248      1.0  0.36110  0.43829  0.20245  1.0000
  C  Sn28      1.0  0.38673  0.46458  0.14990  1.0000
  O  Te25      1.0  0.44227  0.49726  0.12477  1.0000
  O  Te26      1.0  0.39791  0.40539  0.38518  1.0000
  O  Te27      1.0  0.33846  0.39223  0.33233  1.0000
  O  Te28      1.0  0.38284  0.48412  0.07186  1.0000
  Mg  Mg13      1.0  0.35555  0.37262  0.43290  1.0000
  Mg  Mg14      1.0  0.42519  0.51687  0.02401  1.0000
  C  Sn29      1.0  0.61787  0.57440  0.14020  1.0000
  C   C249      1.0  0.58850  0.55531  0.21006  1.0000
  C  Sn30      1.0  0.58439  0.53737  0.32898  1.0000
  C  Sn31      1.0  0.61018  0.53854  0.37921  1.0000
  C   C250      1.0  0.63952  0.55763  0.30939  1.0000
  C  Sn32      1.0  0.64365  0.57557  0.19043  1.0000
  O  Te29      1.0  0.62144  0.59213  0.02152  1.0000
  O  Te30      1.0  0.55481  0.51845  0.39701  1.0000
  O  Te31      1.0  0.60658  0.52078  0.49799  1.0000
  O  Te32      1.0  0.67322  0.59448  0.12243  1.0000
  Mg  Mg15      1.0  0.56171  0.49863  0.55453  1.0000
  Mg  Mg16      1.0  0.64594  0.63591  0.96498  1.0000
  C  Sn33      1.0  0.48952  0.01516  0.66010  1.0000
  C   C251      1.0  0.96570  0.99862  0.77546  1.0000
  C  Sn34      1.0  0.96999  0.98263  0.87731  1.0000
  C  Sn35      1.0  0.99856  0.98319  0.86365  1.0000
  C   C252      1.0  0.02223  0.99974  0.74837  1.0000
  C  Sn36      1.0  0.51809  0.01573  0.64645  1.0000
  O  Te33      1.0  0.48472  0.03099  0.55956  1.0000
  O  Te34      1.0  0.94595  0.96624  0.99166  1.0000
  O  Te35      1.0  0.00334  0.96735  0.96432  1.0000
  O  Te36      1.0  0.54210  0.03212  0.53217  1.0000
  Mg  Mg17      1.0  0.98404  0.92677  0.10114  1.0000
  Mg  Mg18      1.0  0.52445  0.05002  0.42269  1.0000
  C  Sn37      1.0  0.92342  0.53709  0.43459  1.0000
  C   C253      1.0  0.91844  0.55752  0.37115  1.0000
  C  Sn38      1.0  0.94173  0.57883  0.27271  1.0000
  C  Sn39      1.0  0.97062  0.57972  0.23683  1.0000
  C   C254      1.0  0.97559  0.55930  0.30022  1.0000
  C  Sn40      1.0  0.95231  0.53799  0.39871  1.0000
  O  Te37      1.0  0.89980  0.51599  0.53272  1.0000
  O  Te38      1.0  0.93621  0.59902  0.21075  1.0000
  O  Te39      1.0  0.99424  0.60085  0.13862  1.0000
  O  Te40      1.0  0.95782  0.51780  0.46063  1.0000
  Mg  Mg19      1.0  0.97560  0.62359  0.08290  1.0000
  Mg  Mg20      1.0  0.91845  0.49321  0.58841  1.0000
  C  Sn41      1.0  0.94668  0.36116  0.57020  1.0000
  C   C255      1.0  0.91875  0.35532  0.66303  1.0000
  C  Sn42      1.0  0.91432  0.37932  0.75131  1.0000
  C  Sn43      1.0  0.93829  0.40979  0.74664  1.0000
  C   C256      1.0  0.96620  0.41562  0.65383  1.0000
  C  Sn44      1.0  0.97065  0.39163  0.56553  1.0000
  O  Te41      1.0  0.95060  0.33682  0.48289  1.0000
  O  Te42      1.0  0.88620  0.37291  0.84328  1.0000
  O  Te43      1.0  0.93435  0.43414  0.83405  1.0000
  O  Te44      1.0  0.99875  0.39803  0.47358  1.0000
  Mg  Mg21      1.0  0.89192  0.41381  0.94131  1.0000
  Mg  Mg22      1.0  0.99305  0.35715  0.37545  1.0000
  C  Sn45      1.0  0.39751  0.94057  0.78466  1.0000
  C   C257      1.0  0.40474  0.96996  0.86100  1.0000
  C  Sn46      1.0  0.40859  0.95257  0.00788  1.0000
  C  Sn47      1.0  0.38430  0.92686  0.08003  1.0000
  C   C258      1.0  0.37708  0.89750  0.00372  1.0000
  C  Sn48      1.0  0.37322  0.91486  0.85681  1.0000
  O  Te45      1.0  0.41437  0.93690  0.63788  1.0000
  O  Te46      1.0  0.41624  0.98217  0.08188  1.0000
  O  Te47      1.0  0.36744  0.93055  0.22693  1.0000
  O  Te48      1.0  0.36558  0.88528  0.78284  1.0000
  Mg  Mg23      1.0  0.38657  0.97541  0.28094  1.0000
  Mg  Mg24      1.0  0.39525  0.89202  0.58383  1.0000
  C  Sn49      1.0  0.39149  0.46125  0.61117  1.0000
  C   C259      1.0  0.36255  0.44118  0.68107  1.0000
  C  Sn50      1.0  0.35953  0.42284  0.79503  1.0000
  C  Sn51      1.0  0.38599  0.42460  0.84015  1.0000
  C   C260      1.0  0.41492  0.44467  0.77029  1.0000
  C  Sn52      1.0  0.41796  0.46302  0.65629  1.0000
  O  Te49      1.0  0.39397  0.47937  0.49750  1.0000
  O  Te50      1.0  0.33035  0.40294  0.86321  1.0000
  O  Te51      1.0  0.38350  0.40646  0.95391  1.0000
  O  Te52      1.0  0.44711  0.48291  0.58815  1.0000
  Mg  Mg25      1.0  0.35920  0.36134  0.01280  1.0000
  Mg  Mg26      1.0  0.43869  0.50294  0.43862  1.0000
  C  Sn53      1.0  0.63377  0.58586  0.73264  1.0000
  C   C261      1.0  0.63762  0.56548  0.80370  1.0000
  C  Sn54      1.0  0.61240  0.53816  0.84762  1.0000
  C  Sn55      1.0  0.58271  0.53107  0.81985  1.0000
  C   C262      1.0  0.57886  0.55144  0.74881  1.0000
  C  Sn56      1.0  0.60407  0.57876  0.70486  1.0000
  O  Te53      1.0  0.65930  0.61303  0.68968  1.0000
  O  Te54      1.0  0.61683  0.51815  0.91854  1.0000
  O  Te55      1.0  0.55716  0.50387  0.86288  1.0000
  O  Te56      1.0  0.59965  0.59877  0.63396  1.0000
  Mg  Mg27      1.0  0.57489  0.48397  0.95586  1.0000
  Mg  Mg28      1.0  0.64157  0.63295  0.59652  1.0000
  C  Sn57      1.0  0.92003  0.53471  0.93838  1.0000
  C   C263      1.0  0.91541  0.55491  0.87037  1.0000
  C  Sn58      1.0  0.93835  0.57451  0.76300  1.0000
  C  Sn59      1.0  0.96649  0.57390  0.72268  1.0000
  C   C264      1.0  0.97110  0.55371  0.79065  1.0000
  C  Sn60      1.0  0.94818  0.53410  0.89806  1.0000
  O  Te57      1.0  0.91718  0.49373  0.04543  1.0000
  O  Te58      1.0  0.93320  0.59452  0.69660  1.0000
  O  Te59      1.0  0.98975  0.59332  0.61554  1.0000
  O  Te60      1.0  0.95332  0.51410  0.96442  1.0000
  Mg  Mg29      1.0  0.97185  0.61648  0.55663  1.0000
  Mg  Mg30      1.0  0.93508  0.47053  0.10433  1.0000
