data_image0
_chemical_formula_structural       H132C234S24N36C2Sn2C2HTe2HMgC2Sn2C2HTe2HMgC2Sn2C2HTe2HMgC2Sn2C2HTe2HMgC2Sn2C2HTe2HMgC2Sn2C2HTe2HMgC2Sn2C2HTe2HMgC2Sn2C2HTe2HMgC2Sn2C2HTe2HMgC2Sn2C2HTe2HMgC2Sn2C2HTe2HMgC2Sn2C2HTe2HMgC2Sn2C2HTe2HMgC2Sn2C2HTe2HMgC2Sn2C2HTe2HMg
_chemical_formula_sum              "H162 C294 S24 N36 Sn30 Te30 Mg15"
_cell_length_a       50.7302
_cell_length_b       50.892
_cell_length_c       8.37379
_cell_angle_alpha    101.116
_cell_angle_beta     79.1061
_cell_angle_gamma    119.887

_symmetry_space_group_name_H-M    'P1'
_space_group_IT_number       1

loop_
  _space_group_symop_operation_xyz
  'x, y, z'

loop_
  _atom_site_type_symbol
  _atom_site_label
  _atom_site_symmetry_multiplicity
  _atom_site_fract_x
  _atom_site_fract_y
  _atom_site_fract_z
  _atom_site_occupancy
  H   H1        1.0  0.51604  0.96387  0.34490  1.0000
  H   H2        1.0  0.49586  0.03672  0.14365  1.0000
  H   H3        1.0  0.46776  0.96516  0.44126  1.0000
  H   H4        1.0  0.54416  0.03551  0.04875  1.0000
  H   H5        1.0  0.51754  0.94394  0.02814  1.0000
  H   H6        1.0  0.49439  0.05960  0.44954  1.0000
  H   H7        1.0  0.51308  0.89415  0.04238  1.0000
  H   H8        1.0  0.49240  0.10700  0.45730  1.0000
  H   H9        1.0  0.60106  0.93892  0.22217  1.0000
  H   H10       1.0  0.40249  0.05555  0.29823  1.0000
  H   H11       1.0  0.60631  0.98940  0.19980  1.0000
  H   H12       1.0  0.40402  0.00752  0.29804  1.0000
  H   H13       1.0  0.51804  0.85526  0.54407  1.0000
  H   H14       1.0  0.48135  0.14668  0.94834  1.0000
  H   H15       1.0  0.50518  0.79752  0.53276  1.0000
  H   H16       1.0  0.49716  0.20613  0.95038  1.0000
  H   H17       1.0  0.40455  0.99617  0.58584  1.0000
  H   H18       1.0  0.61251  0.00505  0.93402  1.0000
  H   H19       1.0  0.34051  0.94671  0.14264  1.0000
  H   H20       1.0  0.38415  0.90068  0.21970  1.0000
  H   H21       1.0  0.62198  0.10187  0.24809  1.0000
  H   H22       1.0  0.43367  0.94650  0.18485  1.0000
  H   H23       1.0  0.57508  0.05404  0.29151  1.0000
  H   H24       1.0  0.34711  0.86333  0.31590  1.0000
  H   H25       1.0  0.66042  0.13981  0.17066  1.0000
  H   H26       1.0  0.30588  0.80728  0.25837  1.0000
  H   H27       1.0  0.70079  0.19726  0.21462  1.0000
  H   H28       1.0  0.45275  0.49670  0.38562  1.0000
  H   H29       1.0  0.54983  0.50075  0.11357  1.0000
  H   H30       1.0  0.49990  0.54533  0.39278  1.0000
  H   H31       1.0  0.50292  0.45206  0.10841  1.0000
  H   H32       1.0  0.30542  0.41399  0.34495  1.0000
  H   H33       1.0  0.69662  0.58395  0.11642  1.0000
  H   H34       1.0  0.24755  0.40238  0.36680  1.0000
  H   H35       1.0  0.75502  0.59595  0.08273  1.0000
  H   H36       1.0  0.26262  0.49989  0.08378  1.0000
  H   H37       1.0  0.74447  0.50718  0.42465  1.0000
  H   H38       1.0  0.19320  0.40411  0.35584  1.0000
  H   H39       1.0  0.81017  0.59623  0.09619  1.0000
  H   H40       1.0  0.40652  0.38497  0.12123  1.0000
  H   H41       1.0  0.40785  0.33794  0.13263  1.0000
  H   H42       1.0  0.48821  0.38906  0.38600  1.0000
  H   H43       1.0  0.48610  0.43665  0.38134  1.0000
  H   H44       1.0  0.58655  0.69528  0.30780  1.0000
  H   H45       1.0  0.41541  0.30086  0.14148  1.0000
  H   H46       1.0  0.59849  0.75253  0.33102  1.0000
  H   H47       1.0  0.40144  0.24250  0.13511  1.0000
  H   H48       1.0  0.49652  0.73849  0.09297  1.0000
  H   H49       1.0  0.50017  0.25729  0.41023  1.0000
  H   H50       1.0  0.59827  0.80677  0.31711  1.0000
  H   H51       1.0  0.40048  0.18798  0.16779  1.0000
  H   H52       1.0  0.05434  0.56988  0.13202  1.0000
  H   H53       1.0  0.94914  0.43689  0.34142  1.0000
  H   H54       1.0  0.10389  0.61789  0.14716  1.0000
  H   H55       1.0  0.89999  0.38856  0.32729  1.0000
  H   H56       1.0  0.05590  0.65372  0.01463  1.0000
  H   H57       1.0  0.10224  0.68303  0.06964  1.0000
  H   H58       1.0  0.88842  0.31079  0.41632  1.0000
  H   H59       1.0  0.14412  0.73997  0.16827  1.0000
  H   H60       1.0  0.84559  0.25369  0.32713  1.0000
  H   H61       1.0  0.25160  0.75165  0.23149  1.0000
  H   H62       1.0  0.75465  0.25380  0.23256  1.0000
  H   H63       1.0  0.19796  0.79635  0.20546  1.0000
  H   H64       1.0  0.79173  0.19759  0.30294  1.0000
  H   H65       1.0  0.01195  0.40488  0.27821  1.0000
  H   H66       1.0  0.06184  0.40731  0.28440  1.0000
  H   H67       1.0  0.10774  0.48945  0.04934  1.0000
  H   H68       1.0  0.05851  0.48711  0.04410  1.0000
  H   H69       1.0  0.14842  0.48614  0.07246  1.0000
  H   H70       1.0  0.85821  0.52184  0.42498  1.0000
  H   H71       1.0  0.19830  0.49161  0.60338  1.0000
  H   H72       1.0  0.79459  0.49813  0.86549  1.0000
  H   H73       1.0  0.01264  0.61133  0.51459  1.0000
  H   H74       1.0  0.99398  0.39307  0.00053  1.0000
  H   H75       1.0  0.51468  0.85376  0.06609  1.0000
  H   H76       1.0  0.48518  0.14535  0.44881  1.0000
  H   H77       1.0  0.49784  0.79348  0.06598  1.0000
  H   H78       1.0  0.49930  0.20331  0.44479  1.0000
  H   H79       1.0  0.38725  0.99567  0.08649  1.0000
  H   H80       1.0  0.35456  0.94922  0.62713  1.0000
  H   H81       1.0  0.65957  0.05372  0.88453  1.0000
  H   H82       1.0  0.37801  0.89824  0.78122  1.0000
  H   H83       1.0  0.42412  0.94623  0.72829  1.0000
  H   H84       1.0  0.33276  0.86627  0.78509  1.0000
  H   H85       1.0  0.65950  0.13006  0.75318  1.0000
  H   H86       1.0  0.29371  0.81076  0.71830  1.0000
  H   H87       1.0  0.69936  0.18514  0.80916  1.0000
  H   H88       1.0  0.43446  0.48266  0.60342  1.0000
  H   H89       1.0  0.38479  0.48163  0.60245  1.0000
  H   H90       1.0  0.33869  0.40216  0.85927  1.0000
  H   H91       1.0  0.38759  0.40360  0.86327  1.0000
  H   H92       1.0  0.30020  0.40756  0.85969  1.0000
  H   H93       1.0  0.69664  0.59320  0.69356  1.0000
  H   H94       1.0  0.24005  0.39376  0.88912  1.0000
  H   H95       1.0  0.75497  0.60563  0.67112  1.0000
  H   H96       1.0  0.25298  0.49135  0.61640  1.0000
  H   H97       1.0  0.73997  0.49918  0.85317  1.0000
  H   H98       1.0  0.18513  0.39412  0.87834  1.0000
  H   H99       1.0  0.80972  0.60404  0.67540  1.0000
  H   H100      1.0  0.59078  0.61320  0.90429  1.0000
  H   H101      1.0  0.58987  0.66063  0.89579  1.0000
  H   H102      1.0  0.51500  0.61161  0.60020  1.0000
  H   H103      1.0  0.51636  0.56369  0.60677  1.0000
  H   H104      1.0  0.58605  0.69919  0.86120  1.0000
  H   H105      1.0  0.41416  0.30478  0.64869  1.0000
  H   H106      1.0  0.59775  0.75741  0.88625  1.0000
  H   H107      1.0  0.40182  0.24710  0.62909  1.0000
  H   H108      1.0  0.50477  0.74314  0.56027  1.0000
  H   H109      1.0  0.49875  0.26102  0.91831  1.0000
  H   H110      1.0  0.59759  0.81177  0.86274  1.0000
  H   H111      1.0  0.40071  0.19252  0.65839  1.0000
  H   H112      1.0  0.05133  0.56337  0.64184  1.0000
  H   H113      1.0  0.10009  0.61213  0.65036  1.0000
  H   H114      1.0  0.06157  0.65830  0.53341  1.0000
  H   H115      1.0  0.94518  0.34583  0.97881  1.0000
  H   H116      1.0  0.10647  0.69502  0.53411  1.0000
  H   H117      1.0  0.90162  0.30911  0.97551  1.0000
  H   H118      1.0  0.14853  0.75166  0.60357  1.0000
  H   H119      1.0  0.85995  0.25157  0.90920  1.0000
  H   H120      1.0  0.24115  0.75447  0.68988  1.0000
  H   H121      1.0  0.75259  0.24054  0.83038  1.0000
  H   H122      1.0  0.20268  0.80741  0.62793  1.0000
  H   H123      1.0  0.80595  0.19582  0.88260  1.0000
  H   H124      1.0  0.00232  0.39502  0.75529  1.0000
  H   H125      1.0  0.05124  0.39614  0.77817  1.0000
  H   H126      1.0  0.10159  0.48053  0.56547  1.0000
  H   H127      1.0  0.05365  0.47988  0.54699  1.0000
  H   H128      1.0  0.13988  0.47733  0.60957  1.0000
  H   H129      1.0  0.85376  0.51221  0.85901  1.0000
  H   H130      1.0  0.20805  0.50088  0.06702  1.0000
  H   H131      1.0  0.79950  0.50775  0.44103  1.0000
  H   H132      1.0  0.00718  0.60583  0.99876  1.0000
  C   C1        1.0  0.53382  0.99959  0.18933  1.0000
  C   C2        1.0  0.47820  0.00130  0.30111  1.0000
  C   C3        1.0  0.51154  0.97961  0.29872  1.0000
  C   C4        1.0  0.50048  0.02123  0.19148  1.0000
  C   C5        1.0  0.48426  0.98035  0.35340  1.0000
  C   C6        1.0  0.52771  0.02039  0.13674  1.0000
  C   C7        1.0  0.56145  0.97033  0.12214  1.0000
  C   C8        1.0  0.44938  0.02992  0.37018  1.0000
  C   C9        1.0  0.53582  0.94288  0.07181  1.0000
  C   C10       1.0  0.47399  0.05851  0.41817  1.0000
  C   C11       1.0  0.53331  0.91481  0.08094  1.0000
  C   C12       1.0  0.47285  0.08539  0.42108  1.0000
  C   C13       1.0  0.55662  0.91294  0.13932  1.0000
  C   C14       1.0  0.44711  0.08493  0.37598  1.0000
  C   C15       1.0  0.58296  0.94046  0.17970  1.0000
  C   C16       1.0  0.42230  0.05612  0.33417  1.0000
  C   C17       1.0  0.58561  0.96859  0.16945  1.0000
  C   C18       1.0  0.42332  0.02936  0.33186  1.0000
  C   C19       1.0  0.53499  0.85916  0.12204  1.0000
  C   C20       1.0  0.46406  0.13809  0.39511  1.0000
  C   C21       1.0  0.53827  0.83406  0.15001  1.0000
  C   C22       1.0  0.45928  0.16202  0.36276  1.0000
  C   C23       1.0  0.51920  0.80302  0.11888  1.0000
  C   C24       1.0  0.47802  0.19320  0.39031  1.0000
  C   C25       1.0  0.42270  0.97473  0.38382  1.0000
  C   C26       1.0  0.58932  0.02610  0.10814  1.0000
  C   C27       1.0  0.39998  0.97500  0.50791  1.0000
  C   C28       1.0  0.61406  0.02638  0.99768  1.0000
  C   C29       1.0  0.37202  0.94895  0.52990  1.0000
  C   C30       1.0  0.64069  0.05359  0.97173  1.0000
  C   C31       1.0  0.36559  0.92123  0.42989  1.0000
  C   C32       1.0  0.64418  0.08173  0.05638  1.0000
  C   C33       1.0  0.38857  0.92107  0.30519  1.0000
  C   C34       1.0  0.61969  0.08113  0.17158  1.0000
  C   C35       1.0  0.41654  0.94718  0.28284  1.0000
  C   C36       1.0  0.59307  0.05406  0.19749  1.0000
  C   C37       1.0  0.33024  0.86903  0.39423  1.0000
  C   C38       1.0  0.67760  0.13465  0.09162  1.0000
  C   C39       1.0  0.29041  0.84165  0.92967  1.0000
  C   C40       1.0  0.70069  0.15318  0.59836  1.0000
  C   C41       1.0  0.29056  0.81414  0.34128  1.0000
  C   C42       1.0  0.71655  0.19016  0.13883  1.0000
  C   C43       1.0  0.52882  0.52725  0.25249  1.0000
  C   C44       1.0  0.47377  0.47023  0.24693  1.0000
  C   C45       1.0  0.47400  0.49725  0.32715  1.0000
  C   C46       1.0  0.52863  0.50022  0.17254  1.0000
  C   C47       1.0  0.50083  0.52498  0.33060  1.0000
  C   C48       1.0  0.50181  0.47239  0.16981  1.0000
  C   C49       1.0  0.31216  0.43278  0.27323  1.0000
  C   C50       1.0  0.69121  0.56712  0.19894  1.0000
  C   C51       1.0  0.28832  0.43912  0.25563  1.0000
  C   C52       1.0  0.71570  0.56196  0.21809  1.0000
  C   C53       1.0  0.25734  0.42272  0.30517  1.0000
  C   C54       1.0  0.74620  0.57755  0.15817  1.0000
  C   C55       1.0  0.24001  0.43543  0.26840  1.0000
  C   C56       1.0  0.76436  0.56654  0.20308  1.0000
  C   C57       1.0  0.25935  0.46280  0.19087  1.0000
  C   C58       1.0  0.74602  0.54121  0.29729  1.0000
  C   C59       1.0  0.24770  0.47942  0.14363  1.0000
  C   C60       1.0  0.75851  0.52629  0.35342  1.0000
  C   C61       1.0  0.21583  0.46850  0.17058  1.0000
  C   C62       1.0  0.79027  0.53711  0.31930  1.0000
  C   C63       1.0  0.19651  0.44097  0.24670  1.0000
  C   C64       1.0  0.80871  0.56273  0.22715  1.0000
  C   C65       1.0  0.20818  0.42467  0.29666  1.0000
  C   C66       1.0  0.79611  0.57727  0.16831  1.0000
  C   C67       1.0  0.44624  0.41446  0.25158  1.0000
  C   C68       1.0  0.42411  0.38598  0.18273  1.0000
  C   C69       1.0  0.42513  0.35940  0.18834  1.0000
  C   C70       1.0  0.44866  0.36004  0.25882  1.0000
  C   C71       1.0  0.47060  0.38858  0.32713  1.0000
  C   C72       1.0  0.46927  0.41506  0.32524  1.0000
  C   C73       1.0  0.56472  0.68789  0.26166  1.0000
  C   C74       1.0  0.43469  0.30749  0.21003  1.0000
  C   C75       1.0  0.55860  0.71173  0.24407  1.0000
  C   C76       1.0  0.44016  0.28336  0.23146  1.0000
  C   C77       1.0  0.57689  0.74278  0.28020  1.0000
  C   C78       1.0  0.42230  0.25226  0.19309  1.0000
  C   C79       1.0  0.56417  0.76028  0.24686  1.0000
  C   C80       1.0  0.43416  0.23477  0.23719  1.0000
  C   C81       1.0  0.53504  0.74112  0.18432  1.0000
  C   C82       1.0  0.46255  0.25414  0.30700  1.0000
  C   C83       1.0  0.51840  0.75317  0.14145  1.0000
  C   C84       1.0  0.47874  0.24240  0.35771  1.0000
  C   C85       1.0  0.53104  0.78515  0.15867  1.0000
  C   C86       1.0  0.46622  0.21050  0.34391  1.0000
  C   C87       1.0  0.56017  0.80421  0.22141  1.0000
  C   C88       1.0  0.43748  0.19108  0.27766  1.0000
  C   C89       1.0  0.57655  0.79217  0.26681  1.0000
  C   C90       1.0  0.42172  0.20283  0.22243  1.0000
  C   C91       1.0  0.03002  0.58668  0.32693  1.0000
  C   C92       1.0  0.97522  0.41859  0.17052  1.0000
  C   C93       1.0  0.05600  0.58908  0.22111  1.0000
  C   C94       1.0  0.94835  0.41687  0.26363  1.0000
  C   C95       1.0  0.08377  0.61581  0.22949  1.0000
  C   C96       1.0  0.92075  0.39003  0.25446  1.0000
  C   C97       1.0  0.08699  0.64134  0.34280  1.0000
  C   C98       1.0  0.91853  0.36376  0.15171  1.0000
  C   C99       1.0  0.06050  0.63924  0.44436  1.0000
  C   C100      1.0  0.94570  0.36538  0.06126  1.0000
  C   C101      1.0  0.03275  0.61253  0.43591  1.0000
  C   C102      1.0  0.97333  0.39211  0.07139  1.0000
  C   C103      1.0  0.11791  0.68351  0.95863  1.0000
  C   C104      1.0  0.87407  0.31031  0.53304  1.0000
  C   C105      1.0  0.14780  0.70966  0.95367  1.0000
  C   C106      1.0  0.84416  0.28422  0.54601  1.0000
  C   C107      1.0  0.15823  0.73621  0.06130  1.0000
  C   C108      1.0  0.83258  0.25763  0.43911  1.0000
  C   C109      1.0  0.18926  0.75779  0.01716  1.0000
  C   C110      1.0  0.80191  0.23620  0.49114  1.0000
  C   C111      1.0  0.21002  0.74884  0.37296  1.0000
  C   C112      1.0  0.79708  0.25565  0.11062  1.0000
  C   C113      1.0  0.24111  0.76340  0.31950  1.0000
  C   C114      1.0  0.76571  0.24135  0.15690  1.0000
  C   C115      1.0  0.24963  0.79262  0.87843  1.0000
  C   C116      1.0  0.74236  0.20211  0.64152  1.0000
  C   C117      1.0  0.23701  0.80438  0.02447  1.0000
  C   C118      1.0  0.75378  0.18989  0.49245  1.0000
  C   C119      1.0  0.20721  0.78733  0.09431  1.0000
  C   C120      1.0  0.78317  0.20667  0.41658  1.0000
  C   C121      1.0  0.03152  0.44596  0.16304  1.0000
  C   C122      1.0  0.03287  0.42316  0.22675  1.0000
  C   C123      1.0  0.06070  0.42439  0.22962  1.0000
  C   C124      1.0  0.08852  0.44839  0.16973  1.0000
  C   C125      1.0  0.08700  0.47077  0.10034  1.0000
  C   C126      1.0  0.05908  0.46942  0.09604  1.0000
  C   C127      1.0  0.14238  0.46698  0.13946  1.0000
  C   C128      1.0  0.86399  0.53974  0.34898  1.0000
  C   C129      1.0  0.16711  0.46294  0.16841  1.0000
  C   C130      1.0  0.83920  0.54315  0.31613  1.0000
  C   C131      1.0  0.19826  0.48048  0.12809  1.0000
  C   C132      1.0  0.80841  0.52645  0.36756  1.0000
  C   C133      1.0  0.53780  0.86234  0.60969  1.0000
  C   C134      1.0  0.46077  0.14066  0.89292  1.0000
  C   C135      1.0  0.54223  0.83828  0.64324  1.0000
  C   C136      1.0  0.45752  0.16545  0.85940  1.0000
  C   C137      1.0  0.52479  0.80720  0.60138  1.0000
  C   C138      1.0  0.47649  0.19654  0.89065  1.0000
  C   C139      1.0  0.40977  0.97450  0.90888  1.0000
  C   C140      1.0  0.38542  0.97425  0.02255  1.0000
  C   C141      1.0  0.35912  0.94701  0.05243  1.0000
  C   C142      1.0  0.35554  0.91895  0.96703  1.0000
  C   C143      1.0  0.37982  0.91933  0.85117  1.0000
  C   C144      1.0  0.40614  0.94650  0.82133  1.0000
  C   C145      1.0  0.31924  0.86826  0.90160  1.0000
  C   C146      1.0  0.67144  0.12726  0.63236  1.0000
  C   C147      1.0  0.30008  0.84371  0.41623  1.0000
  C   C148      1.0  0.70751  0.16031  0.07024  1.0000
  C   C149      1.0  0.28001  0.81447  0.82759  1.0000
  C   C150      1.0  0.71214  0.18071  0.69772  1.0000
  C   C151      1.0  0.41460  0.44325  0.73244  1.0000
  C   C152      1.0  0.41342  0.46527  0.65989  1.0000
  C   C153      1.0  0.38587  0.46482  0.66004  1.0000
  C   C154      1.0  0.35822  0.44217  0.73085  1.0000
  C   C155      1.0  0.35942  0.41969  0.80052  1.0000
  C   C156      1.0  0.38701  0.42034  0.80281  1.0000
  C   C157      1.0  0.30527  0.42633  0.79215  1.0000
  C   C158      1.0  0.68984  0.57158  0.73918  1.0000
  C   C159      1.0  0.28034  0.43137  0.78038  1.0000
  C   C160      1.0  0.71402  0.56506  0.74676  1.0000
  C   C161      1.0  0.24950  0.41433  0.82999  1.0000
  C   C162      1.0  0.74521  0.58327  0.71183  1.0000
  C   C163      1.0  0.23162  0.42658  0.79480  1.0000
  C   C164      1.0  0.76271  0.56962  0.73410  1.0000
  C   C165      1.0  0.25049  0.45424  0.71932  1.0000
  C   C166      1.0  0.74328  0.53969  0.78494  1.0000
  C   C167      1.0  0.23842  0.47063  0.67469  1.0000
  C   C168      1.0  0.75500  0.52175  0.81463  1.0000
  C   C169      1.0  0.20652  0.45912  0.70197  1.0000
  C   C170      1.0  0.78699  0.53380  0.79704  1.0000
  C   C171      1.0  0.18753  0.43112  0.77408  1.0000
  C   C172      1.0  0.80643  0.56386  0.74805  1.0000
  C   C173      1.0  0.19970  0.41505  0.82192  1.0000
  C   C174      1.0  0.79471  0.58156  0.71507  1.0000
  C   C175      1.0  0.55391  0.58499  0.75350  1.0000
  C   C176      1.0  0.57469  0.61291  0.83385  1.0000
  C   C177      1.0  0.57402  0.63970  0.82879  1.0000
  C   C178      1.0  0.55226  0.63973  0.74559  1.0000
  C   C179      1.0  0.53138  0.61161  0.66739  1.0000
  C   C180      1.0  0.53233  0.58494  0.67005  1.0000
  C   C181      1.0  0.56688  0.69257  0.79180  1.0000
  C   C182      1.0  0.43424  0.31176  0.71146  1.0000
  C   C183      1.0  0.56160  0.71673  0.76822  1.0000
  C   C184      1.0  0.43999  0.28780  0.73168  1.0000
  C   C185      1.0  0.57815  0.74766  0.81748  1.0000
  C   C186      1.0  0.42237  0.25678  0.68973  1.0000
  C   C187      1.0  0.56652  0.76516  0.77108  1.0000
  C   C188      1.0  0.43416  0.23918  0.73276  1.0000
  C   C189      1.0  0.53992  0.74599  0.68549  1.0000
  C   C190      1.0  0.46215  0.25831  0.80675  1.0000
  C   C191      1.0  0.52453  0.75781  0.62730  1.0000
  C   C192      1.0  0.47789  0.24633  0.86000  1.0000
  C   C193      1.0  0.53585  0.78965  0.65234  1.0000
  C   C194      1.0  0.46543  0.21435  0.84244  1.0000
  C   C195      1.0  0.56260  0.80885  0.73660  1.0000
  C   C196      1.0  0.43715  0.19525  0.77106  1.0000
  C   C197      1.0  0.57774  0.79699  0.79673  1.0000
  C   C198      1.0  0.42176  0.20725  0.71482  1.0000
  C   C199      1.0  0.02572  0.58090  0.82231  1.0000
  C   C200      1.0  0.05228  0.58310  0.72350  1.0000
  C   C201      1.0  0.07973  0.61022  0.72960  1.0000
  C   C202      1.0  0.08210  0.63609  0.83713  1.0000
  C   C203      1.0  0.05521  0.63403  0.93293  1.0000
  C   C204      1.0  0.02771  0.60703  0.92518  1.0000
  C   C205      1.0  0.12310  0.69112  0.44188  1.0000
  C   C206      1.0  0.88397  0.31326  0.05625  1.0000
  C   C207      1.0  0.15386  0.71584  0.43649  1.0000
  C   C208      1.0  0.85341  0.28837  0.05734  1.0000
  C   C209      1.0  0.16378  0.74484  0.51985  1.0000
  C   C210      1.0  0.84414  0.25889  0.98222  1.0000
  C   C211      1.0  0.19573  0.76446  0.48520  1.0000
  C   C212      1.0  0.81205  0.23942  0.01162  1.0000
  C   C213      1.0  0.20209  0.74606  0.87170  1.0000
  C   C214      1.0  0.79046  0.24812  0.64145  1.0000
  C   C215      1.0  0.23185  0.76311  0.80220  1.0000
  C   C216      1.0  0.76100  0.23157  0.71587  1.0000
  C   C217      1.0  0.25874  0.79435  0.37827  1.0000
  C   C218      1.0  0.74848  0.20998  0.10518  1.0000
  C   C219      1.0  0.24434  0.81011  0.48813  1.0000
  C   C220      1.0  0.76351  0.19376  0.00668  1.0000
  C   C221      1.0  0.21331  0.79545  0.54294  1.0000
  C   C222      1.0  0.79480  0.20815  0.95879  1.0000
  C   C223      1.0  0.02445  0.43822  0.65889  1.0000
  C   C224      1.0  0.02411  0.41393  0.71693  1.0000
  C   C225      1.0  0.05124  0.41435  0.72826  1.0000
  C   C226      1.0  0.07992  0.43865  0.68050  1.0000
  C   C227      1.0  0.08011  0.46207  0.61217  1.0000
  C   C228      1.0  0.05298  0.46170  0.60055  1.0000
  C   C229      1.0  0.13321  0.45702  0.66825  1.0000
  C   C230      1.0  0.86022  0.53437  0.82129  1.0000
  C   C231      1.0  0.15762  0.45288  0.69991  1.0000
  C   C232      1.0  0.83575  0.53950  0.79998  1.0000
  C   C233      1.0  0.18872  0.47099  0.66213  1.0000
  C   C234      1.0  0.80451  0.52052  0.82490  1.0000
  S   S1        1.0  0.57177  0.84288  0.22847  1.0000
  S   S2        1.0  0.42610  0.15251  0.27792  1.0000
  S   S3        1.0  0.26327  0.84166  0.09368  1.0000
  S   S4        1.0  0.72665  0.15253  0.42864  1.0000
  S   S5        1.0  0.29771  0.47131  0.16396  1.0000
  S   S6        1.0  0.70763  0.53255  0.32974  1.0000
  S   S7        1.0  0.52456  0.70248  0.17020  1.0000
  S   S8        1.0  0.47291  0.29270  0.31936  1.0000
  S   S9        1.0  0.18359  0.71109  0.31391  1.0000
  S   S10       1.0  0.82301  0.29381  0.16437  1.0000
  S   S11       1.0  0.15788  0.43100  0.26241  1.0000
  S   S12       1.0  0.84743  0.57264  0.20443  1.0000
  S   S13       1.0  0.57315  0.84747  0.74768  1.0000
  S   S14       1.0  0.42516  0.15655  0.76891  1.0000
  S   S15       1.0  0.27033  0.84850  0.53766  1.0000
  S   S16       1.0  0.73787  0.15519  0.95995  1.0000
  S   S17       1.0  0.28903  0.46366  0.69184  1.0000
  S   S18       1.0  0.70465  0.52984  0.80420  1.0000
  S   S19       1.0  0.53054  0.70756  0.66490  1.0000
  S   S20       1.0  0.47241  0.29692  0.82226  1.0000
  S   S21       1.0  0.17581  0.70948  0.79573  1.0000
  S   S22       1.0  0.81780  0.28445  0.71419  1.0000
  S   S23       1.0  0.14875  0.42042  0.78733  1.0000
  S   S24       1.0  0.84512  0.57460  0.74039  1.0000
  N   N1        1.0  0.56170  0.99865  0.13260  1.0000
  N   N2        1.0  0.45048  0.00220  0.35786  1.0000
  N   N3        1.0  0.55652  0.88657  0.16183  1.0000
  N   N4        1.0  0.44381  0.10984  0.35978  1.0000
  N   N5        1.0  0.32778  0.89309  0.00298  1.0000
  N   N6        1.0  0.66062  0.10234  0.53188  1.0000
  N   N7        1.0  0.55621  0.55587  0.25371  1.0000
  N   N8        1.0  0.44601  0.44190  0.24390  1.0000
  N   N9        1.0  0.33980  0.44925  0.20687  1.0000
  N   N10       1.0  0.66445  0.55175  0.27725  1.0000
  N   N11       1.0  0.54508  0.65960  0.22185  1.0000
  N   N12       1.0  0.45243  0.33522  0.27078  1.0000
  N   N13       1.0  0.11644  0.66621  0.34222  1.0000
  N   N14       1.0  0.88932  0.33874  0.14819  1.0000
  N   N15       1.0  0.11464  0.44755  0.19054  1.0000
  N   N16       1.0  0.89161  0.55818  0.29121  1.0000
  N   N17       1.0  0.00180  0.55901  0.32477  1.0000
  N   N18       1.0  0.00336  0.44618  0.17324  1.0000
  N   N19       1.0  0.54760  0.99665  0.65779  1.0000
  N   N20       1.0  0.43734  0.00205  0.88312  1.0000
  N   N21       1.0  0.55668  0.89050  0.65768  1.0000
  N   N22       1.0  0.43940  0.11297  0.85664  1.0000
  N   N23       1.0  0.33661  0.89649  0.46112  1.0000
  N   N24       1.0  0.67231  0.10741  0.02510  1.0000
  N   N25       1.0  0.55413  0.55740  0.75900  1.0000
  N   N26       1.0  0.44291  0.44447  0.73739  1.0000
  N   N27       1.0  0.33223  0.44442  0.72473  1.0000
  N   N28       1.0  0.66178  0.55212  0.78526  1.0000
  N   N29       1.0  0.54918  0.66483  0.73077  1.0000
  N   N30       1.0  0.45225  0.33968  0.76838  1.0000
  N   N31       1.0  0.11098  0.66178  0.83748  1.0000
  N   N32       1.0  0.88239  0.33198  0.65421  1.0000
  N   N33       1.0  0.10513  0.43669  0.70661  1.0000
  N   N34       1.0  0.88824  0.55591  0.79582  1.0000
  N   N35       1.0  0.99738  0.55337  0.81808  1.0000
  N   N36       1.0  0.99700  0.43944  0.66262  1.0000
  C   C235      1.0  0.50672  0.47905  0.65296  1.0000
  C   C236      1.0  0.47743  0.47251  0.72859  1.0000
  C  Sn1       1.0  0.47185  0.49589  0.81590  1.0000
  C  Sn2       1.0  0.49610  0.52636  0.82746  1.0000
  C   C237      1.0  0.52532  0.53267  0.75126  1.0000
  C   C238      1.0  0.53064  0.50910  0.66424  1.0000
  H   H133      1.0  0.51084  0.46082  0.58555  1.0000
  O  Te1       1.0  0.44245  0.48896  0.89078  1.0000
  O  Te2       1.0  0.49116  0.55017  0.91391  1.0000
  H   H134      1.0  0.55332  0.51417  0.60561  1.0000
  Mg  Mg1       1.0  0.44712  0.52924  0.99488  1.0000
  C   C239      1.0  0.97857  0.49881  0.16164  1.0000
  C   C240      1.0  0.99524  0.52435  0.26892  1.0000
  C  Sn3       1.0  0.01795  0.52541  0.34605  1.0000
  C  Sn4       1.0  0.02402  0.50042  0.31492  1.0000
  C   C241      1.0  0.00723  0.47499  0.20730  1.0000
  C   C242      1.0  0.98455  0.47416  0.13082  1.0000
  H   H135      1.0  0.96103  0.49817  0.10239  1.0000
  O  Te3       1.0  0.03438  0.55110  0.45293  1.0000
  O  Te4       1.0  0.04660  0.50090  0.39031  1.0000
  H   H136      1.0  0.97166  0.45439  0.04768  1.0000
  Mg  Mg2       1.0  0.06285  0.54099  0.52617  1.0000
  C   C243      1.0  0.49517  0.02368  0.69271  1.0000
  C   C244      1.0  0.96968  0.00530  0.79470  1.0000
  C  Sn5       1.0  0.97008  0.98287  0.86616  1.0000
  C  Sn6       1.0  0.99639  0.97883  0.83474  1.0000
  C   C245      1.0  0.02166  0.99735  0.73263  1.0000
  C   C246      1.0  0.52113  0.01972  0.66172  1.0000
  H   H137      1.0  0.49467  0.04099  0.63791  1.0000
  O  Te5       1.0  0.94454  0.96470  0.96769  1.0000
  O  Te6       1.0  0.99741  0.95660  0.90462  1.0000
  H   H138      1.0  0.54078  0.03396  0.58285  1.0000
  Mg  Mg3       1.0  0.97731  0.91588  0.03442  1.0000
  C   C247      1.0  0.93441  0.40568  0.78313  1.0000
  C   C248      1.0  0.96284  0.41171  0.69614  1.0000
  C  Sn7       1.0  0.96560  0.38976  0.57572  1.0000
  C  Sn8       1.0  0.93937  0.36128  0.54202  1.0000
  C   C249      1.0  0.91103  0.35548  0.62965  1.0000
  C   C250      1.0  0.90852  0.37760  0.74992  1.0000
  H   H139      1.0  0.93246  0.42280  0.87613  1.0000
  O  Te7       1.0  0.99418  0.39616  0.49000  1.0000
  O  Te8       1.0  0.94148  0.33895  0.42228  1.0000
  H   H140      1.0  0.88651  0.37294  0.81718  1.0000
  Mg  Mg4       1.0  0.98543  0.35840  0.33835  1.0000
  C   C251      1.0  0.46690  0.06652  0.94826  1.0000
  C   C252      1.0  0.44307  0.03696  0.91569  1.0000
  C  Sn9       1.0  0.41674  0.03230  0.85857  1.0000
  C  Sn10      1.0  0.41428  0.05777  0.83369  1.0000
  C   C253      1.0  0.43825  0.08725  0.86653  1.0000
  C   C254      1.0  0.46450  0.09165  0.92369  1.0000
  H   H141      1.0  0.48721  0.06992  0.99240  1.0000
  O  Te9       1.0  0.89303  0.00262  0.82670  1.0000
  O  Te10      1.0  0.38822  0.05377  0.77664  1.0000
  H   H142      1.0  0.48295  0.11454  0.94879  1.0000
  Mg  Mg5       1.0  0.86209  0.00888  0.75072  1.0000
  C   C255      1.0  0.52291  0.91759  0.58361  1.0000
  C   C256      1.0  0.54732  0.91446  0.61385  1.0000
  C  Sn11      1.0  0.57350  0.93999  0.66979  1.0000
  C  Sn12      1.0  0.57520  0.96916  0.69586  1.0000
  C   C257      1.0  0.55065  0.97204  0.66536  1.0000
  C   C258      1.0  0.52457  0.94635  0.60936  1.0000
  H   H143      1.0  0.50272  0.89770  0.54037  1.0000
  O  Te11      1.0  0.59768  0.93646  0.69933  1.0000
  O  Te12      1.0  0.60109  0.99506  0.75177  1.0000
  H   H144      1.0  0.50567  0.94877  0.58606  1.0000
  Mg  Mg6       1.0  0.62810  0.97859  0.77451  1.0000
  C   C259      1.0  0.46815  0.41443  0.85424  1.0000
  C   C260      1.0  0.45060  0.41874  0.76221  1.0000
  C  Sn13      1.0  0.42981  0.39411  0.66563  1.0000
  C  Sn14      1.0  0.42656  0.36464  0.66138  1.0000
  C   C261      1.0  0.44420  0.36056  0.75398  1.0000
  C   C262      1.0  0.46495  0.38537  0.85016  1.0000
  H   H145      1.0  0.48419  0.43362  0.92873  1.0000
  O  Te13      1.0  0.41247  0.39883  0.57440  1.0000
  O  Te14      1.0  0.40594  0.33962  0.56595  1.0000
  H   H146      1.0  0.47851  0.38202  0.92148  1.0000
  Mg  Mg7       1.0  0.38745  0.35758  0.46311  1.0000
  C   C263      1.0  0.96891  0.58600  0.25689  1.0000
  C   C264      1.0  0.97456  0.56704  0.32970  1.0000
  C  Sn15      1.0  0.95025  0.54101  0.39291  1.0000
  C  Sn16      1.0  0.91973  0.53387  0.38283  1.0000
  C   C265      1.0  0.91431  0.55297  0.30965  1.0000
  C   C266      1.0  0.93882  0.57897  0.24684  1.0000
  H   H147      1.0  0.98786  0.60610  0.20821  1.0000
  O  Te15      1.0  0.95631  0.52233  0.46530  1.0000
  O  Te16      1.0  0.89500  0.50799  0.44496  1.0000
  H   H148      1.0  0.93443  0.59363  0.19039  1.0000
  Mg  Mg8       1.0  0.91495  0.48961  0.53231  1.0000
  C   C267      1.0  0.97267  0.49278  0.65873  1.0000
  C   C268      1.0  0.99056  0.51865  0.76056  1.0000
  C  Sn17      1.0  0.01372  0.51956  0.83281  1.0000
  C  Sn18      1.0  0.01902  0.49408  0.80229  1.0000
  C   C269      1.0  0.00101  0.46831  0.70014  1.0000
  C   C270      1.0  0.97788  0.46764  0.62851  1.0000
  H   H149      1.0  0.95479  0.49226  0.60324  1.0000
  O  Te17      1.0  0.03138  0.54558  0.93428  1.0000
  O  Te18      1.0  0.04202  0.49439  0.87287  1.0000
  H   H150      1.0  0.96405  0.44761  0.54959  1.0000
  Mg  Mg9       1.0  0.08042  0.51349  0.00227  1.0000
  C   C271      1.0  0.62090  0.58235  0.18016  1.0000
  C   C272      1.0  0.59093  0.56166  0.23416  1.0000
  C  Sn19      1.0  0.58526  0.53783  0.31807  1.0000
  C  Sn20      1.0  0.61010  0.53471  0.34835  1.0000
  C   C273      1.0  0.64000  0.55554  0.29393  1.0000
  C   C274      1.0  0.64542  0.57930  0.21003  1.0000
  H   H151      1.0  0.62510  0.60074  0.11533  1.0000
  O  Te19      1.0  0.55518  0.51736  0.37111  1.0000
  O  Te20      1.0  0.60509  0.51111  0.43198  1.0000
  H   H152      1.0  0.66863  0.59532  0.16834  1.0000
  Mg  Mg10      1.0  0.56000  0.48896  0.47988  1.0000
  C   C275      1.0  0.61862  0.58274  0.68435  1.0000
  C   C276      1.0  0.58859  0.56235  0.73926  1.0000
  C  Sn21      1.0  0.58269  0.53855  0.82409  1.0000
  C  Sn22      1.0  0.60737  0.53516  0.85437  1.0000
  C   C277      1.0  0.63734  0.55569  0.79903  1.0000
  C   C278      1.0  0.64297  0.57942  0.71422  1.0000
  H   H153      1.0  0.62299  0.60111  0.61880  1.0000
  O  Te21      1.0  0.55255  0.51837  0.87804  1.0000
  O  Te22      1.0  0.60213  0.51158  0.93891  1.0000
  H   H154      1.0  0.66623  0.59522  0.67181  1.0000
  Mg  Mg11      1.0  0.55705  0.48988  0.98785  1.0000
  C   C279      1.0  0.41509  0.46605  0.12523  1.0000
  C   C280      1.0  0.41963  0.44859  0.21612  1.0000
  C  Sn23      1.0  0.39492  0.42710  0.30792  1.0000
  C  Sn24      1.0  0.36514  0.42307  0.30847  1.0000
  C   C281      1.0  0.36083  0.44063  0.21704  1.0000
  C   C282      1.0  0.38572  0.46208  0.12565  1.0000
  H   H155      1.0  0.43434  0.48264  0.05445  1.0000
  O  Te23      1.0  0.39986  0.40986  0.39808  1.0000
  O  Te24      1.0  0.34004  0.40174  0.39909  1.0000
  H   H156      1.0  0.38219  0.47558  0.05521  1.0000
  Mg  Mg12      1.0  0.35839  0.38369  0.50228  1.0000
  C   C283      1.0  0.57611  0.63352  0.33513  1.0000
  C   C284      1.0  0.55701  0.63695  0.25014  1.0000
  C  Sn25      1.0  0.53487  0.61161  0.16372  1.0000
  C  Sn26      1.0  0.53185  0.58232  0.16263  1.0000
  C   C285      1.0  0.55106  0.57913  0.24813  1.0000
  C   C286      1.0  0.57314  0.60464  0.33417  1.0000
  H   H157      1.0  0.59318  0.65326  0.40177  1.0000
  O  Te25      1.0  0.51599  0.61544  0.07942  1.0000
  O  Te26      1.0  0.50991  0.55661  0.07731  1.0000
  H   H158      1.0  0.58791  0.60198  0.40005  1.0000
  Mg  Mg13      1.0  0.46914  0.59507  0.98106  1.0000
  C   C287      1.0  0.96524  0.58073  0.74407  1.0000
  C   C288      1.0  0.97065  0.56198  0.82008  1.0000
  C  Sn27      1.0  0.94622  0.53726  0.89341  1.0000
  C  Sn28      1.0  0.91583  0.53127  0.89035  1.0000
  C   C289      1.0  0.91066  0.55015  0.81390  1.0000
  C   C290      1.0  0.93528  0.57483  0.74094  1.0000
  H   H159      1.0  0.98429  0.59982  0.68754  1.0000
  O  Te27      1.0  0.95203  0.51876  0.96888  1.0000
  O  Te28      1.0  0.89099  0.50671  0.96265  1.0000
  H   H160      1.0  0.93109  0.58934  0.68201  1.0000
  Mg  Mg14      1.0  0.93100  0.46646  0.05053  1.0000
  C   C291      1.0  0.60482  0.02730  0.47612  1.0000
  C   C292      1.0  0.58117  0.02291  0.60249  1.0000
  C  Sn29      1.0  0.58236  0.04752  0.71505  1.0000
  C  Sn30      1.0  0.60772  0.07705  0.70047  1.0000
  C   C293      1.0  0.63125  0.08121  0.57354  1.0000
  C   C294      1.0  0.62983  0.05642  0.46162  1.0000
  H   H161      1.0  0.10359  0.00812  0.38946  1.0000
  O  Te29      1.0  0.55855  0.04273  0.84060  1.0000
  O  Te30      1.0  0.60949  0.10206  0.81125  1.0000
  H   H162      1.0  0.64813  0.05983  0.36372  1.0000
  Mg  Mg15      1.0  0.57138  0.08399  0.96147  1.0000
