data_image0
_chemical_formula_structural       H24C24N36C2Sn2C2HTe2HMgC2Sn2C2HTe2HMgC2Sn2C2HTe2HMgC2Sn2C2HTe2HMgC2Sn2C2HTe2HMgC2Sn2C2HTe2HMgC2Sn2C2HTe2HMgC2Sn2C2HTe2HMgC2Sn2C2HTe2HMgC2Sn2C2HTe2HMgC2Sn2C2HTe2HMgC2Sn2C2HTe2HMgC2Sn2C2HTe2HMgC2Sn2C2HTe2HMgC2Sn2C2HTe2HMgC2Sn2C2HTe2HMgC2Sn2C2HTe2HMgC2Sn2C2HTe2HMgC2Sn2C2HTe2HMgC2Sn2C2HTe2HMgC2Sn2C2HTe2HMgC2Sn2C2HTe2HMgC2Sn2C2HTe2HMgC2Sn2C2HTe2HMgC2Sn2C2HTe2HMgC2Sn2C2HTe2HMgC2Sn2C2HTe2HMgC2Sn2C2HTe2HMgC2Sn2C2HTe2HMgC2Sn2C2HTe2HMgC2Sn2C2HTe2HMgC2Sn2C2HTe2HMgC2Sn2C2HTe2HMgC2Sn2C2HTe2HMgC2Sn2C2HTe2HMgC2Sn2C2HTe2HMgC2Sn2C2HTe2HMgC2Sn2C2HTe2HMgC2Sn2C2HTe2HMgC2Sn2C2HTe2HMgC2Sn2C2HTe2HMgC2Sn2C2HTe2HMg
_chemical_formula_sum              "H108 C192 N36 Sn84 Te84 Mg42"
_cell_length_a       42.1334
_cell_length_b       43.0589
_cell_length_c       8.39532
_cell_angle_alpha    91.8472
_cell_angle_beta     86.2719
_cell_angle_gamma    118.785

_symmetry_space_group_name_H-M    'P1'
_space_group_IT_number       1

loop_
  _space_group_symop_operation_xyz
  'x, y, z'

loop_
  _atom_site_type_symbol
  _atom_site_label
  _atom_site_symmetry_multiplicity
  _atom_site_fract_x
  _atom_site_fract_y
  _atom_site_fract_z
  _atom_site_occupancy
  H   H1        1.0  0.53054  0.84001  0.13384  1.0000
  H   H2        1.0  0.46982  0.16155  0.34716  1.0000
  H   H3        1.0  0.30925  0.84517  0.09418  1.0000
  H   H4        1.0  0.69327  0.15914  0.41192  1.0000
  H   H5        1.0  0.27234  0.39388  0.13718  1.0000
  H   H6        1.0  0.72805  0.60922  0.37499  1.0000
  H   H7        1.0  0.59848  0.72694  0.31229  1.0000
  H   H8        1.0  0.40081  0.27453  0.18602  1.0000
  H   H9        1.0  0.13048  0.72396  0.31902  1.0000
  H   H10       1.0  0.87201  0.27765  0.17314  1.0000
  H   H11       1.0  0.15470  0.46169  0.32627  1.0000
  H   H12       1.0  0.84672  0.54304  0.16913  1.0000
  H   H13       1.0  0.53541  0.83944  0.60380  1.0000
  H   H14       1.0  0.46617  0.15867  0.87270  1.0000
  H   H15       1.0  0.31303  0.83665  0.62627  1.0000
  H   H16       1.0  0.69026  0.15752  0.88135  1.0000
  H   H17       1.0  0.27743  0.40216  0.58605  1.0000
  H   H18       1.0  0.72116  0.59507  0.92009  1.0000
  H   H19       1.0  0.59734  0.72437  0.82907  1.0000
  H   H20       1.0  0.40202  0.27412  0.69087  1.0000
  H   H21       1.0  0.12815  0.72490  0.79816  1.0000
  H   H22       1.0  0.87161  0.27452  0.67807  1.0000
  H   H23       1.0  0.14608  0.44778  0.87315  1.0000
  H   H24       1.0  0.85257  0.55205  0.60789  1.0000
  C   C1        1.0  0.55353  0.84428  0.20360  1.0000
  C   C2        1.0  0.44560  0.15675  0.28561  1.0000
  C   C3        1.0  0.29112  0.84493  0.19518  1.0000
  C   C4        1.0  0.71110  0.15810  0.31253  1.0000
  C   C5        1.0  0.27492  0.41640  0.21135  1.0000
  C   C6        1.0  0.72533  0.58631  0.30347  1.0000
  C   C7        1.0  0.57157  0.72181  0.27850  1.0000
  C   C8        1.0  0.42739  0.27940  0.22367  1.0000
  C   C9        1.0  0.15253  0.71976  0.26359  1.0000
  C   C10       1.0  0.85016  0.28217  0.22853  1.0000
  C   C11       1.0  0.15081  0.43793  0.25876  1.0000
  C   C12       1.0  0.85082  0.56652  0.23965  1.0000
  C   C13       1.0  0.55448  0.84228  0.69399  1.0000
  C   C14       1.0  0.44482  0.15520  0.79395  1.0000
  C   C15       1.0  0.29230  0.84000  0.69968  1.0000
  C   C16       1.0  0.70966  0.15475  0.79582  1.0000
  C   C17       1.0  0.27587  0.41766  0.69020  1.0000
  C   C18       1.0  0.72295  0.58027  0.81365  1.0000
  C   C19       1.0  0.57146  0.71954  0.78287  1.0000
  C   C20       1.0  0.42858  0.27887  0.72801  1.0000
  C   C21       1.0  0.15023  0.71916  0.75866  1.0000
  C   C22       1.0  0.84888  0.27896  0.72156  1.0000
  C   C23       1.0  0.14682  0.43158  0.77026  1.0000
  C   C24       1.0  0.85173  0.56718  0.71469  1.0000
  N   N1        1.0  0.56887  0.00272  0.24607  1.0000
  N   N2        1.0  0.43241  0.99985  0.27131  1.0000
  N   N3        1.0  0.57527  0.87455  0.26590  1.0000
  N   N4        1.0  0.42323  0.12599  0.22971  1.0000
  N   N5        1.0  0.29971  0.87143  0.29220  1.0000
  N   N6        1.0  0.70193  0.13100  0.21872  1.0000
  N   N7        1.0  0.56322  0.56797  0.25535  1.0000
  N   N8        1.0  0.43634  0.43346  0.24015  1.0000
  N   N9        1.0  0.30398  0.43727  0.28396  1.0000
  N   N10       1.0  0.69609  0.56493  0.23293  1.0000
  N   N11       1.0  0.54547  0.68990  0.26080  1.0000
  N   N12       1.0  0.45332  0.31115  0.24709  1.0000
  N   N13       1.0  0.00628  0.57005  0.26471  1.0000
  N   N14       1.0  0.99541  0.43335  0.21959  1.0000
  N   N15       1.0  0.14706  0.68837  0.22507  1.0000
  N   N16       1.0  0.85571  0.31373  0.26483  1.0000
  N   N17       1.0  0.12098  0.41708  0.19121  1.0000
  N   N18       1.0  0.88108  0.58738  0.30444  1.0000
  N   N19       1.0  0.56681  0.99952  0.74441  1.0000
  N   N20       1.0  0.43075  0.99790  0.77380  1.0000
  N   N21       1.0  0.57248  0.87112  0.77429  1.0000
  N   N22       1.0  0.42400  0.12538  0.72575  1.0000
  N   N23       1.0  0.29877  0.86896  0.77553  1.0000
  N   N24       1.0  0.70163  0.12610  0.71409  1.0000
  N   N25       1.0  0.56330  0.56569  0.76138  1.0000
  N   N26       1.0  0.43585  0.43196  0.73869  1.0000
  N   N27       1.0  0.30166  0.43276  0.78786  1.0000
  N   N28       1.0  0.69734  0.56547  0.71489  1.0000
  N   N29       1.0  0.54615  0.68785  0.75387  1.0000
  N   N30       1.0  0.45438  0.31055  0.75262  1.0000
  N   N31       1.0  0.00478  0.56744  0.76803  1.0000
  N   N32       1.0  0.99299  0.43032  0.72993  1.0000
  N   N33       1.0  0.14444  0.68707  0.73372  1.0000
  N   N34       1.0  0.85348  0.31057  0.74858  1.0000
  N   N35       1.0  0.12039  0.41643  0.67540  1.0000
  N   N36       1.0  0.87779  0.58129  0.81153  1.0000
  C   C25       1.0  0.47679  0.97111  0.35799  1.0000
  C   C26       1.0  0.46745  0.99502  0.29444  1.0000
  C  Sn1       1.0  0.00084  0.02341  0.20095  1.0000
  C  Sn2       1.0  0.03632  0.02787  0.17069  1.0000
  C   C27       1.0  0.04539  0.00379  0.23472  1.0000
  C   C28       1.0  0.51177  0.97548  0.32815  1.0000
  H   H25       1.0  0.45689  0.94919  0.43020  1.0000
  O  Te1       1.0  0.99106  0.04707  0.13843  1.0000
  O  Te2       1.0  0.06232  0.05601  0.07761  1.0000
  H   H26       1.0  0.51901  0.95695  0.37725  1.0000
  Mg  Mg1       1.0  0.03600  0.08124  0.01883  1.0000
  C   C29       1.0  0.53821  0.92959  0.16789  1.0000
  C   C30       1.0  0.56168  0.96221  0.23510  1.0000
  C  Sn3       1.0  0.59236  0.96658  0.30890  1.0000
  C  Sn4       1.0  0.59960  0.93771  0.31530  1.0000
  C   C31       1.0  0.57597  0.90519  0.24760  1.0000
  C   C32       1.0  0.54535  0.90111  0.17409  1.0000
  H   H27       1.0  0.51453  0.92643  0.11093  1.0000
  O  Te3       1.0  0.61551  0.99935  0.37551  1.0000
  O  Te4       1.0  0.63007  0.94135  0.38828  1.0000
  H   H28       1.0  0.52720  0.87585  0.12197  1.0000
  Mg  Mg2       1.0  0.65354  0.99122  0.46197  1.0000
  C   C33       1.0  0.45696  0.08857  0.35983  1.0000
  C   C34       1.0  0.43590  0.09697  0.26633  1.0000
  C  Sn5       1.0  0.41025  0.07112  0.17042  1.0000
  C  Sn6       1.0  0.40566  0.03624  0.16835  1.0000
  C   C35       1.0  0.42685  0.02809  0.26241  1.0000
  C   C36       1.0  0.45244  0.05417  0.35791  1.0000
  H   H29       1.0  0.47675  0.10873  0.43379  1.0000
  O  Te5       1.0  0.38944  0.07997  0.07769  1.0000
  O  Te6       1.0  0.38022  0.00989  0.07363  1.0000
  H   H30       1.0  0.46873  0.04765  0.43037  1.0000
  Mg  Mg3       1.0  0.34547  0.03513  0.96814  1.0000
  C   C37       1.0  0.39312  0.92678  0.19226  1.0000
  C   C38       1.0  0.39947  0.96006  0.24862  1.0000
  C  Sn7       1.0  0.37170  0.96402  0.33063  1.0000
  C  Sn8       1.0  0.33695  0.93405  0.35655  1.0000
  C   C39       1.0  0.33088  0.90086  0.29979  1.0000
  C   C40       1.0  0.35886  0.89720  0.21783  1.0000
  H   H31       1.0  0.41477  0.92394  0.12893  1.0000
  O  Te7       1.0  0.37850  0.99747  0.38608  1.0000
  O  Te8       1.0  0.30871  0.93725  0.43819  1.0000
  H   H32       1.0  0.35394  0.87142  0.17430  1.0000
  Mg  Mg4       1.0  0.33132  0.98838  0.49071  1.0000
  C   C41       1.0  0.62694  0.09239  0.33394  1.0000
  C   C42       1.0  0.66088  0.10019  0.26294  1.0000
  C  Sn9       1.0  0.66504  0.07484  0.16915  1.0000
  C  Sn10      1.0  0.63459  0.04110  0.14620  1.0000
  C   C43       1.0  0.60074  0.03357  0.21765  1.0000
  C   C44       1.0  0.59690  0.05912  0.31131  1.0000
  H   H33       1.0  0.62396  0.11217  0.40634  1.0000
  O  Te9       1.0  0.69914  0.08306  0.09914  1.0000
  O  Te10      1.0  0.63797  0.01528  0.05299  1.0000
  H   H34       1.0  0.57061  0.05308  0.36618  1.0000
  Mg  Mg5       1.0  0.67721  0.03931  0.98250  1.0000
  C   C45       1.0  0.52382  0.49588  0.34622  1.0000
  C   C46       1.0  0.53225  0.52695  0.26479  1.0000
  C  Sn11      1.0  0.50657  0.52853  0.17296  1.0000
  C  Sn12      1.0  0.47183  0.49841  0.16272  1.0000
  C   C47       1.0  0.46365  0.46746  0.24472  1.0000
  C   C48       1.0  0.48955  0.46616  0.33624  1.0000
  H   H35       1.0  0.54384  0.49488  0.41710  1.0000
  O  Te11      1.0  0.51545  0.55978  0.09232  1.0000
  O  Te12      1.0  0.44565  0.49926  0.07183  1.0000
  H   H36       1.0  0.48301  0.44211  0.39935  1.0000
  Mg  Mg6       1.0  0.45779  0.54816  0.98369  1.0000
  C   C49       1.0  0.37401  0.46196  0.36856  1.0000
  C   C50       1.0  0.34278  0.44090  0.28685  1.0000
  C  Sn13      1.0  0.34085  0.41324  0.18899  1.0000
  C  Sn14      1.0  0.37079  0.40661  0.17290  1.0000
  C   C51       1.0  0.40190  0.42782  0.25524  1.0000
  C   C52       1.0  0.40355  0.45543  0.35281  1.0000
  H   H37       1.0  0.37528  0.48331  0.44412  1.0000
  O  Te13      1.0  0.30944  0.39246  0.10816  1.0000
  O  Te14      1.0  0.36958  0.37913  0.07593  1.0000
  H   H38       1.0  0.42773  0.47172  0.41613  1.0000
  Mg  Mg7       1.0  0.30797  0.35837  0.99006  1.0000
  C   C53       1.0  0.60859  0.53955  0.14381  1.0000
  C   C54       1.0  0.59721  0.56088  0.23182  1.0000
  C  Sn15      1.0  0.62140  0.58855  0.32554  1.0000
  C  Sn16      1.0  0.65764  0.59493  0.33099  1.0000
  C   C55       1.0  0.66877  0.57347  0.24242  1.0000
  C   C56       1.0  0.64433  0.54584  0.14907  1.0000
  H   H39       1.0  0.58969  0.51819  0.07152  1.0000
  O  Te15      1.0  0.60958  0.60959  0.41277  1.0000
  O  Te16      1.0  0.68238  0.62242  0.42362  1.0000
  H   H40       1.0  0.65316  0.52935  0.08086  1.0000
  Mg  Mg8       1.0  0.65339  0.64383  0.52137  1.0000
  C   C57       1.0  0.24132  0.45873  0.30682  1.0000
  C   C58       1.0  0.24414  0.42921  0.25055  1.0000
  C  Sn17      1.0  0.21461  0.40062  0.18348  1.0000
  C  Sn18      1.0  0.18168  0.40168  0.17268  1.0000
  C   C59       1.0  0.17914  0.43135  0.22922  1.0000
  C   C60       1.0  0.20885  0.45981  0.29616  1.0000
  H   H41       1.0  0.26431  0.48076  0.35854  1.0000
  O  Te17      1.0  0.21790  0.37132  0.12790  1.0000
  O  Te18      1.0  0.15175  0.37347  0.10614  1.0000
  H   H42       1.0  0.20666  0.48267  0.33962  1.0000
  Mg  Mg9       1.0  0.16954  0.33942  0.04703  1.0000
  C   C61       1.0  0.80008  0.61041  0.35612  1.0000
  C   C62       1.0  0.76581  0.58928  0.29747  1.0000
  C  Sn19      1.0  0.75782  0.55732  0.22032  1.0000
  C  Sn20      1.0  0.78467  0.54636  0.20177  1.0000
  C   C63       1.0  0.81886  0.56768  0.26097  1.0000
  C   C64       1.0  0.82658  0.59962  0.33793  1.0000
  H   H43       1.0  0.80604  0.63512  0.41574  1.0000
  O  Te19      1.0  0.72345  0.53653  0.16238  1.0000
  O  Te20      1.0  0.77740  0.51453  0.12520  1.0000
  H   H44       1.0  0.85310  0.61596  0.38342  1.0000
  Mg  Mg10      1.0  0.72655  0.49536  0.06663  1.0000
  C   C65       1.0  0.58964  0.63973  0.16829  1.0000
  C   C66       1.0  0.56852  0.60771  0.24907  1.0000
  C  Sn21      1.0  0.53683  0.60177  0.33732  1.0000
  C  Sn22      1.0  0.52614  0.62842  0.34458  1.0000
  C   C67       1.0  0.54744  0.66035  0.26325  1.0000
  C   C68       1.0  0.57911  0.66603  0.17533  1.0000
  H   H45       1.0  0.61413  0.64412  0.10019  1.0000
  O  Te21      1.0  0.51606  0.56963  0.41737  1.0000
  O  Te22      1.0  0.49459  0.62317  0.43186  1.0000
  H   H46       1.0  0.59544  0.69082  0.11271  1.0000
  Mg  Mg11      1.0  0.47532  0.57497  0.52059  1.0000
  C   C69       1.0  0.47775  0.38077  0.15500  1.0000
  C   C70       1.0  0.45579  0.34872  0.23424  1.0000
  C  Sn23      1.0  0.42306  0.34256  0.31322  1.0000
  C  Sn24      1.0  0.41217  0.36903  0.31261  1.0000
  C   C71       1.0  0.43432  0.40100  0.23289  1.0000
  C   C72       1.0  0.46703  0.40689  0.15429  1.0000
  H   H47       1.0  0.50304  0.38533  0.09411  1.0000
  O  Te23      1.0  0.40145  0.31039  0.39185  1.0000
  O  Te24      1.0  0.37959  0.36356  0.39053  1.0000
  H   H48       1.0  0.48401  0.43170  0.09286  1.0000
  Mg  Mg12      1.0  0.35945  0.31540  0.48100  1.0000
  C   C73       1.0  0.59738  0.79620  0.31232  1.0000
  C   C74       1.0  0.57357  0.76079  0.27736  1.0000
  C  Sn25      1.0  0.54131  0.75171  0.20481  1.0000
  C  Sn26      1.0  0.53280  0.77863  0.16668  1.0000
  C   C75       1.0  0.55681  0.81397  0.20205  1.0000
  C   C76       1.0  0.58901  0.82276  0.27469  1.0000
  H   H49       1.0  0.62230  0.80300  0.36845  1.0000
  O  Te25      1.0  0.51782  0.71621  0.17075  1.0000
  O  Te26      1.0  0.50074  0.77029  0.09409  1.0000
  H   H50       1.0  0.60745  0.85018  0.30166  1.0000
  Mg  Mg13      1.0  0.47743  0.71811  0.07131  1.0000
  C   C77       1.0  0.40270  0.20562  0.17430  1.0000
  C   C78       1.0  0.42358  0.23969  0.23499  1.0000
  C  Sn27      1.0  0.45525  0.24818  0.31138  1.0000
  C  Sn28      1.0  0.46616  0.22203  0.32709  1.0000
  C   C79       1.0  0.44510  0.18802  0.26588  1.0000
  C   C80       1.0  0.41345  0.17981  0.18970  1.0000
  H   H51       1.0  0.37823  0.19926  0.11528  1.0000
  O  Te27      1.0  0.47578  0.28235  0.37137  1.0000
  O  Te28      1.0  0.49770  0.22980  0.40285  1.0000
  H   H52       1.0  0.39731  0.15343  0.14263  1.0000
  Mg  Mg14      1.0  0.51660  0.28012  0.46499  1.0000
  C   C81       1.0  0.96982  0.47951  0.34692  1.0000
  C   C82       1.0  0.99020  0.46788  0.24958  1.0000
  C  Sn29      1.0  0.01985  0.49195  0.15420  1.0000
  C  Sn30      1.0  0.02919  0.52832  0.15662  1.0000
  C   C83       1.0  0.00864  0.53969  0.25450  1.0000
  C   C84       1.0  0.97903  0.51538  0.34942  1.0000
  H   H53       1.0  0.94691  0.46070  0.42043  1.0000
  O  Te29      1.0  0.03991  0.47988  0.05760  1.0000
  O  Te30      1.0  0.05870  0.55294  0.06253  1.0000
  H   H54       1.0  0.96326  0.52440  0.42485  1.0000
  Mg  Mg15      1.0  0.06488  0.52384  0.95069  1.0000
  C   C85       1.0  0.07978  0.60473  0.34485  1.0000
  C   C86       1.0  0.04757  0.60075  0.28812  1.0000
  C  Sn31      1.0  0.04793  0.62730  0.19547  1.0000
  C  Sn32      1.0  0.08119  0.65839  0.15911  1.0000
  C   C87       1.0  0.11327  0.66210  0.21634  1.0000
  C   C88       1.0  0.11260  0.63537  0.30899  1.0000
  H   H55       1.0  0.07927  0.58404  0.41646  1.0000
  O  Te31      1.0  0.01549  0.62290  0.13981  1.0000
  O  Te32      1.0  0.08233  0.68534  0.06672  1.0000
  H   H56       1.0  0.13755  0.63845  0.35281  1.0000
  Mg  Mg16      1.0  0.03096  0.66706  0.01839  1.0000
  C   C89       1.0  0.93120  0.34530  0.31043  1.0000
  C   C90       1.0  0.89797  0.34153  0.26833  1.0000
  C  Sn33      1.0  0.89650  0.36933  0.19392  1.0000
  C  Sn34      1.0  0.92895  0.40147  0.16114  1.0000
  C   C91       1.0  0.96205  0.40497  0.20362  1.0000
  C   C92       1.0  0.96321  0.37698  0.27809  1.0000
  H   H57       1.0  0.93210  0.32364  0.36796  1.0000
  O  Te33      1.0  0.86308  0.36513  0.15272  1.0000
  O  Te34      1.0  0.92826  0.42968  0.08683  1.0000
  H   H58       1.0  0.98895  0.37990  0.31057  1.0000
  Mg  Mg17      1.0  0.87610  0.41117  0.05357  1.0000
  C   C93       1.0  0.24307  0.77314  0.11011  1.0000
  C   C94       1.0  0.25407  0.80654  0.17860  1.0000
  C  Sn35      1.0  0.23111  0.81184  0.29059  1.0000
  C  Sn36      1.0  0.19653  0.78312  0.33462  1.0000
  C   C95       1.0  0.18579  0.74981  0.26550  1.0000
  C   C96       1.0  0.20897  0.74480  0.15351  1.0000
  H   H59       1.0  0.26101  0.76926  0.02353  1.0000
  O  Te35      1.0  0.24252  0.84538  0.35781  1.0000
  O  Te36      1.0  0.17305  0.78768  0.44630  1.0000
  H   H60       1.0  0.20046  0.71893  0.10058  1.0000
  Mg  Mg18      1.0  0.20086  0.83838  0.50461  1.0000
  C   C97       1.0  0.78344  0.19354  0.16796  1.0000
  C   C98       1.0  0.75360  0.18819  0.26936  1.0000
  C  Sn37      1.0  0.75448  0.21605  0.36242  1.0000
  C  Sn38      1.0  0.78584  0.24987  0.35351  1.0000
  C   C99       1.0  0.81554  0.25495  0.25161  1.0000
  C   C100      1.0  0.81438  0.22689  0.15905  1.0000
  H   H61       1.0  0.78254  0.17183  0.09627  1.0000
  O  Te37      1.0  0.72443  0.21025  0.46314  1.0000
  O  Te38      1.0  0.78743  0.27818  0.44517  1.0000
  H   H62       1.0  0.83748  0.23104  0.08048  1.0000
  Mg  Mg19      1.0  0.73963  0.25712  0.56450  1.0000
  C   C101      1.0  0.05134  0.39605  0.10861  1.0000
  C   C102      1.0  0.08456  0.41830  0.17403  1.0000
  C  Sn39      1.0  0.08864  0.44709  0.26908  1.0000
  C  Sn40      1.0  0.05886  0.45366  0.29901  1.0000
  C   C103      1.0  0.02574  0.43122  0.23311  1.0000
  C   C104      1.0  0.02195  0.40250  0.13812  1.0000
  H   H63       1.0  0.04841  0.37381  0.03519  1.0000
  O  Te39      1.0  0.12202  0.46906  0.33346  1.0000
  O  Te40      1.0  0.06219  0.48223  0.39363  1.0000
  H   H64       1.0  0.99623  0.38526  0.08757  1.0000
  Mg  Mg20      1.0  0.11315  0.50464  0.45468  1.0000
  C   C105      1.0  0.96970  0.60875  0.35935  1.0000
  C   C106      1.0  0.97490  0.58070  0.30058  1.0000
  C  Sn41      1.0  0.94703  0.55186  0.22618  1.0000
  C  Sn42      1.0  0.91337  0.55117  0.21046  1.0000
  C   C107      1.0  0.90845  0.57937  0.26955  1.0000
  C   C108      1.0  0.93651  0.60810  0.34384  1.0000
  H   H65       1.0  0.99141  0.63099  0.41675  1.0000
  O  Te41      1.0  0.95268  0.52405  0.16819  1.0000
  O  Te42      1.0  0.88507  0.52267  0.13656  1.0000
  H   H66       1.0  0.93248  0.62982  0.38923  1.0000
  Mg  Mg21      1.0  0.90588  0.49107  0.07679  1.0000
  C   C109      1.0  0.52262  0.02844  0.65797  1.0000
  C   C110      1.0  0.53305  0.00743  0.74040  1.0000
  C  Sn43      1.0  0.99971  0.97963  0.83686  1.0000
  C  Sn44      1.0  0.96316  0.97278  0.85078  1.0000
  C   C111      1.0  0.95299  0.99392  0.76773  1.0000
  C   C112      1.0  0.48657  0.02169  0.67158  1.0000
  H   H67       1.0  0.54248  0.04991  0.58350  1.0000
  O  Te43      1.0  0.01060  0.95891  0.91844  1.0000
  O  Te44      1.0  0.93718  0.94515  0.94631  1.0000
  H   H68       1.0  0.47848  0.03793  0.60768  1.0000
  Mg  Mg22      1.0  0.97807  0.92408  0.03397  1.0000
  C   C113      1.0  0.53804  0.90956  0.66028  1.0000
  C   C114      1.0  0.56327  0.90207  0.72570  1.0000
  C  Sn45      1.0  0.59116  0.92792  0.81263  1.0000
  C  Sn46      1.0  0.59377  0.96187  0.83431  1.0000
  C   C115      1.0  0.56838  0.96909  0.76848  1.0000
  C   C116      1.0  0.54059  0.94304  0.68166  1.0000
  H   H69       1.0  0.51652  0.88940  0.59318  1.0000
  O  Te45      1.0  0.61614  0.91999  0.87713  1.0000
  O  Te46      1.0  0.62137  0.98819  0.92072  1.0000
  H   H70       1.0  0.52105  0.94884  0.63111  1.0000
  Mg  Mg23      1.0  0.64891  0.96464  0.98542  1.0000
  C   C117      1.0  0.46157  0.07160  0.83357  1.0000
  C   C118      1.0  0.43548  0.03745  0.79194  1.0000
  C  Sn47      1.0  0.40470  0.03221  0.71636  1.0000
  C  Sn48      1.0  0.40002  0.06175  0.68195  1.0000
  C   C119      1.0  0.42629  0.09581  0.72399  1.0000
  C   C120      1.0  0.45699  0.10076  0.79962  1.0000
  H   H71       1.0  0.48534  0.07544  0.89201  1.0000
  O  Te47      1.0  0.87098  0.99791  0.67564  1.0000
  O  Te48      1.0  0.36951  0.05727  0.60646  1.0000
  H   H72       1.0  0.47719  0.12721  0.83175  1.0000
  Mg  Mg24      1.0  0.34190  0.00535  0.57444  1.0000
  C   C121      1.0  0.35666  0.95527  0.87144  1.0000
  C   C122      1.0  0.39114  0.96420  0.80340  1.0000
  C  Sn49      1.0  0.39663  0.93964  0.70947  1.0000
  C  Sn50      1.0  0.36699  0.90552  0.68336  1.0000
  C   C123      1.0  0.33260  0.89685  0.75187  1.0000
  C   C124      1.0  0.32741  0.92163  0.84570  1.0000
  H   H73       1.0  0.35263  0.97444  0.94397  1.0000
  O  Te49      1.0  0.43125  0.94899  0.64243  1.0000
  O  Te50      1.0  0.37172  0.88047  0.58994  1.0000
  H   H74       1.0  0.30071  0.91471  0.89828  1.0000
  Mg  Mg25      1.0  0.42405  0.90573  0.52421  1.0000
  C   C125      1.0  0.60860  0.07198  0.82960  1.0000
  C   C126      1.0  0.59947  0.04022  0.74824  1.0000
  C  Sn51      1.0  0.62595  0.03588  0.65657  1.0000
  C  Sn52      1.0  0.66223  0.06391  0.64643  1.0000
  C   C127      1.0  0.67109  0.09558  0.72836  1.0000
  C   C128      1.0  0.64437  0.09964  0.81971  1.0000
  H   H75       1.0  0.58793  0.07512  0.90034  1.0000
  O  Te51      1.0  0.61636  0.00397  0.57600  1.0000
  O  Te52      1.0  0.68924  0.06028  0.55571  1.0000
  H   H76       1.0  0.65145  0.12423  0.88277  1.0000
  Mg  Mg26      1.0  0.66279  0.01175  0.46761  1.0000
  C   C129      1.0  0.47509  0.50485  0.65868  1.0000
  C   C130      1.0  0.46855  0.47204  0.71566  1.0000
  C  Sn53      1.0  0.49438  0.46953  0.80270  1.0000
  C  Sn54      1.0  0.52735  0.50050  0.83310  1.0000
  C   C131      1.0  0.53363  0.53321  0.77567  1.0000
  C   C132      1.0  0.50760  0.53541  0.68866  1.0000
  H   H77       1.0  0.45495  0.50657  0.59143  1.0000
  O  Te53      1.0  0.48741  0.43653  0.85870  1.0000
  O  Te54      1.0  0.55363  0.49875  0.91982  1.0000
  H   H78       1.0  0.51266  0.56083  0.64465  1.0000
  Mg  Mg27      1.0  0.53160  0.44771  0.97106  1.0000
  C   C133      1.0  0.39171  0.46230  0.84324  1.0000
  C   C134      1.0  0.40076  0.43703  0.77936  1.0000
  C  Sn55      1.0  0.37498  0.40700  0.70254  1.0000
  C  Sn56      1.0  0.33951  0.40227  0.68959  1.0000
  C   C135      1.0  0.33074  0.42772  0.75380  1.0000
  C   C136      1.0  0.35674  0.45766  0.83046  1.0000
  H   H79       1.0  0.41183  0.48548  0.90248  1.0000
  O  Te55      1.0  0.38448  0.38200  0.63944  1.0000
  O  Te56      1.0  0.31323  0.37251  0.61338  1.0000
  H   H80       1.0  0.34973  0.47724  0.87982  1.0000
  Mg  Mg28      1.0  0.33922  0.34585  0.54656  1.0000
  C   C137      1.0  0.62626  0.53758  0.64034  1.0000
  C   C138      1.0  0.65879  0.56217  0.70464  1.0000
  C  Sn57      1.0  0.65995  0.58942  0.80328  1.0000
  C  Sn58      1.0  0.62790  0.59202  0.83801  1.0000
  C   C139      1.0  0.59549  0.56727  0.77318  1.0000
  C   C140      1.0  0.59463  0.54012  0.67458  1.0000
  H   H81       1.0  0.62559  0.51656  0.56411  1.0000
  O  Te57      1.0  0.69268  0.61377  0.86648  1.0000
  O  Te58      1.0  0.62829  0.61898  0.93628  1.0000
  H   H82       1.0  0.56944  0.52107  0.62489  1.0000
  Mg  Mg29      1.0  0.67948  0.64581  0.99394  1.0000
  C   C141      1.0  0.20301  0.39623  0.61367  1.0000
  C   C142      1.0  0.23648  0.41663  0.68051  1.0000
  C  Sn59      1.0  0.24086  0.44281  0.79315  1.0000
  C  Sn60      1.0  0.21114  0.44860  0.83952  1.0000
  C   C143      1.0  0.17776  0.42803  0.77204  1.0000
  C   C144      1.0  0.17368  0.40192  0.65939  1.0000
  H   H83       1.0  0.19984  0.37602  0.52658  1.0000
  O  Te59      1.0  0.27449  0.46296  0.85869  1.0000
  O  Te60      1.0  0.21477  0.47457  0.95188  1.0000
  H   H84       1.0  0.14776  0.38611  0.60774  1.0000
  Mg  Mg30      1.0  0.27883  0.49499  0.00728  1.0000
  C   C145      1.0  0.76281  0.54968  0.64881  1.0000
  C   C146      1.0  0.75460  0.56902  0.76546  1.0000
  C  Sn61      1.0  0.78083  0.59129  0.86931  1.0000
  C  Sn62      1.0  0.81591  0.59421  0.85581  1.0000
  C   C147      1.0  0.82386  0.57478  0.73864  1.0000
  C   C148      1.0  0.79740  0.55255  0.63537  1.0000
  H   H85       1.0  0.74235  0.53250  0.56885  1.0000
  O  Te61      1.0  0.77217  0.61042  0.98522  1.0000
  O  Te62      1.0  0.84264  0.61629  0.95801  1.0000
  H   H86       1.0  0.80378  0.53760  0.54500  1.0000
  Mg  Mg31      1.0  0.83060  0.63674  0.09670  1.0000
  C   C149      1.0  0.58978  0.65484  0.68365  1.0000
  C   C150      1.0  0.56040  0.65953  0.73959  1.0000
  C  Sn63      1.0  0.53039  0.63211  0.82009  1.0000
  C  Sn64      1.0  0.52987  0.59943  0.84490  1.0000
  C   C151      1.0  0.55941  0.59500  0.78857  1.0000
  C   C152      1.0  0.58930  0.62261  0.70813  1.0000
  H   H87       1.0  0.61292  0.67620  0.62149  1.0000
  O  Te63      1.0  0.50126  0.63724  0.87514  1.0000
  O  Te64      1.0  0.50022  0.57159  0.92503  1.0000
  H   H88       1.0  0.61205  0.61898  0.66492  1.0000
  Mg  Mg32      1.0  0.46704  0.59139  0.97757  1.0000
  C   C153      1.0  0.41364  0.34537  0.84835  1.0000
  C   C154      1.0  0.43859  0.33789  0.76146  1.0000
  C  Sn65      1.0  0.46598  0.36365  0.66269  1.0000
  C  Sn66      1.0  0.46837  0.39752  0.65097  1.0000
  C   C155      1.0  0.44329  0.40476  0.73847  1.0000
  C   C156      1.0  0.41598  0.37878  0.83691  1.0000
  H   H89       1.0  0.39252  0.32528  0.92459  1.0000
  O  Te65      1.0  0.49068  0.35572  0.57666  1.0000
  O  Te66      1.0  0.49548  0.42376  0.55320  1.0000
  H   H90       1.0  0.39668  0.38459  0.90425  1.0000
  Mg  Mg33      1.0  0.52278  0.40024  0.45950  1.0000
  C   C157      1.0  0.59081  0.80874  0.83307  1.0000
  C   C158      1.0  0.56707  0.81277  0.73762  1.0000
  C  Sn67      1.0  0.54142  0.78378  0.65481  1.0000
  C  Sn68      1.0  0.53955  0.75017  0.66807  1.0000
  C   C159      1.0  0.56340  0.74641  0.76396  1.0000
  C   C160      1.0  0.58898  0.77559  0.84627  1.0000
  H   H91       1.0  0.61058  0.83131  0.89683  1.0000
  O  Te67      1.0  0.51792  0.78828  0.55993  1.0000
  O  Te68      1.0  0.51416  0.72075  0.58665  1.0000
  H   H92       1.0  0.60734  0.77245  0.92024  1.0000
  Mg  Mg34      1.0  0.48801  0.74023  0.47216  1.0000
  C   C161      1.0  0.47055  0.22924  0.83859  1.0000
  C   C162      1.0  0.44663  0.19414  0.79922  1.0000
  C  Sn69      1.0  0.41539  0.18600  0.72003  1.0000
  C  Sn70      1.0  0.40803  0.21356  0.67962  1.0000
  C   C163      1.0  0.43214  0.24858  0.71942  1.0000
  C   C164      1.0  0.46332  0.25644  0.79872  1.0000
  H   H93       1.0  0.49468  0.23532  0.89986  1.0000
  O  Te69      1.0  0.39178  0.15079  0.68164  1.0000
  O  Te70      1.0  0.37701  0.20616  0.60041  1.0000
  H   H94       1.0  0.48185  0.28362  0.82909  1.0000
  Mg  Mg35      1.0  0.35306  0.15404  0.57363  1.0000
  C   C165      1.0  0.96791  0.49477  0.85265  1.0000
  C   C166      1.0  0.99490  0.52654  0.78524  1.0000
  C  Sn71      1.0  0.02239  0.52676  0.68205  1.0000
  C  Sn72      1.0  0.02279  0.49453  0.64587  1.0000
  C   C167      1.0  0.99565  0.46289  0.71383  1.0000
  C   C168      1.0  0.96828  0.46297  0.81698  1.0000
  H   H95       1.0  0.94671  0.49483  0.93239  1.0000
  O  Te71      1.0  0.04916  0.55874  0.61579  1.0000
  O  Te72      1.0  0.04995  0.49399  0.54307  1.0000
  H   H96       1.0  0.94737  0.43837  0.86907  1.0000
  Mg  Mg36      1.0  0.08047  0.54439  0.48252  1.0000
  C   C169      1.0  0.09804  0.61730  0.82035  1.0000
  C   C170      1.0  0.10906  0.64981  0.74648  1.0000
  C  Sn73      1.0  0.08358  0.65696  0.68139  1.0000
  C  Sn74      1.0  0.04638  0.63103  0.69064  1.0000
  C   C171      1.0  0.03563  0.59859  0.76489  1.0000
  C   C172      1.0  0.06136  0.59171  0.82958  1.0000
  H   H97       1.0  0.11794  0.61197  0.87048  1.0000
  O  Te73      1.0  0.09506  0.68958  0.60796  1.0000
  O  Te74      1.0  0.02034  0.63749  0.62663  1.0000
  H   H98       1.0  0.05281  0.56654  0.88686  1.0000
  Mg  Mg37      1.0  0.04935  0.68594  0.53845  1.0000
  C   C173      1.0  0.90058  0.38071  0.66037  1.0000
  C   C174      1.0  0.88954  0.34679  0.71880  1.0000
  C  Sn75      1.0  0.91397  0.33960  0.79355  1.0000
  C  Sn76      1.0  0.95010  0.36695  0.80998  1.0000
  C   C175      1.0  0.96087  0.40080  0.75123  1.0000
  C   C176      1.0  0.93620  0.40770  0.67658  1.0000
  H   H99       1.0  0.88150  0.38605  0.60269  1.0000
  O  Te75      1.0  0.90250  0.30556  0.85119  1.0000
  O  Te76      1.0  0.97507  0.36050  0.88425  1.0000
  H   H100      1.0  0.94475  0.43397  0.63145  1.0000
  Mg  Mg38      1.0  0.94653  0.30981  0.94332  1.0000
  C   C177      1.0  0.24466  0.76581  0.65633  1.0000
  C   C178      1.0  0.25514  0.80147  0.68637  1.0000
  C  Sn77      1.0  0.23009  0.81129  0.75403  1.0000
  C  Sn78      1.0  0.19388  0.78485  0.79223  1.0000
  C   C179      1.0  0.18367  0.74924  0.76181  1.0000
  C   C180      1.0  0.20896  0.73972  0.69402  1.0000
  H   H101      1.0  0.26423  0.75844  0.60396  1.0000
  O  Te77      1.0  0.24101  0.84704  0.78320  1.0000
  O  Te78      1.0  0.16829  0.79392  0.85999  1.0000
  H   H102      1.0  0.20085  0.71210  0.67087  1.0000
  Mg  Mg39      1.0  0.19624  0.84618  0.87715  1.0000
  C   C181      1.0  0.75713  0.22769  0.86052  1.0000
  C   C182      1.0  0.74565  0.19406  0.79387  1.0000
  C  Sn79      1.0  0.77006  0.18669  0.70166  1.0000
  C  Sn80      1.0  0.80661  0.21354  0.67594  1.0000
  C   C183      1.0  0.81782  0.24710  0.74322  1.0000
  C   C184      1.0  0.79318  0.25419  0.83526  1.0000
  H   H103      1.0  0.73806  0.23318  0.93180  1.0000
  O  Te79      1.0  0.75814  0.15295  0.63591  1.0000
  O  Te80      1.0  0.83156  0.20689  0.58432  1.0000
  H   H104      1.0  0.80207  0.28023  0.88693  1.0000
  Mg  Mg40      1.0  0.80233  0.15676  0.51984  1.0000
  C   C185      1.0  0.08401  0.45555  0.78752  1.0000
  C   C186      1.0  0.09007  0.42860  0.72065  1.0000
  C  Sn81      1.0  0.06267  0.40022  0.64185  1.0000
  C  Sn82      1.0  0.02860  0.39889  0.62993  1.0000
  C   C187      1.0  0.02281  0.42601  0.69714  1.0000
  C   C188      1.0  0.05042  0.45427  0.77577  1.0000
  H   H105      1.0  0.10537  0.47743  0.84829  1.0000
  O  Te81      1.0  0.06918  0.37350  0.57576  1.0000
  O  Te82      1.0  0.00075  0.37085  0.55178  1.0000
  H   H106      1.0  0.04572  0.47515  0.82745  1.0000
  Mg  Mg41      1.0  0.02272  0.34077  0.48110  1.0000
  C   C189      1.0  0.91704  0.54694  0.67353  1.0000
  C   C190      1.0  0.90761  0.56850  0.77095  1.0000
  C  Sn83      1.0  0.93276  0.59361  0.87105  1.0000
  C  Sn84      1.0  0.96800  0.59714  0.87336  1.0000
  C   C191      1.0  0.97718  0.57546  0.77535  1.0000
  C   C192      1.0  0.95179  0.55042  0.67568  1.0000
  H   H107      1.0  0.89741  0.52757  0.59634  1.0000
  O  Te83      1.0  0.92289  0.61492  0.96766  1.0000
  O  Te84      1.0  0.99367  0.62203  0.97222  1.0000
  H   H108      1.0  0.95911  0.53374  0.60019  1.0000
  Mg  Mg42      1.0  0.98017  0.64473  0.08206  1.0000
