data_image0
_chemical_formula_structural       H54C90N18C2Sn2C2HTe2HMgC2Sn2C2HTe2HMgC2Sn2C2HTe2HMgC2Sn2C2HTe2HMgC2Sn2C2HTe2HMgC2Sn2C2HTe2HMgC2Sn2C2HTe2HMgC2Sn2C2HTe2HMgC2Sn2C2HTe2HMgC2Sn2C2HTe2HMgC2Sn2C2HTe2HMgC2Sn2C2HTe2HMgC2Sn2C2HTe2HMgC2Sn2C2HTe2HMgC2Sn2C2HTe2HMgC2Sn2C2HTe2HMgC2Sn2C2HTe2HMgC2Sn2C2HTe2HMgC2Sn2C2HTe2HMgC2Sn2C2HTe2HMgC2Sn2C2HTe2HMgC2Sn2C2HTe2HMgC2Sn2C2HTe2HMgC2Sn2C2HTe2HMgC2Sn2C2HTe2HMgC2Sn2C2HTe2HMgC2Sn2C2HTe2HMgC2Sn2C2HTe2HMgC2Sn2C2HTe2HMgC2Sn2C2HTe2HMg
_chemical_formula_sum              "H114 C210 N18 Sn60 Te60 Mg30"
_cell_length_a       40.3551
_cell_length_b       40.5258
_cell_length_c       7.93251
_cell_angle_alpha    92.1088
_cell_angle_beta     90.0858
_cell_angle_gamma    120.125

_symmetry_space_group_name_H-M    'P1'
_space_group_IT_number       1

loop_
  _space_group_symop_operation_xyz
  'x, y, z'

loop_
  _atom_site_type_symbol
  _atom_site_label
  _atom_site_symmetry_multiplicity
  _atom_site_fract_x
  _atom_site_fract_y
  _atom_site_fract_z
  _atom_site_occupancy
  H   H1        1.0  0.97412  0.64488  0.15178  1.0000
  H   H2        1.0  0.35895  0.33073  0.16096  1.0000
  H   H3        1.0  0.67261  0.02893  0.14208  1.0000
  H   H4        1.0  0.09457  0.71301  0.05573  1.0000
  H   H5        1.0  0.29125  0.38320  0.06413  1.0000
  H   H6        1.0  0.61667  0.90696  0.05640  1.0000
  H   H7        1.0  0.02722  0.76703  0.12023  1.0000
  H   H8        1.0  0.23603  0.26198  0.10944  1.0000
  H   H9        1.0  0.73926  0.97347  0.07533  1.0000
  H   H10       1.0  0.09461  0.80554  0.05814  1.0000
  H   H11       1.0  0.19711  0.29184  0.05950  1.0000
  H   H12       1.0  0.70893  0.90567  0.02521  1.0000
  H   H13       1.0  0.82179  0.66235  0.20382  1.0000
  H   H14       1.0  0.34073  0.16222  0.20016  1.0000
  H   H15       1.0  0.84221  0.17927  0.17891  1.0000
  H   H16       1.0  0.23989  0.95970  0.43920  1.0000
  H   H17       1.0  0.03810  0.27940  0.46253  1.0000
  H   H18       1.0  0.71944  0.75681  0.46007  1.0000
  H   H19       1.0  0.30611  0.90400  0.38414  1.0000
  H   H20       1.0  0.09402  0.40014  0.39790  1.0000
  H   H21       1.0  0.59691  0.69028  0.40403  1.0000
  H   H22       1.0  0.36290  0.02545  0.47874  1.0000
  H   H23       1.0  0.97290  0.33699  0.47808  1.0000
  H   H24       1.0  0.66179  0.63447  0.48296  1.0000
  H   H25       1.0  0.46986  0.93288  0.19310  1.0000
  H   H26       1.0  0.06381  0.53709  0.19314  1.0000
  H   H27       1.0  0.46328  0.53299  0.18066  1.0000
  H   H28       1.0  0.97903  0.64655  0.66853  1.0000
  H   H29       1.0  0.35358  0.33204  0.66426  1.0000
  H   H30       1.0  0.66686  0.02047  0.65475  1.0000
  H   H31       1.0  0.09864  0.71399  0.55426  1.0000
  H   H32       1.0  0.28486  0.38326  0.56336  1.0000
  H   H33       1.0  0.61320  0.89888  0.56321  1.0000
  H   H34       1.0  0.03096  0.76784  0.61671  1.0000
  H   H35       1.0  0.23085  0.26219  0.61132  1.0000
  H   H36       1.0  0.73579  0.96786  0.57563  1.0000
  H   H37       1.0  0.09729  0.80626  0.55014  1.0000
  H   H38       1.0  0.19167  0.29092  0.55845  1.0000
  H   H39       1.0  0.70662  0.89967  0.54153  1.0000
  H   H40       1.0  0.82574  0.66104  0.71025  1.0000
  H   H41       1.0  0.33912  0.16500  0.69546  1.0000
  H   H42       1.0  0.83315  0.17412  0.67495  1.0000
  H   H43       1.0  0.23775  0.95659  0.94935  1.0000
  H   H44       1.0  0.04748  0.28462  0.97811  1.0000
  H   H45       1.0  0.71862  0.76253  0.96725  1.0000
  H   H46       1.0  0.30251  0.89944  0.88664  1.0000
  H   H47       1.0  0.10147  0.40496  0.90781  1.0000
  H   H48       1.0  0.59639  0.69526  0.89793  1.0000
  H   H49       1.0  0.36086  0.02110  0.97566  1.0000
  H   H50       1.0  0.98053  0.34022  0.99598  1.0000
  H   H51       1.0  0.66171  0.64050  0.99506  1.0000
  H   H52       1.0  0.46695  0.93152  0.69003  1.0000
  H   H53       1.0  0.07467  0.54164  0.66755  1.0000
  H   H54       1.0  0.46323  0.53210  0.70050  1.0000
  C   C1        1.0  0.99558  0.70553  0.14081  1.0000
  C   C2        1.0  0.29784  0.29192  0.13798  1.0000
  C   C3        1.0  0.71041  0.00605  0.11243  1.0000
  C   C4        1.0  0.03462  0.67482  0.10802  1.0000
  C   C5        1.0  0.32931  0.36143  0.11634  1.0000
  C   C6        1.0  0.64006  0.96778  0.10450  1.0000
  C   C7        1.0  0.99922  0.67278  0.13507  1.0000
  C   C8        1.0  0.33107  0.32816  0.14079  1.0000
  C   C9        1.0  0.67427  0.00311  0.12208  1.0000
  C   C10       1.0  0.06682  0.71025  0.08094  1.0000
  C   C11       1.0  0.29366  0.35821  0.08764  1.0000
  C   C12       1.0  0.64237  0.93480  0.07426  1.0000
  C   C13       1.0  0.06388  0.74332  0.08117  1.0000
  C   C14       1.0  0.26001  0.32244  0.08340  1.0000
  C   C15       1.0  0.67802  0.93688  0.06090  1.0000
  C   C16       1.0  0.02868  0.74091  0.11480  1.0000
  C   C17       1.0  0.26228  0.28963  0.11003  1.0000
  C   C18       1.0  0.71177  0.97234  0.08247  1.0000
  C   C19       1.0  0.09747  0.77994  0.04422  1.0000
  C   C20       1.0  0.22311  0.32001  0.05057  1.0000
  C   C21       1.0  0.68010  0.90231  0.02473  1.0000
  C   C22       1.0  0.84577  0.69047  0.17220  1.0000
  C   C23       1.0  0.31300  0.15796  0.15434  1.0000
  C   C24       1.0  0.84602  0.15538  0.13387  1.0000
  C   C25       1.0  0.26757  0.96125  0.43412  1.0000
  C   C26       1.0  0.03647  0.30522  0.45143  1.0000
  C   C27       1.0  0.69315  0.72923  0.45237  1.0000
  C   C28       1.0  0.26873  0.92732  0.41298  1.0000
  C   C29       1.0  0.07042  0.33983  0.42948  1.0000
  C   C30       1.0  0.65799  0.72785  0.43044  1.0000
  C   C31       1.0  0.30467  0.92990  0.40573  1.0000
  C   C32       1.0  0.06820  0.37312  0.41930  1.0000
  C   C33       1.0  0.62444  0.69202  0.42277  1.0000
  C   C34       1.0  0.33885  0.96504  0.42780  1.0000
  C   C35       1.0  0.03331  0.37245  0.43600  1.0000
  C   C36       1.0  0.62532  0.65814  0.43906  1.0000
  C   C37       1.0  0.33669  0.99839  0.45229  1.0000
  C   C38       1.0  0.99976  0.33741  0.45770  1.0000
  C   C39       1.0  0.66093  0.66043  0.46230  1.0000
  C   C40       1.0  0.30118  0.99698  0.45638  1.0000
  C   C41       1.0  0.00091  0.30343  0.46719  1.0000
  C   C42       1.0  0.69513  0.69593  0.47235  1.0000
  C   C43       1.0  0.49017  0.95241  0.10221  1.0000
  C   C44       1.0  0.04653  0.53885  0.09027  1.0000
  C   C45       1.0  0.46258  0.51110  0.09214  1.0000
  C   C46       1.0  0.99995  0.70662  0.64468  1.0000
  C   C47       1.0  0.29277  0.29266  0.63871  1.0000
  C   C48       1.0  0.70588  0.99928  0.61713  1.0000
  C   C49       1.0  0.03926  0.67614  0.61679  1.0000
  C   C50       1.0  0.32360  0.36235  0.62011  1.0000
  C   C51       1.0  0.63563  0.95955  0.61319  1.0000
  C   C52       1.0  0.00397  0.67419  0.64615  1.0000
  C   C53       1.0  0.32558  0.32914  0.64321  1.0000
  C   C54       1.0  0.66940  0.99525  0.63081  1.0000
  C   C55       1.0  0.07110  0.71144  0.58277  1.0000
  C   C56       1.0  0.28781  0.35862  0.58801  1.0000
  C   C57       1.0  0.63858  0.92701  0.58057  1.0000
  C   C58       1.0  0.06796  0.74440  0.57983  1.0000
  C   C59       1.0  0.25443  0.32254  0.58304  1.0000
  C   C60       1.0  0.67471  0.93010  0.56577  1.0000
  C   C61       1.0  0.03273  0.74189  0.61436  1.0000
  C   C62       1.0  0.25699  0.28993  0.61118  1.0000
  C   C63       1.0  0.70800  0.96601  0.58546  1.0000
  C   C64       1.0  0.10106  0.78117  0.53895  1.0000
  C   C65       1.0  0.21729  0.31929  0.54688  1.0000
  C   C66       1.0  0.67772  0.89599  0.53088  1.0000
  C   C67       1.0  0.84891  0.68861  0.66806  1.0000
  C   C68       1.0  0.31133  0.16041  0.64878  1.0000
  C   C69       1.0  0.83834  0.15088  0.63352  1.0000
  C   C70       1.0  0.26522  0.95780  0.94007  1.0000
  C   C71       1.0  0.04514  0.31004  0.96666  1.0000
  C   C72       1.0  0.69251  0.73480  0.95803  1.0000
  C   C73       1.0  0.26583  0.92362  0.91807  1.0000
  C   C74       1.0  0.07862  0.34496  0.94321  1.0000
  C   C75       1.0  0.65727  0.73306  0.93298  1.0000
  C   C76       1.0  0.30147  0.92556  0.90849  1.0000
  C   C77       1.0  0.07582  0.37793  0.93148  1.0000
  C   C78       1.0  0.62381  0.69711  0.92244  1.0000
  C   C79       1.0  0.33589  0.96050  0.92757  1.0000
  C   C80       1.0  0.04054  0.37659  0.94905  1.0000
  C   C81       1.0  0.62499  0.66344  0.94227  1.0000
  C   C82       1.0  0.33435  0.99419  0.95125  1.0000
  C   C83       1.0  0.00758  0.34116  0.97394  1.0000
  C   C84       1.0  0.66063  0.66617  0.96999  1.0000
  C   C85       1.0  0.29916  0.99329  0.95876  1.0000
  C   C86       1.0  0.00927  0.30745  0.98258  1.0000
  C   C87       1.0  0.69464  0.70167  0.97921  1.0000
  C   C88       1.0  0.48884  0.95098  0.60433  1.0000
  C   C89       1.0  0.05172  0.54047  0.58811  1.0000
  C   C90       1.0  0.46060  0.51001  0.60809  1.0000
  N   N1        1.0  0.84031  0.71775  0.12856  1.0000
  N   N2        1.0  0.28604  0.12529  0.09559  1.0000
  N   N3        1.0  0.87872  0.16088  0.08345  1.0000
  N   N4        1.0  0.12898  0.78165  0.99955  1.0000
  N   N5        1.0  0.22148  0.34998  0.01557  1.0000
  N   N6        1.0  0.64963  0.86951  0.99736  1.0000
  N   N7        1.0  0.48134  0.96997  0.99376  1.0000
  N   N8        1.0  0.02970  0.51214  0.97387  1.0000
  N   N9        1.0  0.48929  0.51809  0.98531  1.0000
  N   N10       1.0  0.84233  0.71462  0.61608  1.0000
  N   N11       1.0  0.28485  0.12751  0.58956  1.0000
  N   N12       1.0  0.87142  0.15752  0.58361  1.0000
  N   N13       1.0  0.13302  0.78383  0.49507  1.0000
  N   N14       1.0  0.21499  0.34865  0.50728  1.0000
  N   N15       1.0  0.64786  0.86316  0.49580  1.0000
  N   N16       1.0  0.48259  0.97072  0.49721  1.0000
  N   N17       1.0  0.02971  0.51161  0.48807  1.0000
  N   N18       1.0  0.48587  0.51606  0.49489  1.0000
  C   C91       1.0  0.91713  0.66610  0.25545  1.0000
  C   C92       1.0  0.95022  0.69380  0.17954  1.0000
  C  Sn1       1.0  0.95046  0.72457  0.10447  1.0000
  C  Sn2       1.0  0.91692  0.72759  0.10566  1.0000
  C   C93       1.0  0.88398  0.69974  0.18203  1.0000
  C   C94       1.0  0.88405  0.66906  0.25674  1.0000
  H   H55       1.0  0.91719  0.64237  0.31334  1.0000
  O  Te1       1.0  0.98375  0.75199  0.02913  1.0000
  O  Te2       1.0  0.91638  0.75806  0.03160  1.0000
  H   H56       1.0  0.85844  0.64763  0.31560  1.0000
  Mg  Mg1       1.0  0.97409  0.79803  0.94466  1.0000
  C   C95       1.0  0.26976  0.21233  0.05882  1.0000
  C   C96       1.0  0.29174  0.24794  0.14250  1.0000
  C  Sn3       1.0  0.32415  0.25577  0.23838  1.0000
  C  Sn4       1.0  0.33467  0.22737  0.25044  1.0000
  C   C97       1.0  0.31251  0.19184  0.16615  1.0000
  C   C98       1.0  0.28013  0.18431  0.07059  1.0000
  H   H57       1.0  0.24997  0.21633  0.98481  1.0000
  O  Te3       1.0  0.34578  0.29149  0.32123  1.0000
  O  Te4       1.0  0.36693  0.23444  0.34536  1.0000
  H   H58       1.0  0.26313  0.15674  0.00573  1.0000
  Mg  Mg2       1.0  0.38725  0.28750  0.43527  1.0000
  C   C99       1.0  0.80770  0.07546  0.04029  1.0000
  C   C100      1.0  0.81313  0.10994  0.11135  1.0000
  C  Sn5       1.0  0.78385  0.11087  0.20133  1.0000
  C  Sn6       1.0  0.74852  0.07659  0.22035  1.0000
  C   C101      1.0  0.74338  0.04223  0.14888  1.0000
  C   C102      1.0  0.77287  0.04163  0.05905  1.0000
  H   H59       1.0  0.83576  0.08481  0.97086  1.0000
  O  Te5       1.0  0.78974  0.14556  0.27145  1.0000
  O  Te6       1.0  0.71878  0.07670  0.30971  1.0000
  H   H60       1.0  0.76867  0.01493  0.00414  1.0000
  Mg  Mg3       1.0  0.74058  0.13109  0.38200  1.0000
  C   C103      1.0  0.78996  0.74001  0.64568  1.0000
  C   C104      1.0  0.80334  0.71475  0.61017  1.0000
  C  Sn7       1.0  0.78032  0.68045  0.51845  1.0000
  C  Sn8       1.0  0.74323  0.67136  0.46135  1.0000
  C   C105      1.0  0.73011  0.69683  0.49743  1.0000
  C   C106      1.0  0.75339  0.73107  0.58936  1.0000
  H   H61       1.0  0.80797  0.76651  0.71673  1.0000
  O  Te7       1.0  0.79413  0.65553  0.48413  1.0000
  O  Te8       1.0  0.71963  0.63728  0.36937  1.0000
  H   H62       1.0  0.74303  0.75063  0.61674  1.0000
  Mg  Mg4       1.0  0.75126  0.61257  0.35437  1.0000
  C   C107      1.0  0.32971  0.07805  0.43436  1.0000
  C   C108      1.0  0.30702  0.04083  0.48743  1.0000
  C  Sn9       1.0  0.27425  0.03109  0.58064  1.0000
  C  Sn10      1.0  0.26408  0.05921  0.62125  1.0000
  C   C109      1.0  0.28696  0.09636  0.56747  1.0000
  C   C110      1.0  0.31970  0.10580  0.47430  1.0000
  H   H63       1.0  0.35503  0.08535  0.36219  1.0000
  O  Te9       1.0  0.75591  0.99377  0.63272  1.0000
  O  Te10      1.0  0.23147  0.05026  0.71421  1.0000
  H   H64       1.0  0.33725  0.13461  0.43313  1.0000
  Mg  Mg5       1.0  0.71419  0.99548  0.75667  1.0000
  C   C111      1.0  0.91895  0.25088  0.44134  1.0000
  C   C112      1.0  0.95699  0.26604  0.49590  1.0000
  C  Sn11      1.0  0.96783  0.24394  0.58661  1.0000
  C  Sn12      1.0  0.94002  0.20595  0.62314  1.0000
  C   C113      1.0  0.90204  0.19103  0.56790  1.0000
  C   C114      1.0  0.89150  0.21341  0.47727  1.0000
  H   H65       1.0  0.91079  0.26818  0.37114  1.0000
  O  Te11      1.0  0.00596  0.25954  0.64022  1.0000
  O  Te12      1.0  0.95008  0.18322  0.71353  1.0000
  H   H66       1.0  0.86205  0.20165  0.43495  1.0000
  Mg  Mg6       1.0  0.00565  0.21730  0.75948  1.0000
  C   C115      1.0  0.76858  0.74060  0.14720  1.0000
  C   C116      1.0  0.73861  0.71332  0.04323  1.0000
  C  Sn13      1.0  0.74631  0.69284  0.96688  1.0000
  C  Sn14      1.0  0.77942  0.68987  0.99542  1.0000
  C   C117      1.0  0.80399  0.70747  0.09974  1.0000
  C   C118      1.0  0.80124  0.73768  0.17547  1.0000
  H   H67       1.0  0.76645  0.76396  0.20587  1.0000
  O  Te13      1.0  0.71611  0.66584  0.86331  1.0000
  O  Te14      1.0  0.78261  0.65987  0.92073  1.0000
  H   H68       1.0  0.82444  0.75878  0.25605  1.0000
  Mg  Mg7       1.0  0.73388  0.63018  0.78978  1.0000
  C   C119      1.0  0.26197  0.03087  0.11377  1.0000
  C   C120      1.0  0.28874  0.02682  0.01707  1.0000
  C  Sn15      1.0  0.32440  0.06844  0.94608  1.0000
  C  Sn16      1.0  0.32802  0.10493  0.97264  1.0000
  C   C121      1.0  0.29587  0.09887  0.06967  1.0000
  C   C122      1.0  0.26553  0.06686  0.14008  1.0000
  H   H69       1.0  0.23852  0.00611  0.16833  1.0000
  O  Te15      1.0  0.35087  0.06388  0.84975  1.0000
  O  Te16      1.0  0.35815  0.13719  0.90320  1.0000
  H   H70       1.0  0.24483  0.07001  0.21504  1.0000
  Mg  Mg8       1.0  0.38696  0.11641  0.78139  1.0000
  C   C123      1.0  0.92775  0.25473  0.94920  1.0000
  C   C124      1.0  0.96030  0.25959  0.00645  1.0000
  C  Sn17      1.0  0.97062  0.23674  0.09438  1.0000
  C  Sn18      1.0  0.94254  0.19849  0.12533  1.0000
  C   C125      1.0  0.90482  0.18406  0.06742  1.0000
  C   C126      1.0  0.90004  0.21700  0.97961  1.0000
  H   H71       1.0  0.92000  0.27261  0.88117  1.0000
  O  Te17      1.0  0.00850  0.25186  0.15075  1.0000
  O  Te18      1.0  0.95208  0.17502  0.21283  1.0000
  H   H72       1.0  0.87079  0.20562  0.93520  1.0000
  Mg  Mg9       1.0  0.00748  0.20866  0.26433  1.0000
  C   C127      1.0  0.54140  0.92682  0.19805  1.0000
  C   C128      1.0  0.53004  0.95184  0.13971  1.0000
  C  Sn19      1.0  0.55581  0.98419  0.05482  1.0000
  C  Sn20      1.0  0.59364  0.99153  0.02797  1.0000
  C   C129      1.0  0.60471  0.96631  0.08672  1.0000
  C   C130      1.0  0.57869  0.93404  0.17157  1.0000
  H   H73       1.0  0.52126  0.90184  0.26361  1.0000
  O  Te19      1.0  0.04523  0.01872  0.99742  1.0000
  O  Te20      1.0  0.12121  0.03346  0.94345  1.0000
  H   H74       1.0  0.58749  0.91466  0.21662  1.0000
  Mg  Mg10      1.0  0.09155  0.05868  0.88910  1.0000
  C   C131      1.0  0.01344  0.58875  0.99124  1.0000
  C   C132      1.0  0.03661  0.57319  0.06127  1.0000
  C  Sn21      1.0  0.06589  0.60188  0.16330  1.0000
  C  Sn22      1.0  0.06665  0.63693  0.19563  1.0000
  C   C133      1.0  0.03807  0.64237  0.12508  1.0000
  C   C134      1.0  0.00891  0.61347  0.02312  1.0000
  H   H75       1.0  0.99086  0.56638  0.91243  1.0000
  O  Te21      1.0  0.09407  0.59569  0.23221  1.0000
  O  Te22      1.0  0.09558  0.66608  0.29720  1.0000
  H   H76       1.0  0.99214  0.62773  0.96901  1.0000
  Mg  Mg11      1.0  0.12757  0.64405  0.36242  1.0000
  C   C135      1.0  0.40614  0.41143  0.00736  1.0000
  C   C136      1.0  0.37326  0.39936  0.10286  1.0000
  C  Sn23      1.0  0.36775  0.42592  0.19738  1.0000
  C  Sn24      1.0  0.39573  0.46529  0.19598  1.0000
  C   C137      1.0  0.42852  0.47708  0.09994  1.0000
  C   C138      1.0  0.43375  0.45025  0.00586  1.0000
  H   H77       1.0  0.41543  0.40050  0.93450  1.0000
  O  Te23      1.0  0.33474  0.41337  0.29214  1.0000
  O  Te24      1.0  0.39094  0.49245  0.28924  1.0000
  H   H78       1.0  0.46445  0.46943  0.93185  1.0000
  Mg  Mg12      1.0  0.34117  0.46129  0.39854  1.0000
  C   C139      1.0  0.21125  0.83097  0.52458  1.0000
  C   C140      1.0  0.17370  0.81964  0.47409  1.0000
  C  Sn25      1.0  0.16606  0.84401  0.38284  1.0000
  C  Sn26      1.0  0.19663  0.88037  0.34150  1.0000
  C   C141      1.0  0.23409  0.89143  0.39250  1.0000
  C   C142      1.0  0.24142  0.86683  0.48381  1.0000
  H   H79       1.0  0.21692  0.81193  0.59516  1.0000
  O  Te25      1.0  0.12838  0.83224  0.33343  1.0000
  O  Te26      1.0  0.18980  0.90528  0.25036  1.0000
  H   H80       1.0  0.27049  0.87560  0.52279  1.0000
  Mg  Mg13      1.0  0.13357  0.87630  0.21134  1.0000
  C   C143      1.0  0.13873  0.30885  0.36940  1.0000
  C   C144      1.0  0.17294  0.33804  0.44291  1.0000
  C  Sn27      1.0  0.17418  0.37005  0.52183  1.0000
  C  Sn28      1.0  0.14049  0.37279  0.52710  1.0000
  C   C145      1.0  0.10641  0.34342  0.45330  1.0000
  C   C146      1.0  0.10549  0.31152  0.37460  1.0000
  H   H81       1.0  0.13801  0.28416  0.30858  1.0000
  O  Te27      1.0  0.20859  0.39896  0.59459  1.0000
  O  Te28      1.0  0.14092  0.40446  0.60523  1.0000
  H   H82       1.0  0.07899  0.28891  0.31779  1.0000
  Mg  Mg14      1.0  0.19474  0.43645  0.68639  1.0000
  C   C147      1.0  0.61742  0.78574  0.53144  1.0000
  C   C148      1.0  0.64354  0.82250  0.48184  1.0000
  C  Sn29      1.0  0.67627  0.82926  0.39465  1.0000
  C  Sn30      1.0  0.68290  0.79860  0.35655  1.0000
  C   C149      1.0  0.65659  0.76193  0.40661  1.0000
  C   C150      1.0  0.62393  0.75548  0.49385  1.0000
  H   H83       1.0  0.59214  0.78075  0.59885  1.0000
  O  Te29      1.0  0.70208  0.86616  0.34608  1.0000
  O  Te30      1.0  0.71538  0.80456  0.26949  1.0000
  H   H84       1.0  0.60370  0.72702  0.53214  1.0000
  Mg  Mg15      1.0  0.74216  0.85993  0.23006  1.0000
  C   C151      1.0  0.20758  0.82693  0.02206  1.0000
  C   C152      1.0  0.17518  0.82652  0.97885  1.0000
  C  Sn31      1.0  0.16766  0.85190  0.89535  1.0000
  C  Sn32      1.0  0.19845  0.88818  0.85448  1.0000
  C   C153      1.0  0.23601  0.89814  0.89815  1.0000
  C   C154      1.0  0.24322  0.87253  0.98174  1.0000
  H   H85       1.0  0.21317  0.80711  0.08665  1.0000
  O  Te31      1.0  0.12987  0.84122  0.85316  1.0000
  O  Te32      1.0  0.19174  0.91409  0.77100  1.0000
  H   H86       1.0  0.26713  0.87063  0.01508  1.0000
  Mg  Mg16      1.0  0.13529  0.88639  0.74006  1.0000
  C   C155      1.0  0.12707  0.31322  0.85955  1.0000
  C   C156      1.0  0.11631  0.33859  0.92864  1.0000
  C  Sn33      1.0  0.13748  0.36122  0.02368  1.0000
  C  Sn34      1.0  0.17535  0.36835  0.04977  1.0000
  C   C157      1.0  0.19108  0.35263  0.98001  1.0000
  C   C158      1.0  0.16442  0.32023  0.88517  1.0000
  H   H87       1.0  0.10645  0.28816  0.78608  1.0000
  O  Te33      1.0  0.12625  0.38626  0.09186  1.0000
  O  Te34      1.0  0.20232  0.40057  0.14419  1.0000
  H   H88       1.0  0.17277  0.30061  0.83159  1.0000
  Mg  Mg17      1.0  0.17331  0.42625  0.21130  1.0000
  C   C159      1.0  0.61970  0.77441  0.03090  1.0000
  C   C160      1.0  0.65104  0.77700  0.94535  1.0000
  C  Sn35      1.0  0.68238  0.80646  0.86705  1.0000
  C  Sn36      1.0  0.68762  0.84383  0.87477  1.0000
  C   C161      1.0  0.66136  0.85077  0.96077  1.0000
  C   C162      1.0  0.62485  0.81125  0.03864  1.0000
  H   H89       1.0  0.59552  0.75144  0.09123  1.0000
  O  Te35      1.0  0.70818  0.79874  0.78206  1.0000
  O  Te36      1.0  0.71870  0.87380  0.79768  1.0000
  H   H90       1.0  0.60466  0.81687  0.10495  1.0000
  Mg  Mg18      1.0  0.74604  0.84903  0.69689  1.0000
  C   C163      1.0  0.41702  0.99662  0.86579  1.0000
  C   C164      1.0  0.38052  0.96845  0.91224  1.0000
  C  Sn37      1.0  0.37071  0.92787  0.00384  1.0000
  C  Sn38      1.0  0.40335  0.92535  0.04963  1.0000
  C   C165      1.0  0.43974  0.95369  0.00265  1.0000
  C   C166      1.0  0.44922  0.99416  0.91096  1.0000
  H   H91       1.0  0.91629  0.02034  0.79492  1.0000
  O  Te37      1.0  0.33404  0.89997  0.04918  1.0000
  O  Te38      1.0  0.39961  0.89492  0.14121  1.0000
  H   H92       1.0  0.97347  0.01597  0.87510  1.0000
  Mg  Mg19      1.0  0.34365  0.86400  0.17367  1.0000
  C   C167      1.0  0.00116  0.43647  0.87147  1.0000
  C   C168      1.0  0.02589  0.47145  0.95494  1.0000
  C  Sn39      1.0  0.05420  0.46750  0.03464  1.0000
  C  Sn40      1.0  0.06308  0.43775  0.03044  1.0000
  C   C169      1.0  0.04340  0.41270  0.94650  1.0000
  C   C170      1.0  0.00990  0.40712  0.86722  1.0000
  H   H93       1.0  0.97525  0.43215  0.81005  1.0000
  O  Te39      1.0  0.07858  0.50262  0.11752  1.0000
  O  Te40      1.0  0.09642  0.44287  0.10900  1.0000
  H   H94       1.0  0.99077  0.38004  0.80251  1.0000
  Mg  Mg20      1.0  0.12060  0.49581  0.20587  1.0000
  C   C171      1.0  0.52858  0.59922  0.04774  1.0000
  C   C172      1.0  0.52475  0.57322  0.97832  1.0000
  C  Sn41      1.0  0.55257  0.56832  0.89500  1.0000
  C  Sn42      1.0  0.59013  0.59994  0.88116  1.0000
  C   C173      1.0  0.59893  0.63566  0.95114  1.0000
  C   C174      1.0  0.56563  0.63042  0.03421  1.0000
  H   H95       1.0  0.50688  0.60277  0.11210  1.0000
  O  Te41      1.0  0.54302  0.53233  0.82631  1.0000
  O  Te42      1.0  0.61849  0.59584  0.79860  1.0000
  H   H96       1.0  0.57267  0.65816  0.08804  1.0000
  Mg  Mg21      1.0  0.59153  0.54110  0.72569  1.0000
  C   C175      1.0  0.42084  0.00183  0.37844  1.0000
  C   C176      1.0  0.38377  0.97321  0.41532  1.0000
  C  Sn43      1.0  0.37794  0.94061  0.49521  1.0000
  C  Sn44      1.0  0.40986  0.93668  0.53887  1.0000
  C   C177      1.0  0.44683  0.96549  0.50154  1.0000
  C   C178      1.0  0.45234  0.99798  0.42152  1.0000
  H   H97       1.0  0.92110  0.02698  0.31661  1.0000
  O  Te43      1.0  0.34072  0.91228  0.53108  1.0000
  O  Te44      1.0  0.40485  0.90440  0.61884  1.0000
  H   H98       1.0  0.97703  0.02015  0.39308  1.0000
  Mg  Mg22      1.0  0.34856  0.87358  0.64135  1.0000
  C   C179      1.0  0.06688  0.45044  0.55514  1.0000
  C   C180      1.0  0.04003  0.41605  0.47332  1.0000
  C  Sn45      1.0  0.00947  0.41386  0.38066  1.0000
  C  Sn46      1.0  0.00580  0.44676  0.36991  1.0000
  C   C181      1.0  0.03282  0.48103  0.45213  1.0000
  C   C182      1.0  0.06329  0.48291  0.54455  1.0000
  H   H99       1.0  0.09047  0.45190  0.62658  1.0000
  O  Te45      1.0  0.98290  0.37928  0.29974  1.0000
  O  Te46      1.0  0.97554  0.44537  0.27810  1.0000
  H   H100      1.0  0.08408  0.50954  0.60780  1.0000
  Mg  Mg23      1.0  0.94662  0.39170  0.18991  1.0000
  C   C183      1.0  0.54799  0.61567  0.54960  1.0000
  C   C184      1.0  0.58171  0.62167  0.47378  1.0000
  C  Sn47      1.0  0.58286  0.59154  0.38801  1.0000
  C  Sn48      1.0  0.54959  0.55475  0.37814  1.0000
  C   C185      1.0  0.51600  0.54904  0.45432  1.0000
  C   C186      1.0  0.51516  0.57939  0.53987  1.0000
  H   H101      1.0  0.54734  0.63915  0.61571  1.0000
  O  Te47      1.0  0.61678  0.59803  0.31303  1.0000
  O  Te48      1.0  0.54995  0.52414  0.29316  1.0000
  H   H102      1.0  0.48905  0.57474  0.59846  1.0000
  Mg  Mg24      1.0  0.60302  0.54725  0.21141  1.0000
  C   C187      1.0  0.94709  0.73249  0.57266  1.0000
  C   C188      1.0  0.96119  0.71157  0.65125  1.0000
  C  Sn49      1.0  0.93672  0.67965  0.74171  1.0000
  C  Sn50      1.0  0.89742  0.66852  0.75345  1.0000
  C   C189      1.0  0.88359  0.68962  0.67428  1.0000
  C   C190      1.0  0.90833  0.72153  0.58412  1.0000
  H   H103      1.0  0.96623  0.75717  0.50283  1.0000
  O  Te49      1.0  0.95128  0.65908  0.81952  1.0000
  O  Te50      1.0  0.87232  0.63673  0.84301  1.0000
  H   H104      1.0  0.89740  0.73771  0.52320  1.0000
  Mg  Mg25      1.0  0.90576  0.61788  0.92727  1.0000
  C   C191      1.0  0.33634  0.23830  0.75071  1.0000
  C   C192      1.0  0.31231  0.20126  0.68395  1.0000
  C  Sn51      1.0  0.27920  0.19260  0.59160  1.0000
  C  Sn52      1.0  0.27007  0.22161  0.56577  1.0000
  C   C193      1.0  0.29432  0.25859  0.63298  1.0000
  C   C194      1.0  0.32737  0.26694  0.72524  1.0000
  H   H105      1.0  0.36192  0.24477  0.82202  1.0000
  O  Te51      1.0  0.25550  0.15544  0.52584  1.0000
  O  Te52      1.0  0.23717  0.21374  0.47391  1.0000
  H   H106      1.0  0.34598  0.29563  0.77682  1.0000
  Mg  Mg26      1.0  0.21387  0.15877  0.40952  1.0000
  C   C195      1.0  0.74481  0.07867  0.73191  1.0000
  C   C196      1.0  0.73938  0.04519  0.64947  1.0000
  C  Sn53      1.0  0.76930  0.04515  0.56117  1.0000
  C  Sn54      1.0  0.80527  0.07930  0.55557  1.0000
  C   C197      1.0  0.81041  0.11264  0.63856  1.0000
  C   C198      1.0  0.78029  0.11236  0.72650  1.0000
  H   H107      1.0  0.72150  0.07845  0.80003  1.0000
  O  Te53      1.0  0.76339  0.01145  0.47945  1.0000
  O  Te54      1.0  0.83566  0.08006  0.46830  1.0000
  H   H108      1.0  0.78450  0.13828  0.79041  1.0000
  Mg  Mg27      1.0  0.81356  0.02687  0.37693  1.0000
  C   C199      1.0  0.56852  0.98935  0.53111  1.0000
  C   C200      1.0  0.53343  0.96080  0.58922  1.0000
  C  Sn55      1.0  0.53139  0.93038  0.67513  1.0000
  C  Sn56      1.0  0.56517  0.92858  0.70325  1.0000
  C   C201      1.0  0.60014  0.95729  0.64472  1.0000
  C   C202      1.0  0.60185  0.98760  0.55885  1.0000
  H   H109      1.0  0.06583  0.01281  0.46475  1.0000
  O  Te55      1.0  0.49610  0.90209  0.73228  1.0000
  O  Te56      1.0  0.56396  0.89850  0.78880  1.0000
  H   H110      1.0  0.12502  0.00971  0.51397  1.0000
  Mg  Mg28      1.0  0.50909  0.86682  0.84234  1.0000
  C   C203      1.0  0.07933  0.63638  0.69869  1.0000
  C   C204      1.0  0.05177  0.64269  0.62357  1.0000
  C  Sn57      1.0  0.01991  0.61270  0.53870  1.0000
  C  Sn58      1.0  0.01565  0.57572  0.52911  1.0000
  C   C205      1.0  0.04337  0.56970  0.60478  1.0000
  C   C206      1.0  0.07514  0.59992  0.68935  1.0000
  H   H111      1.0  0.10390  0.65975  0.76421  1.0000
  O  Te57      1.0  0.99265  0.61950  0.46429  1.0000
  O  Te58      1.0  0.98409  0.54523  0.44512  1.0000
  H   H112      1.0  0.09647  0.59501  0.74760  1.0000
  Mg  Mg29      1.0  0.95464  0.56879  0.36384  1.0000
  C   C207      1.0  0.42012  0.42967  0.52825  1.0000
  C   C208      1.0  0.42603  0.46507  0.58895  1.0000
  C  Sn59      1.0  0.39752  0.46740  0.67930  1.0000
  C  Sn60      1.0  0.36248  0.43359  0.70928  1.0000
  C   C209      1.0  0.35686  0.39831  0.64813  1.0000
  C   C210      1.0  0.38557  0.39631  0.55782  1.0000
  H   H113      1.0  0.44234  0.42812  0.45845  1.0000
  O  Te59      1.0  0.40389  0.50300  0.73899  1.0000
  O  Te60      1.0  0.33352  0.43509  0.79926  1.0000
  H   H114      1.0  0.38099  0.36889  0.51093  1.0000
  Mg  Mg30      1.0  0.35574  0.49033  0.85492  1.0000
