data_image0
_chemical_formula_structural       H114C180N18C2Sn2C2HTe2HMgC2Sn2C2HTe2HMgC2Sn2C2HTe2HMgC2Sn2C2HTe2HMgC2Sn2C2HTe2HMgC2Sn2C2HTe2HMgC2Sn2C2HTe2HMgC2Sn2C2HTe2HMgC2Sn2C2HTe2HMgC2Sn2C2HTe2HMgC2Sn2C2HTe2HMgC2Sn2C2HTe2HMgC2Sn2C2HTe2HMgC2Sn2C2HTe2HMgC2Sn2C2HTe2HMg
_chemical_formula_sum              "H144 C240 N18 Sn30 Te30 Mg15"
_cell_length_a       40.3551
_cell_length_b       40.5258
_cell_length_c       7.93251
_cell_angle_alpha    92.1088
_cell_angle_beta     90.0858
_cell_angle_gamma    120.125

_symmetry_space_group_name_H-M    'P1'
_space_group_IT_number       1

loop_
  _space_group_symop_operation_xyz
  'x, y, z'

loop_
  _atom_site_type_symbol
  _atom_site_label
  _atom_site_symmetry_multiplicity
  _atom_site_fract_x
  _atom_site_fract_y
  _atom_site_fract_z
  _atom_site_occupancy
  H   H1        1.0  0.86744  0.64304  0.30266  1.0000
  H   H2        1.0  0.35883  0.22668  0.31541  1.0000
  H   H3        1.0  0.93161  0.64982  0.29636  1.0000
  H   H4        1.0  0.35147  0.28358  0.31577  1.0000
  H   H5        1.0  0.97364  0.75481  0.03795  1.0000
  H   H6        1.0  0.24971  0.22111  0.00158  1.0000
  H   H7        1.0  0.90976  0.74893  0.05665  1.0000
  H   H8        1.0  0.25611  0.16358  0.01162  1.0000
  H   H9        1.0  0.97412  0.64488  0.15178  1.0000
  H   H10       1.0  0.35895  0.33073  0.16096  1.0000
  H   H11       1.0  0.67261  0.02893  0.14208  1.0000
  H   H12       1.0  0.09457  0.71301  0.05573  1.0000
  H   H13       1.0  0.29125  0.38320  0.06413  1.0000
  H   H14       1.0  0.61667  0.90696  0.05640  1.0000
  H   H15       1.0  0.02722  0.76703  0.12023  1.0000
  H   H16       1.0  0.23603  0.26198  0.10944  1.0000
  H   H17       1.0  0.73926  0.97347  0.07533  1.0000
  H   H18       1.0  0.09461  0.80554  0.05814  1.0000
  H   H19       1.0  0.19711  0.29184  0.05950  1.0000
  H   H20       1.0  0.70893  0.90567  0.02521  1.0000
  H   H21       1.0  0.71988  0.64565  0.39122  1.0000
  H   H22       1.0  0.92579  0.27789  0.37506  1.0000
  H   H23       1.0  0.78307  0.65276  0.46041  1.0000
  H   H24       1.0  0.86923  0.21553  0.43388  1.0000
  H   H25       1.0  0.81613  0.76347  0.23632  1.0000
  H   H26       1.0  0.23999  0.05665  0.19613  1.0000
  H   H27       1.0  0.94881  0.18442  0.18675  1.0000
  H   H28       1.0  0.75239  0.75637  0.17576  1.0000
  H   H29       1.0  0.24600  0.99932  0.14181  1.0000
  H   H30       1.0  0.00565  0.24800  0.14803  1.0000
  H   H31       1.0  0.82179  0.66235  0.20382  1.0000
  H   H32       1.0  0.34073  0.16222  0.20016  1.0000
  H   H33       1.0  0.84221  0.17927  0.17891  1.0000
  H   H34       1.0  0.51198  0.90793  0.25386  1.0000
  H   H35       1.0  0.57609  0.91375  0.25132  1.0000
  H   H36       1.0  0.61912  0.01568  0.96968  1.0000
  H   H37       1.0  0.44982  0.44419  0.46919  1.0000
  H   H38       1.0  0.23989  0.95970  0.43920  1.0000
  H   H39       1.0  0.03810  0.27940  0.46253  1.0000
  H   H40       1.0  0.71944  0.75681  0.46007  1.0000
  H   H41       1.0  0.30611  0.90400  0.38414  1.0000
  H   H42       1.0  0.09402  0.40014  0.39790  1.0000
  H   H43       1.0  0.59691  0.69028  0.40403  1.0000
  H   H44       1.0  0.36290  0.02545  0.47874  1.0000
  H   H45       1.0  0.97290  0.33699  0.47808  1.0000
  H   H46       1.0  0.66179  0.63447  0.48296  1.0000
  H   H47       1.0  0.09100  0.28940  0.28936  1.0000
  H   H48       1.0  0.15352  0.29238  0.32509  1.0000
  H   H49       1.0  0.19717  0.79809  0.08135  1.0000
  H   H50       1.0  0.25713  0.86003  0.05180  1.0000
  H   H51       1.0  0.09295  0.44610  0.08307  1.0000
  H   H52       1.0  0.55800  0.64954  0.07499  1.0000
  H   H53       1.0  0.09001  0.50529  0.09680  1.0000
  H   H54       1.0  0.49821  0.58791  0.09364  1.0000
  H   H55       1.0  0.54381  0.52677  0.32298  1.0000
  H   H56       1.0  0.60567  0.58749  0.29325  1.0000
  H   H57       1.0  0.46986  0.93288  0.19310  1.0000
  H   H58       1.0  0.06381  0.53709  0.19314  1.0000
  H   H59       1.0  0.46328  0.53299  0.18066  1.0000
  H   H60       1.0  0.35661  0.22965  0.80875  1.0000
  H   H61       1.0  0.34787  0.28559  0.81021  1.0000
  H   H62       1.0  0.24539  0.22144  0.50187  1.0000
  H   H63       1.0  0.25343  0.16482  0.50895  1.0000
  H   H64       1.0  0.97903  0.64655  0.66853  1.0000
  H   H65       1.0  0.35358  0.33204  0.66426  1.0000
  H   H66       1.0  0.66686  0.02047  0.65475  1.0000
  H   H67       1.0  0.09864  0.71399  0.55426  1.0000
  H   H68       1.0  0.28486  0.38326  0.56336  1.0000
  H   H69       1.0  0.61320  0.89888  0.56321  1.0000
  H   H70       1.0  0.03096  0.76784  0.61671  1.0000
  H   H71       1.0  0.23085  0.26219  0.61132  1.0000
  H   H72       1.0  0.73579  0.96786  0.57563  1.0000
  H   H73       1.0  0.09729  0.80626  0.55014  1.0000
  H   H74       1.0  0.19167  0.29092  0.55845  1.0000
  H   H75       1.0  0.70662  0.89967  0.54153  1.0000
  H   H76       1.0  0.71979  0.65297  0.88150  1.0000
  H   H77       1.0  0.34872  0.06638  0.86643  1.0000
  H   H78       1.0  0.93502  0.28206  0.88514  1.0000
  H   H79       1.0  0.78254  0.65893  0.95083  1.0000
  H   H80       1.0  0.34420  0.12409  0.93246  1.0000
  H   H81       1.0  0.87811  0.21942  0.93439  1.0000
  H   H82       1.0  0.81786  0.76070  0.71726  1.0000
  H   H83       1.0  0.94143  0.18270  0.68954  1.0000
  H   H84       1.0  0.75375  0.75241  0.65918  1.0000
  H   H85       1.0  0.99754  0.24653  0.64689  1.0000
  H   H86       1.0  0.82574  0.66104  0.71025  1.0000
  H   H87       1.0  0.33912  0.16500  0.69546  1.0000
  H   H88       1.0  0.83315  0.17412  0.67495  1.0000
  H   H89       1.0  0.39528  0.49225  0.77387  1.0000
  H   H90       1.0  0.33573  0.42902  0.77307  1.0000
  H   H91       1.0  0.39090  0.38009  0.47691  1.0000
  H   H92       1.0  0.55407  0.00844  0.96554  1.0000
  H   H93       1.0  0.23775  0.95659  0.94935  1.0000
  H   H94       1.0  0.04748  0.28462  0.97811  1.0000
  H   H95       1.0  0.71862  0.76253  0.96725  1.0000
  H   H96       1.0  0.30251  0.89944  0.88664  1.0000
  H   H97       1.0  0.10147  0.40496  0.90781  1.0000
  H   H98       1.0  0.59639  0.69526  0.89793  1.0000
  H   H99       1.0  0.36086  0.02110  0.97566  1.0000
  H   H100      1.0  0.98053  0.34022  0.99598  1.0000
  H   H101      1.0  0.66171  0.64050  0.99506  1.0000
  H   H102      1.0  0.19384  0.90294  0.79243  1.0000
  H   H103      1.0  0.13368  0.84211  0.83322  1.0000
  H   H104      1.0  0.19815  0.39948  0.60447  1.0000
  H   H105      1.0  0.13512  0.39585  0.57575  1.0000
  H   H106      1.0  0.56214  0.64668  0.59798  1.0000
  H   H107      1.0  0.50133  0.58696  0.62684  1.0000
  H   H108      1.0  0.98138  0.44759  0.83142  1.0000
  H   H109      1.0  0.55114  0.53123  0.84118  1.0000
  H   H110      1.0  0.98432  0.38762  0.81607  1.0000
  H   H111      1.0  0.61131  0.59369  0.81754  1.0000
  H   H112      1.0  0.46695  0.93152  0.69003  1.0000
  H   H113      1.0  0.07467  0.54164  0.66755  1.0000
  H   H114      1.0  0.46323  0.53210  0.70050  1.0000
  C   C1        1.0  0.88417  0.69541  0.17810  1.0000
  C   C2        1.0  0.30796  0.19124  0.16200  1.0000
  C   C3        1.0  0.89086  0.66757  0.24447  1.0000
  C   C4        1.0  0.33490  0.22550  0.24635  1.0000
  C   C5        1.0  0.92713  0.67132  0.23938  1.0000
  C   C6        1.0  0.33096  0.25774  0.24501  1.0000
  C   C7        1.0  0.95784  0.70264  0.16399  1.0000
  C   C8        1.0  0.30045  0.25711  0.15612  1.0000
  C   C9        1.0  0.95093  0.73083  0.10137  1.0000
  C   C10       1.0  0.27307  0.22232  0.07510  1.0000
  C   C11       1.0  0.91512  0.72760  0.10943  1.0000
  C   C12       1.0  0.27659  0.19004  0.07851  1.0000
  C   C13       1.0  0.99558  0.70553  0.14081  1.0000
  C   C14       1.0  0.29784  0.29192  0.13798  1.0000
  C   C15       1.0  0.71041  0.00605  0.11243  1.0000
  C   C16       1.0  0.03462  0.67482  0.10802  1.0000
  C   C17       1.0  0.32931  0.36143  0.11634  1.0000
  C   C18       1.0  0.64006  0.96778  0.10450  1.0000
  C   C19       1.0  0.99922  0.67278  0.13507  1.0000
  C   C20       1.0  0.33107  0.32816  0.14079  1.0000
  C   C21       1.0  0.67427  0.00311  0.12208  1.0000
  C   C22       1.0  0.06682  0.71025  0.08094  1.0000
  C   C23       1.0  0.29366  0.35821  0.08764  1.0000
  C   C24       1.0  0.64237  0.93480  0.07426  1.0000
  C   C25       1.0  0.06388  0.74332  0.08117  1.0000
  C   C26       1.0  0.26001  0.32244  0.08340  1.0000
  C   C27       1.0  0.67802  0.93688  0.06090  1.0000
  C   C28       1.0  0.02868  0.74091  0.11480  1.0000
  C   C29       1.0  0.26228  0.28963  0.11003  1.0000
  C   C30       1.0  0.71177  0.97234  0.08247  1.0000
  C   C31       1.0  0.09747  0.77994  0.04422  1.0000
  C   C32       1.0  0.22311  0.32001  0.05057  1.0000
  C   C33       1.0  0.68010  0.90231  0.02473  1.0000
  C   C34       1.0  0.73221  0.69896  0.51610  1.0000
  C   C35       1.0  0.96631  0.26693  0.50429  1.0000
  C   C36       1.0  0.74086  0.67055  0.46600  1.0000
  C   C37       1.0  0.92939  0.25779  0.44932  1.0000
  C   C38       1.0  0.77551  0.67982  0.00271  1.0000
  C   C39       1.0  0.32307  0.09680  0.98090  1.0000
  C   C40       1.0  0.90599  0.22618  0.98499  1.0000
  C   C41       1.0  0.80346  0.71149  0.09949  1.0000
  C   C42       1.0  0.29178  0.09432  0.06944  1.0000
  C   C43       1.0  0.90950  0.19778  0.06621  1.0000
  C   C44       1.0  0.79480  0.73941  0.15878  1.0000
  C   C45       1.0  0.26363  0.05844  0.12369  1.0000
  C   C46       1.0  0.94616  0.20617  0.12171  1.0000
  C   C47       1.0  0.75928  0.73546  0.12277  1.0000
  C   C48       1.0  0.26694  0.02638  0.09099  1.0000
  C   C49       1.0  0.97790  0.24189  0.09859  1.0000
  C   C50       1.0  0.84577  0.69047  0.17220  1.0000
  C   C51       1.0  0.31300  0.15796  0.15434  1.0000
  C   C52       1.0  0.84602  0.15538  0.13387  1.0000
  C   C53       1.0  0.52872  0.95769  0.10846  1.0000
  C   C54       1.0  0.53537  0.93123  0.18952  1.0000
  C   C55       1.0  0.57138  0.93446  0.18781  1.0000
  C   C56       1.0  0.60218  0.96508  0.11017  1.0000
  C   C57       1.0  0.59576  0.99231  0.03389  1.0000
  C   C58       1.0  0.55957  0.98845  0.03077  1.0000
  C   C59       1.0  0.26757  0.96125  0.43412  1.0000
  C   C60       1.0  0.03647  0.30522  0.45143  1.0000
  C   C61       1.0  0.69315  0.72923  0.45237  1.0000
  C   C62       1.0  0.26873  0.92732  0.41298  1.0000
  C   C63       1.0  0.07042  0.33983  0.42948  1.0000
  C   C64       1.0  0.65799  0.72785  0.43044  1.0000
  C   C65       1.0  0.30467  0.92990  0.40573  1.0000
  C   C66       1.0  0.06820  0.37312  0.41930  1.0000
  C   C67       1.0  0.62444  0.69202  0.42277  1.0000
  C   C68       1.0  0.33885  0.96504  0.42780  1.0000
  C   C69       1.0  0.03331  0.37245  0.43600  1.0000
  C   C70       1.0  0.62532  0.65814  0.43906  1.0000
  C   C71       1.0  0.33669  0.99839  0.45229  1.0000
  C   C72       1.0  0.99976  0.33741  0.45770  1.0000
  C   C73       1.0  0.66093  0.66043  0.46230  1.0000
  C   C74       1.0  0.30118  0.99698  0.45638  1.0000
  C   C75       1.0  0.00091  0.30343  0.46719  1.0000
  C   C76       1.0  0.69513  0.69593  0.47235  1.0000
  C   C77       1.0  0.10805  0.34198  0.43349  1.0000
  C   C78       1.0  0.58880  0.62157  0.44632  1.0000
  C   C79       1.0  0.11397  0.31304  0.36298  1.0000
  C   C80       1.0  0.14905  0.31455  0.38315  1.0000
  C   C81       1.0  0.17946  0.34542  0.47393  1.0000
  C   C82       1.0  0.19688  0.82130  0.01800  1.0000
  C   C83       1.0  0.13920  0.37343  0.51790  1.0000
  C   C84       1.0  0.06838  0.44616  0.02690  1.0000
  C   C85       1.0  0.55649  0.62369  0.02158  1.0000
  C   C86       1.0  0.06652  0.47954  0.03661  1.0000
  C   C87       1.0  0.52295  0.58885  0.03449  1.0000
  C   C88       1.0  0.03442  0.48009  0.97013  1.0000
  C   C89       1.0  0.52108  0.55482  0.97409  1.0000
  C   C90       1.0  0.54862  0.55326  0.38493  1.0000
  C   C91       1.0  0.58314  0.58730  0.36919  1.0000
  C   C92       1.0  0.49017  0.95241  0.10221  1.0000
  C   C93       1.0  0.04653  0.53885  0.09027  1.0000
  C   C94       1.0  0.46258  0.51110  0.09214  1.0000
  C   C95       1.0  0.30567  0.19335  0.65658  1.0000
  C   C96       1.0  0.33231  0.22787  0.74036  1.0000
  C   C97       1.0  0.32748  0.25960  0.74006  1.0000
  C   C98       1.0  0.29633  0.25828  0.65369  1.0000
  C   C99       1.0  0.26930  0.22323  0.57321  1.0000
  C   C100      1.0  0.27376  0.19147  0.57501  1.0000
  C   C101      1.0  0.99995  0.70662  0.64468  1.0000
  C   C102      1.0  0.29277  0.29266  0.63871  1.0000
  C   C103      1.0  0.70588  0.99928  0.61713  1.0000
  C   C104      1.0  0.03926  0.67614  0.61679  1.0000
  C   C105      1.0  0.32360  0.36235  0.62011  1.0000
  C   C106      1.0  0.63563  0.95955  0.61319  1.0000
  C   C107      1.0  0.00397  0.67419  0.64615  1.0000
  C   C108      1.0  0.32558  0.32914  0.64321  1.0000
  C   C109      1.0  0.66940  0.99525  0.63081  1.0000
  C   C110      1.0  0.07110  0.71144  0.58277  1.0000
  C   C111      1.0  0.28781  0.35862  0.58801  1.0000
  C   C112      1.0  0.63858  0.92701  0.58057  1.0000
  C   C113      1.0  0.06796  0.74440  0.57983  1.0000
  C   C114      1.0  0.25443  0.32254  0.58304  1.0000
  C   C115      1.0  0.67471  0.93010  0.56577  1.0000
  C   C116      1.0  0.03273  0.74189  0.61436  1.0000
  C   C117      1.0  0.25699  0.28993  0.61118  1.0000
  C   C118      1.0  0.70800  0.96601  0.58546  1.0000
  C   C119      1.0  0.10106  0.78117  0.53895  1.0000
  C   C120      1.0  0.21729  0.31929  0.54688  1.0000
  C   C121      1.0  0.67772  0.89599  0.53088  1.0000
  C   C122      1.0  0.73154  0.70443  0.02229  1.0000
  C   C123      1.0  0.29745  0.02828  0.99771  1.0000
  C   C124      1.0  0.97487  0.27035  0.01469  1.0000
  C   C125      1.0  0.74031  0.67661  0.96367  1.0000
  C   C126      1.0  0.32550  0.06419  0.94379  1.0000
  C   C127      1.0  0.93817  0.26157  0.95828  1.0000
  C   C128      1.0  0.77639  0.67443  0.50488  1.0000
  C   C129      1.0  0.89742  0.22256  0.48150  1.0000
  C   C130      1.0  0.80503  0.70750  0.59153  1.0000
  C   C131      1.0  0.90153  0.19469  0.56456  1.0000
  C   C132      1.0  0.79631  0.73574  0.64478  1.0000
  C   C133      1.0  0.93833  0.20383  0.62137  1.0000
  C   C134      1.0  0.76044  0.73105  0.61025  1.0000
  C   C135      1.0  0.96970  0.23951  0.59504  1.0000
  C   C136      1.0  0.84891  0.68861  0.66806  1.0000
  C   C137      1.0  0.31133  0.16041  0.64878  1.0000
  C   C138      1.0  0.83834  0.15088  0.63352  1.0000
  C   C139      1.0  0.42628  0.47247  0.61779  1.0000
  C   C140      1.0  0.39401  0.46786  0.70510  1.0000
  C   C141      1.0  0.36053  0.43233  0.70493  1.0000
  C   C142      1.0  0.35891  0.40018  0.62293  1.0000
  C   C143      1.0  0.39188  0.40467  0.54213  1.0000
  C   C144      1.0  0.42475  0.44022  0.53695  1.0000
  C   C145      1.0  0.26522  0.95780  0.94007  1.0000
  C   C146      1.0  0.04514  0.31004  0.96666  1.0000
  C   C147      1.0  0.69251  0.73480  0.95803  1.0000
  C   C148      1.0  0.26583  0.92362  0.91807  1.0000
  C   C149      1.0  0.07862  0.34496  0.94321  1.0000
  C   C150      1.0  0.65727  0.73306  0.93298  1.0000
  C   C151      1.0  0.30147  0.92556  0.90849  1.0000
  C   C152      1.0  0.07582  0.37793  0.93148  1.0000
  C   C153      1.0  0.62381  0.69711  0.92244  1.0000
  C   C154      1.0  0.33589  0.96050  0.92757  1.0000
  C   C155      1.0  0.04054  0.37659  0.94905  1.0000
  C   C156      1.0  0.62499  0.66344  0.94227  1.0000
  C   C157      1.0  0.33435  0.99419  0.95125  1.0000
  C   C158      1.0  0.00758  0.34116  0.97394  1.0000
  C   C159      1.0  0.66063  0.66617  0.96999  1.0000
  C   C160      1.0  0.29916  0.99329  0.95876  1.0000
  C   C161      1.0  0.00927  0.30745  0.98258  1.0000
  C   C162      1.0  0.69464  0.70167  0.97921  1.0000
  C   C163      1.0  0.23001  0.88643  0.92248  1.0000
  C   C164      1.0  0.03852  0.41203  0.95182  1.0000
  C   C165      1.0  0.58929  0.62623  0.94725  1.0000
  C   C166      1.0  0.19462  0.88060  0.86126  1.0000
  C   C167      1.0  0.16072  0.84635  0.88363  1.0000
  C   C168      1.0  0.16133  0.81644  0.96557  1.0000
  C   C169      1.0  0.17442  0.37555  0.53570  1.0000
  C   C170      1.0  0.23030  0.85591  0.99989  1.0000
  C   C171      1.0  0.55818  0.62052  0.53582  1.0000
  C   C172      1.0  0.52393  0.58663  0.55366  1.0000
  C   C173      1.0  0.51877  0.55204  0.48117  1.0000
  C   C174      1.0  0.00520  0.44646  0.88936  1.0000
  C   C175      1.0  0.55333  0.55742  0.89386  1.0000
  C   C176      1.0  0.00698  0.41303  0.88207  1.0000
  C   C177      1.0  0.58692  0.59236  0.88211  1.0000
  C   C178      1.0  0.48884  0.95098  0.60433  1.0000
  C   C179      1.0  0.05172  0.54047  0.58811  1.0000
  C   C180      1.0  0.46060  0.51001  0.60809  1.0000
  N   N1        1.0  0.84031  0.71775  0.12856  1.0000
  N   N2        1.0  0.28604  0.12529  0.09559  1.0000
  N   N3        1.0  0.87872  0.16088  0.08345  1.0000
  N   N4        1.0  0.12898  0.78165  0.99955  1.0000
  N   N5        1.0  0.22148  0.34998  0.01557  1.0000
  N   N6        1.0  0.64963  0.86951  0.99736  1.0000
  N   N7        1.0  0.48134  0.96997  0.99376  1.0000
  N   N8        1.0  0.02970  0.51214  0.97387  1.0000
  N   N9        1.0  0.48929  0.51809  0.98531  1.0000
  N   N10       1.0  0.84233  0.71462  0.61608  1.0000
  N   N11       1.0  0.28485  0.12751  0.58956  1.0000
  N   N12       1.0  0.87142  0.15752  0.58361  1.0000
  N   N13       1.0  0.13302  0.78383  0.49507  1.0000
  N   N14       1.0  0.21499  0.34865  0.50728  1.0000
  N   N15       1.0  0.64786  0.86316  0.49580  1.0000
  N   N16       1.0  0.48259  0.97072  0.49721  1.0000
  N   N17       1.0  0.02971  0.51161  0.48807  1.0000
  N   N18       1.0  0.48587  0.51606  0.49489  1.0000
  C   C181      1.0  0.41702  0.99662  0.86579  1.0000
  C   C182      1.0  0.38052  0.96845  0.91224  1.0000
  C  Sn1       1.0  0.37071  0.92787  0.00384  1.0000
  C  Sn2       1.0  0.40335  0.92535  0.04963  1.0000
  C   C183      1.0  0.43974  0.95369  0.00265  1.0000
  C   C184      1.0  0.44922  0.99416  0.91096  1.0000
  H   H115      1.0  0.91629  0.02034  0.79492  1.0000
  O  Te1       1.0  0.33404  0.89997  0.04918  1.0000
  O  Te2       1.0  0.39961  0.89492  0.14121  1.0000
  H   H116      1.0  0.97347  0.01597  0.87510  1.0000
  Mg  Mg1       1.0  0.34365  0.86400  0.17367  1.0000
  C   C185      1.0  0.80277  0.07065  0.54739  1.0000
  C   C186      1.0  0.80692  0.10485  0.61553  1.0000
  C  Sn3       1.0  0.77691  0.10495  0.70264  1.0000
  C  Sn4       1.0  0.74213  0.07012  0.72172  1.0000
  C   C187      1.0  0.73827  0.03605  0.65319  1.0000
  C   C188      1.0  0.76848  0.03628  0.56621  1.0000
  H   H117      1.0  0.82616  0.07082  0.48018  1.0000
  O  Te3       1.0  0.78153  0.13938  0.76987  1.0000
  O  Te4       1.0  0.71167  0.06940  0.80825  1.0000
  H   H118      1.0  0.76527  0.00979  0.51357  1.0000
  Mg  Mg2       1.0  0.73179  0.12372  0.87718  1.0000
  C   C189      1.0  0.61970  0.77441  0.03090  1.0000
  C   C190      1.0  0.65104  0.77700  0.94535  1.0000
  C  Sn5       1.0  0.68238  0.80646  0.86705  1.0000
  C  Sn6       1.0  0.68762  0.84383  0.87477  1.0000
  C   C191      1.0  0.66136  0.85077  0.96077  1.0000
  C   C192      1.0  0.62485  0.81125  0.03864  1.0000
  H   H119      1.0  0.59552  0.75144  0.09123  1.0000
  O  Te5       1.0  0.70818  0.79874  0.78206  1.0000
  O  Te6       1.0  0.71870  0.87380  0.79768  1.0000
  H   H120      1.0  0.60466  0.81687  0.10495  1.0000
  Mg  Mg3       1.0  0.74604  0.84903  0.69689  1.0000
  C   C193      1.0  0.18756  0.87615  0.33665  1.0000
  C   C194      1.0  0.22435  0.88899  0.40287  1.0000
  C  Sn7       1.0  0.23192  0.86476  0.49556  1.0000
  C  Sn8       1.0  0.20206  0.82699  0.52219  1.0000
  C   C195      1.0  0.16536  0.81441  0.45532  1.0000
  C   C196      1.0  0.15809  0.83889  0.36280  1.0000
  H   H121      1.0  0.18194  0.89509  0.26499  1.0000
  O  Te7       1.0  0.26884  0.87805  0.56088  1.0000
  O  Te8       1.0  0.20884  0.80217  0.61430  1.0000
  H   H122      1.0  0.12961  0.82894  0.31145  1.0000
  Mg  Mg4       1.0  0.26389  0.83350  0.67791  1.0000
  C   C197      1.0  0.80770  0.07546  0.04029  1.0000
  C   C198      1.0  0.81313  0.10994  0.11135  1.0000
  C  Sn9       1.0  0.78385  0.11087  0.20133  1.0000
  C  Sn10      1.0  0.74852  0.07659  0.22035  1.0000
  C   C199      1.0  0.74338  0.04223  0.14888  1.0000
  C   C200      1.0  0.77287  0.04163  0.05905  1.0000
  H   H123      1.0  0.83576  0.08481  0.97086  1.0000
  O  Te9       1.0  0.78974  0.14556  0.27145  1.0000
  O  Te10      1.0  0.71878  0.07670  0.30971  1.0000
  H   H124      1.0  0.76867  0.01493  0.00414  1.0000
  Mg  Mg5       1.0  0.74058  0.13109  0.38200  1.0000
  C   C201      1.0  0.17688  0.38363  0.05335  1.0000
  C   C202      1.0  0.19155  0.36600  0.99976  1.0000
  C  Sn11      1.0  0.16501  0.33336  0.90613  1.0000
  C  Sn12      1.0  0.12840  0.32818  0.86555  1.0000
  C   C203      1.0  0.11927  0.35582  0.91966  1.0000
  C   C204      1.0  0.14078  0.37856  0.01333  1.0000
  H   H125      1.0  0.19760  0.40883  0.12575  1.0000
  O  Te11      1.0  0.17488  0.30620  0.85363  1.0000
  O  Te12      1.0  0.10134  0.29582  0.77208  1.0000
  H   H126      1.0  0.13349  0.39982  0.05472  1.0000
  Mg  Mg6       1.0  0.12825  0.26689  0.72919  1.0000
  C   C205      1.0  0.92205  0.66767  0.76359  1.0000
  C   C206      1.0  0.95442  0.69434  0.67997  1.0000
  C  Sn13      1.0  0.95344  0.72312  0.59228  1.0000
  C  Sn14      1.0  0.91937  0.72517  0.58849  1.0000
  C   C207      1.0  0.88714  0.69838  0.67265  1.0000
  C   C208      1.0  0.88844  0.66969  0.75997  1.0000
  H   H127      1.0  0.92305  0.64549  0.83123  1.0000
  O  Te13      1.0  0.98604  0.74952  0.50937  1.0000
  O  Te14      1.0  0.91760  0.75365  0.50185  1.0000
  H   H128      1.0  0.86337  0.64906  0.82479  1.0000
  Mg  Mg7       1.0  0.96950  0.78305  0.40835  1.0000
  C   C209      1.0  0.25933  0.05026  0.62124  1.0000
  C   C210      1.0  0.28384  0.08817  0.58090  1.0000
  C  Sn15      1.0  0.31674  0.09795  0.48857  1.0000
  C  Sn16      1.0  0.32517  0.06918  0.43580  1.0000
  C   C211      1.0  0.30045  0.03133  0.47670  1.0000
  C   C212      1.0  0.26762  0.02187  0.56918  1.0000
  H   H129      1.0  0.23391  0.04293  0.69272  1.0000
  O  Te15      1.0  0.34093  0.13597  0.44940  1.0000
  O  Te16      1.0  0.35785  0.07816  0.34334  1.0000
  H   H130      1.0  0.75264  0.99251  0.60031  1.0000
  Mg  Mg8       1.0  0.38201  0.13402  0.32092  1.0000
  C   C213      1.0  0.61742  0.78574  0.53144  1.0000
  C   C214      1.0  0.64354  0.82250  0.48184  1.0000
  C  Sn17      1.0  0.67627  0.82926  0.39465  1.0000
  C  Sn18      1.0  0.68290  0.79860  0.35655  1.0000
  C   C215      1.0  0.65659  0.76193  0.40661  1.0000
  C   C216      1.0  0.62393  0.75548  0.49385  1.0000
  H   H131      1.0  0.59214  0.78075  0.59885  1.0000
  O  Te17      1.0  0.70208  0.86616  0.34608  1.0000
  O  Te18      1.0  0.71538  0.80456  0.26949  1.0000
  H   H132      1.0  0.60370  0.72702  0.53214  1.0000
  Mg  Mg9       1.0  0.74216  0.85993  0.23006  1.0000
  C   C217      1.0  0.42434  0.43070  0.00981  1.0000
  C   C218      1.0  0.42921  0.46564  0.07164  1.0000
  C  Sn19      1.0  0.40079  0.46678  0.16773  1.0000
  C  Sn20      1.0  0.36689  0.43225  0.20238  1.0000
  C   C219      1.0  0.36229  0.39744  0.14005  1.0000
  C   C220      1.0  0.39091  0.39663  0.04399  1.0000
  H   H133      1.0  0.45173  0.43990  0.93556  1.0000
  O  Te19      1.0  0.40612  0.50193  0.22848  1.0000
  O  Te20      1.0  0.33802  0.43256  0.29814  1.0000
  H   H134      1.0  0.39239  0.37940  0.99623  1.0000
  Mg  Mg10      1.0  0.35857  0.48758  0.35301  1.0000
  C   C221      1.0  0.08158  0.61885  0.68787  1.0000
  C   C222      1.0  0.05457  0.58189  0.62969  1.0000
  C  Sn21      1.0  0.02027  0.57475  0.55300  1.0000
  C  Sn22      1.0  0.01297  0.60523  0.53435  1.0000
  C   C223      1.0  0.04019  0.64210  0.59287  1.0000
  C   C224      1.0  0.07441  0.64893  0.66946  1.0000
  H   H135      1.0  0.10807  0.62413  0.74705  1.0000
  O  Te21      1.0  0.99359  0.53766  0.49564  1.0000
  O  Te22      1.0  0.97893  0.59890  0.45812  1.0000
  H   H136      1.0  0.09533  0.67755  0.71440  1.0000
  Mg  Mg11      1.0  0.95144  0.54338  0.40032  1.0000
  C   C225      1.0  0.06688  0.45044  0.55514  1.0000
  C   C226      1.0  0.04003  0.41605  0.47332  1.0000
  C  Sn23      1.0  0.00947  0.41386  0.38066  1.0000
  C  Sn24      1.0  0.00580  0.44676  0.36991  1.0000
  C   C227      1.0  0.03282  0.48103  0.45213  1.0000
  C   C228      1.0  0.06329  0.48291  0.54455  1.0000
  H   H137      1.0  0.09047  0.45190  0.62658  1.0000
  O  Te23      1.0  0.98290  0.37928  0.29974  1.0000
  O  Te24      1.0  0.97554  0.44537  0.27810  1.0000
  H   H138      1.0  0.08408  0.50954  0.60780  1.0000
  Mg  Mg12      1.0  0.94662  0.39170  0.18991  1.0000
  C   C229      1.0  0.01344  0.58875  0.99124  1.0000
  C   C230      1.0  0.03661  0.57319  0.06127  1.0000
  C  Sn25      1.0  0.06589  0.60188  0.16330  1.0000
  C  Sn26      1.0  0.06665  0.63693  0.19563  1.0000
  C   C231      1.0  0.03807  0.64237  0.12508  1.0000
  C   C232      1.0  0.00891  0.61347  0.02312  1.0000
  H   H139      1.0  0.99086  0.56638  0.91243  1.0000
  O  Te25      1.0  0.09407  0.59569  0.23221  1.0000
  O  Te26      1.0  0.09558  0.66608  0.29720  1.0000
  H   H140      1.0  0.99214  0.62773  0.96901  1.0000
  Mg  Mg13      1.0  0.12757  0.64405  0.36242  1.0000
  C   C233      1.0  0.56852  0.98935  0.53111  1.0000
  C   C234      1.0  0.53343  0.96080  0.58922  1.0000
  C  Sn27      1.0  0.53139  0.93038  0.67513  1.0000
  C  Sn28      1.0  0.56517  0.92858  0.70325  1.0000
  C   C235      1.0  0.60014  0.95729  0.64472  1.0000
  C   C236      1.0  0.60185  0.98760  0.55885  1.0000
  H   H141      1.0  0.06583  0.01281  0.46475  1.0000
  O  Te27      1.0  0.49610  0.90209  0.73228  1.0000
  O  Te28      1.0  0.56396  0.89850  0.78880  1.0000
  H   H142      1.0  0.12502  0.00971  0.51397  1.0000
  Mg  Mg14      1.0  0.50909  0.86682  0.84234  1.0000
  C   C237      1.0  0.42084  0.00183  0.37844  1.0000
  C   C238      1.0  0.38377  0.97321  0.41532  1.0000
  C  Sn29      1.0  0.37794  0.94061  0.49521  1.0000
  C  Sn30      1.0  0.40986  0.93668  0.53887  1.0000
  C   C239      1.0  0.44683  0.96549  0.50154  1.0000
  C   C240      1.0  0.45234  0.99798  0.42152  1.0000
  H   H143      1.0  0.92110  0.02698  0.31661  1.0000
  O  Te29      1.0  0.34072  0.91228  0.53108  1.0000
  O  Te30      1.0  0.40485  0.90440  0.61884  1.0000
  H   H144      1.0  0.97703  0.02015  0.39308  1.0000
  Mg  Mg15      1.0  0.34856  0.87358  0.64135  1.0000
