data_image0
_chemical_formula_structural       H114C180N18SnCSn2CSnTe4Mg2SnCSn2CSnTe4Mg2SnCSn2CSnTe4Mg2SnCSn2CSnTe4Mg2SnCSn2CSnTe4Mg2SnCSn2CSnTe4Mg2SnCSn2CSnTe4Mg2SnCSn2CSnTe4Mg2SnCSn2CSnTe4Mg2SnCSn2CSnTe4Mg2SnCSn2CSnTe4Mg2SnCSn2CSnTe4Mg2SnCSn2CSnTe4Mg2SnCSn2CSnTe4Mg2SnCSn2CSnTe4Mg2
_chemical_formula_sum              "H114 C210 N18 Sn60 Te60 Mg30"
_cell_length_a       40.3551
_cell_length_b       40.5258
_cell_length_c       7.93251
_cell_angle_alpha    92.1088
_cell_angle_beta     90.0858
_cell_angle_gamma    120.125

_symmetry_space_group_name_H-M    'P1'
_space_group_IT_number       1

loop_
  _space_group_symop_operation_xyz
  'x, y, z'

loop_
  _atom_site_type_symbol
  _atom_site_label
  _atom_site_symmetry_multiplicity
  _atom_site_fract_x
  _atom_site_fract_y
  _atom_site_fract_z
  _atom_site_occupancy
  H   H1        1.0  0.97412  0.64488  0.15178  1.0000
  H   H2        1.0  0.35895  0.33073  0.16096  1.0000
  H   H3        1.0  0.67261  0.02893  0.14208  1.0000
  H   H4        1.0  0.09457  0.71301  0.05573  1.0000
  H   H5        1.0  0.29125  0.38320  0.06413  1.0000
  H   H6        1.0  0.61667  0.90696  0.05640  1.0000
  H   H7        1.0  0.02722  0.76703  0.12023  1.0000
  H   H8        1.0  0.23603  0.26198  0.10944  1.0000
  H   H9        1.0  0.73926  0.97347  0.07533  1.0000
  H   H10       1.0  0.09461  0.80554  0.05814  1.0000
  H   H11       1.0  0.19711  0.29184  0.05950  1.0000
  H   H12       1.0  0.70893  0.90567  0.02521  1.0000
  H   H13       1.0  0.71988  0.64565  0.39122  1.0000
  H   H14       1.0  0.78307  0.65276  0.46041  1.0000
  H   H15       1.0  0.23999  0.05665  0.19613  1.0000
  H   H16       1.0  0.94881  0.18442  0.18675  1.0000
  H   H17       1.0  0.24600  0.99932  0.14181  1.0000
  H   H18       1.0  0.00565  0.24800  0.14803  1.0000
  H   H19       1.0  0.82179  0.66235  0.20382  1.0000
  H   H20       1.0  0.34073  0.16222  0.20016  1.0000
  H   H21       1.0  0.84221  0.17927  0.17891  1.0000
  H   H22       1.0  0.09126  0.60463  0.26663  1.0000
  H   H23       1.0  0.39782  0.49127  0.26114  1.0000
  H   H24       1.0  0.08769  0.66392  0.26842  1.0000
  H   H25       1.0  0.34029  0.42673  0.27006  1.0000
  H   H26       1.0  0.98872  0.60797  0.93516  1.0000
  H   H27       1.0  0.39624  0.38088  0.96020  1.0000
  H   H28       1.0  0.55380  0.00447  0.47435  1.0000
  H   H29       1.0  0.99334  0.54773  0.46775  1.0000
  H   H30       1.0  0.23989  0.95970  0.43920  1.0000
  H   H31       1.0  0.03810  0.27940  0.46253  1.0000
  H   H32       1.0  0.71944  0.75681  0.46007  1.0000
  H   H33       1.0  0.30611  0.90400  0.38414  1.0000
  H   H34       1.0  0.09402  0.40014  0.39790  1.0000
  H   H35       1.0  0.59691  0.69028  0.40403  1.0000
  H   H36       1.0  0.36290  0.02545  0.47874  1.0000
  H   H37       1.0  0.97290  0.33699  0.47808  1.0000
  H   H38       1.0  0.66179  0.63447  0.48296  1.0000
  H   H39       1.0  0.19708  0.90421  0.27366  1.0000
  H   H40       1.0  0.13746  0.84290  0.31271  1.0000
  H   H41       1.0  0.20643  0.40180  0.11728  1.0000
  H   H42       1.0  0.14421  0.40024  0.09067  1.0000
  H   H43       1.0  0.35023  0.91051  0.07929  1.0000
  H   H44       1.0  0.09295  0.44610  0.08307  1.0000
  H   H45       1.0  0.55800  0.64954  0.07499  1.0000
  H   H46       1.0  0.41189  0.91265  0.11495  1.0000
  H   H47       1.0  0.09001  0.50529  0.09680  1.0000
  H   H48       1.0  0.49821  0.58791  0.09364  1.0000
  H   H49       1.0  0.47121  0.01998  0.35292  1.0000
  H   H50       1.0  0.98359  0.45157  0.31187  1.0000
  H   H51       1.0  0.40950  0.01930  0.31647  1.0000
  H   H52       1.0  0.98306  0.38975  0.28356  1.0000
  H   H53       1.0  0.46986  0.93288  0.19310  1.0000
  H   H54       1.0  0.06381  0.53709  0.19314  1.0000
  H   H55       1.0  0.46328  0.53299  0.18066  1.0000
  H   H56       1.0  0.87260  0.64448  0.81374  1.0000
  H   H57       1.0  0.93740  0.65278  0.81176  1.0000
  H   H58       1.0  0.97601  0.75240  0.51739  1.0000
  H   H59       1.0  0.91130  0.74489  0.52890  1.0000
  H   H60       1.0  0.97903  0.64655  0.66853  1.0000
  H   H61       1.0  0.35358  0.33204  0.66426  1.0000
  H   H62       1.0  0.66686  0.02047  0.65475  1.0000
  H   H63       1.0  0.09864  0.71399  0.55426  1.0000
  H   H64       1.0  0.28486  0.38326  0.56336  1.0000
  H   H65       1.0  0.61320  0.89888  0.56321  1.0000
  H   H66       1.0  0.03096  0.76784  0.61671  1.0000
  H   H67       1.0  0.23085  0.26219  0.61132  1.0000
  H   H68       1.0  0.73579  0.96786  0.57563  1.0000
  H   H69       1.0  0.09729  0.80626  0.55014  1.0000
  H   H70       1.0  0.19167  0.29092  0.55845  1.0000
  H   H71       1.0  0.70662  0.89967  0.54153  1.0000
  H   H72       1.0  0.34872  0.06638  0.86643  1.0000
  H   H73       1.0  0.93502  0.28206  0.88514  1.0000
  H   H74       1.0  0.34420  0.12409  0.93246  1.0000
  H   H75       1.0  0.87811  0.21942  0.93439  1.0000
  H   H76       1.0  0.81786  0.76070  0.71726  1.0000
  H   H77       1.0  0.75375  0.75241  0.65918  1.0000
  H   H78       1.0  0.82574  0.66104  0.71025  1.0000
  H   H79       1.0  0.33912  0.16500  0.69546  1.0000
  H   H80       1.0  0.83315  0.17412  0.67495  1.0000
  H   H81       1.0  0.50693  0.90347  0.76094  1.0000
  H   H82       1.0  0.10152  0.60862  0.73548  1.0000
  H   H83       1.0  0.56983  0.90640  0.76293  1.0000
  H   H84       1.0  0.09686  0.66744  0.74600  1.0000
  H   H85       1.0  0.61730  0.00828  0.47962  1.0000
  H   H86       1.0  0.98777  0.60624  0.48305  1.0000
  H   H87       1.0  0.99389  0.54918  0.92560  1.0000
  H   H88       1.0  0.45334  0.44616  0.94499  1.0000
  H   H89       1.0  0.23775  0.95659  0.94935  1.0000
  H   H90       1.0  0.04748  0.28462  0.97811  1.0000
  H   H91       1.0  0.71862  0.76253  0.96725  1.0000
  H   H92       1.0  0.30251  0.89944  0.88664  1.0000
  H   H93       1.0  0.10147  0.40496  0.90781  1.0000
  H   H94       1.0  0.59639  0.69526  0.89793  1.0000
  H   H95       1.0  0.36086  0.02110  0.97566  1.0000
  H   H96       1.0  0.98053  0.34022  0.99598  1.0000
  H   H97       1.0  0.66171  0.64050  0.99506  1.0000
  H   H98       1.0  0.09771  0.29463  0.79634  1.0000
  H   H99       1.0  0.15884  0.29486  0.83353  1.0000
  H   H100      1.0  0.20095  0.80253  0.58743  1.0000
  H   H101      1.0  0.26044  0.86500  0.55934  1.0000
  H   H102      1.0  0.35164  0.91281  0.56571  1.0000
  H   H103      1.0  0.08305  0.43674  0.60940  1.0000
  H   H104      1.0  0.41229  0.91301  0.59615  1.0000
  H   H105      1.0  0.08351  0.49728  0.63852  1.0000
  H   H106      1.0  0.46716  0.01468  0.83399  1.0000
  H   H107      1.0  0.98138  0.44759  0.83142  1.0000
  H   H108      1.0  0.55114  0.53123  0.84118  1.0000
  H   H109      1.0  0.40460  0.01231  0.79629  1.0000
  H   H110      1.0  0.98432  0.38762  0.81607  1.0000
  H   H111      1.0  0.61131  0.59369  0.81754  1.0000
  H   H112      1.0  0.46695  0.93152  0.69003  1.0000
  H   H113      1.0  0.07467  0.54164  0.66755  1.0000
  H   H114      1.0  0.46323  0.53210  0.70050  1.0000
  C   C1        1.0  0.99558  0.70553  0.14081  1.0000
  C   C2        1.0  0.29784  0.29192  0.13798  1.0000
  C   C3        1.0  0.71041  0.00605  0.11243  1.0000
  C   C4        1.0  0.03462  0.67482  0.10802  1.0000
  C   C5        1.0  0.32931  0.36143  0.11634  1.0000
  C   C6        1.0  0.64006  0.96778  0.10450  1.0000
  C   C7        1.0  0.99922  0.67278  0.13507  1.0000
  C   C8        1.0  0.33107  0.32816  0.14079  1.0000
  C   C9        1.0  0.67427  0.00311  0.12208  1.0000
  C   C10       1.0  0.06682  0.71025  0.08094  1.0000
  C   C11       1.0  0.29366  0.35821  0.08764  1.0000
  C   C12       1.0  0.64237  0.93480  0.07426  1.0000
  C   C13       1.0  0.06388  0.74332  0.08117  1.0000
  C   C14       1.0  0.26001  0.32244  0.08340  1.0000
  C   C15       1.0  0.67802  0.93688  0.06090  1.0000
  C   C16       1.0  0.02868  0.74091  0.11480  1.0000
  C   C17       1.0  0.26228  0.28963  0.11003  1.0000
  C   C18       1.0  0.71177  0.97234  0.08247  1.0000
  C   C19       1.0  0.09747  0.77994  0.04422  1.0000
  C   C20       1.0  0.22311  0.32001  0.05057  1.0000
  C   C21       1.0  0.68010  0.90231  0.02473  1.0000
  C   C22       1.0  0.73221  0.69896  0.51610  1.0000
  C   C23       1.0  0.74086  0.67055  0.46600  1.0000
  C   C24       1.0  0.32307  0.09680  0.98090  1.0000
  C   C25       1.0  0.90599  0.22618  0.98499  1.0000
  C   C26       1.0  0.29178  0.09432  0.06944  1.0000
  C   C27       1.0  0.90950  0.19778  0.06621  1.0000
  C   C28       1.0  0.26363  0.05844  0.12369  1.0000
  C   C29       1.0  0.94616  0.20617  0.12171  1.0000
  C   C30       1.0  0.26694  0.02638  0.09099  1.0000
  C   C31       1.0  0.97790  0.24189  0.09859  1.0000
  C   C32       1.0  0.84577  0.69047  0.17220  1.0000
  C   C33       1.0  0.31300  0.15796  0.15434  1.0000
  C   C34       1.0  0.84602  0.15538  0.13387  1.0000
  C   C35       1.0  0.04308  0.57306  0.09391  1.0000
  C   C36       1.0  0.42945  0.47289  0.10192  1.0000
  C   C37       1.0  0.06931  0.60566  0.19086  1.0000
  C   C38       1.0  0.39731  0.46719  0.19318  1.0000
  C   C39       1.0  0.06722  0.63896  0.19230  1.0000
  C   C40       1.0  0.36492  0.43104  0.19769  1.0000
  C   C41       1.0  0.03771  0.63996  0.10292  1.0000
  C   C42       1.0  0.36418  0.39943  0.11504  1.0000
  C   C43       1.0  0.01106  0.60707  0.00824  1.0000
  C   C44       1.0  0.39677  0.40504  0.02736  1.0000
  C   C45       1.0  0.01395  0.57432  0.00163  1.0000
  C   C46       1.0  0.42864  0.44123  0.01829  1.0000
  C   C47       1.0  0.26757  0.96125  0.43412  1.0000
  C   C48       1.0  0.03647  0.30522  0.45143  1.0000
  C   C49       1.0  0.69315  0.72923  0.45237  1.0000
  C   C50       1.0  0.26873  0.92732  0.41298  1.0000
  C   C51       1.0  0.07042  0.33983  0.42948  1.0000
  C   C52       1.0  0.65799  0.72785  0.43044  1.0000
  C   C53       1.0  0.30467  0.92990  0.40573  1.0000
  C   C54       1.0  0.06820  0.37312  0.41930  1.0000
  C   C55       1.0  0.62444  0.69202  0.42277  1.0000
  C   C56       1.0  0.33885  0.96504  0.42780  1.0000
  C   C57       1.0  0.03331  0.37245  0.43600  1.0000
  C   C58       1.0  0.62532  0.65814  0.43906  1.0000
  C   C59       1.0  0.33669  0.99839  0.45229  1.0000
  C   C60       1.0  0.99976  0.33741  0.45770  1.0000
  C   C61       1.0  0.66093  0.66043  0.46230  1.0000
  C   C62       1.0  0.30118  0.99698  0.45638  1.0000
  C   C63       1.0  0.00091  0.30343  0.46719  1.0000
  C   C64       1.0  0.69513  0.69593  0.47235  1.0000
  C   C65       1.0  0.23323  0.88969  0.41690  1.0000
  C   C66       1.0  0.37586  0.96601  0.43941  1.0000
  C   C67       1.0  0.03312  0.40880  0.44384  1.0000
  C   C68       1.0  0.19795  0.88257  0.34796  1.0000
  C   C69       1.0  0.16425  0.84799  0.36993  1.0000
  C   C70       1.0  0.16496  0.81900  0.45974  1.0000
  C   C71       1.0  0.18239  0.37852  0.04714  1.0000
  C   C72       1.0  0.23378  0.85998  0.50106  1.0000
  C   C73       1.0  0.37581  0.93322  0.02367  1.0000
  C   C74       1.0  0.06838  0.44616  0.02690  1.0000
  C   C75       1.0  0.55649  0.62369  0.02158  1.0000
  C   C76       1.0  0.41073  0.93468  0.04516  1.0000
  C   C77       1.0  0.06652  0.47954  0.03661  1.0000
  C   C78       1.0  0.52295  0.58885  0.03449  1.0000
  C   C79       1.0  0.44439  0.96488  0.98001  1.0000
  C   C80       1.0  0.03442  0.48009  0.97013  1.0000
  C   C81       1.0  0.52108  0.55482  0.97409  1.0000
  C   C82       1.0  0.44471  0.99688  0.40019  1.0000
  C   C83       1.0  0.00504  0.44775  0.37742  1.0000
  C   C84       1.0  0.41014  0.99636  0.38093  1.0000
  C   C85       1.0  0.00482  0.41327  0.36233  1.0000
  C   C86       1.0  0.49017  0.95241  0.10221  1.0000
  C   C87       1.0  0.04653  0.53885  0.09027  1.0000
  C   C88       1.0  0.46258  0.51110  0.09214  1.0000
  C   C89       1.0  0.88761  0.69432  0.67179  1.0000
  C   C90       1.0  0.89537  0.66823  0.74904  1.0000
  C   C91       1.0  0.93195  0.67277  0.74648  1.0000
  C   C92       1.0  0.96190  0.70317  0.66353  1.0000
  C   C93       1.0  0.95390  0.72946  0.58796  1.0000
  C   C94       1.0  0.91767  0.72531  0.59230  1.0000
  C   C95       1.0  0.99995  0.70662  0.64468  1.0000
  C   C96       1.0  0.29277  0.29266  0.63871  1.0000
  C   C97       1.0  0.70588  0.99928  0.61713  1.0000
  C   C98       1.0  0.03926  0.67614  0.61679  1.0000
  C   C99       1.0  0.32360  0.36235  0.62011  1.0000
  C   C100      1.0  0.63563  0.95955  0.61319  1.0000
  C   C101      1.0  0.00397  0.67419  0.64615  1.0000
  C   C102      1.0  0.32558  0.32914  0.64321  1.0000
  C   C103      1.0  0.66940  0.99525  0.63081  1.0000
  C   C104      1.0  0.07110  0.71144  0.58277  1.0000
  C   C105      1.0  0.28781  0.35862  0.58801  1.0000
  C   C106      1.0  0.63858  0.92701  0.58057  1.0000
  C   C107      1.0  0.06796  0.74440  0.57983  1.0000
  C   C108      1.0  0.25443  0.32254  0.58304  1.0000
  C   C109      1.0  0.67471  0.93010  0.56577  1.0000
  C   C110      1.0  0.03273  0.74189  0.61436  1.0000
  C   C111      1.0  0.25699  0.28993  0.61118  1.0000
  C   C112      1.0  0.70800  0.96601  0.58546  1.0000
  C   C113      1.0  0.10106  0.78117  0.53895  1.0000
  C   C114      1.0  0.21729  0.31929  0.54688  1.0000
  C   C115      1.0  0.67772  0.89599  0.53088  1.0000
  C   C116      1.0  0.29745  0.02828  0.99771  1.0000
  C   C117      1.0  0.97487  0.27035  0.01469  1.0000
  C   C118      1.0  0.32550  0.06419  0.94379  1.0000
  C   C119      1.0  0.93817  0.26157  0.95828  1.0000
  C   C120      1.0  0.77639  0.67443  0.50488  1.0000
  C   C121      1.0  0.80503  0.70750  0.59153  1.0000
  C   C122      1.0  0.79631  0.73574  0.64478  1.0000
  C   C123      1.0  0.76044  0.73105  0.61025  1.0000
  C   C124      1.0  0.84891  0.68861  0.66806  1.0000
  C   C125      1.0  0.31133  0.16041  0.64878  1.0000
  C   C126      1.0  0.83834  0.15088  0.63352  1.0000
  C   C127      1.0  0.52621  0.95370  0.61546  1.0000
  C   C128      1.0  0.04774  0.57429  0.59974  1.0000
  C   C129      1.0  0.53107  0.92617  0.69739  1.0000
  C   C130      1.0  0.07678  0.60830  0.67857  1.0000
  C   C131      1.0  0.56641  0.92774  0.69800  1.0000
  C   C132      1.0  0.07426  0.64138  0.68387  1.0000
  C   C133      1.0  0.59805  0.95744  0.62018  1.0000
  C   C134      1.0  0.04208  0.64115  0.61459  1.0000
  C   C135      1.0  0.59329  0.98566  0.54380  1.0000
  C   C136      1.0  0.01254  0.60670  0.54002  1.0000
  C   C137      1.0  0.55802  0.98367  0.53947  1.0000
  C   C138      1.0  0.01544  0.57399  0.53062  1.0000
  C   C139      1.0  0.26522  0.95780  0.94007  1.0000
  C   C140      1.0  0.04514  0.31004  0.96666  1.0000
  C   C141      1.0  0.69251  0.73480  0.95803  1.0000
  C   C142      1.0  0.26583  0.92362  0.91807  1.0000
  C   C143      1.0  0.07862  0.34496  0.94321  1.0000
  C   C144      1.0  0.65727  0.73306  0.93298  1.0000
  C   C145      1.0  0.30147  0.92556  0.90849  1.0000
  C   C146      1.0  0.07582  0.37793  0.93148  1.0000
  C   C147      1.0  0.62381  0.69711  0.92244  1.0000
  C   C148      1.0  0.33589  0.96050  0.92757  1.0000
  C   C149      1.0  0.04054  0.37659  0.94905  1.0000
  C   C150      1.0  0.62499  0.66344  0.94227  1.0000
  C   C151      1.0  0.33435  0.99419  0.95125  1.0000
  C   C152      1.0  0.00758  0.34116  0.97394  1.0000
  C   C153      1.0  0.66063  0.66617  0.96999  1.0000
  C   C154      1.0  0.29916  0.99329  0.95876  1.0000
  C   C155      1.0  0.00927  0.30745  0.98258  1.0000
  C   C156      1.0  0.69464  0.70167  0.97921  1.0000
  C   C157      1.0  0.11615  0.34691  0.94469  1.0000
  C   C158      1.0  0.37292  0.96156  0.93813  1.0000
  C   C159      1.0  0.03852  0.41203  0.95182  1.0000
  C   C160      1.0  0.58929  0.62623  0.94725  1.0000
  C   C161      1.0  0.12107  0.31756  0.87149  1.0000
  C   C162      1.0  0.15544  0.31767  0.89196  1.0000
  C   C163      1.0  0.18637  0.34783  0.98373  1.0000
  C   C164      1.0  0.20058  0.82511  0.51908  1.0000
  C   C165      1.0  0.14770  0.37766  0.03031  1.0000
  C   C166      1.0  0.37761  0.93602  0.51523  1.0000
  C   C167      1.0  0.06173  0.44016  0.54022  1.0000
  C   C168      1.0  0.41197  0.93643  0.53500  1.0000
  C   C169      1.0  0.06175  0.47437  0.55754  1.0000
  C   C170      1.0  0.44642  0.96733  0.48029  1.0000
  C   C171      1.0  0.03311  0.47874  0.47704  1.0000
  C   C172      1.0  0.44129  0.99247  0.88957  1.0000
  C   C173      1.0  0.00520  0.44646  0.88936  1.0000
  C   C174      1.0  0.55333  0.55742  0.89386  1.0000
  C   C175      1.0  0.40636  0.99109  0.87003  1.0000
  C   C176      1.0  0.00698  0.41303  0.88207  1.0000
  C   C177      1.0  0.58692  0.59236  0.88211  1.0000
  C   C178      1.0  0.48884  0.95098  0.60433  1.0000
  C   C179      1.0  0.05172  0.54047  0.58811  1.0000
  C   C180      1.0  0.46060  0.51001  0.60809  1.0000
  N   N1        1.0  0.84031  0.71775  0.12856  1.0000
  N   N2        1.0  0.28604  0.12529  0.09559  1.0000
  N   N3        1.0  0.87872  0.16088  0.08345  1.0000
  N   N4        1.0  0.12898  0.78165  0.99955  1.0000
  N   N5        1.0  0.22148  0.34998  0.01557  1.0000
  N   N6        1.0  0.64963  0.86951  0.99736  1.0000
  N   N7        1.0  0.48134  0.96997  0.99376  1.0000
  N   N8        1.0  0.02970  0.51214  0.97387  1.0000
  N   N9        1.0  0.48929  0.51809  0.98531  1.0000
  N   N10       1.0  0.84233  0.71462  0.61608  1.0000
  N   N11       1.0  0.28485  0.12751  0.58956  1.0000
  N   N12       1.0  0.87142  0.15752  0.58361  1.0000
  N   N13       1.0  0.13302  0.78383  0.49507  1.0000
  N   N14       1.0  0.21499  0.34865  0.50728  1.0000
  N   N15       1.0  0.64786  0.86316  0.49580  1.0000
  N   N16       1.0  0.48259  0.97072  0.49721  1.0000
  N   N17       1.0  0.02971  0.51161  0.48807  1.0000
  N   N18       1.0  0.48587  0.51606  0.49489  1.0000
  C  Sn1       1.0  0.67907  0.82739  0.82785  1.0000
  C   C181      1.0  0.65223  0.83371  0.91201  1.0000
  C  Sn2       1.0  0.62200  0.79757  0.02503  1.0000
  C  Sn3       1.0  0.62390  0.76425  0.05463  1.0000
  C   C182      1.0  0.65598  0.76777  0.97052  1.0000
  C  Sn4       1.0  0.68097  0.79407  0.85746  1.0000
  O  Te1       1.0  0.70377  0.85408  0.71542  1.0000
  O  Te2       1.0  0.59540  0.80451  0.10763  1.0000
  O  Te3       1.0  0.59917  0.73755  0.16716  1.0000
  O  Te4       1.0  0.70756  0.78714  0.77491  1.0000
  Mg  Mg1       1.0  0.56791  0.75971  0.24919  1.0000
  Mg  Mg2       1.0  0.73508  0.83193  0.63340  1.0000
  C  Sn5       1.0  0.78381  0.73477  0.20005  1.0000
  C   C183      1.0  0.79795  0.71133  0.14206  1.0000
  C  Sn6       1.0  0.77963  0.68485  0.00769  1.0000
  C  Sn7       1.0  0.75174  0.69158  0.92956  1.0000
  C   C184      1.0  0.73761  0.71502  0.98752  1.0000
  C  Sn8       1.0  0.75067  0.73168  0.12192  1.0000
  O  Te5       1.0  0.80258  0.76104  0.33456  1.0000
  O  Te6       1.0  0.79954  0.67154  0.95198  1.0000
  O  Te7       1.0  0.73296  0.66528  0.79496  1.0000
  O  Te8       1.0  0.73602  0.75481  0.17761  1.0000
  Mg  Mg3       1.0  0.76390  0.64012  0.76442  1.0000
  Mg  Mg4       1.0  0.77165  0.78625  0.36509  1.0000
  C  Sn9       1.0  0.31961  0.09252  0.42131  1.0000
  C   C185      1.0  0.29210  0.09525  0.51806  1.0000
  C  Sn10      1.0  0.26860  0.06598  0.62343  1.0000
  C  Sn11      1.0  0.27269  0.03330  0.63237  1.0000
  C   C186      1.0  0.30018  0.03059  0.53569  1.0000
  C  Sn12      1.0  0.32370  0.05984  0.43026  1.0000
  O  Te9       1.0  0.34280  0.12212  0.31685  1.0000
  O  Te10      1.0  0.24129  0.06935  0.71891  1.0000
  O  Te11      1.0  0.75348  0.00369  0.73694  1.0000
  O  Te12      1.0  0.35099  0.05649  0.33484  1.0000
  Mg  Mg5       1.0  0.21647  0.02148  0.84252  1.0000
  Mg  Mg6       1.0  0.37584  0.10434  0.21126  1.0000
  C  Sn13      1.0  0.52607  0.59729  0.51498  1.0000
  C   C187      1.0  0.51598  0.56077  0.45107  1.0000
  C  Sn14      1.0  0.54409  0.55301  0.39235  1.0000
  C  Sn15      1.0  0.58310  0.58236  0.39771  1.0000
  C   C188      1.0  0.59318  0.61886  0.46162  1.0000
  C  Sn16      1.0  0.56508  0.62665  0.52035  1.0000
  O  Te13      1.0  0.49749  0.60440  0.57301  1.0000
  O  Te14      1.0  0.53331  0.51627  0.32896  1.0000
  O  Te15      1.0  0.61168  0.57522  0.33961  1.0000
  O  Te16      1.0  0.57585  0.66335  0.58373  1.0000
  Mg  Mg7       1.0  0.58270  0.52064  0.26480  1.0000
  Mg  Mg8       1.0  0.52649  0.65902  0.64800  1.0000
  C  Sn17      1.0  0.33701  0.25785  0.70407  1.0000
  C   C189      1.0  0.30696  0.26062  0.63158  1.0000
  C  Sn18      1.0  0.27295  0.22771  0.57984  1.0000
  C  Sn19      1.0  0.26888  0.19127  0.60109  1.0000
  C   C190      1.0  0.29892  0.18851  0.67356  1.0000
  C  Sn20      1.0  0.33294  0.22140  0.72531  1.0000
  O  Te17      1.0  0.37075  0.29113  0.75488  1.0000
  O  Te18      1.0  0.24332  0.23121  0.50765  1.0000
  O  Te19      1.0  0.23511  0.15798  0.55019  1.0000
  O  Te20      1.0  0.36256  0.21792  0.79749  1.0000
  Mg  Mg9       1.0  0.20290  0.17751  0.45853  1.0000
  Mg  Mg10      1.0  0.40298  0.27159  0.84673  1.0000
  C  Sn21      1.0  0.57089  0.99504  0.98121  1.0000
  C   C191      1.0  0.53242  0.95730  0.05545  1.0000
  C  Sn22      1.0  0.53461  0.93429  0.17672  1.0000
  C  Sn23      1.0  0.57077  0.93930  0.22490  1.0000
  C   C192      1.0  0.60397  0.96720  0.15071  1.0000
  C  Sn24      1.0  0.60180  0.99022  0.02939  1.0000
  O  Te21      1.0  0.06401  0.01772  0.86024  1.0000
  O  Te22      1.0  0.50100  0.90657  0.24912  1.0000
  O  Te23      1.0  0.57361  0.91659  0.34597  1.0000
  O  Te24      1.0  0.13662  0.02776  0.95704  1.0000
  Mg  Mg11      1.0  0.51970  0.88272  0.40839  1.0000
  Mg  Mg12      1.0  0.11795  0.05164  0.79783  1.0000
  C  Sn25      1.0  0.79789  0.07490  0.50787  1.0000
  C   C193      1.0  0.80259  0.10795  0.59193  1.0000
  C  Sn26      1.0  0.77669  0.10560  0.71412  1.0000
  C  Sn27      1.0  0.74544  0.06946  0.75321  1.0000
  C   C194      1.0  0.74076  0.03644  0.66921  1.0000
  C  Sn28      1.0  0.76665  0.03876  0.54696  1.0000
  O  Te25      1.0  0.82414  0.07792  0.38617  1.0000
  O  Te26      1.0  0.78197  0.13903  0.79642  1.0000
  O  Te27      1.0  0.71919  0.06646  0.87502  1.0000
  O  Te28      1.0  0.76138  0.00535  0.46471  1.0000
  Mg  Mg13      1.0  0.73858  0.12016  0.95265  1.0000
  Mg  Mg14      1.0  0.80477  0.02419  0.30853  1.0000
  C  Sn29      1.0  0.91959  0.25558  0.49461  1.0000
  C   C195      1.0  0.95801  0.26858  0.53565  1.0000
  C  Sn30      1.0  0.96954  0.24300  0.58410  1.0000
  C  Sn31      1.0  0.94210  0.20360  0.59160  1.0000
  C   C196      1.0  0.90371  0.19062  0.55055  1.0000
  C  Sn32      1.0  0.89216  0.21618  0.50211  1.0000
  O  Te29      1.0  0.90871  0.28166  0.44649  1.0000
  O  Te30      1.0  0.00811  0.25668  0.62459  1.0000
  O  Te31      1.0  0.95301  0.17753  0.63977  1.0000
  O  Te32      1.0  0.85362  0.20252  0.46161  1.0000
  Mg  Mg15      1.0  0.00888  0.20998  0.68287  1.0000
  Mg  Mg16      1.0  0.85281  0.24919  0.40323  1.0000
  C  Sn33      1.0  0.62648  0.79101  0.57309  1.0000
  C   C197      1.0  0.65099  0.82653  0.50700  1.0000
  C  Sn34      1.0  0.67710  0.83009  0.38353  1.0000
  C  Sn35      1.0  0.67874  0.79747  0.32481  1.0000
  C   C198      1.0  0.65424  0.76198  0.39087  1.0000
  C  Sn36      1.0  0.62812  0.75839  0.51437  1.0000
  O  Te33      1.0  0.60060  0.78811  0.69644  1.0000
  O  Te34      1.0  0.70131  0.86590  0.31941  1.0000
  O  Te35      1.0  0.70465  0.80040  0.20137  1.0000
  O  Te36      1.0  0.60392  0.72260  0.57846  1.0000
  Mg  Mg17      1.0  0.73167  0.85532  0.15292  1.0000
  Mg  Mg18      1.0  0.57354  0.73315  0.74488  1.0000
  C  Sn37      1.0  0.77481  0.10218  0.26467  1.0000
  C   C199      1.0  0.80934  0.11376  0.18282  1.0000
  C  Sn38      1.0  0.81185  0.09039  0.05563  1.0000
  C  Sn39      1.0  0.77916  0.05471  0.00921  1.0000
  C   C200      1.0  0.74464  0.04315  0.09102  1.0000
  C  Sn40      1.0  0.74211  0.06650  0.21825  1.0000
  O  Te37      1.0  0.77295  0.12600  0.39146  1.0000
  O  Te38      1.0  0.85194  0.11240  0.97565  1.0000
  O  Te39      1.0  0.78628  0.04072  0.88232  1.0000
  O  Te40      1.0  0.70729  0.05434  0.29818  1.0000
  Mg  Mg19      1.0  0.84012  0.06989  0.81047  1.0000
  Mg  Mg20      1.0  0.71908  0.09684  0.46331  1.0000
  C  Sn41      1.0  0.40418  0.40898  0.57659  1.0000
  C   C201      1.0  0.36953  0.39939  0.65354  1.0000
  C  Sn42      1.0  0.36138  0.42784  0.70511  1.0000
  C  Sn43      1.0  0.38841  0.46669  0.67913  1.0000
  C   C202      1.0  0.42302  0.47626  0.60220  1.0000
  C  Sn44      1.0  0.43121  0.44783  0.55062  1.0000
  O  Te41      1.0  0.41173  0.38007  0.52604  1.0000
  O  Te42      1.0  0.32655  0.41755  0.78182  1.0000
  O  Te43      1.0  0.38083  0.49560  0.72976  1.0000
  O  Te44      1.0  0.46600  0.45810  0.47393  1.0000
  Mg  Mg21      1.0  0.32942  0.46725  0.82861  1.0000
  Mg  Mg22      1.0  0.46316  0.40842  0.42701  1.0000
  C  Sn45      1.0  0.20353  0.83159  0.06497  1.0000
  C   C203      1.0  0.16670  0.82068  0.00503  1.0000
  C  Sn46      1.0  0.16659  0.85176  0.88442  1.0000
  C  Sn47      1.0  0.19870  0.88459  0.82234  1.0000
  C   C204      1.0  0.23550  0.89548  0.88225  1.0000
  C  Sn48      1.0  0.23565  0.86442  0.00288  1.0000
  O  Te45      1.0  0.20822  0.80991  0.18554  1.0000
  O  Te46      1.0  0.12949  0.84030  0.82645  1.0000
  O  Te47      1.0  0.19398  0.90627  0.70167  1.0000
  O  Te48      1.0  0.27271  0.87586  0.06082  1.0000
  Mg  Mg23      1.0  0.13782  0.87914  0.66170  1.0000
  Mg  Mg24      1.0  0.26443  0.83704  0.22550  1.0000
  C  Sn49      1.0  0.90035  0.67202  0.29435  1.0000
  C   C205      1.0  0.88819  0.69568  0.22716  1.0000
  C  Sn50      1.0  0.91062  0.72275  0.11105  1.0000
  C  Sn51      1.0  0.94593  0.72623  0.06095  1.0000
  C   C206      1.0  0.95806  0.70257  0.12810  1.0000
  C  Sn52      1.0  0.93565  0.67549  0.24425  1.0000
  O  Te49      1.0  0.87746  0.64515  0.41025  1.0000
  O  Te50      1.0  0.89788  0.74610  0.04566  1.0000
  O  Te51      1.0  0.97406  0.76294  0.94495  1.0000
  O  Te52      1.0  0.94837  0.65215  0.30961  1.0000
  Mg  Mg25      1.0  0.94441  0.78818  0.89138  1.0000
  Mg  Mg26      1.0  0.90711  0.61987  0.46382  1.0000
  C  Sn53      1.0  0.32981  0.23015  0.29506  1.0000
  C   C207      1.0  0.30712  0.19465  0.21144  1.0000
  C  Sn54      1.0  0.28135  0.19034  0.08303  1.0000
  C  Sn55      1.0  0.27820  0.22218  0.03715  1.0000
  C   C208      1.0  0.30088  0.25764  0.12073  1.0000
  C  Sn56      1.0  0.32666  0.26198  0.24919  1.0000
  O  Te53      1.0  0.35539  0.23380  0.42305  1.0000
  O  Te54      1.0  0.25896  0.15458  0.00130  1.0000
  O  Te55      1.0  0.25784  0.22832  0.90906  1.0000
  O  Te56      1.0  0.34904  0.29772  0.33087  1.0000
  Mg  Mg27      1.0  0.23356  0.17379  0.83497  1.0000
  Mg  Mg28      1.0  0.37971  0.28837  0.49715  1.0000
  C  Sn57      1.0  0.11679  0.30535  0.40431  1.0000
  C   C209      1.0  0.10680  0.33228  0.45967  1.0000
  C  Sn58      1.0  0.13515  0.36922  0.51125  1.0000
  C  Sn59      1.0  0.17429  0.37946  0.50732  1.0000
  C   C210      1.0  0.18426  0.35255  0.45196  1.0000
  C  Sn60      1.0  0.15594  0.31560  0.40039  1.0000
  O  Te57      1.0  0.08798  0.26859  0.35333  1.0000
  O  Te58      1.0  0.12446  0.39564  0.56614  1.0000
  O  Te59      1.0  0.20311  0.41626  0.55837  1.0000
  O  Te60      1.0  0.16661  0.28919  0.34549  1.0000
  Mg  Mg29      1.0  0.17418  0.44215  0.62283  1.0000
  Mg  Mg30      1.0  0.11692  0.24267  0.28869  1.0000
