data_image0
_chemical_formula_structural       H54C90N18SnCSn2CSnTe4Mg2SnCSn2CSnTe4Mg2SnCSn2CSnTe4Mg2SnCSn2CSnTe4Mg2SnCSn2CSnTe4Mg2SnCSn2CSnTe4Mg2SnCSn2CSnTe4Mg2SnCSn2CSnTe4Mg2SnCSn2CSnTe4Mg2SnCSn2CSnTe4Mg2SnCSn2CSnTe4Mg2SnCSn2CSnTe4Mg2SnCSn2CSnTe4Mg2SnCSn2CSnTe4Mg2SnCSn2CSnTe4Mg2SnCSn2CSnTe4Mg2SnCSn2CSnTe4Mg2SnCSn2CSnTe4Mg2SnCSn2CSnTe4Mg2SnCSn2CSnTe4Mg2SnCSn2CSnTe4Mg2SnCSn2CSnTe4Mg2SnCSn2CSnTe4Mg2SnCSn2CSnTe4Mg2SnCSn2CSnTe4Mg2SnCSn2CSnTe4Mg2SnCSn2CSnTe4Mg2SnCSn2CSnTe4Mg2SnCSn2CSnTe4Mg2SnCSn2CSnTe4Mg2
_chemical_formula_sum              "H54 C150 N18 Sn120 Te120 Mg60"
_cell_length_a       40.3551
_cell_length_b       40.5258
_cell_length_c       7.93251
_cell_angle_alpha    92.1088
_cell_angle_beta     90.0858
_cell_angle_gamma    120.125

_symmetry_space_group_name_H-M    'P1'
_space_group_IT_number       1

loop_
  _space_group_symop_operation_xyz
  'x, y, z'

loop_
  _atom_site_type_symbol
  _atom_site_label
  _atom_site_symmetry_multiplicity
  _atom_site_fract_x
  _atom_site_fract_y
  _atom_site_fract_z
  _atom_site_occupancy
  H   H1        1.0  0.97412  0.64488  0.15178  1.0000
  H   H2        1.0  0.35895  0.33073  0.16096  1.0000
  H   H3        1.0  0.67261  0.02893  0.14208  1.0000
  H   H4        1.0  0.09457  0.71301  0.05573  1.0000
  H   H5        1.0  0.29125  0.38320  0.06413  1.0000
  H   H6        1.0  0.61667  0.90696  0.05640  1.0000
  H   H7        1.0  0.02722  0.76703  0.12023  1.0000
  H   H8        1.0  0.23603  0.26198  0.10944  1.0000
  H   H9        1.0  0.73926  0.97347  0.07533  1.0000
  H   H10       1.0  0.09461  0.80554  0.05814  1.0000
  H   H11       1.0  0.19711  0.29184  0.05950  1.0000
  H   H12       1.0  0.70893  0.90567  0.02521  1.0000
  H   H13       1.0  0.82179  0.66235  0.20382  1.0000
  H   H14       1.0  0.34073  0.16222  0.20016  1.0000
  H   H15       1.0  0.84221  0.17927  0.17891  1.0000
  H   H16       1.0  0.23989  0.95970  0.43920  1.0000
  H   H17       1.0  0.03810  0.27940  0.46253  1.0000
  H   H18       1.0  0.71944  0.75681  0.46007  1.0000
  H   H19       1.0  0.30611  0.90400  0.38414  1.0000
  H   H20       1.0  0.09402  0.40014  0.39790  1.0000
  H   H21       1.0  0.59691  0.69028  0.40403  1.0000
  H   H22       1.0  0.36290  0.02545  0.47874  1.0000
  H   H23       1.0  0.97290  0.33699  0.47808  1.0000
  H   H24       1.0  0.66179  0.63447  0.48296  1.0000
  H   H25       1.0  0.46986  0.93288  0.19310  1.0000
  H   H26       1.0  0.06381  0.53709  0.19314  1.0000
  H   H27       1.0  0.46328  0.53299  0.18066  1.0000
  H   H28       1.0  0.97903  0.64655  0.66853  1.0000
  H   H29       1.0  0.35358  0.33204  0.66426  1.0000
  H   H30       1.0  0.66686  0.02047  0.65475  1.0000
  H   H31       1.0  0.09864  0.71399  0.55426  1.0000
  H   H32       1.0  0.28486  0.38326  0.56336  1.0000
  H   H33       1.0  0.61320  0.89888  0.56321  1.0000
  H   H34       1.0  0.03096  0.76784  0.61671  1.0000
  H   H35       1.0  0.23085  0.26219  0.61132  1.0000
  H   H36       1.0  0.73579  0.96786  0.57563  1.0000
  H   H37       1.0  0.09729  0.80626  0.55014  1.0000
  H   H38       1.0  0.19167  0.29092  0.55845  1.0000
  H   H39       1.0  0.70662  0.89967  0.54153  1.0000
  H   H40       1.0  0.82574  0.66104  0.71025  1.0000
  H   H41       1.0  0.33912  0.16500  0.69546  1.0000
  H   H42       1.0  0.83315  0.17412  0.67495  1.0000
  H   H43       1.0  0.23775  0.95659  0.94935  1.0000
  H   H44       1.0  0.04748  0.28462  0.97811  1.0000
  H   H45       1.0  0.71862  0.76253  0.96725  1.0000
  H   H46       1.0  0.30251  0.89944  0.88664  1.0000
  H   H47       1.0  0.10147  0.40496  0.90781  1.0000
  H   H48       1.0  0.59639  0.69526  0.89793  1.0000
  H   H49       1.0  0.36086  0.02110  0.97566  1.0000
  H   H50       1.0  0.98053  0.34022  0.99598  1.0000
  H   H51       1.0  0.66171  0.64050  0.99506  1.0000
  H   H52       1.0  0.46695  0.93152  0.69003  1.0000
  H   H53       1.0  0.07467  0.54164  0.66755  1.0000
  H   H54       1.0  0.46323  0.53210  0.70050  1.0000
  C   C1        1.0  0.99558  0.70553  0.14081  1.0000
  C   C2        1.0  0.29784  0.29192  0.13798  1.0000
  C   C3        1.0  0.71041  0.00605  0.11243  1.0000
  C   C4        1.0  0.03462  0.67482  0.10802  1.0000
  C   C5        1.0  0.32931  0.36143  0.11634  1.0000
  C   C6        1.0  0.64006  0.96778  0.10450  1.0000
  C   C7        1.0  0.99922  0.67278  0.13507  1.0000
  C   C8        1.0  0.33107  0.32816  0.14079  1.0000
  C   C9        1.0  0.67427  0.00311  0.12208  1.0000
  C   C10       1.0  0.06682  0.71025  0.08094  1.0000
  C   C11       1.0  0.29366  0.35821  0.08764  1.0000
  C   C12       1.0  0.64237  0.93480  0.07426  1.0000
  C   C13       1.0  0.06388  0.74332  0.08117  1.0000
  C   C14       1.0  0.26001  0.32244  0.08340  1.0000
  C   C15       1.0  0.67802  0.93688  0.06090  1.0000
  C   C16       1.0  0.02868  0.74091  0.11480  1.0000
  C   C17       1.0  0.26228  0.28963  0.11003  1.0000
  C   C18       1.0  0.71177  0.97234  0.08247  1.0000
  C   C19       1.0  0.09747  0.77994  0.04422  1.0000
  C   C20       1.0  0.22311  0.32001  0.05057  1.0000
  C   C21       1.0  0.68010  0.90231  0.02473  1.0000
  C   C22       1.0  0.84577  0.69047  0.17220  1.0000
  C   C23       1.0  0.31300  0.15796  0.15434  1.0000
  C   C24       1.0  0.84602  0.15538  0.13387  1.0000
  C   C25       1.0  0.26757  0.96125  0.43412  1.0000
  C   C26       1.0  0.03647  0.30522  0.45143  1.0000
  C   C27       1.0  0.69315  0.72923  0.45237  1.0000
  C   C28       1.0  0.26873  0.92732  0.41298  1.0000
  C   C29       1.0  0.07042  0.33983  0.42948  1.0000
  C   C30       1.0  0.65799  0.72785  0.43044  1.0000
  C   C31       1.0  0.30467  0.92990  0.40573  1.0000
  C   C32       1.0  0.06820  0.37312  0.41930  1.0000
  C   C33       1.0  0.62444  0.69202  0.42277  1.0000
  C   C34       1.0  0.33885  0.96504  0.42780  1.0000
  C   C35       1.0  0.03331  0.37245  0.43600  1.0000
  C   C36       1.0  0.62532  0.65814  0.43906  1.0000
  C   C37       1.0  0.33669  0.99839  0.45229  1.0000
  C   C38       1.0  0.99976  0.33741  0.45770  1.0000
  C   C39       1.0  0.66093  0.66043  0.46230  1.0000
  C   C40       1.0  0.30118  0.99698  0.45638  1.0000
  C   C41       1.0  0.00091  0.30343  0.46719  1.0000
  C   C42       1.0  0.69513  0.69593  0.47235  1.0000
  C   C43       1.0  0.49017  0.95241  0.10221  1.0000
  C   C44       1.0  0.04653  0.53885  0.09027  1.0000
  C   C45       1.0  0.46258  0.51110  0.09214  1.0000
  C   C46       1.0  0.99995  0.70662  0.64468  1.0000
  C   C47       1.0  0.29277  0.29266  0.63871  1.0000
  C   C48       1.0  0.70588  0.99928  0.61713  1.0000
  C   C49       1.0  0.03926  0.67614  0.61679  1.0000
  C   C50       1.0  0.32360  0.36235  0.62011  1.0000
  C   C51       1.0  0.63563  0.95955  0.61319  1.0000
  C   C52       1.0  0.00397  0.67419  0.64615  1.0000
  C   C53       1.0  0.32558  0.32914  0.64321  1.0000
  C   C54       1.0  0.66940  0.99525  0.63081  1.0000
  C   C55       1.0  0.07110  0.71144  0.58277  1.0000
  C   C56       1.0  0.28781  0.35862  0.58801  1.0000
  C   C57       1.0  0.63858  0.92701  0.58057  1.0000
  C   C58       1.0  0.06796  0.74440  0.57983  1.0000
  C   C59       1.0  0.25443  0.32254  0.58304  1.0000
  C   C60       1.0  0.67471  0.93010  0.56577  1.0000
  C   C61       1.0  0.03273  0.74189  0.61436  1.0000
  C   C62       1.0  0.25699  0.28993  0.61118  1.0000
  C   C63       1.0  0.70800  0.96601  0.58546  1.0000
  C   C64       1.0  0.10106  0.78117  0.53895  1.0000
  C   C65       1.0  0.21729  0.31929  0.54688  1.0000
  C   C66       1.0  0.67772  0.89599  0.53088  1.0000
  C   C67       1.0  0.84891  0.68861  0.66806  1.0000
  C   C68       1.0  0.31133  0.16041  0.64878  1.0000
  C   C69       1.0  0.83834  0.15088  0.63352  1.0000
  C   C70       1.0  0.26522  0.95780  0.94007  1.0000
  C   C71       1.0  0.04514  0.31004  0.96666  1.0000
  C   C72       1.0  0.69251  0.73480  0.95803  1.0000
  C   C73       1.0  0.26583  0.92362  0.91807  1.0000
  C   C74       1.0  0.07862  0.34496  0.94321  1.0000
  C   C75       1.0  0.65727  0.73306  0.93298  1.0000
  C   C76       1.0  0.30147  0.92556  0.90849  1.0000
  C   C77       1.0  0.07582  0.37793  0.93148  1.0000
  C   C78       1.0  0.62381  0.69711  0.92244  1.0000
  C   C79       1.0  0.33589  0.96050  0.92757  1.0000
  C   C80       1.0  0.04054  0.37659  0.94905  1.0000
  C   C81       1.0  0.62499  0.66344  0.94227  1.0000
  C   C82       1.0  0.33435  0.99419  0.95125  1.0000
  C   C83       1.0  0.00758  0.34116  0.97394  1.0000
  C   C84       1.0  0.66063  0.66617  0.96999  1.0000
  C   C85       1.0  0.29916  0.99329  0.95876  1.0000
  C   C86       1.0  0.00927  0.30745  0.98258  1.0000
  C   C87       1.0  0.69464  0.70167  0.97921  1.0000
  C   C88       1.0  0.48884  0.95098  0.60433  1.0000
  C   C89       1.0  0.05172  0.54047  0.58811  1.0000
  C   C90       1.0  0.46060  0.51001  0.60809  1.0000
  N   N1        1.0  0.84031  0.71775  0.12856  1.0000
  N   N2        1.0  0.28604  0.12529  0.09559  1.0000
  N   N3        1.0  0.87872  0.16088  0.08345  1.0000
  N   N4        1.0  0.12898  0.78165  0.99955  1.0000
  N   N5        1.0  0.22148  0.34998  0.01557  1.0000
  N   N6        1.0  0.64963  0.86951  0.99736  1.0000
  N   N7        1.0  0.48134  0.96997  0.99376  1.0000
  N   N8        1.0  0.02970  0.51214  0.97387  1.0000
  N   N9        1.0  0.48929  0.51809  0.98531  1.0000
  N   N10       1.0  0.84233  0.71462  0.61608  1.0000
  N   N11       1.0  0.28485  0.12751  0.58956  1.0000
  N   N12       1.0  0.87142  0.15752  0.58361  1.0000
  N   N13       1.0  0.13302  0.78383  0.49507  1.0000
  N   N14       1.0  0.21499  0.34865  0.50728  1.0000
  N   N15       1.0  0.64786  0.86316  0.49580  1.0000
  N   N16       1.0  0.48259  0.97072  0.49721  1.0000
  N   N17       1.0  0.02971  0.51161  0.48807  1.0000
  N   N18       1.0  0.48587  0.51606  0.49489  1.0000
  C  Sn1       1.0  0.94731  0.73826  0.14351  1.0000
  C   C91       1.0  0.95852  0.71269  0.19593  1.0000
  C  Sn2       1.0  0.93104  0.67539  0.23275  1.0000
  C  Sn3       1.0  0.89152  0.66338  0.21675  1.0000
  C   C92       1.0  0.88033  0.68894  0.16433  1.0000
  C  Sn4       1.0  0.90780  0.72625  0.12751  1.0000
  O  Te1       1.0  0.97528  0.77542  0.10736  1.0000
  O  Te2       1.0  0.94294  0.65034  0.28499  1.0000
  O  Te3       1.0  0.86355  0.62619  0.25296  1.0000
  O  Te4       1.0  0.89591  0.75128  0.07527  1.0000
  Mg  Mg1       1.0  0.89403  0.60262  0.31953  1.0000
  Mg  Mg2       1.0  0.94479  0.79900  0.04061  1.0000
  C  Sn5       1.0  0.28007  0.19872  0.02865  1.0000
  C   C93       1.0  0.30759  0.19423  0.11572  1.0000
  C  Sn6       1.0  0.33065  0.22096  0.24219  1.0000
  C  Sn7       1.0  0.32610  0.25283  0.28256  1.0000
  C   C94       1.0  0.29859  0.25729  0.19553  1.0000
  C  Sn8       1.0  0.27551  0.23058  0.06901  1.0000
  O  Te5       1.0  0.26257  0.18146  0.90269  1.0000
  O  Te6       1.0  0.35798  0.21588  0.32746  1.0000
  O  Te7       1.0  0.34887  0.27991  0.40863  1.0000
  O  Te8       1.0  0.25344  0.24547  0.98380  1.0000
  Mg  Mg3       1.0  0.38210  0.26049  0.48911  1.0000
  Mg  Mg4       1.0  0.22930  0.20087  0.82219  1.0000
  C  Sn9       1.0  0.79129  0.05405  0.08491  1.0000
  C   C95       1.0  0.75544  0.04333  0.15198  1.0000
  C  Sn10      1.0  0.74632  0.07104  0.20455  1.0000
  C  Sn11      1.0  0.77359  0.11028  0.18967  1.0000
  C   C96       1.0  0.80941  0.12098  0.12261  1.0000
  C  Sn12      1.0  0.81856  0.09329  0.07003  1.0000
  O  Te9       1.0  0.79979  0.02586  0.03315  1.0000
  O  Te10      1.0  0.71030  0.05962  0.27126  1.0000
  O  Te11      1.0  0.76505  0.13847  0.24151  1.0000
  O  Te12      1.0  0.85455  0.10469  0.00333  1.0000
  Mg  Mg5       1.0  0.71218  0.10867  0.32417  1.0000
  Mg  Mg6       1.0  0.85794  0.06550  0.95030  1.0000
  C  Sn13      1.0  0.77236  0.67681  0.44765  1.0000
  C   C97       1.0  0.80262  0.70599  0.54385  1.0000
  C  Sn14      1.0  0.79666  0.73121  0.64652  1.0000
  C  Sn15      1.0  0.75968  0.72716  0.65328  1.0000
  C   C98       1.0  0.72945  0.69799  0.55715  1.0000
  C  Sn16      1.0  0.73538  0.67276  0.45441  1.0000
  O  Te13      1.0  0.77897  0.65193  0.34589  1.0000
  O  Te14      1.0  0.82736  0.76016  0.74150  1.0000
  O  Te15      1.0  0.75309  0.75208  0.75515  1.0000
  O  Te16      1.0  0.70471  0.64382  0.35950  1.0000
  Mg  Mg7       1.0  0.80401  0.78695  0.86108  1.0000
  Mg  Mg8       1.0  0.72802  0.61701  0.23995  1.0000
  C  Sn17      1.0  0.31961  0.09252  0.42131  1.0000
  C   C99       1.0  0.29210  0.09525  0.51806  1.0000
  C  Sn18      1.0  0.26860  0.06598  0.62343  1.0000
  C  Sn19      1.0  0.27269  0.03330  0.63237  1.0000
  C   C100      1.0  0.30018  0.03059  0.53569  1.0000
  C  Sn20      1.0  0.32370  0.05984  0.43026  1.0000
  O  Te17      1.0  0.34280  0.12212  0.31685  1.0000
  O  Te18      1.0  0.24129  0.06935  0.71891  1.0000
  O  Te19      1.0  0.75348  0.00369  0.73694  1.0000
  O  Te20      1.0  0.35099  0.05649  0.33484  1.0000
  Mg  Mg9       1.0  0.21647  0.02148  0.84252  1.0000
  Mg  Mg10      1.0  0.37584  0.10434  0.21126  1.0000
  C  Sn21      1.0  0.94446  0.21473  0.66609  1.0000
  C   C101      1.0  0.90674  0.20006  0.60779  1.0000
  C  Sn22      1.0  0.89837  0.21816  0.48188  1.0000
  C  Sn23      1.0  0.92833  0.25161  0.41270  1.0000
  C   C102      1.0  0.96601  0.26625  0.47097  1.0000
  C  Sn24      1.0  0.97441  0.24817  0.59691  1.0000
  O  Te21      1.0  0.95216  0.19616  0.79205  1.0000
  O  Te22      1.0  0.86045  0.20297  0.42568  1.0000
  O  Te23      1.0  0.92059  0.27017  0.28665  1.0000
  O  Te24      1.0  0.01231  0.26335  0.65308  1.0000
  Mg  Mg11      1.0  0.86439  0.23850  0.25174  1.0000
  Mg  Mg12      1.0  0.00840  0.22783  0.82695  1.0000
  C  Sn25      1.0  0.77707  0.69279  0.94642  1.0000
  C   C103      1.0  0.80157  0.71088  0.04932  1.0000
  C  Sn26      1.0  0.79511  0.73483  0.15833  1.0000
  C  Sn27      1.0  0.75813  0.73078  0.16470  1.0000
  C   C104      1.0  0.72840  0.70288  0.06187  1.0000
  C  Sn28      1.0  0.74009  0.68874  0.95280  1.0000
  O  Te25      1.0  0.78419  0.66915  0.83841  1.0000
  O  Te26      1.0  0.82530  0.76253  0.25995  1.0000
  O  Te27      1.0  0.75103  0.75444  0.27283  1.0000
  O  Te28      1.0  0.70993  0.66104  0.85125  1.0000
  Mg  Mg13      1.0  0.80136  0.78788  0.38653  1.0000
  Mg  Mg14      1.0  0.73382  0.63566  0.72468  1.0000
  C  Sn29      1.0  0.25778  0.02939  0.05960  1.0000
  C   C105      1.0  0.29231  0.03669  0.97715  1.0000
  C  Sn30      1.0  0.32711  0.06966  0.94788  1.0000
  C  Sn31      1.0  0.32752  0.09608  0.00224  1.0000
  C   C106      1.0  0.29825  0.09858  0.08466  1.0000
  C  Sn32      1.0  0.26344  0.06563  0.11396  1.0000
  O  Te29      1.0  0.72724  0.99605  0.08753  1.0000
  O  Te30      1.0  0.35595  0.06642  0.86515  1.0000
  O  Te31      1.0  0.36735  0.13924  0.97423  1.0000
  O  Te32      1.0  0.23461  0.06885  0.19666  1.0000
  Mg  Mg15      1.0  0.39798  0.12008  0.85638  1.0000
  Mg  Mg16      1.0  0.19258  0.01521  0.20557  1.0000
  C  Sn33      1.0  0.91295  0.23017  0.92925  1.0000
  C   C107      1.0  0.90558  0.19012  0.01728  1.0000
  C  Sn34      1.0  0.93589  0.19590  0.12316  1.0000
  C  Sn35      1.0  0.96901  0.23266  0.14154  1.0000
  C   C108      1.0  0.97112  0.26286  0.05358  1.0000
  C  Sn36      1.0  0.94607  0.26693  0.94763  1.0000
  O  Te33      1.0  0.88231  0.22374  0.82409  1.0000
  O  Te34      1.0  0.93312  0.16524  0.20982  1.0000
  O  Te35      1.0  0.99966  0.23907  0.24681  1.0000
  O  Te36      1.0  0.94883  0.29756  0.86103  1.0000
  Mg  Mg17      1.0  0.98236  0.18829  0.33826  1.0000
  Mg  Mg18      1.0  0.89960  0.27455  0.73264  1.0000
  C  Sn37      1.0  0.57089  0.99504  0.98121  1.0000
  C   C109      1.0  0.53242  0.95730  0.05545  1.0000
  C  Sn38      1.0  0.53461  0.93429  0.17672  1.0000
  C  Sn39      1.0  0.57077  0.93930  0.22490  1.0000
  C   C110      1.0  0.60397  0.96720  0.15071  1.0000
  C  Sn40      1.0  0.60180  0.99022  0.02939  1.0000
  O  Te37      1.0  0.06401  0.01772  0.86024  1.0000
  O  Te38      1.0  0.50100  0.90657  0.24912  1.0000
  O  Te39      1.0  0.57361  0.91659  0.34597  1.0000
  O  Te40      1.0  0.13662  0.02776  0.95704  1.0000
  Mg  Mg19      1.0  0.51970  0.88272  0.40839  1.0000
  Mg  Mg20      1.0  0.11795  0.05164  0.79783  1.0000
  C  Sn41      1.0  0.06419  0.61045  0.23889  1.0000
  C   C111      1.0  0.04083  0.57585  0.14975  1.0000
  C  Sn42      1.0  0.01700  0.57391  0.01720  1.0000
  C  Sn43      1.0  0.02178  0.61708  0.97274  1.0000
  C   C112      1.0  0.03989  0.64183  0.06182  1.0000
  C  Sn44      1.0  0.06372  0.64380  0.19442  1.0000
  O  Te41      1.0  0.08779  0.61173  0.37094  1.0000
  O  Te42      1.0  0.99914  0.54882  0.92998  1.0000
  O  Te43      1.0  0.99815  0.61578  0.84057  1.0000
  O  Te44      1.0  0.08682  0.67869  0.28159  1.0000
  Mg  Mg21      1.0  0.97190  0.56158  0.75960  1.0000
  Mg  Mg22      1.0  0.11408  0.66597  0.45193  1.0000
  C  Sn45      1.0  0.36609  0.44183  0.16230  1.0000
  C   C113      1.0  0.36071  0.40763  0.08803  1.0000
  C  Sn46      1.0  0.39197  0.40503  0.02922  1.0000
  C  Sn47      1.0  0.42940  0.43729  0.04506  1.0000
  C   C114      1.0  0.43477  0.47147  0.11932  1.0000
  C  Sn48      1.0  0.40352  0.47409  0.17815  1.0000
  O  Te45      1.0  0.33443  0.44377  0.22022  1.0000
  O  Te46      1.0  0.39111  0.38036  0.95536  1.0000
  O  Te47      1.0  0.46632  0.44515  0.98706  1.0000
  O  Te48      1.0  0.40961  0.50856  0.25199  1.0000
  Mg  Mg23      1.0  0.44337  0.39188  0.89580  1.0000
  Mg  Mg24      1.0  0.35737  0.49706  0.31167  1.0000
  C  Sn49      1.0  0.18758  0.88048  0.39004  1.0000
  C   C115      1.0  0.22483  0.89119  0.44283  1.0000
  C  Sn50      1.0  0.23356  0.86372  0.49354  1.0000
  C  Sn51      1.0  0.20445  0.82473  0.49133  1.0000
  C   C116      1.0  0.16724  0.81404  0.43853  1.0000
  C  Sn52      1.0  0.15848  0.84149  0.38783  1.0000
  O  Te49      1.0  0.17951  0.90843  0.33989  1.0000
  O  Te50      1.0  0.27100  0.87512  0.54586  1.0000
  O  Te51      1.0  0.21256  0.79678  0.54154  1.0000
  O  Te52      1.0  0.12106  0.83011  0.33550  1.0000
  Mg  Mg25      1.0  0.26785  0.82645  0.60234  1.0000
  Mg  Mg26      1.0  0.12419  0.87874  0.27892  1.0000
  C  Sn53      1.0  0.14429  0.31757  0.32944  1.0000
  C   C117      1.0  0.17696  0.34525  0.41875  1.0000
  C  Sn54      1.0  0.17467  0.37101  0.53328  1.0000
  C  Sn55      1.0  0.13896  0.36905  0.55917  1.0000
  C   C118      1.0  0.10631  0.34138  0.46991  1.0000
  C  Sn56      1.0  0.10858  0.31561  0.35533  1.0000
  O  Te53      1.0  0.14725  0.29210  0.21558  1.0000
  O  Te54      1.0  0.20773  0.39844  0.62106  1.0000
  O  Te55      1.0  0.13603  0.39454  0.67314  1.0000
  O  Te56      1.0  0.07555  0.28819  0.26761  1.0000
  Mg  Mg27      1.0  0.18911  0.42678  0.76267  1.0000
  Mg  Mg28      1.0  0.09413  0.25982  0.12604  1.0000
  C  Sn57      1.0  0.69182  0.80842  0.40501  1.0000
  C   C119      1.0  0.66566  0.77211  0.45919  1.0000
  C  Sn58      1.0  0.62889  0.76345  0.50588  1.0000
  C  Sn59      1.0  0.61801  0.79166  0.49815  1.0000
  C   C120      1.0  0.64416  0.82794  0.44397  1.0000
  C  Sn60      1.0  0.68095  0.83663  0.39729  1.0000
  O  Te57      1.0  0.72843  0.81645  0.35894  1.0000
  O  Te58      1.0  0.60324  0.72695  0.55969  1.0000
  O  Te59      1.0  0.58137  0.78360  0.54429  1.0000
  O  Te60      1.0  0.70658  0.87310  0.34348  1.0000
  Mg  Mg29      1.0  0.55663  0.72977  0.60913  1.0000
  Mg  Mg30      1.0  0.75319  0.87030  0.29392  1.0000
  C  Sn61      1.0  0.16797  0.85026  0.82853  1.0000
  C   C121      1.0  0.16301  0.81847  0.91292  1.0000
  C  Sn62      1.0  0.18673  0.81151  0.01972  1.0000
  C  Sn63      1.0  0.22137  0.84689  0.04275  1.0000
  C   C122      1.0  0.23156  0.88849  0.95842  1.0000
  C  Sn64      1.0  0.20261  0.88565  0.85156  1.0000
  O  Te61      1.0  0.13862  0.84674  0.72238  1.0000
  O  Te62      1.0  0.18111  0.77933  0.10269  1.0000
  O  Te63      1.0  0.25072  0.85039  0.14901  1.0000
  O  Te64      1.0  0.20821  0.91780  0.76865  1.0000
  Mg  Mg31      1.0  0.22951  0.79846  0.23425  1.0000
  Mg  Mg32      1.0  0.15982  0.89872  0.63714  1.0000
  C  Sn65      1.0  0.12340  0.30950  0.91265  1.0000
  C   C123      1.0  0.11465  0.33730  0.96851  1.0000
  C  Sn66      1.0  0.13858  0.36388  0.02189  1.0000
  C  Sn67      1.0  0.17732  0.37270  0.01930  1.0000
  C   C124      1.0  0.19130  0.35474  0.96344  1.0000
  C  Sn68      1.0  0.16213  0.31832  0.91006  1.0000
  O  Te65      1.0  0.09377  0.27330  0.85985  1.0000
  O  Te66      1.0  0.12913  0.39119  0.07725  1.0000
  O  Te67      1.0  0.20695  0.40894  0.07216  1.0000
  O  Te68      1.0  0.17157  0.29102  0.85470  1.0000
  Mg  Mg33      1.0  0.17961  0.43646  0.13660  1.0000
  Mg  Mg34      1.0  0.12111  0.24575  0.79525  1.0000
  C  Sn69      1.0  0.69192  0.81336  0.90677  1.0000
  C   C125      1.0  0.66515  0.77724  0.96071  1.0000
  C  Sn70      1.0  0.62329  0.75950  0.00636  1.0000
  C  Sn71      1.0  0.61846  0.79810  0.99782  1.0000
  C   C126      1.0  0.64522  0.83419  0.94388  1.0000
  C  Sn72      1.0  0.68185  0.84214  0.89823  1.0000
  O  Te69      1.0  0.72835  0.82064  0.86174  1.0000
  O  Te70      1.0  0.59702  0.72318  0.05995  1.0000
  O  Te71      1.0  0.57675  0.78097  0.04292  1.0000
  O  Te72      1.0  0.70811  0.87843  0.84464  1.0000
  Mg  Mg35      1.0  0.55095  0.72710  0.10786  1.0000
  Mg  Mg36      1.0  0.75417  0.87453  0.79663  1.0000
  C  Sn73      1.0  0.38411  0.93763  0.07755  1.0000
  C   C127      1.0  0.38155  0.97213  0.98955  1.0000
  C  Sn74      1.0  0.40792  0.99705  0.87622  1.0000
  C  Sn75      1.0  0.44281  0.99729  0.85021  1.0000
  C   C128      1.0  0.45059  0.97262  0.93815  1.0000
  C  Sn76      1.0  0.41899  0.93788  0.05153  1.0000
  O  Te73      1.0  0.35733  0.91296  0.19023  1.0000
  O  Te74      1.0  0.89548  0.02146  0.78975  1.0000
  O  Te75      1.0  0.96558  0.02199  0.73742  1.0000
  O  Te76      1.0  0.42741  0.91347  0.13795  1.0000
  Mg  Mg37      1.0  0.94104  0.04983  0.64944  1.0000
  Mg  Mg38      1.0  0.38186  0.88507  0.27822  1.0000
  C  Sn77      1.0  0.99768  0.43503  0.92609  1.0000
  C   C129      1.0  0.02481  0.47086  0.99539  1.0000
  C  Sn78      1.0  0.05684  0.46922  0.03260  1.0000
  C  Sn79      1.0  0.07248  0.45082  0.99976  1.0000
  C   C130      1.0  0.04537  0.41502  0.93048  1.0000
  C  Sn80      1.0  0.00808  0.40681  0.89325  1.0000
  O  Te77      1.0  0.96058  0.42748  0.88988  1.0000
  O  Te78      1.0  0.08345  0.50524  0.10189  1.0000
  O  Te79      1.0  0.10437  0.44857  0.03604  1.0000
  O  Te80      1.0  0.98148  0.37082  0.82397  1.0000
  Mg  Mg39      1.0  0.13042  0.50186  0.12932  1.0000
  Mg  Mg40      1.0  0.93451  0.37417  0.79641  1.0000
  C  Sn81      1.0  0.56545  0.56212  0.93021  1.0000
  C   C131      1.0  0.53079  0.55495  0.99996  1.0000
  C  Sn82      1.0  0.51825  0.57498  0.03240  1.0000
  C  Sn83      1.0  0.55143  0.62262  0.99424  1.0000
  C   C132      1.0  0.58606  0.62977  0.92451  1.0000
  C  Sn84      1.0  0.59337  0.59993  0.89205  1.0000
  O  Te81      1.0  0.57212  0.53184  0.89882  1.0000
  O  Te82      1.0  0.48340  0.56711  0.10223  1.0000
  O  Te83      1.0  0.53948  0.64308  0.02570  1.0000
  O  Te84      1.0  0.62820  0.60779  0.82223  1.0000
  Mg  Mg41      1.0  0.48765  0.61794  0.12187  1.0000
  Mg  Mg42      1.0  0.62398  0.55697  0.80247  1.0000
  C  Sn85      1.0  0.38558  0.93932  0.56975  1.0000
  C   C133      1.0  0.37901  0.96605  0.49286  1.0000
  C  Sn86      1.0  0.40636  0.99270  0.38783  1.0000
  C  Sn87      1.0  0.44099  0.99262  0.35896  1.0000
  C   C134      1.0  0.44755  0.96590  0.43580  1.0000
  C  Sn88      1.0  0.42022  0.93924  0.54088  1.0000
  O  Te85      1.0  0.35784  0.91293  0.67427  1.0000
  O  Te86      1.0  0.89513  0.01916  0.31241  1.0000
  O  Te87      1.0  0.96473  0.01904  0.25435  1.0000
  O  Te88      1.0  0.42742  0.91279  0.61625  1.0000
  Mg  Mg43      1.0  0.94169  0.04936  0.18023  1.0000
  Mg  Mg44      1.0  0.38087  0.88257  0.74837  1.0000
  C  Sn89      1.0  0.99596  0.43563  0.40748  1.0000
  C   C135      1.0  0.02224  0.46918  0.49665  1.0000
  C  Sn90      1.0  0.05744  0.47424  0.55193  1.0000
  C  Sn91      1.0  0.06659  0.44518  0.51728  1.0000
  C   C136      1.0  0.04032  0.41166  0.42814  1.0000
  C  Sn92      1.0  0.00511  0.40657  0.37283  1.0000
  O  Te89      1.0  0.96094  0.43117  0.35341  1.0000
  O  Te90      1.0  0.08324  0.50803  0.64091  1.0000
  O  Te91      1.0  0.10164  0.44966  0.57144  1.0000
  O  Te92      1.0  0.97933  0.37281  0.28388  1.0000
  Mg  Mg45      1.0  0.12729  0.50074  0.68803  1.0000
  Mg  Mg46      1.0  0.93528  0.38007  0.23662  1.0000
  C  Sn93      1.0  0.52607  0.59729  0.51498  1.0000
  C   C137      1.0  0.51598  0.56077  0.45107  1.0000
  C  Sn94      1.0  0.54409  0.55301  0.39235  1.0000
  C  Sn95      1.0  0.58310  0.58236  0.39771  1.0000
  C   C138      1.0  0.59318  0.61886  0.46162  1.0000
  C  Sn96      1.0  0.56508  0.62665  0.52035  1.0000
  O  Te93      1.0  0.49749  0.60440  0.57301  1.0000
  O  Te94      1.0  0.53331  0.51627  0.32896  1.0000
  O  Te95      1.0  0.61168  0.57522  0.33961  1.0000
  O  Te96      1.0  0.57585  0.66335  0.58373  1.0000
  Mg  Mg47      1.0  0.58270  0.52064  0.26480  1.0000
  Mg  Mg48      1.0  0.52649  0.65902  0.64800  1.0000
  C  Sn97      1.0  0.92314  0.72173  0.54144  1.0000
  C   C139      1.0  0.89100  0.69438  0.62409  1.0000
  C  Sn98      1.0  0.89485  0.67234  0.74549  1.0000
  C  Sn99      1.0  0.93159  0.67776  0.78520  1.0000
  C   C140      1.0  0.96369  0.70510  0.70259  1.0000
  C  Sn100     1.0  0.95987  0.72715  0.58114  1.0000
  O  Te97      1.0  0.91862  0.74344  0.42051  1.0000
  O  Te98      1.0  0.86230  0.64517  0.82639  1.0000
  O  Te99      1.0  0.93608  0.65602  0.90623  1.0000
  O  Te100     1.0  0.99239  0.75431  0.50029  1.0000
  Mg  Mg49      1.0  0.88315  0.62260  0.98200  1.0000
  Mg  Mg50      1.0  0.97158  0.77690  0.34474  1.0000
  C  Sn101     1.0  0.26173  0.21179  0.60985  1.0000
  C   C141      1.0  0.28592  0.24843  0.68040  1.0000
  C  Sn102     1.0  0.32320  0.25934  0.73323  1.0000
  C  Sn103     1.0  0.33660  0.23309  0.71507  1.0000
  C   C142      1.0  0.31243  0.19648  0.64453  1.0000
  C  Sn104     1.0  0.27514  0.18554  0.59169  1.0000
  O  Te101     1.0  0.22457  0.20150  0.55790  1.0000
  O  Te102     1.0  0.34684  0.29613  0.80345  1.0000
  O  Te103     1.0  0.37379  0.24341  0.76709  1.0000
  O  Te104     1.0  0.25151  0.14879  0.52148  1.0000
  Mg  Mg51      1.0  0.39515  0.29673  0.85518  1.0000
  Mg  Mg52      1.0  0.20319  0.14816  0.46963  1.0000
  C  Sn105     1.0  0.79789  0.07490  0.50787  1.0000
  C   C143      1.0  0.80259  0.10795  0.59193  1.0000
  C  Sn106     1.0  0.77669  0.10560  0.71412  1.0000
  C  Sn107     1.0  0.74544  0.06946  0.75321  1.0000
  C   C144      1.0  0.74076  0.03644  0.66921  1.0000
  C  Sn108     1.0  0.76665  0.03876  0.54696  1.0000
  O  Te105     1.0  0.82414  0.07792  0.38617  1.0000
  O  Te106     1.0  0.78197  0.13903  0.79642  1.0000
  O  Te107     1.0  0.71919  0.06646  0.87502  1.0000
  O  Te108     1.0  0.76138  0.00535  0.46471  1.0000
  Mg  Mg53      1.0  0.73858  0.12016  0.95265  1.0000
  Mg  Mg54      1.0  0.80477  0.02419  0.30853  1.0000
  C  Sn109     1.0  0.58971  0.99402  0.58008  1.0000
  C   C145      1.0  0.59939  0.96888  0.65148  1.0000
  C  Sn110     1.0  0.57078  0.93277  0.69731  1.0000
  C  Sn111     1.0  0.53168  0.92154  0.67115  1.0000
  C   C146      1.0  0.52201  0.94667  0.59976  1.0000
  C  Sn112     1.0  0.55061  0.98279  0.55391  1.0000
  O  Te109     1.0  0.11477  0.02998  0.53520  1.0000
  O  Te110     1.0  0.58117  0.90813  0.76853  1.0000
  O  Te111     1.0  0.50260  0.88555  0.71610  1.0000
  O  Te112     1.0  0.03623  0.00742  0.48271  1.0000
  Mg  Mg55      1.0  0.53116  0.86211  0.80874  1.0000
  Mg  Mg56      1.0  0.08621  0.05343  0.44237  1.0000
  C  Sn113     1.0  0.07331  0.61368  0.73040  1.0000
  C   C147      1.0  0.04760  0.57792  0.65576  1.0000
  C  Sn114     1.0  0.01924  0.57389  0.54182  1.0000
  C  Sn115     1.0  0.01654  0.60628  0.50155  1.0000
  C   C148      1.0  0.04224  0.64201  0.57615  1.0000
  C  Sn116     1.0  0.07060  0.64607  0.69013  1.0000
  O  Te113     1.0  0.10143  0.61705  0.84396  1.0000
  O  Te114     1.0  0.99386  0.53784  0.46886  1.0000
  O  Te115     1.0  0.98838  0.60288  0.38790  1.0000
  O  Te116     1.0  0.09597  0.68210  0.76305  1.0000
  Mg  Mg57      1.0  0.96048  0.54779  0.32146  1.0000
  Mg  Mg58      1.0  0.12937  0.67218  0.91039  1.0000
  C  Sn117     1.0  0.38936  0.45900  0.75451  1.0000
  C   C149      1.0  0.42381  0.46871  0.67541  1.0000
  C  Sn118     1.0  0.42534  0.44420  0.55115  1.0000
  C  Sn119     1.0  0.39172  0.40927  0.50491  1.0000
  C   C150      1.0  0.35730  0.39958  0.58397  1.0000
  C  Sn120     1.0  0.35575  0.42407  0.70826  1.0000
  O  Te117     1.0  0.38850  0.48394  0.87839  1.0000
  O  Te118     1.0  0.46011  0.45452  0.47390  1.0000
  O  Te119     1.0  0.39261  0.38433  0.38092  1.0000
  O  Te120     1.0  0.32100  0.41377  0.78547  1.0000
  Mg  Mg59      1.0  0.44676  0.41105  0.31212  1.0000
  Mg  Mg60      1.0  0.33431  0.45723  0.94720  1.0000
