data_image0
_chemical_formula_structural       H36C54N9O3F3SnCSn2CSnTe4Mg2SnCSn2CSnTe4Mg2SnCSn2CSnTe4Mg2
_chemical_formula_sum              "H36 C60 N9 O3 F3 Sn12 Te12 Mg6"
_cell_length_a       25.519
_cell_length_b       25.2649
_cell_length_c       4.56496
_cell_angle_alpha    87.9629
_cell_angle_beta     90.5332
_cell_angle_gamma    120.371

_symmetry_space_group_name_H-M    'P1'
_space_group_IT_number       1

loop_
  _space_group_symop_operation_xyz
  'x, y, z'

loop_
  _atom_site_type_symbol
  _atom_site_label
  _atom_site_symmetry_multiplicity
  _atom_site_fract_x
  _atom_site_fract_y
  _atom_site_fract_z
  _atom_site_occupancy
  H   H1        1.0  0.99076  0.89591  0.48843  1.0000
  H   H2        1.0  0.09853  0.09256  0.48876  1.0000
  H   H3        1.0  0.90390  0.00340  0.52864  1.0000
  H   H4        1.0  0.82525  0.89692  0.77639  1.0000
  H   H5        1.0  0.09667  0.92436  0.76846  1.0000
  H   H6        1.0  0.06656  0.16739  0.80655  1.0000
  H   H7        1.0  0.82438  0.78371  0.91395  1.0000
  H   H8        1.0  0.20928  0.03810  0.86787  1.0000
  H   H9        1.0  0.95940  0.17778  0.91812  1.0000
  H   H10       1.0  0.92045  0.87662  0.05793  1.0000
  H   H11       1.0  0.11762  0.04185  0.02151  1.0000
  H   H12       1.0  0.95601  0.08019  0.06079  1.0000
  H   H13       1.0  0.65669  0.76346  0.46760  1.0000
  H   H14       1.0  0.23316  0.88997  0.48571  1.0000
  H   H15       1.0  0.10470  0.34116  0.50069  1.0000
  H   H16       1.0  0.42173  0.77191  0.78098  1.0000
  H   H17       1.0  0.22946  0.64532  0.78504  1.0000
  H   H18       1.0  0.35369  0.57800  0.77502  1.0000
  H   H19       1.0  0.58640  0.55775  0.33123  1.0000
  H   H20       1.0  0.44504  0.03637  0.31389  1.0000
  H   H21       1.0  0.96997  0.42168  0.33746  1.0000
  H   H22       1.0  0.54582  0.59218  0.21126  1.0000
  H   H23       1.0  0.40330  0.96107  0.21543  1.0000
  H   H24       1.0  0.04445  0.45384  0.22388  1.0000
  H   H25       1.0  0.38506  0.40274  0.97917  1.0000
  H   H26       1.0  0.51860  0.98829  0.02949  1.0000
  H   H27       1.0  0.00950  0.53501  0.97111  1.0000
  H   H28       1.0  0.44879  0.43214  0.21994  1.0000
  H   H29       1.0  0.57054  0.00772  0.32863  1.0000
  H   H30       1.0  0.96907  0.54408  0.26634  1.0000
  H   H31       1.0  0.39670  0.45925  0.23871  1.0000
  H   H32       1.0  0.56204  0.95152  0.07405  1.0000
  H   H33       1.0  0.00890  0.60479  0.99645  1.0000
  H   H34       1.0  0.44617  0.47955  0.92532  1.0000
  H   H35       1.0  0.50258  0.93478  0.33233  1.0000
  H   H36       1.0  0.04996  0.58601  0.26095  1.0000
  C   C1        1.0  0.94070  0.94306  0.52282  1.0000
  C   C2        1.0  0.05103  0.99381  0.50390  1.0000
  C   C3        1.0  0.00159  0.05447  0.52707  1.0000
  C   C4        1.0  0.56997  0.60293  0.00443  1.0000
  C   C5        1.0  0.39121  0.96752  0.99318  1.0000
  C   C6        1.0  0.03481  0.43312  0.01127  1.0000
  C   C7        1.0  0.99389  0.94015  0.51384  1.0000
  C   C8        1.0  0.05449  0.05069  0.51457  1.0000
  C   C9        1.0  0.94508  0.00049  0.53754  1.0000
  C   C10       1.0  0.56029  0.56884  0.77033  1.0000
  C   C11       1.0  0.42596  0.99182  0.75402  1.0000
  C   C12       1.0  0.01191  0.44512  0.77087  1.0000
  C   C13       1.0  0.88225  0.88922  0.44711  1.0000
  C   C14       1.0  0.10461  0.98973  0.42174  1.0000
  C   C15       1.0  0.00495  0.11373  0.46003  1.0000
  C   C16       1.0  0.59633  0.56930  0.56474  1.0000
  C   C17       1.0  0.42737  0.02900  0.53886  1.0000
  C   C18       1.0  0.97444  0.41017  0.56735  1.0000
  C   C19       1.0  0.82778  0.87074  0.59974  1.0000
  C   C20       1.0  0.12274  0.95337  0.58253  1.0000
  C   C21       1.0  0.03963  0.16662  0.62023  1.0000
  C   C22       1.0  0.66427  0.61284  0.61373  1.0000
  C   C23       1.0  0.38152  0.05056  0.57441  1.0000
  C   C24       1.0  0.94935  0.34133  0.62151  1.0000
  C   C25       1.0  0.77365  0.82361  0.48863  1.0000
  C   C26       1.0  0.16927  0.94622  0.46861  1.0000
  C   C27       1.0  0.04555  0.22200  0.51570  1.0000
  C   C28       1.0  0.76881  0.79015  0.24393  1.0000
  C   C29       1.0  0.20272  0.97532  0.21535  1.0000
  C   C30       1.0  0.01775  0.22945  0.26682  1.0000
  C   C31       1.0  0.82504  0.81142  0.09157  1.0000
  C   C32       1.0  0.18195  0.01079  0.05520  1.0000
  C   C33       1.0  0.98408  0.17488  0.10714  1.0000
  C   C34       1.0  0.87960  0.85933  0.19246  1.0000
  C   C35       1.0  0.13438  0.01746  0.15841  1.0000
  C   C36       1.0  0.97793  0.11918  0.20317  1.0000
  C   C37       1.0  0.71632  0.73536  0.12746  1.0000
  C   C38       1.0  0.25732  0.97731  0.10026  1.0000
  C   C39       1.0  0.01613  0.28374  0.15286  1.0000
  C   C40       1.0  0.65221  0.70727  0.17315  1.0000
  C   C41       1.0  0.28649  0.94239  0.16354  1.0000
  C   C42       1.0  0.05367  0.34795  0.19730  1.0000
  C   C43       1.0  0.67438  0.65927  0.82908  1.0000
  C   C44       1.0  0.33427  0.01291  0.79525  1.0000
  C   C45       1.0  0.98399  0.32906  0.84656  1.0000
  C   C46       1.0  0.41917  0.44358  0.09084  1.0000
  C   C47       1.0  0.53838  0.97058  0.19141  1.0000
  C   C48       1.0  0.00941  0.56744  0.12400  1.0000
  C   C49       1.0  0.39483  0.67605  0.79639  1.0000
  C   C50       1.0  0.32438  0.71459  0.80247  1.0000
  C   C51       1.0  0.28556  0.60427  0.79987  1.0000
  C   C52       1.0  0.38369  0.72503  0.80582  1.0000
  C   C53       1.0  0.27560  0.65380  0.80786  1.0000
  C   C54       1.0  0.34548  0.61590  0.80219  1.0000
  N   N1        1.0  0.62622  0.65962  0.98127  1.0000
  N   N2        1.0  0.33440  0.96490  0.96536  1.0000
  N   N3        1.0  0.03316  0.37613  0.99947  1.0000
  N   N4        1.0  0.72739  0.70499  0.91924  1.0000
  N   N5        1.0  0.28782  0.01903  0.87859  1.0000
  N   N6        1.0  0.97492  0.27464  0.94117  1.0000
  N   N7        1.0  0.62448  0.73021  0.34101  1.0000
  N   N8        1.0  0.26624  0.89228  0.35261  1.0000
  N   N9        1.0  0.10483  0.37449  0.36712  1.0000
  O   O1        1.0  0.70358  0.61408  0.45650  1.0000
  O   O2        1.0  0.37984  0.08796  0.40116  1.0000
  O   O3        1.0  0.91224  0.30286  0.45809  1.0000
  F   F1        1.0  0.72344  0.81294  0.65226  1.0000
  F   F2        1.0  0.18001  0.90635  0.63948  1.0000
  F   F3        1.0  0.08151  0.27045  0.69333  1.0000
  C  Sn1       1.0  0.46385  0.64607  0.45097  1.0000
  C   C55       1.0  0.45538  0.67382  0.69119  1.0000
  C  Sn2       1.0  0.50450  0.72560  0.80900  1.0000
  C  Sn3       1.0  0.56331  0.75019  0.68400  1.0000
  C   C56       1.0  0.57175  0.72245  0.44390  1.0000
  C  Sn4       1.0  0.52265  0.67065  0.32596  1.0000
  O  Te1       1.0  0.41409  0.59433  0.33676  1.0000
  O  Te2       1.0  0.49700  0.76002  0.04928  1.0000
  O  Te3       1.0  0.61308  0.80196  0.79844  1.0000
  O  Te4       1.0  0.53221  0.64373  0.08581  1.0000
  Mg  Mg1       1.0  0.57911  0.82982  0.12680  1.0000
  Mg  Mg2       1.0  0.45014  0.57395  0.00801  1.0000
  C  Sn5       1.0  0.31562  0.81591  0.27078  1.0000
  C   C57       1.0  0.28013  0.83784  0.38834  1.0000
  C  Sn6       1.0  0.26003  0.82350  0.67948  1.0000
  C  Sn7       1.0  0.27577  0.78649  0.85693  1.0000
  C   C58       1.0  0.31125  0.76459  0.73939  1.0000
  C  Sn8       1.0  0.33136  0.77890  0.44823  1.0000
  O  Te5       1.0  0.33313  0.82335  0.97917  1.0000
  O  Te6       1.0  0.22458  0.84594  0.79208  1.0000
  O  Te7       1.0  0.25823  0.77906  0.14875  1.0000
  O  Te8       1.0  0.36680  0.75649  0.33565  1.0000
  Mg  Mg3       1.0  0.21094  0.82056  0.20207  1.0000
  Mg  Mg4       1.0  0.38048  0.78186  0.92576  1.0000
  C  Sn9       1.0  0.18622  0.50084  0.27467  1.0000
  C   C59       1.0  0.16098  0.44137  0.39704  1.0000
  C  Sn10      1.0  0.17294  0.43192  0.68744  1.0000
  C  Sn11      1.0  0.21091  0.48299  0.85920  1.0000
  C   C60       1.0  0.23612  0.54242  0.73685  1.0000
  C  Sn12      1.0  0.22418  0.55191  0.44643  1.0000
  O  Te9       1.0  0.17155  0.50172  0.98391  1.0000
  O  Te10      1.0  0.14720  0.37204  0.80491  1.0000
  O  Te11      1.0  0.22556  0.48206  0.15017  1.0000
  O  Te12      1.0  0.24989  0.61175  0.32898  1.0000
  Mg  Mg5       1.0  0.17988  0.39171  0.21150  1.0000
  Mg  Mg6       1.0  0.21722  0.59213  0.92248  1.0000
