data_image0
_chemical_formula_structural       H72C120N18F6SnCSn2CSnTe4Mg2SnCSn2CSnTe4Mg2SnCSn2CSnTe4Mg2
_chemical_formula_sum              "H72 C126 N18 F6 Sn12 Te12 Mg6"
_cell_length_a       25.0516
_cell_length_b       25.303
_cell_length_c       8.00387
_cell_angle_alpha    98.5922
_cell_angle_beta     87.6983
_cell_angle_gamma    120.731

_symmetry_space_group_name_H-M    'P1'
_space_group_IT_number       1

loop_
  _space_group_symop_operation_xyz
  'x, y, z'

loop_
  _atom_site_type_symbol
  _atom_site_label
  _atom_site_symmetry_multiplicity
  _atom_site_fract_x
  _atom_site_fract_y
  _atom_site_fract_z
  _atom_site_occupancy
  H   H1        1.0  0.00532  0.89410  0.05234  1.0000
  H   H2        1.0  0.10960  0.09248  0.06263  1.0000
  H   H3        1.0  0.91008  0.99476  0.05507  1.0000
  H   H4        1.0  0.84991  0.92381  0.22769  1.0000
  H   H5        1.0  0.08304  0.90762  0.17920  1.0000
  H   H6        1.0  0.09943  0.16711  0.20813  1.0000
  H   H7        1.0  0.80164  0.72609  0.49061  1.0000
  H   H8        1.0  0.25315  0.08183  0.46664  1.0000
  H   H9        1.0  0.90950  0.17510  0.40925  1.0000
  H   H10       1.0  0.91436  0.81962  0.89306  1.0000
  H   H11       1.0  0.18263  0.07944  0.97080  1.0000
  H   H12       1.0  0.92408  0.07001  0.92330  1.0000
  H   H13       1.0  0.67926  0.76135  0.38164  1.0000
  H   H14       1.0  0.24671  0.90170  0.32138  1.0000
  H   H15       1.0  0.10023  0.34211  0.36899  1.0000
  H   H16       1.0  0.60601  0.79320  0.44158  1.0000
  H   H17       1.0  0.50166  0.77573  0.38287  1.0000
  H   H18       1.0  0.45769  0.61058  0.03719  1.0000
  H   H19       1.0  0.43104  0.77112  0.17709  1.0000
  H   H20       1.0  0.23550  0.63787  0.16815  1.0000
  H   H21       1.0  0.36794  0.57977  0.20392  1.0000
  H   H22       1.0  0.58074  0.45341  0.68778  1.0000
  H   H23       1.0  0.54090  0.15132  0.65007  1.0000
  H   H24       1.0  0.84235  0.40030  0.61851  1.0000
  H   H25       1.0  0.57214  0.60053  0.38304  1.0000
  H   H26       1.0  0.41156  0.95407  0.35355  1.0000
  H   H27       1.0  0.04459  0.44822  0.37359  1.0000
  H   H28       1.0  0.56158  0.62737  0.09665  1.0000
  H   H29       1.0  0.53768  0.48713  0.33502  1.0000
  H   H30       1.0  0.52474  0.03136  0.34083  1.0000
  H   H31       1.0  0.96348  0.47574  0.33198  1.0000
  H   H32       1.0  0.68414  0.53431  0.59594  1.0000
  H   H33       1.0  0.45382  0.16041  0.54034  1.0000
  H   H34       1.0  0.83096  0.29905  0.48102  1.0000
  H   H35       1.0  0.98312  0.89946  0.58028  1.0000
  H   H36       1.0  0.08578  0.09526  0.55214  1.0000
  H   H37       1.0  0.88666  0.99875  0.56448  1.0000
  H   H38       1.0  0.82436  0.92733  0.74301  1.0000
  H   H39       1.0  0.06757  0.91999  0.71063  1.0000
  H   H40       1.0  0.06877  0.16683  0.72959  1.0000
  H   H41       1.0  0.81759  0.72255  0.93751  1.0000
  H   H42       1.0  0.28016  0.08208  0.02331  1.0000
  H   H43       1.0  0.92181  0.16763  0.96438  1.0000
  H   H44       1.0  0.89554  0.82345  0.43691  1.0000
  H   H45       1.0  0.15257  0.07546  0.43252  1.0000
  H   H46       1.0  0.90994  0.07645  0.37939  1.0000
  H   H47       1.0  0.64997  0.76220  0.88036  1.0000
  H   H48       1.0  0.23910  0.92463  0.83362  1.0000
  H   H49       1.0  0.08007  0.34767  0.83200  1.0000
  H   H50       1.0  0.20928  0.82819  0.89269  1.0000
  H   H51       1.0  0.18488  0.41731  0.85095  1.0000
  H   H52       1.0  0.22140  0.73679  0.85096  1.0000
  H   H53       1.0  0.27250  0.51944  0.80958  1.0000
  H   H54       1.0  0.37588  0.82873  0.53689  1.0000
  H   H55       1.0  0.14837  0.55853  0.57095  1.0000
  H   H56       1.0  0.41047  0.77989  0.68170  1.0000
  H   H57       1.0  0.21358  0.65339  0.68657  1.0000
  H   H58       1.0  0.34006  0.58531  0.67046  1.0000
  H   H59       1.0  0.59811  0.45009  0.14494  1.0000
  H   H60       1.0  0.55848  0.12771  0.21096  1.0000
  H   H61       1.0  0.86873  0.40085  0.14419  1.0000
  H   H62       1.0  0.53483  0.59684  0.83949  1.0000
  H   H63       1.0  0.40513  0.98326  0.84328  1.0000
  H   H64       1.0  0.01294  0.44533  0.87574  1.0000
  H   H65       1.0  0.36365  0.91993  0.57665  1.0000
  H   H66       1.0  0.06067  0.45784  0.61841  1.0000
  H   H67       1.0  0.50578  0.48529  0.81117  1.0000
  H   H68       1.0  0.51598  0.06339  0.80909  1.0000
  H   H69       1.0  0.93244  0.47256  0.82401  1.0000
  H   H70       1.0  0.69450  0.52779  0.01637  1.0000
  H   H71       1.0  0.47759  0.14696  0.10597  1.0000
  H   H72       1.0  0.85441  0.29777  0.01217  1.0000
  C   C1        1.0  0.95102  0.93783  0.05146  1.0000
  C   C2        1.0  0.06485  0.99339  0.05810  1.0000
  C   C3        1.0  0.01013  0.05040  0.05636  1.0000
  C   C4        1.0  0.39308  0.72340  0.17475  1.0000
  C   C5        1.0  0.28335  0.64850  0.17069  1.0000
  C   C6        1.0  0.35738  0.61570  0.19094  1.0000
  C   C7        1.0  0.00709  0.93791  0.05185  1.0000
  C   C8        1.0  0.06539  0.04912  0.05821  1.0000
  C   C9        1.0  0.95329  0.99435  0.05316  1.0000
  C   C10       1.0  0.89115  0.87983  0.05996  1.0000
  C   C11       1.0  0.12373  0.99407  0.07399  1.0000
  C   C12       1.0  0.01089  0.10941  0.06595  1.0000
  C   C13       1.0  0.59583  0.58130  0.30266  1.0000
  C   C14       1.0  0.42883  0.99641  0.29940  1.0000
  C   C15       1.0  0.00195  0.41756  0.29804  1.0000
  C   C16       1.0  0.84386  0.88065  0.15825  1.0000
  C   C17       1.0  0.12486  0.94610  0.13824  1.0000
  C   C18       1.0  0.06008  0.16535  0.14948  1.0000
  C   C19       1.0  0.57816  0.51966  0.27309  1.0000
  C   C20       1.0  0.49052  0.03959  0.28999  1.0000
  C   C21       1.0  0.95709  0.43140  0.27102  1.0000
  C   C22       1.0  0.78997  0.82553  0.17944  1.0000
  C   C23       1.0  0.18021  0.94757  0.15846  1.0000
  C   C24       1.0  0.05813  0.21964  0.16618  1.0000
  C   C25       1.0  0.59345  0.50191  0.70160  1.0000
  C   C26       1.0  0.49277  0.11686  0.66711  1.0000
  C   C27       1.0  0.87693  0.38830  0.64320  1.0000
  C   C28       1.0  0.77909  0.76656  0.10724  1.0000
  C   C29       1.0  0.23867  0.99675  0.12475  1.0000
  C   C30       1.0  0.00799  0.22276  0.10712  1.0000
  C   C31       1.0  0.65038  0.54586  0.65125  1.0000
  C   C32       1.0  0.44543  0.12225  0.60523  1.0000
  C   C33       1.0  0.87029  0.33252  0.56617  1.0000
  C   C34       1.0  0.82592  0.76741  0.00036  1.0000
  C   C35       1.0  0.23611  0.04392  0.05578  1.0000
  C   C36       1.0  0.96035  0.16629  0.01691  1.0000
  C   C37       1.0  0.88017  0.82185  0.97727  1.0000
  C   C38       1.0  0.18105  0.04262  0.02957  1.0000
  C   C39       1.0  0.96152  0.11158  0.99666  1.0000
  C   C40       1.0  0.72853  0.70537  0.13916  1.0000
  C   C41       1.0  0.30059  0.00655  0.15729  1.0000
  C   C42       1.0  0.99755  0.27538  0.13496  1.0000
  C   C43       1.0  0.67458  0.68688  0.23274  1.0000
  C   C44       1.0  0.32051  0.97020  0.22148  1.0000
  C   C45       1.0  0.03157  0.33575  0.22714  1.0000
  C   C46       1.0  0.66631  0.60855  0.66986  1.0000
  C   C47       1.0  0.38324  0.07671  0.62609  1.0000
  C   C48       1.0  0.91593  0.31791  0.59767  1.0000
  C   C49       1.0  0.59055  0.71042  0.27656  1.0000
  C   C50       1.0  0.57366  0.75335  0.35185  1.0000
  C   C51       1.0  0.51498  0.74360  0.31731  1.0000
  C   C52       1.0  0.47117  0.69104  0.20818  1.0000
  C   C53       1.0  0.48977  0.65013  0.12816  1.0000
  C   C54       1.0  0.54833  0.65945  0.16120  1.0000
  C   C55       1.0  0.40666  0.67675  0.18678  1.0000
  C   C56       1.0  0.33135  0.70987  0.16633  1.0000
  C   C57       1.0  0.29528  0.60099  0.18648  1.0000
  C   C58       1.0  0.92807  0.94218  0.57256  1.0000
  C   C59       1.0  0.04172  0.99703  0.56321  1.0000
  C   C60       1.0  0.98657  0.05344  0.55478  1.0000
  C   C61       1.0  0.37112  0.73273  0.67654  1.0000
  C   C62       1.0  0.26057  0.66151  0.67889  1.0000
  C   C63       1.0  0.33126  0.62314  0.67016  1.0000
  C   C64       1.0  0.98430  0.94249  0.57129  1.0000
  C   C65       1.0  0.04182  0.05214  0.55529  1.0000
  C   C66       1.0  0.92974  0.99800  0.56273  1.0000
  C   C67       1.0  0.86934  0.88391  0.59019  1.0000
  C   C68       1.0  0.10106  0.99793  0.57041  1.0000
  C   C69       1.0  0.98863  0.11287  0.55414  1.0000
  C   C70       1.0  0.56555  0.58043  0.79021  1.0000
  C   C71       1.0  0.41868  0.02184  0.77478  1.0000
  C   C72       1.0  0.97342  0.41666  0.78716  1.0000
  C   C73       1.0  0.82075  0.88412  0.68300  1.0000
  C   C74       1.0  0.10662  0.95526  0.65102  1.0000
  C   C75       1.0  0.03429  0.16735  0.65276  1.0000
  C   C76       1.0  0.55078  0.51961  0.77123  1.0000
  C   C77       1.0  0.47898  0.06654  0.75384  1.0000
  C   C78       1.0  0.92839  0.42994  0.75684  1.0000
  C   C79       1.0  0.76766  0.82856  0.70655  1.0000
  C   C80       1.0  0.16398  0.96017  0.66805  1.0000
  C   C81       1.0  0.03318  0.22209  0.66579  1.0000
  C   C82       1.0  0.61317  0.49927  0.16785  1.0000
  C   C83       1.0  0.50927  0.09438  0.21858  1.0000
  C   C84       1.0  0.90317  0.38848  0.16704  1.0000
  C   C85       1.0  0.75896  0.76961  0.64468  1.0000
  C   C86       1.0  0.21924  0.00588  0.60701  1.0000
  C   C87       1.0  0.98762  0.22721  0.58477  1.0000
  C   C88       1.0  0.66617  0.54146  0.09617  1.0000
  C   C89       1.0  0.46533  0.10552  0.16048  1.0000
  C   C90       1.0  0.89480  0.33171  0.09333  1.0000
  C   C91       1.0  0.80753  0.77084  0.54511  1.0000
  C   C92       1.0  0.21179  0.04664  0.51957  1.0000
  C   C93       1.0  0.94446  0.17238  0.47752  1.0000
  C   C94       1.0  0.86056  0.82565  0.51770  1.0000
  C   C95       1.0  0.15516  0.04310  0.50230  1.0000
  C   C96       1.0  0.94441  0.11701  0.46314  1.0000
  C   C97       1.0  0.70837  0.70830  0.67596  1.0000
  C   C98       1.0  0.28269  0.01848  0.63280  1.0000
  C   C99       1.0  0.97539  0.27886  0.61048  1.0000
  C   C100      1.0  0.64937  0.68809  0.74353  1.0000
  C   C101      1.0  0.30715  0.98737  0.70618  1.0000
  C   C102      1.0  0.00806  0.33923  0.70306  1.0000
  C   C103      1.0  0.68492  0.60507  0.12617  1.0000
  C   C104      1.0  0.40167  0.06183  0.17045  1.0000
  C   C105      1.0  0.94006  0.31643  0.12262  1.0000
  C   C106      1.0  0.28691  0.88189  0.74228  1.0000
  C   C107      1.0  0.11567  0.43010  0.74101  1.0000
  C   C108      1.0  0.24555  0.82821  0.81298  1.0000
  C   C109      1.0  0.17675  0.44799  0.78803  1.0000
  C   C110      1.0  0.25227  0.77642  0.78813  1.0000
  C   C111      1.0  0.22639  0.50584  0.76289  1.0000
  C   C112      1.0  0.30052  0.77573  0.69325  1.0000
  C   C113      1.0  0.21779  0.54818  0.68919  1.0000
  C   C114      1.0  0.34020  0.82878  0.61898  1.0000
  C   C115      1.0  0.15691  0.52843  0.63517  1.0000
  C   C116      1.0  0.33359  0.88084  0.64145  1.0000
  C   C117      1.0  0.10685  0.47083  0.66061  1.0000
  C   C118      1.0  0.38211  0.68363  0.67474  1.0000
  C   C119      1.0  0.31046  0.72249  0.67890  1.0000
  C   C120      1.0  0.27013  0.61122  0.67526  1.0000
  N   N1        1.0  0.64761  0.62303  0.22713  1.0000
  N   N2        1.0  0.38495  0.00632  0.23465  1.0000
  N   N3        1.0  0.99392  0.36117  0.22269  1.0000
  N   N4        1.0  0.71753  0.65869  0.63233  1.0000
  N   N5        1.0  0.33042  0.07272  0.58439  1.0000
  N   N6        1.0  0.91949  0.26741  0.54590  1.0000
  N   N7        1.0  0.64786  0.71811  0.32353  1.0000
  N   N8        1.0  0.28900  0.91279  0.27593  1.0000
  N   N9        1.0  0.08848  0.36916  0.31704  1.0000
  N   N10       1.0  0.62272  0.62439  0.74077  1.0000
  N   N11       1.0  0.37136  0.02556  0.70570  1.0000
  N   N12       1.0  0.96884  0.36292  0.70144  1.0000
  N   N13       1.0  0.73380  0.65441  0.07596  1.0000
  N   N14       1.0  0.35128  0.06215  0.12641  1.0000
  N   N15       1.0  0.94197  0.26503  0.07180  1.0000
  N   N16       1.0  0.62030  0.71935  0.81697  1.0000
  N   N17       1.0  0.27999  0.93397  0.78121  1.0000
  N   N18       1.0  0.06616  0.37433  0.78668  1.0000
  F   F1        1.0  0.74729  0.83194  0.28247  1.0000
  F   F2        1.0  0.17373  0.89602  0.21728  1.0000
  F   F3        1.0  0.10911  0.27186  0.25013  1.0000
  F   F4        1.0  0.72293  0.83463  0.80024  1.0000
  F   F5        1.0  0.16481  0.91754  0.75639  1.0000
  F   F6        1.0  0.07932  0.27167  0.77360  1.0000
  C  Sn1       1.0  0.51590  0.66838  0.59159  1.0000
  C   C121      1.0  0.56230  0.71336  0.70954  1.0000
  C  Sn2       1.0  0.54862  0.74773  0.83880  1.0000
  C  Sn3       1.0  0.48727  0.73689  0.85048  1.0000
  C   C122      1.0  0.44090  0.69192  0.73260  1.0000
  C  Sn4       1.0  0.45454  0.65754  0.60327  1.0000
  O  Te1       1.0  0.53063  0.63457  0.46342  1.0000
  O  Te2       1.0  0.59580  0.79247  0.95521  1.0000
  O  Te3       1.0  0.47257  0.77074  0.97879  1.0000
  O  Te4       1.0  0.40740  0.61282  0.48693  1.0000
  Mg  Mg1       1.0  0.53710  0.77140  0.10715  1.0000
  Mg  Mg2       1.0  0.45040  0.57866  0.33500  1.0000
  C  Sn5       1.0  0.33957  0.84835  0.06957  1.0000
  C   C123      1.0  0.29376  0.85380  0.16262  1.0000
  C  Sn6       1.0  0.26082  0.81350  0.27904  1.0000
  C  Sn7       1.0  0.27395  0.76680  0.30304  1.0000
  C   C124      1.0  0.31974  0.76137  0.21004  1.0000
  C  Sn8       1.0  0.35271  0.80165  0.09356  1.0000
  O  Te5       1.0  0.38758  0.94432  0.95387  1.0000
  O  Te6       1.0  0.21522  0.81984  0.37056  1.0000
  O  Te7       1.0  0.24154  0.72599  0.41884  1.0000
  O  Te8       1.0  0.39829  0.79533  0.00210  1.0000
  Mg  Mg3       1.0  0.18374  0.75318  0.51347  1.0000
  Mg  Mg4       1.0  0.44546  0.91716  0.85923  1.0000
  C  Sn9       1.0  0.16625  0.51339  0.17754  1.0000
  C   C125      1.0  0.22784  0.54183  0.23785  1.0000
  C  Sn10      1.0  0.24879  0.50761  0.30599  1.0000
  C  Sn11      1.0  0.20733  0.44361  0.31391  1.0000
  C   C126      1.0  0.14578  0.41520  0.25359  1.0000
  C  Sn12      1.0  0.12478  0.44939  0.18546  1.0000
  O  Te9       1.0  0.14632  0.54851  0.10993  1.0000
  O  Te10      1.0  0.31057  0.53707  0.36554  1.0000
  O  Te11      1.0  0.22731  0.40850  0.38159  1.0000
  O  Te12      1.0  0.06305  0.41996  0.12590  1.0000
  Mg  Mg5       1.0  0.31575  0.46952  0.44634  1.0000
  Mg  Mg6       1.0  0.05783  0.48746  0.04500  1.0000
