data_image0
_chemical_formula_structural       H54C102N18Cl6F6SnCSn2CSnTe4Mg2SnCSn2CSnTe4Mg2SnCSn2CSnTe4Mg2SnCSn2CSnTe4Mg2SnCSn2CSnTe4Mg2SnCSn2CSnTe4Mg2
_chemical_formula_sum              "H54 C114 N18 Cl6 F6 Sn24 Te24 Mg12"
_cell_length_a       24.9397
_cell_length_b       25.2872
_cell_length_c       7.99023
_cell_angle_alpha    96.8989
_cell_angle_beta     84.9907
_cell_angle_gamma    120.139

_symmetry_space_group_name_H-M    'P1'
_space_group_IT_number       1

loop_
  _space_group_symop_operation_xyz
  'x, y, z'

loop_
  _atom_site_type_symbol
  _atom_site_label
  _atom_site_symmetry_multiplicity
  _atom_site_fract_x
  _atom_site_fract_y
  _atom_site_fract_z
  _atom_site_occupancy
  H   H1        1.0  0.99392  0.90648  0.05792  1.0000
  H   H2        1.0  0.09818  0.10271  0.05420  1.0000
  H   H3        1.0  0.89899  0.00891  0.05918  1.0000
  H   H4        1.0  0.83213  0.93074  0.23617  1.0000
  H   H5        1.0  0.07359  0.92277  0.19892  1.0000
  H   H6        1.0  0.08314  0.17081  0.21811  1.0000
  H   H7        1.0  0.81311  0.71638  0.44441  1.0000
  H   H8        1.0  0.26818  0.06969  0.50984  1.0000
  H   H9        1.0  0.91054  0.16009  0.45184  1.0000
  H   H10       1.0  0.91062  0.83850  0.90055  1.0000
  H   H11       1.0  0.16813  0.08484  0.92635  1.0000
  H   H12       1.0  0.92069  0.09206  0.91687  1.0000
  H   H13       1.0  0.66168  0.76049  0.40200  1.0000
  H   H14       1.0  0.24314  0.92468  0.33498  1.0000
  H   H15       1.0  0.10179  0.35348  0.32883  1.0000
  H   H16       1.0  0.42537  0.78912  0.20197  1.0000
  H   H17       1.0  0.23010  0.66024  0.16474  1.0000
  H   H18       1.0  0.35918  0.59600  0.18682  1.0000
  H   H19       1.0  0.55405  0.59926  0.36701  1.0000
  H   H20       1.0  0.41025  0.98557  0.35016  1.0000
  H   H21       1.0  0.04389  0.46146  0.38260  1.0000
  H   H22       1.0  0.52843  0.48861  0.32501  1.0000
  H   H23       1.0  0.52192  0.06562  0.30788  1.0000
  H   H24       1.0  0.96443  0.49352  0.36108  1.0000
  H   H25       1.0  0.68612  0.52251  0.52651  1.0000
  H   H26       1.0  0.46315  0.13647  0.58652  1.0000
  H   H27       1.0  0.84110  0.29066  0.50457  1.0000
  H   H28       1.0  0.99400  0.88528  0.55333  1.0000
  H   H29       1.0  0.09766  0.08169  0.55091  1.0000
  H   H30       1.0  0.89886  0.98588  0.52957  1.0000
  H   H31       1.0  0.83147  0.91244  0.69725  1.0000
  H   H32       1.0  0.06870  0.89968  0.70135  1.0000
  H   H33       1.0  0.08507  0.15458  0.68068  1.0000
  H   H34       1.0  0.81624  0.73921  0.94805  1.0000
  H   H35       1.0  0.26711  0.08899  0.96608  1.0000
  H   H36       1.0  0.92051  0.19027  0.96868  1.0000
  H   H37       1.0  0.91023  0.81313  0.39626  1.0000
  H   H38       1.0  0.17134  0.06647  0.45042  1.0000
  H   H39       1.0  0.91463  0.06388  0.40866  1.0000
  H   H40       1.0  0.65804  0.75110  0.85658  1.0000
  H   H41       1.0  0.23310  0.89522  0.85662  1.0000
  H   H42       1.0  0.07958  0.32302  0.84578  1.0000
  H   H43       1.0  0.41041  0.75714  0.67857  1.0000
  H   H44       1.0  0.21537  0.62733  0.69057  1.0000
  H   H45       1.0  0.34723  0.56558  0.69905  1.0000
  H   H46       1.0  0.55323  0.58913  0.88650  1.0000
  H   H47       1.0  0.39852  0.94290  0.84772  1.0000
  H   H48       1.0  0.01766  0.42568  0.88227  1.0000
  H   H49       1.0  0.52241  0.47750  0.84865  1.0000
  H   H50       1.0  0.51183  0.02022  0.81683  1.0000
  H   H51       1.0  0.93723  0.45518  0.84295  1.0000
  H   H52       1.0  0.70017  0.54420  0.03265  1.0000
  H   H53       1.0  0.46415  0.16448  0.03048  1.0000
  H   H54       1.0  0.84871  0.31976  0.07805  1.0000
  C   C1        1.0  0.93979  0.95107  0.05639  1.0000
  C   C2        1.0  0.05328  0.00438  0.05308  1.0000
  C   C3        1.0  0.99902  0.06266  0.05443  1.0000
  C   C4        1.0  0.38730  0.74193  0.19030  1.0000
  C   C5        1.0  0.27749  0.66940  0.16940  1.0000
  C   C6        1.0  0.34974  0.63331  0.18183  1.0000
  C   C7        1.0  0.99570  0.95020  0.05449  1.0000
  C   C8        1.0  0.05396  0.06018  0.05252  1.0000
  C   C9        1.0  0.94200  0.00757  0.05556  1.0000
  C   C10       1.0  0.88054  0.89289  0.06804  1.0000
  C   C11       1.0  0.11206  0.00410  0.06109  1.0000
  C   C12       1.0  0.00121  0.12237  0.06530  1.0000
  C   C13       1.0  0.58425  0.58442  0.29797  1.0000
  C   C14       1.0  0.42464  0.02419  0.27686  1.0000
  C   C15       1.0  0.00094  0.43276  0.31702  1.0000
  C   C16       1.0  0.83013  0.88995  0.16784  1.0000
  C   C17       1.0  0.11467  0.95911  0.14120  1.0000
  C   C18       1.0  0.04797  0.17377  0.15521  1.0000
  C   C19       1.0  0.57099  0.52456  0.27177  1.0000
  C   C20       1.0  0.48532  0.06831  0.25204  1.0000
  C   C21       1.0  0.95719  0.44947  0.30284  1.0000
  C   C22       1.0  0.77753  0.83351  0.18952  1.0000
  C   C23       1.0  0.17120  0.96279  0.16122  1.0000
  C   C24       1.0  0.04752  0.22869  0.17832  1.0000
  C   C25       1.0  0.60195  0.49291  0.68140  1.0000
  C   C26       1.0  0.49443  0.08303  0.69710  1.0000
  C   C27       1.0  0.88541  0.37551  0.66568  1.0000
  C   C28       1.0  0.77068  0.77716  0.11761  1.0000
  C   C29       1.0  0.22844  0.00963  0.10348  1.0000
  C   C30       1.0  0.00138  0.23714  0.11750  1.0000
  C   C31       1.0  0.65626  0.53541  0.60625  1.0000
  C   C32       1.0  0.45065  0.09525  0.64625  1.0000
  C   C33       1.0  0.87928  0.32130  0.58614  1.0000
  C   C34       1.0  0.82074  0.78187  0.00983  1.0000
  C   C35       1.0  0.22397  0.05280  0.01621  1.0000
  C   C36       1.0  0.95641  0.18525  0.02038  1.0000
  C   C37       1.0  0.87380  0.83756  0.98589  1.0000
  C   C38       1.0  0.16830  0.05057  0.99604  1.0000
  C   C39       1.0  0.95606  0.12986  0.99452  1.0000
  C   C40       1.0  0.72060  0.71526  0.15036  1.0000
  C   C41       1.0  0.29129  0.02199  0.13158  1.0000
  C   C42       1.0  0.99111  0.28972  0.15334  1.0000
  C   C43       1.0  0.66340  0.69303  0.24083  1.0000
  C   C44       1.0  0.31431  0.99031  0.20846  1.0000
  C   C45       1.0  0.02816  0.34958  0.22850  1.0000
  C   C46       1.0  0.67323  0.59795  0.63195  1.0000
  C   C47       1.0  0.38734  0.05185  0.66819  1.0000
  C   C48       1.0  0.92407  0.30504  0.61335  1.0000
  C   C49       1.0  0.39956  0.69362  0.19344  1.0000
  C   C50       1.0  0.32630  0.73040  0.17832  1.0000
  C   C51       1.0  0.28833  0.62020  0.17346  1.0000
  C   C52       1.0  0.93981  0.92895  0.53731  1.0000
  C   C53       1.0  0.05297  0.98351  0.55202  1.0000
  C   C54       1.0  0.99857  0.04086  0.53748  1.0000
  C   C55       1.0  0.37275  0.70990  0.67913  1.0000
  C   C56       1.0  0.26310  0.63689  0.68593  1.0000
  C   C57       1.0  0.33701  0.60218  0.69004  1.0000
  C   C58       1.0  0.99566  0.92874  0.54597  1.0000
  C   C59       1.0  0.05355  0.03902  0.54543  1.0000
  C   C60       1.0  0.94202  0.98524  0.53281  1.0000
  C   C61       1.0  0.88005  0.87116  0.54593  1.0000
  C   C62       1.0  0.11125  0.98378  0.57423  1.0000
  C   C63       1.0  0.99908  0.09977  0.54449  1.0000
  C   C64       1.0  0.58009  0.57201  0.80893  1.0000
  C   C65       1.0  0.41524  0.98597  0.79367  1.0000
  C   C66       1.0  0.97897  0.39889  0.79943  1.0000
  C   C67       1.0  0.82894  0.87059  0.63563  1.0000
  C   C68       1.0  0.11128  0.93722  0.65339  1.0000
  C   C69       1.0  0.04652  0.15381  0.62450  1.0000
  C   C70       1.0  0.56389  0.51130  0.78561  1.0000
  C   C71       1.0  0.47677  0.02844  0.77377  1.0000
  C   C72       1.0  0.93496  0.41426  0.77521  1.0000
  C   C73       1.0  0.77474  0.81566  0.65763  1.0000
  C   C74       1.0  0.16652  0.93932  0.67982  1.0000
  C   C75       1.0  0.04358  0.20755  0.64281  1.0000
  C   C76       1.0  0.61332  0.50982  0.17633  1.0000
  C   C77       1.0  0.49999  0.11899  0.16060  1.0000
  C   C78       1.0  0.90245  0.40903  0.21286  1.0000
  C   C79       1.0  0.76687  0.75787  0.59664  1.0000
  C   C80       1.0  0.22526  0.98706  0.63439  1.0000
  C   C81       1.0  0.99417  0.21206  0.58803  1.0000
  C   C82       1.0  0.66767  0.55463  0.10776  1.0000
  C   C83       1.0  0.45409  0.12554  0.09774  1.0000
  C   C84       1.0  0.89049  0.35140  0.14615  1.0000
  C   C85       1.0  0.81806  0.76006  0.49851  1.0000
  C   C86       1.0  0.22377  0.03262  0.55071  1.0000
  C   C87       1.0  0.94855  0.15776  0.50066  1.0000
  C   C88       1.0  0.87269  0.81446  0.47345  1.0000
  C   C89       1.0  0.16912  0.03106  0.52039  1.0000
  C   C90       1.0  0.95078  0.10370  0.47891  1.0000
  C   C91       1.0  0.71531  0.69706  0.63310  1.0000
  C   C92       1.0  0.28671  0.99696  0.66769  1.0000
  C   C93       1.0  0.98229  0.26378  0.61899  1.0000
  C   C94       1.0  0.65876  0.67776  0.72575  1.0000
  C   C95       1.0  0.30658  0.96100  0.73577  1.0000
  C   C96       1.0  0.01327  0.32107  0.71369  1.0000
  C   C97       1.0  0.68139  0.61621  0.13599  1.0000
  C   C98       1.0  0.39173  0.08013  0.12326  1.0000
  C   C99       1.0  0.93477  0.33355  0.16369  1.0000
  C   C100      1.0  0.38634  0.66275  0.68560  1.0000
  C   C101      1.0  0.31132  0.69782  0.68190  1.0000
  C   C102      1.0  0.27503  0.58839  0.69088  1.0000
  N   N1        1.0  0.63871  0.62959  0.23203  1.0000
  N   N2        1.0  0.37850  0.02848  0.20732  1.0000
  N   N3        1.0  0.99117  0.37673  0.24196  1.0000
  N   N4        1.0  0.72271  0.64718  0.57675  1.0000
  N   N5        1.0  0.33718  0.05232  0.62786  1.0000
  N   N6        1.0  0.92796  0.25538  0.55852  1.0000
  N   N7        1.0  0.63284  0.72022  0.33673  1.0000
  N   N8        1.0  0.28573  0.93553  0.28356  1.0000
  N   N9        1.0  0.08811  0.38078  0.28517  1.0000
  N   N10       1.0  0.63302  0.61461  0.72951  1.0000
  N   N11       1.0  0.37103  0.99665  0.73820  1.0000
  N   N12       1.0  0.97496  0.34642  0.71450  1.0000
  N   N13       1.0  0.73039  0.66728  0.08791  1.0000
  N   N14       1.0  0.33982  0.07673  0.08082  1.0000
  N   N15       1.0  0.93445  0.28143  0.11325  1.0000
  N   N16       1.0  0.62869  0.70771  0.80820  1.0000
  N   N17       1.0  0.27528  0.90499  0.80431  1.0000
  N   N18       1.0  0.06797  0.35184  0.80172  1.0000
  Cl  Cl1       1.0  0.57836  0.41517  0.64912  1.0000
  Cl  Cl2       1.0  0.57286  0.13322  0.65996  1.0000
  Cl  Cl3       1.0  0.83168  0.39761  0.63409  1.0000
  Cl  Cl4       1.0  0.59474  0.43340  0.14519  1.0000
  Cl  Cl5       1.0  0.57750  0.17389  0.13202  1.0000
  Cl  Cl6       1.0  0.85139  0.43456  0.18138  1.0000
  F   F1        1.0  0.73080  0.83482  0.29215  1.0000
  F   F2        1.0  0.16813  0.91743  0.24955  1.0000
  F   F3        1.0  0.09518  0.27479  0.27495  1.0000
  F   F4        1.0  0.72805  0.82127  0.75009  1.0000
  F   F5        1.0  0.16017  0.89067  0.75860  1.0000
  F   F6        1.0  0.09250  0.25771  0.72470  1.0000
  C  Sn1       1.0  0.53859  0.74647  0.41125  1.0000
  C   C103      1.0  0.56598  0.71262  0.33594  1.0000
  C  Sn2       1.0  0.54413  0.67635  0.18437  1.0000
  C  Sn3       1.0  0.49388  0.67390  0.10638  1.0000
  C   C104      1.0  0.46653  0.70774  0.18166  1.0000
  C  Sn4       1.0  0.48834  0.74402  0.33326  1.0000
  O  Te1       1.0  0.56119  0.78242  0.56279  1.0000
  O  Te2       1.0  0.57224  0.64290  0.11151  1.0000
  O  Te3       1.0  0.45972  0.67014  0.95473  1.0000
  O  Te4       1.0  0.46027  0.77746  0.40609  1.0000
  Mg  Mg1       1.0  0.51336  0.63289  0.90450  1.0000
  Mg  Mg2       1.0  0.50756  0.81973  0.61304  1.0000
  C  Sn5       1.0  0.34163  0.87367  0.09071  1.0000
  C   C105      1.0  0.29422  0.87893  0.18418  1.0000
  C  Sn6       1.0  0.25679  0.83607  0.29837  1.0000
  C  Sn7       1.0  0.26698  0.78695  0.31966  1.0000
  C   C106      1.0  0.31437  0.78172  0.22625  1.0000
  C  Sn8       1.0  0.35181  0.82455  0.11200  1.0000
  O  Te5       1.0  0.36691  0.94928  0.97728  1.0000
  O  Te6       1.0  0.20967  0.84227  0.39035  1.0000
  O  Te7       1.0  0.23007  0.74356  0.43320  1.0000
  O  Te8       1.0  0.39891  0.81837  0.02008  1.0000
  Mg  Mg3       1.0  0.17179  0.77161  0.52951  1.0000
  Mg  Mg4       1.0  0.42527  0.92124  0.88096  1.0000
  C  Sn9       1.0  0.14210  0.48307  0.08948  1.0000
  C   C107      1.0  0.14093  0.43869  0.18083  1.0000
  C  Sn10      1.0  0.18750  0.45478  0.29390  1.0000
  C  Sn11      1.0  0.23624  0.51651  0.31621  1.0000
  C   C108      1.0  0.23739  0.56084  0.22491  1.0000
  C  Sn12      1.0  0.19083  0.54480  0.11179  1.0000
  O  Te9       1.0  0.08348  0.49818  0.97714  1.0000
  O  Te10      1.0  0.18535  0.40960  0.38377  1.0000
  O  Te11      1.0  0.28330  0.53359  0.42866  1.0000
  O  Te12      1.0  0.19296  0.58994  0.02198  1.0000
  Mg  Mg5       1.0  0.26005  0.45555  0.52211  1.0000
  Mg  Mg6       1.0  0.10671  0.57628  0.88367  1.0000
  C  Sn13      1.0  0.53367  0.73283  0.86987  1.0000
  C   C109      1.0  0.56106  0.69756  0.80800  1.0000
  C  Sn14      1.0  0.53539  0.65279  0.67319  1.0000
  C  Sn15      1.0  0.48125  0.64309  0.59859  1.0000
  C   C110      1.0  0.45390  0.67835  0.66044  1.0000
  C  Sn16      1.0  0.47953  0.72313  0.79527  1.0000
  O  Te13      1.0  0.57169  0.74511  0.00475  1.0000
  O  Te14      1.0  0.56359  0.61809  0.61356  1.0000
  O  Te15      1.0  0.45481  0.59854  0.46362  1.0000
  O  Te16      1.0  0.45136  0.75782  0.85488  1.0000
  Mg  Mg7       1.0  0.51020  0.56296  0.42710  1.0000
  Mg  Mg8       1.0  0.51630  0.78076  0.04127  1.0000
  C  Sn17      1.0  0.32121  0.83795  0.58906  1.0000
  C   C111      1.0  0.27816  0.84565  0.69788  1.0000
  C  Sn18      1.0  0.24727  0.80649  0.82539  1.0000
  C  Sn19      1.0  0.25969  0.75866  0.84462  1.0000
  C   C112      1.0  0.30273  0.75099  0.73586  1.0000
  C  Sn20      1.0  0.33364  0.79012  0.60828  1.0000
  O  Te17      1.0  0.35156  0.87763  0.46248  1.0000
  O  Te18      1.0  0.20441  0.81508  0.93261  1.0000
  O  Te19      1.0  0.22930  0.71896  0.97133  1.0000
  O  Te20      1.0  0.37648  0.78155  0.50113  1.0000
  Mg  Mg9       1.0  0.18651  0.71698  0.08596  1.0000
  Mg  Mg10      1.0  0.40599  0.84742  0.34780  1.0000
  C  Sn21      1.0  0.14713  0.50153  0.68150  1.0000
  C   C113      1.0  0.20774  0.52679  0.73496  1.0000
  C  Sn22      1.0  0.22770  0.48939  0.79047  1.0000
  C  Sn23      1.0  0.18623  0.42539  0.79250  1.0000
  C   C114      1.0  0.12566  0.40016  0.73904  1.0000
  C  Sn24      1.0  0.10566  0.43753  0.68353  1.0000
  O  Te21      1.0  0.12817  0.53979  0.62651  1.0000
  O  Te22      1.0  0.28851  0.51571  0.84337  1.0000
  O  Te23      1.0  0.20524  0.38713  0.84756  1.0000
  O  Te24      1.0  0.04489  0.41124  0.63063  1.0000
  Mg  Mg11      1.0  0.29256  0.44455  0.90720  1.0000
  Mg  Mg12      1.0  0.04080  0.48234  0.56670  1.0000
