data_image0
_chemical_formula_structural       H78C126Br6N18F6SnCSn2CSnTe4Mg2SnCSn2CSnTe4Mg2SnCSn2CSnTe4Mg2
_chemical_formula_sum              "H78 C132 Br6 N18 F6 Sn12 Te12 Mg6"
_cell_length_a       25.0487
_cell_length_b       24.9778
_cell_length_c       8.15644
_cell_angle_alpha    86.3236
_cell_angle_beta     92.1714
_cell_angle_gamma    120.027

_symmetry_space_group_name_H-M    'P1'
_space_group_IT_number       1

loop_
  _space_group_symop_operation_xyz
  'x, y, z'

loop_
  _atom_site_type_symbol
  _atom_site_label
  _atom_site_symmetry_multiplicity
  _atom_site_fract_x
  _atom_site_fract_y
  _atom_site_fract_z
  _atom_site_occupancy
  H   H1        1.0  0.00896  0.90462  0.27824  1.0000
  H   H2        1.0  0.09800  0.10312  0.28015  1.0000
  H   H3        1.0  0.90060  0.99368  0.27910  1.0000
  H   H4        1.0  0.82970  0.90545  0.37938  1.0000
  H   H5        1.0  0.09436  0.91686  0.38068  1.0000
  H   H6        1.0  0.08042  0.17275  0.38934  1.0000
  H   H7        1.0  0.83950  0.74170  0.09437  1.0000
  H   H8        1.0  0.26517  0.10340  0.10608  1.0000
  H   H9        1.0  0.90082  0.16255  0.08547  1.0000
  H   H10       1.0  0.93554  0.84057  0.13683  1.0000
  H   H11       1.0  0.16666  0.10020  0.14884  1.0000
  H   H12       1.0  0.90794  0.06762  0.13126  1.0000
  H   H13       1.0  0.67088  0.77257  0.99524  1.0000
  H   H14       1.0  0.22936  0.90172  0.01085  1.0000
  H   H15       1.0  0.09316  0.32946  0.99461  1.0000
  H   H16       1.0  0.59377  0.79945  0.93429  1.0000
  H   H17       1.0  0.20069  0.79965  0.95967  1.0000
  H   H18       1.0  0.48696  0.77620  0.97066  1.0000
  H   H19       1.0  0.22274  0.71396  0.99142  1.0000
  H   H20       1.0  0.45124  0.61911  0.29333  1.0000
  H   H21       1.0  0.37732  0.82165  0.30469  1.0000
  H   H22       1.0  0.41638  0.77394  0.14788  1.0000
  H   H23       1.0  0.22362  0.63804  0.15270  1.0000
  H   H24       1.0  0.35930  0.58090  0.13972  1.0000
  H   H25       1.0  0.55157  0.61575  0.97370  1.0000
  H   H26       1.0  0.38309  0.93446  0.98274  1.0000
  H   H27       1.0  0.05408  0.45050  0.94792  1.0000
  H   H28       1.0  0.55873  0.64319  0.25941  1.0000
  H   H29       1.0  0.35551  0.90779  0.27279  1.0000
  H   H30       1.0  0.70619  0.53090  0.57415  1.0000
  H   H31       1.0  0.45920  0.17283  0.57578  1.0000
  H   H32       1.0  0.83480  0.30667  0.54422  1.0000
  H   H33       1.0  0.58578  0.43190  0.29858  1.0000
  H   H34       1.0  0.58790  0.15728  0.47691  1.0000
  H   H35       1.0  0.86272  0.45686  0.41107  1.0000
  H   H36       1.0  0.56775  0.40260  0.50416  1.0000
  H   H37       1.0  0.55821  0.20921  0.45724  1.0000
  H   H38       1.0  0.80721  0.37625  0.40525  1.0000
  H   H39       1.0  0.64538  0.43710  0.43530  1.0000
  H   H40       1.0  0.55428  0.16493  0.28928  1.0000
  H   H41       1.0  0.85578  0.41680  0.23359  1.0000
  H   H42       1.0  0.00290  0.90115  0.76990  1.0000
  H   H43       1.0  0.09017  0.09880  0.77964  1.0000
  H   H44       1.0  0.89280  0.98893  0.76171  1.0000
  H   H45       1.0  0.81880  0.89938  0.84175  1.0000
  H   H46       1.0  0.08815  0.91213  0.86418  1.0000
  H   H47       1.0  0.07582  0.16867  0.87162  1.0000
  H   H48       1.0  0.83961  0.73401  0.60149  1.0000
  H   H49       1.0  0.25893  0.10387  0.61001  1.0000
  H   H50       1.0  0.89480  0.16236  0.58866  1.0000
  H   H51       1.0  0.93270  0.83454  0.64309  1.0000
  H   H52       1.0  0.15896  0.09769  0.64908  1.0000
  H   H53       1.0  0.89872  0.06586  0.63167  1.0000
  H   H54       1.0  0.66729  0.75933  0.49812  1.0000
  H   H55       1.0  0.23390  0.90501  0.53176  1.0000
  H   H56       1.0  0.09594  0.33144  0.51418  1.0000
  H   H57       1.0  0.59801  0.79465  0.46553  1.0000
  H   H58       1.0  0.49472  0.77904  0.51191  1.0000
  H   H59       1.0  0.44373  0.60530  0.77404  1.0000
  H   H60       1.0  0.42193  0.77472  0.66277  1.0000
  H   H61       1.0  0.22730  0.64501  0.66621  1.0000
  H   H62       1.0  0.35646  0.58006  0.65202  1.0000
  H   H63       1.0  0.54936  0.59525  0.46280  1.0000
  H   H64       1.0  0.39447  0.95427  0.47570  1.0000
  H   H65       1.0  0.05793  0.45222  0.44831  1.0000
  H   H66       1.0  0.54580  0.61956  0.72178  1.0000
  H   H67       1.0  0.69837  0.53817  0.08044  1.0000
  H   H68       1.0  0.46722  0.15862  0.05803  1.0000
  H   H69       1.0  0.83265  0.29933  0.05089  1.0000
  H   H70       1.0  0.55104  0.41530  0.98563  1.0000
  H   H71       1.0  0.58615  0.12922  0.97686  1.0000
  H   H72       1.0  0.85396  0.44698  0.91921  1.0000
  H   H73       1.0  0.63124  0.44352  0.95523  1.0000
  H   H74       1.0  0.56222  0.18487  0.92869  1.0000
  H   H75       1.0  0.80124  0.36586  0.90940  1.0000
  H   H76       1.0  0.58493  0.45040  0.79325  1.0000
  H   H77       1.0  0.55614  0.13297  0.77936  1.0000
  H   H78       1.0  0.84963  0.40919  0.73935  1.0000
  C   C1        1.0  0.94817  0.94195  0.28089  1.0000
  C   C2        1.0  0.06099  0.00423  0.28267  1.0000
  C   C3        1.0  0.99890  0.05488  0.28341  1.0000
  C   C4        1.0  0.00637  0.94664  0.28271  1.0000
  C   C5        1.0  0.05638  0.05796  0.28428  1.0000
  C   C6        1.0  0.94534  0.99652  0.28388  1.0000
  C   C7        1.0  0.58204  0.59691  0.99342  1.0000
  C   C8        1.0  0.40319  0.98376  0.99443  1.0000
  C   C9        1.0  0.00523  0.41874  0.96396  1.0000
  C   C10       1.0  0.89132  0.88179  0.26140  1.0000
  C   C11       1.0  0.12139  0.00811  0.26616  1.0000
  C   C12       1.0  0.99425  0.11168  0.26501  1.0000
  C   C13       1.0  0.56791  0.53889  0.95233  1.0000
  C   C14       1.0  0.46188  0.02688  0.94758  1.0000
  C   C15       1.0  0.95985  0.43136  0.91156  1.0000
  C   C16       1.0  0.83377  0.87162  0.31171  1.0000
  C   C17       1.0  0.13000  0.95804  0.31598  1.0000
  C   C18       1.0  0.04097  0.16891  0.31932  1.0000
  C   C19       1.0  0.61572  0.50246  0.47333  1.0000
  C   C20       1.0  0.48849  0.11322  0.47955  1.0000
  C   C21       1.0  0.90062  0.39574  0.43548  1.0000
  C   C22       1.0  0.78056  0.81686  0.27802  1.0000
  C   C23       1.0  0.18527  0.96073  0.28455  1.0000
  C   C24       1.0  0.03692  0.22188  0.28384  1.0000
  C   C25       1.0  0.67063  0.54316  0.54841  1.0000
  C   C26       1.0  0.44741  0.12564  0.55414  1.0000
  C   C27       1.0  0.88317  0.33973  0.52094  1.0000
  C   C28       1.0  0.78009  0.76815  0.20129  1.0000
  C   C29       1.0  0.23568  0.01193  0.20815  1.0000
  C   C30       1.0  0.98690  0.22188  0.20151  1.0000
  C   C31       1.0  0.83853  0.77852  0.15597  1.0000
  C   C32       1.0  0.22695  0.06278  0.16554  1.0000
  C   C33       1.0  0.93971  0.16367  0.15235  1.0000
  C   C34       1.0  0.89231  0.83377  0.18283  1.0000
  C   C35       1.0  0.17159  0.06078  0.19173  1.0000
  C   C36       1.0  0.94360  0.11047  0.18100  1.0000
  C   C37       1.0  0.72618  0.70890  0.16298  1.0000
  C   C38       1.0  0.29437  0.01705  0.16549  1.0000
  C   C39       1.0  0.97913  0.27532  0.15763  1.0000
  C   C40       1.0  0.66719  0.69554  0.10730  1.0000
  C   C41       1.0  0.30620  0.97137  0.11390  1.0000
  C   C42       1.0  0.02276  0.33465  0.09574  1.0000
  C   C43       1.0  0.68375  0.60263  0.58727  1.0000
  C   C44       1.0  0.38775  0.07824  0.59760  1.0000
  C   C45       1.0  0.92666  0.32200  0.57228  1.0000
  C   C46       1.0  0.58352  0.72206  0.09334  1.0000
  C   C47       1.0  0.27752  0.86053  0.11163  1.0000
  C   C48       1.0  0.60319  0.44016  0.42548  1.0000
  C   C49       1.0  0.55067  0.16414  0.42354  1.0000
  C   C50       1.0  0.85381  0.41222  0.36862  1.0000
  C   C51       1.0  0.56292  0.76037  0.01500  1.0000
  C   C52       1.0  0.23897  0.80433  0.03723  1.0000
  C   C53       1.0  0.50252  0.74705  0.03586  1.0000
  C   C54       1.0  0.25146  0.75598  0.05595  1.0000
  C   C55       1.0  0.46023  0.69513  0.13237  1.0000
  C   C56       1.0  0.30248  0.76141  0.14785  1.0000
  C   C57       1.0  0.48189  0.65818  0.21243  1.0000
  C   C58       1.0  0.33910  0.81680  0.22677  1.0000
  C   C59       1.0  0.54241  0.67154  0.19449  1.0000
  C   C60       1.0  0.32670  0.86540  0.21039  1.0000
  C   C61       1.0  0.39519  0.67918  0.14525  1.0000
  C   C62       1.0  0.31803  0.71159  0.15347  1.0000
  C   C63       1.0  0.28533  0.60139  0.14884  1.0000
  C   C64       1.0  0.37973  0.72580  0.15009  1.0000
  C   C65       1.0  0.27155  0.64930  0.15311  1.0000
  C   C66       1.0  0.34755  0.61716  0.14596  1.0000
  C   C67       1.0  0.94084  0.93733  0.76837  1.0000
  C   C68       1.0  0.05373  0.00032  0.77725  1.0000
  C   C69       1.0  0.99096  0.05051  0.77387  1.0000
  C   C70       1.0  0.99940  0.94264  0.77418  1.0000
  C   C71       1.0  0.04856  0.05369  0.77974  1.0000
  C   C72       1.0  0.93758  0.99186  0.76998  1.0000
  C   C73       1.0  0.58261  0.57982  0.48214  1.0000
  C   C74       1.0  0.41057  0.00244  0.49543  1.0000
  C   C75       1.0  0.00885  0.42158  0.46321  1.0000
  C   C76       1.0  0.88482  0.87632  0.74716  1.0000
  C   C77       1.0  0.11457  0.00491  0.76156  1.0000
  C   C78       1.0  0.98724  0.10801  0.75591  1.0000
  C   C79       1.0  0.57192  0.52273  0.44260  1.0000
  C   C80       1.0  0.46807  0.04986  0.45262  1.0000
  C   C81       1.0  0.96506  0.43612  0.40851  1.0000
  C   C82       1.0  0.82561  0.86510  0.78471  1.0000
  C   C83       1.0  0.12394  0.95485  0.80546  1.0000
  C   C84       1.0  0.03589  0.16522  0.80508  1.0000
  C   C85       1.0  0.60879  0.51492  0.98114  1.0000
  C   C86       1.0  0.48770  0.09160  0.96791  1.0000
  C   C87       1.0  0.89582  0.38930  0.94022  1.0000
  C   C88       1.0  0.77395  0.80890  0.75062  1.0000
  C   C89       1.0  0.18004  0.95908  0.77446  1.0000
  C   C90       1.0  0.03357  0.21916  0.77052  1.0000
  C   C91       1.0  0.66459  0.55297  0.05670  1.0000
  C   C92       1.0  0.45081  0.10995  0.04113  1.0000
  C   C93       1.0  0.88052  0.33405  0.02706  1.0000
  C   C94       1.0  0.77607  0.75931  0.68678  1.0000
  C   C95       1.0  0.23096  0.01197  0.70555  1.0000
  C   C96       1.0  0.98346  0.22089  0.69379  1.0000
  C   C97       1.0  0.83610  0.77107  0.65367  1.0000
  C   C98       1.0  0.22082  0.06218  0.66585  1.0000
  C   C99       1.0  0.93424  0.16271  0.65010  1.0000
  C   C100      1.0  0.88839  0.82758  0.68040  1.0000
  C   C101      1.0  0.16471  0.05867  0.69088  1.0000
  C   C102      1.0  0.93632  0.10839  0.67786  1.0000
  C   C103      1.0  0.72406  0.69844  0.64905  1.0000
  C   C104      1.0  0.29189  0.02103  0.66822  1.0000
  C   C105      1.0  0.97764  0.27568  0.65140  1.0000
  C   C106      1.0  0.66377  0.68109  0.59431  1.0000
  C   C107      1.0  0.30984  0.97927  0.61864  1.0000
  C   C108      1.0  0.02276  0.33577  0.59696  1.0000
  C   C109      1.0  0.68123  0.61327  0.09739  1.0000
  C   C110      1.0  0.38998  0.06696  0.08933  1.0000
  C   C111      1.0  0.92576  0.31882  0.07841  1.0000
  C   C112      1.0  0.57965  0.70814  0.59024  1.0000
  C   C113      1.0  0.59321  0.45250  0.92670  1.0000
  C   C114      1.0  0.55161  0.13742  0.91062  1.0000
  C   C115      1.0  0.84729  0.40346  0.87424  1.0000
  C   C116      1.0  0.56442  0.75346  0.53530  1.0000
  C   C117      1.0  0.50598  0.74447  0.56220  1.0000
  C   C118      1.0  0.46027  0.69051  0.64506  1.0000
  C   C119      1.0  0.47686  0.64673  0.70422  1.0000
  C   C120      1.0  0.53515  0.65495  0.67689  1.0000
  C   C121      1.0  0.39662  0.67871  0.66000  1.0000
  C   C122      1.0  0.32301  0.71593  0.66741  1.0000
  C   C123      1.0  0.28558  0.60464  0.65995  1.0000
  C   C124      1.0  0.38388  0.72726  0.66499  1.0000
  C   C125      1.0  0.27459  0.65434  0.66643  1.0000
  C   C126      1.0  0.34694  0.61779  0.65873  1.0000
  Br  Br1       1.0  0.48902  0.48965  0.84877  1.0000
  Br  Br2       1.0  0.50983  0.99585  0.85339  1.0000
  Br  Br3       1.0  0.98572  0.50931  0.79263  1.0000
  Br  Br4       1.0  0.49391  0.46909  0.34121  1.0000
  Br  Br5       1.0  0.52200  0.02777  0.35152  1.0000
  Br  Br6       1.0  0.99427  0.51471  0.29014  1.0000
  N   N1        1.0  0.63848  0.63396  0.06451  1.0000
  N   N2        1.0  0.36758  0.00371  0.06407  1.0000
  N   N3        1.0  0.98820  0.36250  0.04425  1.0000
  N   N4        1.0  0.73401  0.65829  0.15557  1.0000
  N   N5        1.0  0.34595  0.07509  0.14934  1.0000
  N   N6        1.0  0.92023  0.26637  0.14640  1.0000
  N   N7        1.0  0.64354  0.73441  0.06768  1.0000
  N   N8        1.0  0.26655  0.90992  0.08238  1.0000
  N   N9        1.0  0.08391  0.35842  0.05404  1.0000
  N   N10       1.0  0.63822  0.61966  0.55335  1.0000
  N   N11       1.0  0.37098  0.01639  0.56995  1.0000
  N   N12       1.0  0.98977  0.36497  0.54399  1.0000
  N   N13       1.0  0.73517  0.64981  0.64407  1.0000
  N   N14       1.0  0.34033  0.08107  0.65523  1.0000
  N   N15       1.0  0.91933  0.26834  0.63615  1.0000
  N   N16       1.0  0.63724  0.71696  0.54934  1.0000
  N   N17       1.0  0.27493  0.91713  0.58832  1.0000
  N   N18       1.0  0.08475  0.36064  0.56463  1.0000
  F   F1        1.0  0.72562  0.81082  0.32783  1.0000
  F   F2        1.0  0.18938  0.90918  0.33574  1.0000
  F   F3        1.0  0.08517  0.27703  0.33597  1.0000
  F   F4        1.0  0.71741  0.80273  0.78406  1.0000
  F   F5        1.0  0.18409  0.90664  0.81615  1.0000
  F   F6        1.0  0.08452  0.27378  0.81634  1.0000
  C  Sn1       1.0  0.21033  0.44289  0.58424  1.0000
  C   C127      1.0  0.14905  0.41724  0.63279  1.0000
  C  Sn2       1.0  0.12676  0.45531  0.67902  1.0000
  C  Sn3       1.0  0.16655  0.52038  0.67658  1.0000
  C   C128      1.0  0.22779  0.54600  0.62803  1.0000
  C  Sn4       1.0  0.25012  0.50796  0.58180  1.0000
  O  Te1       1.0  0.23163  0.40395  0.53852  1.0000
  O  Te2       1.0  0.06532  0.42859  0.72715  1.0000
  O  Te3       1.0  0.14520  0.55932  0.72236  1.0000
  O  Te4       1.0  0.31151  0.53465  0.53367  1.0000
  Mg  Mg1       1.0  0.05787  0.50098  0.77844  1.0000
  Mg  Mg2       1.0  0.31900  0.46231  0.48227  1.0000
  C  Sn5       1.0  0.23178  0.46649  0.99972  1.0000
  C   C129      1.0  0.23053  0.53301  0.08767  1.0000
  C  Sn6       1.0  0.18325  0.51950  0.19686  1.0000
  C  Sn7       1.0  0.13367  0.45788  0.21869  1.0000
  C   C130      1.0  0.13241  0.41108  0.13080  1.0000
  C  Sn8       1.0  0.17968  0.42454  0.02155  1.0000
  O  Te5       1.0  0.27954  0.48105  0.89122  1.0000
  O  Te6       1.0  0.18552  0.56711  0.28337  1.0000
  O  Te7       1.0  0.08589  0.44335  0.32730  1.0000
  O  Te8       1.0  0.17994  0.35730  0.93510  1.0000
  Mg  Mg3       1.0  0.10964  0.52414  0.41711  1.0000
  Mg  Mg4       1.0  0.25581  0.40021  0.80140  1.0000
  C  Sn9       1.0  0.35620  0.87272  0.66430  1.0000
  C   C131      1.0  0.30508  0.87380  0.59314  1.0000
  C  Sn10      1.0  0.25044  0.81856  0.56627  1.0000
  C  Sn11      1.0  0.24679  0.76104  0.61156  1.0000
  C   C132      1.0  0.29787  0.75999  0.68270  1.0000
  C  Sn12      1.0  0.35255  0.81521  0.70960  1.0000
  O  Te9       1.0  0.41036  0.92851  0.69004  1.0000
  O  Te10      1.0  0.19995  0.82081  0.49489  1.0000
  O  Te11      1.0  0.19256  0.70523  0.58576  1.0000
  O  Te12      1.0  0.40300  0.81298  0.78096  1.0000
  Mg  Mg5       1.0  0.13630  0.73233  0.48477  1.0000
  Mg  Mg6       1.0  0.46667  0.90142  0.79120  1.0000
