data_image0
_chemical_formula_structural       H66C120N18Cl6F6C2Sn2C2HTe2HMgC2Sn2C2HTe2HMgC2Sn2C2HTe2HMg
_chemical_formula_sum              "H72 C132 N18 Cl6 F6 Sn6 Te6 Mg3"
_cell_length_a       24.9397
_cell_length_b       25.2872
_cell_length_c       7.99023
_cell_angle_alpha    96.8989
_cell_angle_beta     84.9907
_cell_angle_gamma    120.139

_symmetry_space_group_name_H-M    'P1'
_space_group_IT_number       1

loop_
  _space_group_symop_operation_xyz
  'x, y, z'

loop_
  _atom_site_type_symbol
  _atom_site_label
  _atom_site_symmetry_multiplicity
  _atom_site_fract_x
  _atom_site_fract_y
  _atom_site_fract_z
  _atom_site_occupancy
  H   H1        1.0  0.99392  0.90648  0.05792  1.0000
  H   H2        1.0  0.09818  0.10271  0.05420  1.0000
  H   H3        1.0  0.89899  0.00891  0.05918  1.0000
  H   H4        1.0  0.83213  0.93074  0.23617  1.0000
  H   H5        1.0  0.07359  0.92277  0.19892  1.0000
  H   H6        1.0  0.08314  0.17081  0.21811  1.0000
  H   H7        1.0  0.81311  0.71638  0.44441  1.0000
  H   H8        1.0  0.26818  0.06969  0.50984  1.0000
  H   H9        1.0  0.91054  0.16009  0.45184  1.0000
  H   H10       1.0  0.91062  0.83850  0.90055  1.0000
  H   H11       1.0  0.16813  0.08484  0.92635  1.0000
  H   H12       1.0  0.92069  0.09206  0.91687  1.0000
  H   H13       1.0  0.66168  0.76049  0.40200  1.0000
  H   H14       1.0  0.24314  0.92468  0.33498  1.0000
  H   H15       1.0  0.10179  0.35348  0.32883  1.0000
  H   H16       1.0  0.20217  0.42873  0.37577  1.0000
  H   H17       1.0  0.28852  0.53136  0.32889  1.0000
  H   H18       1.0  0.17119  0.56406  0.04334  1.0000
  H   H19       1.0  0.42537  0.78912  0.20197  1.0000
  H   H20       1.0  0.23010  0.66024  0.16474  1.0000
  H   H21       1.0  0.35918  0.59600  0.18682  1.0000
  H   H22       1.0  0.55405  0.59926  0.36701  1.0000
  H   H23       1.0  0.41025  0.98557  0.35016  1.0000
  H   H24       1.0  0.04389  0.46146  0.38260  1.0000
  H   H25       1.0  0.08518  0.46075  0.08550  1.0000
  H   H26       1.0  0.52843  0.48861  0.32501  1.0000
  H   H27       1.0  0.52192  0.06562  0.30788  1.0000
  H   H28       1.0  0.96443  0.49352  0.36108  1.0000
  H   H29       1.0  0.68612  0.52251  0.52651  1.0000
  H   H30       1.0  0.46315  0.13647  0.58652  1.0000
  H   H31       1.0  0.84110  0.29066  0.50457  1.0000
  H   H32       1.0  0.99400  0.88528  0.55333  1.0000
  H   H33       1.0  0.09766  0.08169  0.55091  1.0000
  H   H34       1.0  0.89886  0.98588  0.52957  1.0000
  H   H35       1.0  0.83147  0.91244  0.69725  1.0000
  H   H36       1.0  0.06870  0.89968  0.70135  1.0000
  H   H37       1.0  0.08507  0.15458  0.68068  1.0000
  H   H38       1.0  0.81624  0.73921  0.94805  1.0000
  H   H39       1.0  0.26711  0.08899  0.96608  1.0000
  H   H40       1.0  0.92051  0.19027  0.96868  1.0000
  H   H41       1.0  0.91023  0.81313  0.39626  1.0000
  H   H42       1.0  0.17134  0.06647  0.45042  1.0000
  H   H43       1.0  0.91463  0.06388  0.40866  1.0000
  H   H44       1.0  0.65804  0.75110  0.85658  1.0000
  H   H45       1.0  0.23310  0.89522  0.85662  1.0000
  H   H46       1.0  0.07958  0.32302  0.84578  1.0000
  H   H47       1.0  0.58288  0.78099  0.90850  1.0000
  H   H48       1.0  0.20774  0.79876  0.92837  1.0000
  H   H49       1.0  0.47869  0.76210  0.85529  1.0000
  H   H50       1.0  0.22118  0.70822  0.87278  1.0000
  H   H51       1.0  0.43991  0.59487  0.55444  1.0000
  H   H52       1.0  0.37182  0.80365  0.52249  1.0000
  H   H53       1.0  0.41041  0.75714  0.67857  1.0000
  H   H54       1.0  0.21537  0.62733  0.69057  1.0000
  H   H55       1.0  0.34723  0.56558  0.69905  1.0000
  H   H56       1.0  0.55323  0.58913  0.88650  1.0000
  H   H57       1.0  0.39852  0.94290  0.84772  1.0000
  H   H58       1.0  0.01766  0.42568  0.88227  1.0000
  H   H59       1.0  0.54353  0.61317  0.60866  1.0000
  H   H60       1.0  0.35588  0.89269  0.56755  1.0000
  H   H61       1.0  0.52241  0.47750  0.84865  1.0000
  H   H62       1.0  0.51183  0.02022  0.81683  1.0000
  H   H63       1.0  0.93723  0.45518  0.84295  1.0000
  H   H64       1.0  0.70017  0.54420  0.03265  1.0000
  H   H65       1.0  0.46415  0.16448  0.03048  1.0000
  H   H66       1.0  0.84871  0.31976  0.07805  1.0000
  C   C1        1.0  0.93979  0.95107  0.05639  1.0000
  C   C2        1.0  0.05328  0.00438  0.05308  1.0000
  C   C3        1.0  0.99902  0.06266  0.05443  1.0000
  C   C4        1.0  0.38730  0.74193  0.19030  1.0000
  C   C5        1.0  0.27749  0.66940  0.16940  1.0000
  C   C6        1.0  0.34974  0.63331  0.18183  1.0000
  C   C7        1.0  0.99570  0.95020  0.05449  1.0000
  C   C8        1.0  0.05396  0.06018  0.05252  1.0000
  C   C9        1.0  0.94200  0.00757  0.05556  1.0000
  C   C10       1.0  0.88054  0.89289  0.06804  1.0000
  C   C11       1.0  0.11206  0.00410  0.06109  1.0000
  C   C12       1.0  0.00121  0.12237  0.06530  1.0000
  C   C13       1.0  0.58425  0.58442  0.29797  1.0000
  C   C14       1.0  0.42464  0.02419  0.27686  1.0000
  C   C15       1.0  0.00094  0.43276  0.31702  1.0000
  C   C16       1.0  0.83013  0.88995  0.16784  1.0000
  C   C17       1.0  0.11467  0.95911  0.14120  1.0000
  C   C18       1.0  0.04797  0.17377  0.15521  1.0000
  C   C19       1.0  0.57099  0.52456  0.27177  1.0000
  C   C20       1.0  0.48532  0.06831  0.25204  1.0000
  C   C21       1.0  0.95719  0.44947  0.30284  1.0000
  C   C22       1.0  0.77753  0.83351  0.18952  1.0000
  C   C23       1.0  0.17120  0.96279  0.16122  1.0000
  C   C24       1.0  0.04752  0.22869  0.17832  1.0000
  C   C25       1.0  0.60195  0.49291  0.68140  1.0000
  C   C26       1.0  0.49443  0.08303  0.69710  1.0000
  C   C27       1.0  0.88541  0.37551  0.66568  1.0000
  C   C28       1.0  0.77068  0.77716  0.11761  1.0000
  C   C29       1.0  0.22844  0.00963  0.10348  1.0000
  C   C30       1.0  0.00138  0.23714  0.11750  1.0000
  C   C31       1.0  0.65626  0.53541  0.60625  1.0000
  C   C32       1.0  0.45065  0.09525  0.64625  1.0000
  C   C33       1.0  0.87928  0.32130  0.58614  1.0000
  C   C34       1.0  0.82074  0.78187  0.00983  1.0000
  C   C35       1.0  0.22397  0.05280  0.01621  1.0000
  C   C36       1.0  0.95641  0.18525  0.02038  1.0000
  C   C37       1.0  0.87380  0.83756  0.98589  1.0000
  C   C38       1.0  0.16830  0.05057  0.99604  1.0000
  C   C39       1.0  0.95606  0.12986  0.99452  1.0000
  C   C40       1.0  0.72060  0.71526  0.15036  1.0000
  C   C41       1.0  0.29129  0.02199  0.13158  1.0000
  C   C42       1.0  0.99111  0.28972  0.15334  1.0000
  C   C43       1.0  0.66340  0.69303  0.24083  1.0000
  C   C44       1.0  0.31431  0.99031  0.20846  1.0000
  C   C45       1.0  0.02816  0.34958  0.22850  1.0000
  C   C46       1.0  0.67323  0.59795  0.63195  1.0000
  C   C47       1.0  0.38734  0.05185  0.66819  1.0000
  C   C48       1.0  0.92407  0.30504  0.61335  1.0000
  C   C49       1.0  0.13648  0.43767  0.23925  1.0000
  C   C50       1.0  0.19559  0.45796  0.30018  1.0000
  C   C51       1.0  0.24445  0.51594  0.27198  1.0000
  C   C52       1.0  0.23680  0.55676  0.18491  1.0000
  C   C53       1.0  0.17822  0.53523  0.11919  1.0000
  C   C54       1.0  0.12898  0.47655  0.14377  1.0000
  C   C55       1.0  0.39956  0.69362  0.19344  1.0000
  C   C56       1.0  0.32630  0.73040  0.17832  1.0000
  C   C57       1.0  0.28833  0.62020  0.17346  1.0000
  C   C58       1.0  0.93981  0.92895  0.53731  1.0000
  C   C59       1.0  0.05297  0.98351  0.55202  1.0000
  C   C60       1.0  0.99857  0.04086  0.53748  1.0000
  C   C61       1.0  0.37275  0.70990  0.67913  1.0000
  C   C62       1.0  0.26310  0.63689  0.68593  1.0000
  C   C63       1.0  0.33701  0.60218  0.69004  1.0000
  C   C64       1.0  0.99566  0.92874  0.54597  1.0000
  C   C65       1.0  0.05355  0.03902  0.54543  1.0000
  C   C66       1.0  0.94202  0.98524  0.53281  1.0000
  C   C67       1.0  0.88005  0.87116  0.54593  1.0000
  C   C68       1.0  0.11125  0.98378  0.57423  1.0000
  C   C69       1.0  0.99908  0.09977  0.54449  1.0000
  C   C70       1.0  0.58009  0.57201  0.80893  1.0000
  C   C71       1.0  0.41524  0.98597  0.79367  1.0000
  C   C72       1.0  0.97897  0.39889  0.79943  1.0000
  C   C73       1.0  0.82894  0.87059  0.63563  1.0000
  C   C74       1.0  0.11128  0.93722  0.65339  1.0000
  C   C75       1.0  0.04652  0.15381  0.62450  1.0000
  C   C76       1.0  0.56389  0.51130  0.78561  1.0000
  C   C77       1.0  0.47677  0.02844  0.77377  1.0000
  C   C78       1.0  0.93496  0.41426  0.77521  1.0000
  C   C79       1.0  0.77474  0.81566  0.65763  1.0000
  C   C80       1.0  0.16652  0.93932  0.67982  1.0000
  C   C81       1.0  0.04358  0.20755  0.64281  1.0000
  C   C82       1.0  0.61332  0.50982  0.17633  1.0000
  C   C83       1.0  0.49999  0.11899  0.16060  1.0000
  C   C84       1.0  0.90245  0.40903  0.21286  1.0000
  C   C85       1.0  0.76687  0.75787  0.59664  1.0000
  C   C86       1.0  0.22526  0.98706  0.63439  1.0000
  C   C87       1.0  0.99417  0.21206  0.58803  1.0000
  C   C88       1.0  0.66767  0.55463  0.10776  1.0000
  C   C89       1.0  0.45409  0.12554  0.09774  1.0000
  C   C90       1.0  0.89049  0.35140  0.14615  1.0000
  C   C91       1.0  0.81806  0.76006  0.49851  1.0000
  C   C92       1.0  0.22377  0.03262  0.55071  1.0000
  C   C93       1.0  0.94855  0.15776  0.50066  1.0000
  C   C94       1.0  0.87269  0.81446  0.47345  1.0000
  C   C95       1.0  0.16912  0.03106  0.52039  1.0000
  C   C96       1.0  0.95078  0.10370  0.47891  1.0000
  C   C97       1.0  0.71531  0.69706  0.63310  1.0000
  C   C98       1.0  0.28671  0.99696  0.66769  1.0000
  C   C99       1.0  0.98229  0.26378  0.61899  1.0000
  C   C100      1.0  0.65876  0.67776  0.72575  1.0000
  C   C101      1.0  0.30658  0.96100  0.73577  1.0000
  C   C102      1.0  0.01327  0.32107  0.71369  1.0000
  C   C103      1.0  0.68139  0.61621  0.13599  1.0000
  C   C104      1.0  0.39173  0.08013  0.12326  1.0000
  C   C105      1.0  0.93477  0.33355  0.16369  1.0000
  C   C106      1.0  0.57097  0.69820  0.76293  1.0000
  C   C107      1.0  0.28245  0.85343  0.75749  1.0000
  C   C108      1.0  0.55209  0.74071  0.82787  1.0000
  C   C109      1.0  0.24294  0.79947  0.83652  1.0000
  C   C110      1.0  0.49325  0.72998  0.79704  1.0000
  C   C111      1.0  0.25070  0.74848  0.80489  1.0000
  C   C112      1.0  0.45067  0.67662  0.70228  1.0000
  C   C113      1.0  0.29873  0.74939  0.69647  1.0000
  C   C114      1.0  0.47079  0.63558  0.63350  1.0000
  C   C115      1.0  0.33638  0.80265  0.61382  1.0000
  C   C116      1.0  0.52968  0.64600  0.66285  1.0000
  C   C117      1.0  0.32793  0.85360  0.64060  1.0000
  C   C118      1.0  0.38634  0.66275  0.68560  1.0000
  C   C119      1.0  0.31132  0.69782  0.68190  1.0000
  C   C120      1.0  0.27503  0.58839  0.69088  1.0000
  N   N1        1.0  0.63871  0.62959  0.23203  1.0000
  N   N2        1.0  0.37850  0.02848  0.20732  1.0000
  N   N3        1.0  0.99117  0.37673  0.24196  1.0000
  N   N4        1.0  0.72271  0.64718  0.57675  1.0000
  N   N5        1.0  0.33718  0.05232  0.62786  1.0000
  N   N6        1.0  0.92796  0.25538  0.55852  1.0000
  N   N7        1.0  0.63284  0.72022  0.33673  1.0000
  N   N8        1.0  0.28573  0.93553  0.28356  1.0000
  N   N9        1.0  0.08811  0.38078  0.28517  1.0000
  N   N10       1.0  0.63302  0.61461  0.72951  1.0000
  N   N11       1.0  0.37103  0.99665  0.73820  1.0000
  N   N12       1.0  0.97496  0.34642  0.71450  1.0000
  N   N13       1.0  0.73039  0.66728  0.08791  1.0000
  N   N14       1.0  0.33982  0.07673  0.08082  1.0000
  N   N15       1.0  0.93445  0.28143  0.11325  1.0000
  N   N16       1.0  0.62869  0.70771  0.80820  1.0000
  N   N17       1.0  0.27528  0.90499  0.80431  1.0000
  N   N18       1.0  0.06797  0.35184  0.80172  1.0000
  Cl  Cl1       1.0  0.57836  0.41517  0.64912  1.0000
  Cl  Cl2       1.0  0.57286  0.13322  0.65996  1.0000
  Cl  Cl3       1.0  0.83168  0.39761  0.63409  1.0000
  Cl  Cl4       1.0  0.59474  0.43340  0.14519  1.0000
  Cl  Cl5       1.0  0.57750  0.17389  0.13202  1.0000
  Cl  Cl6       1.0  0.85139  0.43456  0.18138  1.0000
  F   F1        1.0  0.73080  0.83482  0.29215  1.0000
  F   F2        1.0  0.16813  0.91743  0.24955  1.0000
  F   F3        1.0  0.09518  0.27479  0.27495  1.0000
  F   F4        1.0  0.72805  0.82127  0.75009  1.0000
  F   F5        1.0  0.16017  0.89067  0.75860  1.0000
  F   F6        1.0  0.09250  0.25771  0.72470  1.0000
  C   C121      1.0  0.51549  0.75730  0.36602  1.0000
  C   C122      1.0  0.47351  0.71891  0.24182  1.0000
  C  Sn1       1.0  0.48344  0.67546  0.14013  1.0000
  C  Sn2       1.0  0.53642  0.67046  0.16354  1.0000
  C   C123      1.0  0.57812  0.70906  0.28822  1.0000
  C   C124      1.0  0.56774  0.75238  0.38924  1.0000
  H   H67       1.0  0.50745  0.79080  0.44425  1.0000
  O  Te1       1.0  0.44104  0.63748  0.01659  1.0000
  O  Te2       1.0  0.54745  0.62743  0.06371  1.0000
  H   H68       1.0  0.60024  0.78208  0.48546  1.0000
  Mg  Mg1       1.0  0.46470  0.61823  0.91204  1.0000
  C   C125      1.0  0.25210  0.78578  0.30095  1.0000
  C   C126      1.0  0.29729  0.77842  0.20165  1.0000
  C  Sn3       1.0  0.34471  0.82756  0.12006  1.0000
  C  Sn4       1.0  0.34682  0.88509  0.13851  1.0000
  C   C127      1.0  0.30142  0.89199  0.23822  1.0000
  C   C128      1.0  0.25416  0.84251  0.31926  1.0000
  H   H69       1.0  0.21555  0.74751  0.36373  1.0000
  O  Te3       1.0  0.38947  0.81942  0.02128  1.0000
  O  Te4       1.0  0.39371  0.93497  0.05842  1.0000
  H   H70       1.0  0.21921  0.84823  0.39622  1.0000
  Mg  Mg2       1.0  0.43257  0.93335  0.93725  1.0000
  C   C129      1.0  0.14901  0.49373  0.62876  1.0000
  C   C130      1.0  0.20813  0.52240  0.69530  1.0000
  C  Sn5       1.0  0.22464  0.49063  0.79223  1.0000
  C  Sn6       1.0  0.18106  0.42902  0.82288  1.0000
  C   C131      1.0  0.12205  0.40074  0.75565  1.0000
  C   C132      1.0  0.10601  0.43295  0.65887  1.0000
  H   H71       1.0  0.13661  0.51864  0.55380  1.0000
  O  Te5       1.0  0.28389  0.51997  0.85781  1.0000
  O  Te6       1.0  0.19635  0.39620  0.91928  1.0000
  H   H72       1.0  0.06025  0.41073  0.60728  1.0000
  Mg  Mg3       1.0  0.28286  0.45609  0.98146  1.0000
