data_image0
_chemical_formula_structural       H88C156N12C2Sn2C2HTe2HMgC2Sn2C2HTe2HMgC2Sn2C2HTe2HMgC2Sn2C2HTe2HMgC2Sn2C2HTe2HMgC2Sn2C2HTe2HMgC2Sn2C2HTe2HMgC2Sn2C2HTe2HMg
_chemical_formula_sum              "H104 C188 N12 Sn16 Te16 Mg8"
_cell_length_a       31.5314
_cell_length_b       28.6097
_cell_length_c       8.13901
_cell_angle_alpha    95.7396
_cell_angle_beta     93.4245
_cell_angle_gamma    90.0888

_symmetry_space_group_name_H-M    'P1'
_space_group_IT_number       1

loop_
  _space_group_symop_operation_xyz
  'x, y, z'

loop_
  _atom_site_type_symbol
  _atom_site_label
  _atom_site_symmetry_multiplicity
  _atom_site_fract_x
  _atom_site_fract_y
  _atom_site_fract_z
  _atom_site_occupancy
  H   H1        1.0  0.36601  0.92245  0.06480  1.0000
  H   H2        1.0  0.63446  0.07556  0.08752  1.0000
  H   H3        1.0  0.64046  0.92617  0.44687  1.0000
  H   H4        1.0  0.36935  0.07740  0.44683  1.0000
  H   H5        1.0  0.46220  0.82457  0.20640  1.0000
  H   H6        1.0  0.53430  0.17478  0.19190  1.0000
  H   H7        1.0  0.53885  0.82583  0.31779  1.0000
  H   H8        1.0  0.46085  0.17588  0.30378  1.0000
  H   H9        1.0  0.65678  0.12433  0.94546  1.0000
  H   H10       1.0  0.33797  0.13226  0.54650  1.0000
  H   H11       1.0  0.71176  0.18541  0.92831  1.0000
  H   H12       1.0  0.28167  0.19203  0.55817  1.0000
  H   H13       1.0  0.63848  0.28469  0.22216  1.0000
  H   H14       1.0  0.35503  0.27806  0.27580  1.0000
  H   H15       1.0  0.58537  0.22338  0.25092  1.0000
  H   H16       1.0  0.40999  0.21767  0.25315  1.0000
  H   H17       1.0  0.29070  0.69065  0.13652  1.0000
  H   H18       1.0  0.70590  0.30989  0.13275  1.0000
  H   H19       1.0  0.71106  0.69215  0.37043  1.0000
  H   H20       1.0  0.28655  0.30492  0.34960  1.0000
  H   H21       1.0  0.82592  0.25245  0.16368  1.0000
  H   H22       1.0  0.83112  0.75276  0.37671  1.0000
  H   H23       1.0  0.16602  0.25103  0.35872  1.0000
  H   H24       1.0  0.88450  0.31150  0.20198  1.0000
  H   H25       1.0  0.88817  0.69476  0.31988  1.0000
  H   H26       1.0  0.11002  0.31032  0.31483  1.0000
  H   H27       1.0  0.80663  0.40749  0.94550  1.0000
  H   H28       1.0  0.81429  0.58905  0.51561  1.0000
  H   H29       1.0  0.19485  0.41980  0.53452  1.0000
  H   H30       1.0  0.74725  0.34964  0.91661  1.0000
  H   H31       1.0  0.75609  0.64621  0.56112  1.0000
  H   H32       1.0  0.25188  0.36072  0.56716  1.0000
  H   H33       1.0  0.06432  0.63698  0.02306  1.0000
  H   H34       1.0  0.93366  0.34946  0.03580  1.0000
  H   H35       1.0  0.94064  0.65328  0.43645  1.0000
  H   H36       1.0  0.06396  0.36078  0.45592  1.0000
  H   H37       1.0  0.00630  0.58487  0.09294  1.0000
  H   H38       1.0  0.99358  0.40492  0.10519  1.0000
  H   H39       1.0  0.99790  0.59863  0.35811  1.0000
  H   H40       1.0  0.00622  0.41431  0.37821  1.0000
  H   H41       1.0  0.15839  0.54222  0.20031  1.0000
  H   H42       1.0  0.84407  0.45617  0.18816  1.0000
  H   H43       1.0  0.84612  0.54536  0.30093  1.0000
  H   H44       1.0  0.15800  0.45566  0.31196  1.0000
  H   H45       1.0  0.41595  0.98783  0.13197  1.0000
  H   H46       1.0  0.58974  0.01120  0.15700  1.0000
  H   H47       1.0  0.59320  0.99077  0.38565  1.0000
  H   H48       1.0  0.41933  0.01296  0.39785  1.0000
  H   H49       1.0  0.36417  0.92223  0.56946  1.0000
  H   H50       1.0  0.63453  0.07464  0.58480  1.0000
  H   H51       1.0  0.63933  0.92634  0.94463  1.0000
  H   H52       1.0  0.37143  0.08013  0.96198  1.0000
  H   H53       1.0  0.46186  0.82504  0.70225  1.0000
  H   H54       1.0  0.53527  0.17507  0.68515  1.0000
  H   H55       1.0  0.53726  0.82641  0.81648  1.0000
  H   H56       1.0  0.46069  0.17671  0.79210  1.0000
  H   H57       1.0  0.65416  0.12435  0.42537  1.0000
  H   H58       1.0  0.70954  0.18480  0.40383  1.0000
  H   H59       1.0  0.64376  0.28171  0.73488  1.0000
  H   H60       1.0  0.59033  0.22092  0.76682  1.0000
  H   H61       1.0  0.29028  0.69064  0.63944  1.0000
  H   H62       1.0  0.70868  0.30688  0.63392  1.0000
  H   H63       1.0  0.71006  0.69212  0.86368  1.0000
  H   H64       1.0  0.28830  0.30913  0.86107  1.0000
  H   H65       1.0  0.82838  0.75090  0.85982  1.0000
  H   H66       1.0  0.16720  0.25216  0.83118  1.0000
  H   H67       1.0  0.88545  0.69250  0.80916  1.0000
  H   H68       1.0  0.11078  0.31136  0.79193  1.0000
  H   H69       1.0  0.81403  0.59064  0.03519  1.0000
  H   H70       1.0  0.19195  0.41882  0.05028  1.0000
  H   H71       1.0  0.75583  0.64838  0.07648  1.0000
  H   H72       1.0  0.24900  0.36002  0.08186  1.0000
  H   H73       1.0  0.06336  0.63998  0.53937  1.0000
  H   H74       1.0  0.93379  0.35053  0.52691  1.0000
  H   H75       1.0  0.93875  0.65301  0.94262  1.0000
  H   H76       1.0  0.06331  0.36099  0.95474  1.0000
  H   H77       1.0  0.00522  0.58732  0.60214  1.0000
  H   H78       1.0  0.99317  0.40643  0.59984  1.0000
  H   H79       1.0  0.99612  0.59883  0.86222  1.0000
  H   H80       1.0  0.00533  0.41495  0.88026  1.0000
  H   H81       1.0  0.15716  0.54265  0.70052  1.0000
  H   H82       1.0  0.84344  0.45479  0.69321  1.0000
  H   H83       1.0  0.84472  0.54465  0.80706  1.0000
  H   H84       1.0  0.15689  0.45550  0.80679  1.0000
  H   H85       1.0  0.41341  0.98829  0.63758  1.0000
  H   H86       1.0  0.58888  0.01072  0.65377  1.0000
  H   H87       1.0  0.59191  0.99124  0.88609  1.0000
  H   H88       1.0  0.42003  0.01518  0.90520  1.0000
  C   C1        1.0  0.47955  0.89760  0.23576  1.0000
  C   C2        1.0  0.52245  0.10325  0.23551  1.0000
  C   C3        1.0  0.52458  0.89809  0.28937  1.0000
  C   C4        1.0  0.47881  0.10337  0.28689  1.0000
  C   C5        1.0  0.53933  0.94557  0.30355  1.0000
  C   C6        1.0  0.46734  0.05622  0.30684  1.0000
  C   C7        1.0  0.46685  0.94481  0.22172  1.0000
  C   C8        1.0  0.53766  0.05619  0.22977  1.0000
  C   C9        1.0  0.42604  0.95257  0.15288  1.0000
  C   C10       1.0  0.57783  0.04683  0.17045  1.0000
  C   C11       1.0  0.58112  0.95501  0.36612  1.0000
  C   C12       1.0  0.42823  0.04802  0.37198  1.0000
  C   C13       1.0  0.39789  0.91506  0.11321  1.0000
  C   C14       1.0  0.60277  0.08344  0.12782  1.0000
  C   C15       1.0  0.60774  0.91823  0.40328  1.0000
  C   C16       1.0  0.40015  0.08499  0.40200  1.0000
  C   C17       1.0  0.40928  0.86838  0.13767  1.0000
  C   C18       1.0  0.58857  0.13044  0.13844  1.0000
  C   C19       1.0  0.59389  0.87092  0.38248  1.0000
  C   C20       1.0  0.41012  0.13156  0.37301  1.0000
  C   C21       1.0  0.45144  0.86025  0.19547  1.0000
  C   C22       1.0  0.54722  0.13951  0.19027  1.0000
  C   C23       1.0  0.55119  0.86159  0.32755  1.0000
  C   C24       1.0  0.45089  0.14025  0.31911  1.0000
  C   C25       1.0  0.61736  0.16849  0.10429  1.0000
  C   C26       1.0  0.37850  0.16933  0.39581  1.0000
  C   C27       1.0  0.65326  0.15902  0.01079  1.0000
  C   C28       1.0  0.34163  0.16352  0.48286  1.0000
  C   C29       1.0  0.68384  0.19317  0.99827  1.0000
  C   C30       1.0  0.31003  0.19719  0.49209  1.0000
  C   C31       1.0  0.67939  0.23893  0.07649  1.0000
  C   C32       1.0  0.31413  0.23902  0.41659  1.0000
  C   C33       1.0  0.64240  0.24954  0.16046  1.0000
  C   C34       1.0  0.35148  0.24613  0.33620  1.0000
  C   C35       1.0  0.61213  0.21494  0.17527  1.0000
  C   C36       1.0  0.38284  0.21198  0.32512  1.0000
  C   C37       1.0  0.28188  0.72200  0.07420  1.0000
  C   C38       1.0  0.71312  0.27410  0.07904  1.0000
  C   C39       1.0  0.71948  0.72701  0.43388  1.0000
  C   C40       1.0  0.28027  0.27366  0.41343  1.0000
  C   C41       1.0  0.78240  0.29749  0.04181  1.0000
  C   C42       1.0  0.78949  0.70323  0.46848  1.0000
  C   C43       1.0  0.21294  0.30208  0.46078  1.0000
  C   C44       1.0  0.82213  0.28642  0.11562  1.0000
  C   C45       1.0  0.82791  0.71686  0.40743  1.0000
  C   C46       1.0  0.17198  0.28808  0.39682  1.0000
  C   C47       1.0  0.85483  0.31944  0.13558  1.0000
  C   C48       1.0  0.85982  0.68432  0.37733  1.0000
  C   C49       1.0  0.14075  0.32138  0.37391  1.0000
  C   C50       1.0  0.84980  0.36394  0.07763  1.0000
  C   C51       1.0  0.85550  0.63753  0.41366  1.0000
  C   C52       1.0  0.14838  0.36956  0.42027  1.0000
  C   C53       1.0  0.81060  0.37411  0.99793  1.0000
  C   C54       1.0  0.81763  0.62456  0.48068  1.0000
  C   C55       1.0  0.18878  0.38299  0.49183  1.0000
  C   C56       1.0  0.77717  0.34163  0.98124  1.0000
  C   C57       1.0  0.78486  0.65662  0.50636  1.0000
  C   C58       1.0  0.22079  0.35000  0.51058  1.0000
  C   C59       1.0  0.11531  0.59364  0.10946  1.0000
  C   C60       1.0  0.88468  0.39882  0.10614  1.0000
  C   C61       1.0  0.88932  0.60327  0.37652  1.0000
  C   C62       1.0  0.11501  0.40417  0.38822  1.0000
  C   C63       1.0  0.07204  0.60488  0.07937  1.0000
  C   C64       1.0  0.92726  0.38546  0.08371  1.0000
  C   C65       1.0  0.93258  0.61714  0.39054  1.0000
  C   C66       1.0  0.07183  0.39347  0.40655  1.0000
  C   C67       1.0  0.03923  0.57577  0.11604  1.0000
  C   C68       1.0  0.96132  0.41665  0.12015  1.0000
  C   C69       1.0  0.96530  0.58631  0.34872  1.0000
  C   C70       1.0  0.03905  0.42360  0.36581  1.0000
  C   C71       1.0  0.04983  0.53451  0.18496  1.0000
  C   C72       1.0  0.95262  0.46281  0.18084  1.0000
  C   C73       1.0  0.95469  0.53977  0.29235  1.0000
  C   C74       1.0  0.04961  0.46543  0.30364  1.0000
  C   C75       1.0  0.09290  0.52166  0.21395  1.0000
  C   C76       1.0  0.91010  0.47701  0.20476  1.0000
  C   C77       1.0  0.91140  0.52526  0.27452  1.0000
  C   C78       1.0  0.09275  0.47754  0.28584  1.0000
  C   C79       1.0  0.12533  0.55124  0.17476  1.0000
  C   C80       1.0  0.87646  0.44528  0.16585  1.0000
  C   C81       1.0  0.87920  0.55670  0.31785  1.0000
  C   C82       1.0  0.12508  0.44707  0.32998  1.0000
  C   C83       1.0  0.50354  0.97637  0.26526  1.0000
  C   C84       1.0  0.50338  0.02518  0.26974  1.0000
  C   C85       1.0  0.47831  0.89833  0.73550  1.0000
  C   C86       1.0  0.52225  0.10366  0.72873  1.0000
  C   C87       1.0  0.52330  0.89879  0.78852  1.0000
  C   C88       1.0  0.47864  0.10433  0.78112  1.0000
  C   C89       1.0  0.53806  0.94622  0.80314  1.0000
  C   C90       1.0  0.46708  0.05744  0.80447  1.0000
  C   C91       1.0  0.46535  0.94556  0.72293  1.0000
  C   C92       1.0  0.53706  0.05642  0.72437  1.0000
  C   C93       1.0  0.42421  0.95309  0.65614  1.0000
  C   C94       1.0  0.57725  0.04646  0.66617  1.0000
  C   C95       1.0  0.57990  0.95547  0.86565  1.0000
  C   C96       1.0  0.42868  0.04998  0.87573  1.0000
  C   C97       1.0  0.39637  0.91523  0.61557  1.0000
  C   C98       1.0  0.60274  0.08268  0.62386  1.0000
  C   C99       1.0  0.60651  0.91853  0.90195  1.0000
  C   C100      1.0  0.40118  0.08729  0.90828  1.0000
  C   C101      1.0  0.40840  0.86850  0.63672  1.0000
  C   C102      1.0  0.58906  0.12982  0.63419  1.0000
  C   C103      1.0  0.59251  0.87123  0.88047  1.0000
  C   C104      1.0  0.41063  0.13347  0.87279  1.0000
  C   C105      1.0  0.45063  0.86069  0.69369  1.0000
  C   C106      1.0  0.54763  0.13955  0.68419  1.0000
  C   C107      1.0  0.54975  0.86212  0.82619  1.0000
  C   C108      1.0  0.45095  0.14145  0.81330  1.0000
  C   C109      1.0  0.61841  0.16746  0.60101  1.0000
  C   C110      1.0  0.65243  0.15836  0.49730  1.0000
  C   C111      1.0  0.68320  0.19216  0.48265  1.0000
  C   C112      1.0  0.68087  0.23702  0.57018  1.0000
  C   C113      1.0  0.64574  0.24732  0.66537  1.0000
  C   C114      1.0  0.61528  0.21310  0.68187  1.0000
  C   C115      1.0  0.28178  0.72163  0.57472  1.0000
  C   C116      1.0  0.71496  0.27164  0.57293  1.0000
  C   C117      1.0  0.71809  0.72690  0.92894  1.0000
  C   C118      1.0  0.28087  0.27608  0.91237  1.0000
  C   C119      1.0  0.78802  0.70323  0.96756  1.0000
  C   C120      1.0  0.21232  0.30241  0.95298  1.0000
  C   C121      1.0  0.82576  0.71584  0.89908  1.0000
  C   C122      1.0  0.17221  0.28874  0.87892  1.0000
  C   C123      1.0  0.85764  0.68308  0.87212  1.0000
  C   C124      1.0  0.14077  0.32197  0.85830  1.0000
  C   C125      1.0  0.85388  0.63715  0.91797  1.0000
  C   C126      1.0  0.14741  0.36964  0.91589  1.0000
  C   C127      1.0  0.81676  0.62531  0.99226  1.0000
  C   C128      1.0  0.18678  0.38259  0.99794  1.0000
  C   C129      1.0  0.78407  0.65763  0.01584  1.0000
  C   C130      1.0  0.21891  0.34969  0.01574  1.0000
  C   C131      1.0  0.11428  0.59518  0.61660  1.0000
  C   C132      1.0  0.88446  0.39857  0.60486  1.0000
  C   C133      1.0  0.88769  0.60273  0.88217  1.0000
  C   C134      1.0  0.11397  0.40430  0.88457  1.0000
  C   C135      1.0  0.07104  0.60705  0.59023  1.0000
  C   C136      1.0  0.92708  0.38604  0.57912  1.0000
  C   C137      1.0  0.93084  0.61686  0.89633  1.0000
  C   C138      1.0  0.07088  0.39369  0.90466  1.0000
  C   C139      1.0  0.03809  0.57769  0.62403  1.0000
  C   C140      1.0  0.96082  0.41754  0.61693  1.0000
  C   C141      1.0  0.96363  0.58627  0.85399  1.0000
  C   C142      1.0  0.03808  0.42399  0.86523  1.0000
  C   C143      1.0  0.04854  0.53559  0.68783  1.0000
  C   C144      1.0  0.95173  0.46317  0.68192  1.0000
  C   C145      1.0  0.95329  0.53973  0.79710  1.0000
  C   C146      1.0  0.04850  0.46577  0.80240  1.0000
  C   C147      1.0  0.09163  0.52236  0.71453  1.0000
  C   C148      1.0  0.90915  0.47673  0.70818  1.0000
  C   C149      1.0  0.91011  0.52483  0.77980  1.0000
  C   C150      1.0  0.09157  0.47780  0.78348  1.0000
  C   C151      1.0  0.12411  0.55209  0.67715  1.0000
  C   C152      1.0  0.87587  0.44459  0.66871  1.0000
  C   C153      1.0  0.87776  0.55609  0.82369  1.0000
  C   C154      1.0  0.12398  0.44714  0.82592  1.0000
  C   C155      1.0  0.50226  0.97710  0.76524  1.0000
  C   C156      1.0  0.50260  0.02587  0.76650  1.0000
  N   N1        1.0  0.24389  0.26725  0.47272  1.0000
  N   N2        1.0  0.75800  0.73746  0.48791  1.0000
  N   N3        1.0  0.75037  0.26315  0.03101  1.0000
  N   N4        1.0  0.24340  0.72839  0.01813  1.0000
  N   N5        1.0  0.02374  0.50033  0.24102  1.0000
  N   N6        1.0  0.97967  0.50125  0.23547  1.0000
  N   N7        1.0  0.24359  0.26783  0.96082  1.0000
  N   N8        1.0  0.75638  0.73741  0.98526  1.0000
  N   N9        1.0  0.75168  0.26106  0.51846  1.0000
  N   N10       1.0  0.24336  0.72793  0.51756  1.0000
  N   N11       1.0  0.02254  0.50100  0.74210  1.0000
  N   N12       1.0  0.97849  0.50167  0.73818  1.0000
  C   C157      1.0  0.32938  0.82796  0.48587  1.0000
  C   C158      1.0  0.36757  0.83173  0.58276  1.0000
  C  Sn1       1.0  0.38092  0.79507  0.67425  1.0000
  C  Sn2       1.0  0.35550  0.75390  0.66836  1.0000
  C   C159      1.0  0.31735  0.75046  0.57096  1.0000
  C   C160      1.0  0.30429  0.78736  0.47993  1.0000
  H   H89       1.0  0.31928  0.85650  0.41536  1.0000
  O  Te1       1.0  0.41916  0.79943  0.77046  1.0000
  O  Te2       1.0  0.36809  0.71673  0.75853  1.0000
  H   H90       1.0  0.27473  0.78441  0.40484  1.0000
  Mg  Mg1       1.0  0.42276  0.73926  0.87140  1.0000
  C   C161      1.0  0.63582  0.75652  0.81810  1.0000
  C   C162      1.0  0.67508  0.75834  0.90789  1.0000
  C  Sn3       1.0  0.67196  0.77021  0.01080  1.0000
  C  Sn4       1.0  0.64442  0.80941  0.02384  1.0000
  C   C163      1.0  0.62066  0.83570  0.93359  1.0000
  C   C164      1.0  0.60863  0.79515  0.83094  1.0000
  H   H91       1.0  0.62651  0.72514  0.73874  1.0000
  O  Te3       1.0  0.71130  0.77144  0.09959  1.0000
  O  Te4       1.0  0.65595  0.85017  0.12582  1.0000
  H   H92       1.0  0.57823  0.79374  0.76152  1.0000
  Mg  Mg2       1.0  0.71280  0.83489  0.22207  1.0000
  C   C165      1.0  0.62095  0.77526  0.31581  1.0000
  C   C166      1.0  0.62016  0.82058  0.39740  1.0000
  C  Sn5       1.0  0.65447  0.83743  0.50353  1.0000
  C  Sn6       1.0  0.69018  0.80828  0.52815  1.0000
  C   C167      1.0  0.69067  0.76300  0.44586  1.0000
  C   C168      1.0  0.65617  0.74649  0.33997  1.0000
  H   H93       1.0  0.59426  0.76249  0.23381  1.0000
  O  Te5       1.0  0.65316  0.88279  0.58412  1.0000
  O  Te6       1.0  0.72491  0.82423  0.63349  1.0000
  H   H94       1.0  0.65680  0.71141  0.27674  1.0000
  Mg  Mg3       1.0  0.70819  0.88867  0.71545  1.0000
  C   C169      1.0  0.31164  0.18504  0.97917  1.0000
  C   C170      1.0  0.31267  0.23107  0.93589  1.0000
  C  Sn7       1.0  0.34805  0.24758  0.86312  1.0000
  C  Sn8       1.0  0.38300  0.21737  0.83324  1.0000
  C   C171      1.0  0.38165  0.17138  0.87688  1.0000
  C   C172      1.0  0.34609  0.15522  0.94968  1.0000
  H   H95       1.0  0.26866  0.14405  0.03541  1.0000
  O  Te7       1.0  0.34857  0.29367  0.82070  1.0000
  O  Te8       1.0  0.41875  0.23297  0.76062  1.0000
  H   H96       1.0  0.34529  0.11957  0.98307  1.0000
  Mg  Mg4       1.0  0.40446  0.29869  0.72474  1.0000
  C   C173      1.0  0.85219  0.30585  0.62940  1.0000
  C   C174      1.0  0.85308  0.35121  0.57989  1.0000
  C  Sn9       1.0  0.81677  0.36992  0.50510  1.0000
  C  Sn10      1.0  0.77890  0.34263  0.47961  1.0000
  C   C175      1.0  0.77832  0.29731  0.52969  1.0000
  C   C176      1.0  0.81485  0.27892  0.60436  1.0000
  H   H97       1.0  0.88044  0.29163  0.68727  1.0000
  O  Te9       1.0  0.81822  0.41529  0.45633  1.0000
  O  Te10      1.0  0.74215  0.36048  0.40520  1.0000
  H   H98       1.0  0.81414  0.24381  0.64278  1.0000
  Mg  Mg5       1.0  0.75994  0.42413  0.36009  1.0000
  C   C177      1.0  0.14737  0.68809  0.13253  1.0000
  C   C178      1.0  0.14572  0.63981  0.08438  1.0000
  C  Sn11      1.0  0.18003  0.61740  0.00987  1.0000
  C  Sn12      1.0  0.23208  0.67238  0.98327  1.0000
  C   C179      1.0  0.21797  0.69217  0.03198  1.0000
  C   C180      1.0  0.18346  0.71425  0.10639  1.0000
  H   H99       1.0  0.12067  0.70517  0.19018  1.0000
  O  Te11      1.0  0.19331  0.59762  0.96247  1.0000
  O  Te12      1.0  0.26683  0.65086  0.90911  1.0000
  H   H100      1.0  0.18475  0.75162  0.14375  1.0000
  Mg  Mg6       1.0  0.24874  0.58423  0.86605  1.0000
  C   C181      1.0  0.36537  0.75546  0.17393  1.0000
  C   C182      1.0  0.32461  0.75481  0.09622  1.0000
  C  Sn13      1.0  0.31060  0.79254  0.01133  1.0000
  C  Sn14      1.0  0.33799  0.83159  0.00428  1.0000
  C   C183      1.0  0.37873  0.83189  0.08233  1.0000
  C   C184      1.0  0.39241  0.79395  0.16698  1.0000
  H   H101      1.0  0.37598  0.72610  0.23935  1.0000
  O  Te13      1.0  0.28523  0.81980  0.93444  1.0000
  O  Te14      1.0  0.34027  0.89824  0.92023  1.0000
  H   H102      1.0  0.42399  0.79445  0.22704  1.0000
  Mg  Mg7       1.0  0.28177  0.88022  0.83508  1.0000
  C   C185      1.0  0.21465  0.63285  0.49287  1.0000
  C   C186      1.0  0.21430  0.68189  0.51810  1.0000
  C  Sn15      1.0  0.17984  0.70512  0.58855  1.0000
  C  Sn16      1.0  0.14513  0.67867  0.63452  1.0000
  C   C187      1.0  0.14579  0.62963  0.60887  1.0000
  C   C188      1.0  0.18044  0.60674  0.53822  1.0000
  H   H103      1.0  0.24146  0.61514  0.43829  1.0000
  O  Te15      1.0  0.18000  0.75413  0.61284  1.0000
  O  Te16      1.0  0.11029  0.70099  0.70523  1.0000
  H   H104      1.0  0.18071  0.56878  0.51880  1.0000
  Mg  Mg8       1.0  0.12525  0.76846  0.71347  1.0000
