data_image0
_chemical_formula_structural       H56C112N8SnCSn2CSnTe4Mg2SnCSn2CSnTe4Mg2SnCSn2CSnTe4Mg2SnCSn2CSnTe4Mg2SnCSn2CSnTe4Mg2SnCSn2CSnTe4Mg2SnCSn2CSnTe4Mg2SnCSn2CSnTe4Mg2SnCSn2CSnTe4Mg2SnCSn2CSnTe4Mg2SnCSn2CSnTe4Mg2SnCSn2CSnTe4Mg2SnCSn2CSnTe4Mg2SnCSn2CSnTe4Mg2SnCSn2CSnTe4Mg2SnCSn2CSnTe4Mg2
_chemical_formula_sum              "H56 C144 N8 Sn64 Te64 Mg32"
_cell_length_a       31.601
_cell_length_b       29.6194
_cell_length_c       8.11762
_cell_angle_alpha    113.368
_cell_angle_beta     88.71
_cell_angle_gamma    90.1257

_symmetry_space_group_name_H-M    'P1'
_space_group_IT_number       1

loop_
  _space_group_symop_operation_xyz
  'x, y, z'

loop_
  _atom_site_type_symbol
  _atom_site_label
  _atom_site_symmetry_multiplicity
  _atom_site_fract_x
  _atom_site_fract_y
  _atom_site_fract_z
  _atom_site_occupancy
  H   H1        1.0  0.41897  0.96625  0.13791  1.0000
  H   H2        1.0  0.36807  0.90012  0.10511  1.0000
  H   H3        1.0  0.46238  0.82054  0.25835  1.0000
  H   H4        1.0  0.54183  0.82427  0.30311  1.0000
  H   H5        1.0  0.64277  0.92910  0.40855  1.0000
  H   H6        1.0  0.59418  0.98991  0.38554  1.0000
  H   H7        1.0  0.29847  0.67423  0.12284  1.0000
  H   H8        1.0  0.28765  0.30080  0.43246  1.0000
  H   H9        1.0  0.59412  0.00141  0.19047  1.0000
  H   H10       1.0  0.64015  0.06383  0.16131  1.0000
  H   H11       1.0  0.53426  0.16353  0.26592  1.0000
  H   H12       1.0  0.45518  0.16403  0.32342  1.0000
  H   H13       1.0  0.36235  0.07726  0.46019  1.0000
  H   H14       1.0  0.41647  0.01412  0.42783  1.0000
  H   H15       1.0  0.01574  0.38108  0.13223  1.0000
  H   H16       1.0  0.07228  0.32784  0.15411  1.0000
  H   H17       1.0  0.15996  0.44811  0.30558  1.0000
  H   H18       1.0  0.16252  0.53150  0.27839  1.0000
  H   H19       1.0  0.07437  0.65016  0.37213  1.0000
  H   H20       1.0  0.01498  0.59655  0.36248  1.0000
  H   H21       1.0  0.70192  0.29876  0.20372  1.0000
  H   H22       1.0  0.71505  0.70034  0.36474  1.0000
  H   H23       1.0  0.99378  0.56793  0.11329  1.0000
  H   H24       1.0  0.93634  0.62082  0.09430  1.0000
  H   H25       1.0  0.84517  0.53665  0.25174  1.0000
  H   H26       1.0  0.84221  0.45428  0.27383  1.0000
  H   H27       1.0  0.92762  0.36124  0.40667  1.0000
  H   H28       1.0  0.98809  0.40938  0.37824  1.0000
  H   H29       1.0  0.41296  0.97052  0.64776  1.0000
  H   H30       1.0  0.36228  0.90425  0.61523  1.0000
  H   H31       1.0  0.45877  0.82185  0.74241  1.0000
  H   H32       1.0  0.53752  0.82588  0.79002  1.0000
  H   H33       1.0  0.63714  0.93303  0.91870  1.0000
  H   H34       1.0  0.58850  0.99344  0.89198  1.0000
  H   H35       1.0  0.29351  0.67757  0.62507  1.0000
  H   H36       1.0  0.28863  0.30743  0.91784  1.0000
  H   H37       1.0  0.58995  0.00182  0.68405  1.0000
  H   H38       1.0  0.63659  0.06368  0.65538  1.0000
  H   H39       1.0  0.53279  0.16630  0.77379  1.0000
  H   H40       1.0  0.45319  0.16773  0.82339  1.0000
  H   H41       1.0  0.35994  0.08345  0.97162  1.0000
  H   H42       1.0  0.41272  0.01891  0.93338  1.0000
  H   H43       1.0  0.01201  0.38390  0.63783  1.0000
  H   H44       1.0  0.07012  0.33047  0.64196  1.0000
  H   H45       1.0  0.15537  0.45306  0.81747  1.0000
  H   H46       1.0  0.15739  0.53576  0.78670  1.0000
  H   H47       1.0  0.06886  0.65324  0.87044  1.0000
  H   H48       1.0  0.00962  0.59975  0.86362  1.0000
  H   H49       1.0  0.70226  0.29527  0.68910  1.0000
  H   H50       1.0  0.70791  0.70056  0.85540  1.0000
  H   H51       1.0  0.98766  0.56957  0.61455  1.0000
  H   H52       1.0  0.92990  0.62120  0.59341  1.0000
  H   H53       1.0  0.83952  0.53499  0.74479  1.0000
  H   H54       1.0  0.83836  0.45233  0.77398  1.0000
  H   H55       1.0  0.92586  0.36081  0.90336  1.0000
  H   H56       1.0  0.98498  0.41150  0.88195  1.0000
  C   C1        1.0  0.48138  0.89070  0.25681  1.0000
  C   C2        1.0  0.47682  0.09439  0.31906  1.0000
  C   C3        1.0  0.52627  0.89445  0.29709  1.0000
  C   C4        1.0  0.46580  0.04953  0.33386  1.0000
  C   C5        1.0  0.54070  0.94110  0.30735  1.0000
  C   C6        1.0  0.50368  0.01749  0.29531  1.0000
  C   C7        1.0  0.50478  0.96883  0.27931  1.0000
  C   C8        1.0  0.53846  0.04740  0.26843  1.0000
  C   C9        1.0  0.46862  0.93461  0.23952  1.0000
  C   C10       1.0  0.58118  0.03748  0.21920  1.0000
  C   C11       1.0  0.42813  0.93612  0.17404  1.0000
  C   C12       1.0  0.60712  0.07312  0.20052  1.0000
  C   C13       1.0  0.39964  0.89835  0.15335  1.0000
  C   C14       1.0  0.59164  0.11993  0.22351  1.0000
  C   C15       1.0  0.41093  0.85728  0.19008  1.0000
  C   C16       1.0  0.54775  0.12871  0.25591  1.0000
  C   C17       1.0  0.45310  0.85273  0.23424  1.0000
  C   C18       1.0  0.44678  0.13090  0.34341  1.0000
  C   C19       1.0  0.55350  0.86012  0.31652  1.0000
  C   C20       1.0  0.40448  0.12384  0.38571  1.0000
  C   C21       1.0  0.59684  0.87103  0.34502  1.0000
  C   C22       1.0  0.39445  0.08139  0.41649  1.0000
  C   C23       1.0  0.61015  0.91880  0.37238  1.0000
  C   C24       1.0  0.42476  0.04532  0.39567  1.0000
  C   C25       1.0  0.58269  0.95333  0.35655  1.0000
  C   C26       1.0  0.09558  0.46400  0.26496  1.0000
  C   C27       1.0  0.28844  0.71286  0.18899  1.0000
  C   C28       1.0  0.09635  0.51514  0.28561  1.0000
  C   C29       1.0  0.27749  0.26213  0.37821  1.0000
  C   C30       1.0  0.05368  0.53099  0.28857  1.0000
  C   C31       1.0  0.52206  0.09326  0.27875  1.0000
  C   C32       1.0  0.02488  0.48931  0.25590  1.0000
  C   C33       1.0  0.05291  0.44759  0.23631  1.0000
  C   C34       1.0  0.95705  0.41763  0.34316  1.0000
  C   C35       1.0  0.04614  0.39707  0.18170  1.0000
  C   C36       1.0  0.07865  0.36667  0.19145  1.0000
  C   C37       1.0  0.11962  0.38448  0.24714  1.0000
  C   C38       1.0  0.12821  0.43355  0.27300  1.0000
  C   C39       1.0  0.13035  0.54576  0.29426  1.0000
  C   C40       1.0  0.12303  0.59438  0.31170  1.0000
  C   C41       1.0  0.08077  0.61176  0.34341  1.0000
  C   C42       1.0  0.04674  0.58123  0.33577  1.0000
  C   C43       1.0  0.71087  0.27072  0.25378  1.0000
  C   C44       1.0  0.72273  0.72616  0.30145  1.0000
  C   C45       1.0  0.91031  0.51436  0.23628  1.0000
  C   C46       1.0  0.90875  0.47007  0.27299  1.0000
  C   C47       1.0  0.95114  0.45582  0.28573  1.0000
  C   C48       1.0  0.98071  0.48982  0.25088  1.0000
  C   C49       1.0  0.95352  0.52529  0.21625  1.0000
  C   C50       1.0  0.96205  0.56255  0.15537  1.0000
  C   C51       1.0  0.92927  0.59244  0.14376  1.0000
  C   C52       1.0  0.88686  0.58544  0.18634  1.0000
  C   C53       1.0  0.87771  0.54408  0.22453  1.0000
  C   C54       1.0  0.87409  0.44363  0.29318  1.0000
  C   C55       1.0  0.88072  0.40155  0.32986  1.0000
  C   C56       1.0  0.92246  0.39061  0.36098  1.0000
  C   C57       1.0  0.47657  0.89285  0.74885  1.0000
  C   C58       1.0  0.47373  0.09778  0.81928  1.0000
  C   C59       1.0  0.52148  0.89648  0.78899  1.0000
  C   C60       1.0  0.46214  0.05309  0.83441  1.0000
  C   C61       1.0  0.53582  0.94358  0.80419  1.0000
  C   C62       1.0  0.49937  0.02012  0.79280  1.0000
  C   C63       1.0  0.49999  0.97151  0.77709  1.0000
  C   C64       1.0  0.53460  0.04895  0.76341  1.0000
  C   C65       1.0  0.46370  0.93750  0.73753  1.0000
  C   C66       1.0  0.57717  0.03799  0.71288  1.0000
  C   C67       1.0  0.42273  0.93967  0.67821  1.0000
  C   C68       1.0  0.60363  0.07328  0.69433  1.0000
  C   C69       1.0  0.39420  0.90200  0.65864  1.0000
  C   C70       1.0  0.58895  0.12055  0.72068  1.0000
  C   C71       1.0  0.40583  0.85992  0.68808  1.0000
  C   C72       1.0  0.54539  0.13055  0.75667  1.0000
  C   C73       1.0  0.44844  0.85461  0.72449  1.0000
  C   C74       1.0  0.44426  0.13489  0.84494  1.0000
  C   C75       1.0  0.54887  0.86215  0.80762  1.0000
  C   C76       1.0  0.40195  0.12895  0.89088  1.0000
  C   C77       1.0  0.59184  0.87397  0.84523  1.0000
  C   C78       1.0  0.39162  0.08663  0.92262  1.0000
  C   C79       1.0  0.60486  0.92213  0.87671  1.0000
  C   C80       1.0  0.42133  0.04978  0.89968  1.0000
  C   C81       1.0  0.57749  0.95637  0.85804  1.0000
  C   C82       1.0  0.09115  0.46782  0.77178  1.0000
  C   C83       1.0  0.28307  0.71620  0.68792  1.0000
  C   C84       1.0  0.09131  0.51897  0.79221  1.0000
  C   C85       1.0  0.27770  0.26895  0.87259  1.0000
  C   C86       1.0  0.04846  0.53420  0.79321  1.0000
  C   C87       1.0  0.51900  0.09548  0.77736  1.0000
  C   C88       1.0  0.02009  0.49213  0.76091  1.0000
  C   C89       1.0  0.04873  0.45078  0.74091  1.0000
  C   C90       1.0  0.95393  0.41891  0.84422  1.0000
  C   C91       1.0  0.04260  0.40006  0.68286  1.0000
  C   C92       1.0  0.07574  0.36966  0.68692  1.0000
  C   C93       1.0  0.11668  0.38765  0.74232  1.0000
  C   C94       1.0  0.12416  0.43756  0.77835  1.0000
  C   C95       1.0  0.12516  0.54981  0.80072  1.0000
  C   C96       1.0  0.11766  0.59805  0.81425  1.0000
  C   C97       1.0  0.07528  0.61498  0.84394  1.0000
  C   C98       1.0  0.04132  0.58432  0.83752  1.0000
  C   C99       1.0  0.70995  0.26856  0.74730  1.0000
  C   C100      1.0  0.71634  0.72718  0.79694  1.0000
  C   C101      1.0  0.90504  0.51454  0.73509  1.0000
  C   C102      1.0  0.90438  0.47033  0.77332  1.0000
  C   C103      1.0  0.94704  0.45714  0.78766  1.0000
  C   C104      1.0  0.97595  0.49172  0.75342  1.0000
  C   C105      1.0  0.94812  0.52628  0.71616  1.0000
  C   C106      1.0  0.95602  0.56369  0.65585  1.0000
  C   C107      1.0  0.92284  0.59287  0.64288  1.0000
  C   C108      1.0  0.88046  0.58534  0.68391  1.0000
  C   C109      1.0  0.87199  0.54363  0.72167  1.0000
  C   C110      1.0  0.87057  0.44266  0.79290  1.0000
  C   C111      1.0  0.87817  0.40071  0.82920  1.0000
  C   C112      1.0  0.92014  0.39058  0.86008  1.0000
  N   N1        1.0  0.24030  0.24935  0.31398  1.0000
  N   N2        1.0  0.25096  0.72530  0.26209  1.0000
  N   N3        1.0  0.75905  0.72518  0.22354  1.0000
  N   N4        1.0  0.74762  0.27034  0.31966  1.0000
  N   N5        1.0  0.24013  0.25578  0.81374  1.0000
  N   N6        1.0  0.24534  0.72852  0.75560  1.0000
  N   N7        1.0  0.75285  0.72588  0.71998  1.0000
  N   N8        1.0  0.74637  0.26770  0.81432  1.0000
  C  Sn1       1.0  0.69174  0.17530  0.23298  1.0000
  C   C113      1.0  0.68494  0.21670  0.19468  1.0000
  C  Sn2       1.0  0.64382  0.23265  0.18579  1.0000
  C  Sn3       1.0  0.60875  0.20670  0.21592  1.0000
  C   C114      1.0  0.61556  0.16534  0.25422  1.0000
  C  Sn4       1.0  0.65667  0.14935  0.26311  1.0000
  O  Te1       1.0  0.73312  0.16001  0.24120  1.0000
  O  Te2       1.0  0.63782  0.27413  0.14722  1.0000
  O  Te3       1.0  0.56735  0.22203  0.20765  1.0000
  O  Te4       1.0  0.66268  0.10790  0.30168  1.0000
  Mg  Mg1       1.0  0.57543  0.28060  0.15072  1.0000
  Mg  Mg2       1.0  0.72506  0.10141  0.29830  1.0000
  C  Sn5       1.0  0.33416  0.83059  0.31116  1.0000
  C   C115      1.0  0.37505  0.82241  0.23556  1.0000
  C  Sn6       1.0  0.38745  0.77562  0.11349  1.0000
  C  Sn7       1.0  0.35835  0.73620  0.06588  1.0000
  C   C116      1.0  0.31749  0.74439  0.14144  1.0000
  C  Sn8       1.0  0.30506  0.79116  0.26356  1.0000
  O  Te5       1.0  0.32245  0.87767  0.43290  1.0000
  O  Te6       1.0  0.42850  0.76834  0.03973  1.0000
  O  Te7       1.0  0.36454  0.79779  0.94404  1.0000
  O  Te8       1.0  0.26403  0.79846  0.33727  1.0000
  Mg  Mg3       1.0  0.42395  0.80626  0.87981  1.0000
  Mg  Mg4       1.0  0.26299  0.86921  0.49712  1.0000
  C  Sn9       1.0  0.36111  0.23802  0.42214  1.0000
  C   C117      1.0  0.32023  0.22800  0.35530  1.0000
  C  Sn10      1.0  0.30204  0.18215  0.31973  1.0000
  C  Sn11      1.0  0.32516  0.14556  0.35172  1.0000
  C   C118      1.0  0.36601  0.15559  0.41854  1.0000
  C  Sn12      1.0  0.38424  0.20143  0.45413  1.0000
  O  Te9       1.0  0.37867  0.28411  0.45675  1.0000
  O  Te10      1.0  0.26113  0.17298  0.25289  1.0000
  O  Te11      1.0  0.30756  0.09944  0.31704  1.0000
  O  Te12      1.0  0.42511  0.21060  0.52095  1.0000
  Mg  Mg5       1.0  0.25085  0.10455  0.22694  1.0000
  Mg  Mg6       1.0  0.43541  0.27903  0.54704  1.0000
  C  Sn13      1.0  0.67462  0.82242  0.21803  1.0000
  C   C119      1.0  0.63308  0.82654  0.28546  1.0000
  C  Sn14      1.0  0.62049  0.80100  0.39043  1.0000
  C  Sn15      1.0  0.65004  0.77074  0.42891  1.0000
  C   C120      1.0  0.69155  0.76665  0.36152  1.0000
  C  Sn16      1.0  0.70417  0.79217  0.25650  1.0000
  O  Te13      1.0  0.68651  0.84829  0.11339  1.0000
  O  Te14      1.0  0.57878  0.80568  0.45630  1.0000
  O  Te15      1.0  0.63811  0.74487  0.53363  1.0000
  O  Te16      1.0  0.74584  0.78750  0.19068  1.0000
  Mg  Mg7       1.0  0.57776  0.76314  0.59272  1.0000
  Mg  Mg8       1.0  0.74691  0.83004  0.05433  1.0000
  C  Sn17      1.0  0.84304  0.69622  0.18803  1.0000
  C   C121      1.0  0.79991  0.68768  0.15540  1.0000
  C  Sn18      1.0  0.78138  0.64470  0.15424  1.0000
  C  Sn19      1.0  0.80647  0.60952  0.18647  1.0000
  C   C122      1.0  0.84957  0.61807  0.21910  1.0000
  C  Sn20      1.0  0.86813  0.66105  0.22026  1.0000
  O  Te17      1.0  0.86090  0.73945  0.18858  1.0000
  O  Te18      1.0  0.73821  0.63697  0.12124  1.0000
  O  Te19      1.0  0.78858  0.56627  0.18589  1.0000
  O  Te20      1.0  0.91128  0.66878  0.25327  1.0000
  Mg  Mg9       1.0  0.72843  0.57243  0.13444  1.0000
  Mg  Mg10      1.0  0.92108  0.73332  0.24019  1.0000
  C  Sn21      1.0  0.84588  0.30674  0.23763  1.0000
  C   C123      1.0  0.84402  0.35730  0.28050  1.0000
  C  Sn22      1.0  0.80864  0.38486  0.37160  1.0000
  C  Sn23      1.0  0.77441  0.36140  0.42098  1.0000
  C   C124      1.0  0.77628  0.31088  0.37814  1.0000
  C  Sn24      1.0  0.81165  0.28329  0.28702  1.0000
  O  Te21      1.0  0.88157  0.27991  0.14652  1.0000
  O  Te22      1.0  0.80750  0.43535  0.41293  1.0000
  O  Te23      1.0  0.73871  0.38828  0.51216  1.0000
  O  Te24      1.0  0.81280  0.23283  0.24572  1.0000
  Mg  Mg11      1.0  0.75201  0.45610  0.53851  1.0000
  Mg  Mg12      1.0  0.86829  0.21204  0.12023  1.0000
  C  Sn25      1.0  0.14449  0.31040  0.36885  1.0000
  C   C125      1.0  0.15156  0.35162  0.32908  1.0000
  C  Sn26      1.0  0.19027  0.35752  0.25373  1.0000
  C  Sn27      1.0  0.22258  0.32145  0.21725  1.0000
  C   C126      1.0  0.21550  0.28026  0.25699  1.0000
  C  Sn28      1.0  0.17680  0.27433  0.33238  1.0000
  O  Te25      1.0  0.10555  0.30525  0.44413  1.0000
  O  Te26      1.0  0.19661  0.39904  0.21519  1.0000
  O  Te27      1.0  0.26155  0.32663  0.14191  1.0000
  O  Te28      1.0  0.17046  0.23283  0.37088  1.0000
  Mg  Mg13      1.0  0.25502  0.38955  0.11326  1.0000
  Mg  Mg14      1.0  0.11205  0.24227  0.47271  1.0000
  C  Sn29      1.0  0.16850  0.70232  0.29457  1.0000
  C   C127      1.0  0.21187  0.70010  0.32104  1.0000
  C  Sn30      1.0  0.23010  0.65715  0.32073  1.0000
  C  Sn31      1.0  0.20447  0.61553  0.29327  1.0000
  C   C128      1.0  0.16114  0.61775  0.26679  1.0000
  C  Sn32      1.0  0.14287  0.66069  0.26711  1.0000
  O  Te29      1.0  0.15095  0.74564  0.29540  1.0000
  O  Te30      1.0  0.27353  0.65583  0.34754  1.0000
  O  Te31      1.0  0.22207  0.57219  0.29246  1.0000
  O  Te32      1.0  0.09948  0.66202  0.24029  1.0000
  Mg  Mg15      1.0  0.28272  0.58841  0.33480  1.0000
  Mg  Mg16      1.0  0.09025  0.72941  0.25291  1.0000
  C  Sn33      1.0  0.66671  0.16872  0.82144  1.0000
  C   C129      1.0  0.62424  0.16549  0.77382  1.0000
  C  Sn34      1.0  0.60875  0.19342  0.68405  1.0000
  C  Sn35      1.0  0.63628  0.22522  0.64086  1.0000
  C   C130      1.0  0.67872  0.22843  0.68843  1.0000
  C  Sn36      1.0  0.69424  0.20052  0.77825  1.0000
  O  Te33      1.0  0.68152  0.14046  0.91113  1.0000
  O  Te34      1.0  0.56616  0.18958  0.63789  1.0000
  O  Te35      1.0  0.62143  0.25349  0.55110  1.0000
  O  Te36      1.0  0.73679  0.20434  0.82437  1.0000
  Mg  Mg17      1.0  0.56094  0.23552  0.51659  1.0000
  Mg  Mg18      1.0  0.74206  0.15840  0.94558  1.0000
  C  Sn37      1.0  0.30341  0.81264  0.71785  1.0000
  C   C131      1.0  0.30818  0.76155  0.65156  1.0000
  C  Sn38      1.0  0.34845  0.74005  0.61189  1.0000
  C  Sn39      1.0  0.38472  0.77024  0.63915  1.0000
  C   C132      1.0  0.37994  0.82129  0.70543  1.0000
  C  Sn40      1.0  0.33967  0.84282  0.74511  1.0000
  O  Te37      1.0  0.26284  0.83333  0.75660  1.0000
  O  Te38      1.0  0.35242  0.68890  0.54570  1.0000
  O  Te39      1.0  0.42530  0.74949  0.60033  1.0000
  O  Te40      1.0  0.33569  0.89394  0.81129  1.0000
  Mg  Mg19      1.0  0.41439  0.67804  0.51298  1.0000
  Mg  Mg20      1.0  0.27375  0.90484  0.84414  1.0000
  C  Sn41      1.0  0.37468  0.11925  0.01926  1.0000
  C   C133      1.0  0.36550  0.17692  0.95961  1.0000
  C  Sn42      1.0  0.33351  0.15206  0.84264  1.0000
  C  Sn43      1.0  0.30454  0.17875  0.78395  1.0000
  C   C134      1.0  0.30817  0.22974  0.84357  1.0000
  C  Sn44      1.0  0.34015  0.25464  0.96058  1.0000
  O  Te41      1.0  0.40690  0.14335  0.13618  1.0000
  O  Te42      1.0  0.33052  0.10103  0.78489  1.0000
  O  Te43      1.0  0.27229  0.15461  0.66695  1.0000
  O  Te44      1.0  0.34870  0.19694  0.01829  1.0000
  Mg  Mg21      1.0  0.28124  0.08479  0.62578  1.0000
  Mg  Mg22      1.0  0.39799  0.21321  0.17732  1.0000
  C  Sn45      1.0  0.67009  0.82617  0.72632  1.0000
  C   C135      1.0  0.62832  0.83026  0.79121  1.0000
  C  Sn46      1.0  0.61491  0.80376  0.89167  1.0000
  C  Sn47      1.0  0.64385  0.77255  0.92813  1.0000
  C   C136      1.0  0.68559  0.76849  0.86328  1.0000
  C  Sn48      1.0  0.69903  0.79497  0.76278  1.0000
  O  Te45      1.0  0.68281  0.85301  0.62619  1.0000
  O  Te46      1.0  0.57299  0.80843  0.95505  1.0000
  O  Te47      1.0  0.63666  0.63702  0.02834  1.0000
  O  Te48      1.0  0.74092  0.79031  0.69944  1.0000
  Mg  Mg23      1.0  0.57632  0.65569  0.08545  1.0000
  Mg  Mg24      1.0  0.74319  0.83437  0.56912  1.0000
  C  Sn49      1.0  0.84968  0.68291  0.77753  1.0000
  C   C137      1.0  0.84552  0.63288  0.74100  1.0000
  C  Sn50      1.0  0.80909  0.60764  0.66086  1.0000
  C  Sn51      1.0  0.77615  0.63291  0.61618  1.0000
  C   C138      1.0  0.78032  0.68290  0.65267  1.0000
  C  Sn52      1.0  0.81673  0.70818  0.73285  1.0000
  O  Te49      1.0  0.88637  0.70740  0.85772  1.0000
  O  Te50      1.0  0.80565  0.55763  0.62570  1.0000
  O  Te51      1.0  0.73944  0.60836  0.53594  1.0000
  O  Te52      1.0  0.82019  0.75815  0.76797  1.0000
  Mg  Mg25      1.0  0.74955  0.54032  0.51466  1.0000
  Mg  Mg26      1.0  0.87628  0.77549  0.87892  1.0000
  C  Sn53      1.0  0.77190  0.36073  0.83520  1.0000
  C   C139      1.0  0.77434  0.31002  0.78845  1.0000
  C  Sn54      1.0  0.81340  0.28725  0.78115  1.0000
  C  Sn55      1.0  0.85081  0.31576  0.82154  1.0000
  C   C140      1.0  0.84836  0.36643  0.86829  1.0000
  C  Sn56      1.0  0.80931  0.38924  0.87559  1.0000
  O  Te53      1.0  0.73250  0.38272  0.84165  1.0000
  O  Te54      1.0  0.81505  0.23649  0.73401  1.0000
  O  Te55      1.0  0.89022  0.29372  0.81505  1.0000
  O  Te56      1.0  0.80765  0.43996  0.92273  1.0000
  Mg  Mg27      1.0  0.87615  0.22344  0.74392  1.0000
  Mg  Mg28      1.0  0.74656  0.45305  0.91295  1.0000
  C  Sn57      1.0  0.14321  0.31448  0.86255  1.0000
  C   C141      1.0  0.14940  0.35516  0.81868  1.0000
  C  Sn58      1.0  0.18794  0.36152  0.74318  1.0000
  C  Sn59      1.0  0.22097  0.32649  0.71072  1.0000
  C   C142      1.0  0.21477  0.28583  0.75455  1.0000
  C  Sn60      1.0  0.17624  0.27944  0.83010  1.0000
  O  Te57      1.0  0.10443  0.30885  0.93791  1.0000
  O  Te58      1.0  0.19338  0.40250  0.70051  1.0000
  O  Te59      1.0  0.25977  0.33215  0.63531  1.0000
  O  Te60      1.0  0.17079  0.23849  0.87273  1.0000
  Mg  Mg29      1.0  0.25192  0.39399  0.60021  1.0000
  Mg  Mg30      1.0  0.11226  0.24694  0.97294  1.0000
  C  Sn61      1.0  0.16243  0.70503  0.78621  1.0000
  C   C143      1.0  0.20559  0.70422  0.81889  1.0000
  C  Sn62      1.0  0.22426  0.66219  0.82470  1.0000
  C  Sn63      1.0  0.19928  0.62007  0.79715  1.0000
  C   C144      1.0  0.15615  0.62089  0.76446  1.0000
  C  Sn64      1.0  0.13744  0.66291  0.75866  1.0000
  O  Te61      1.0  0.14443  0.74745  0.78099  1.0000
  O  Te62      1.0  0.26748  0.66226  0.85766  1.0000
  O  Te63      1.0  0.21732  0.57764  0.80241  1.0000
  O  Te64      1.0  0.09426  0.66285  0.72570  1.0000
  Mg  Mg31      1.0  0.27746  0.59567  0.85182  1.0000
  Mg  Mg32      1.0  0.08425  0.72941  0.73142  1.0000
