data_image0
_chemical_formula_structural       H56C108N12SnCSn2CSnTe4Mg2SnCSn2CSnTe4Mg2SnCSn2CSnTe4Mg2SnCSn2CSnTe4Mg2SnCSn2CSnTe4Mg2SnCSn2CSnTe4Mg2SnCSn2CSnTe4Mg2SnCSn2CSnTe4Mg2SnCSn2CSnTe4Mg2SnCSn2CSnTe4Mg2SnCSn2CSnTe4Mg2SnCSn2CSnTe4Mg2SnCSn2CSnTe4Mg2SnCSn2CSnTe4Mg2SnCSn2CSnTe4Mg2SnCSn2CSnTe4Mg2
_chemical_formula_sum              "H56 C140 N12 Sn64 Te64 Mg32"
_cell_length_a       31.5314
_cell_length_b       28.6097
_cell_length_c       8.13901
_cell_angle_alpha    95.7396
_cell_angle_beta     93.4245
_cell_angle_gamma    90.0888

_symmetry_space_group_name_H-M    'P1'
_space_group_IT_number       1

loop_
  _space_group_symop_operation_xyz
  'x, y, z'

loop_
  _atom_site_type_symbol
  _atom_site_label
  _atom_site_symmetry_multiplicity
  _atom_site_fract_x
  _atom_site_fract_y
  _atom_site_fract_z
  _atom_site_occupancy
  H   H1        1.0  0.36601  0.92245  0.06480  1.0000
  H   H2        1.0  0.63446  0.07556  0.08752  1.0000
  H   H3        1.0  0.64046  0.92617  0.44687  1.0000
  H   H4        1.0  0.36935  0.07740  0.44683  1.0000
  H   H5        1.0  0.46220  0.82457  0.20640  1.0000
  H   H6        1.0  0.53430  0.17478  0.19190  1.0000
  H   H7        1.0  0.53885  0.82583  0.31779  1.0000
  H   H8        1.0  0.46085  0.17588  0.30378  1.0000
  H   H9        1.0  0.29070  0.69065  0.13652  1.0000
  H   H10       1.0  0.70590  0.30989  0.13275  1.0000
  H   H11       1.0  0.71106  0.69215  0.37043  1.0000
  H   H12       1.0  0.28655  0.30492  0.34960  1.0000
  H   H13       1.0  0.06432  0.63698  0.02306  1.0000
  H   H14       1.0  0.93366  0.34946  0.03580  1.0000
  H   H15       1.0  0.94064  0.65328  0.43645  1.0000
  H   H16       1.0  0.06396  0.36078  0.45592  1.0000
  H   H17       1.0  0.00630  0.58487  0.09294  1.0000
  H   H18       1.0  0.99358  0.40492  0.10519  1.0000
  H   H19       1.0  0.99790  0.59863  0.35811  1.0000
  H   H20       1.0  0.00622  0.41431  0.37821  1.0000
  H   H21       1.0  0.15839  0.54222  0.20031  1.0000
  H   H22       1.0  0.84407  0.45617  0.18816  1.0000
  H   H23       1.0  0.84612  0.54536  0.30093  1.0000
  H   H24       1.0  0.15800  0.45566  0.31196  1.0000
  H   H25       1.0  0.41595  0.98783  0.13197  1.0000
  H   H26       1.0  0.58974  0.01120  0.15700  1.0000
  H   H27       1.0  0.59320  0.99077  0.38565  1.0000
  H   H28       1.0  0.41933  0.01296  0.39785  1.0000
  H   H29       1.0  0.36417  0.92223  0.56946  1.0000
  H   H30       1.0  0.63453  0.07464  0.58480  1.0000
  H   H31       1.0  0.63933  0.92634  0.94463  1.0000
  H   H32       1.0  0.37143  0.08013  0.96198  1.0000
  H   H33       1.0  0.46186  0.82504  0.70225  1.0000
  H   H34       1.0  0.53527  0.17507  0.68515  1.0000
  H   H35       1.0  0.53726  0.82641  0.81648  1.0000
  H   H36       1.0  0.46069  0.17671  0.79210  1.0000
  H   H37       1.0  0.29028  0.69064  0.63944  1.0000
  H   H38       1.0  0.70868  0.30688  0.63392  1.0000
  H   H39       1.0  0.71006  0.69212  0.86368  1.0000
  H   H40       1.0  0.28830  0.30913  0.86107  1.0000
  H   H41       1.0  0.06336  0.63998  0.53937  1.0000
  H   H42       1.0  0.93379  0.35053  0.52691  1.0000
  H   H43       1.0  0.93875  0.65301  0.94262  1.0000
  H   H44       1.0  0.06331  0.36099  0.95474  1.0000
  H   H45       1.0  0.00522  0.58732  0.60214  1.0000
  H   H46       1.0  0.99317  0.40643  0.59984  1.0000
  H   H47       1.0  0.99612  0.59883  0.86222  1.0000
  H   H48       1.0  0.00533  0.41495  0.88026  1.0000
  H   H49       1.0  0.15716  0.54265  0.70052  1.0000
  H   H50       1.0  0.84344  0.45479  0.69321  1.0000
  H   H51       1.0  0.84472  0.54465  0.80706  1.0000
  H   H52       1.0  0.15689  0.45550  0.80679  1.0000
  H   H53       1.0  0.41341  0.98829  0.63758  1.0000
  H   H54       1.0  0.58888  0.01072  0.65377  1.0000
  H   H55       1.0  0.59191  0.99124  0.88609  1.0000
  H   H56       1.0  0.42003  0.01518  0.90520  1.0000
  C   C1        1.0  0.47955  0.89760  0.23576  1.0000
  C   C2        1.0  0.52245  0.10325  0.23551  1.0000
  C   C3        1.0  0.52458  0.89809  0.28937  1.0000
  C   C4        1.0  0.47881  0.10337  0.28689  1.0000
  C   C5        1.0  0.53933  0.94557  0.30355  1.0000
  C   C6        1.0  0.46734  0.05622  0.30684  1.0000
  C   C7        1.0  0.46685  0.94481  0.22172  1.0000
  C   C8        1.0  0.53766  0.05619  0.22977  1.0000
  C   C9        1.0  0.42604  0.95257  0.15288  1.0000
  C   C10       1.0  0.57783  0.04683  0.17045  1.0000
  C   C11       1.0  0.58112  0.95501  0.36612  1.0000
  C   C12       1.0  0.42823  0.04802  0.37198  1.0000
  C   C13       1.0  0.39789  0.91506  0.11321  1.0000
  C   C14       1.0  0.60277  0.08344  0.12782  1.0000
  C   C15       1.0  0.60774  0.91823  0.40328  1.0000
  C   C16       1.0  0.40015  0.08499  0.40200  1.0000
  C   C17       1.0  0.40928  0.86838  0.13767  1.0000
  C   C18       1.0  0.58857  0.13044  0.13844  1.0000
  C   C19       1.0  0.59389  0.87092  0.38248  1.0000
  C   C20       1.0  0.41012  0.13156  0.37301  1.0000
  C   C21       1.0  0.45144  0.86025  0.19547  1.0000
  C   C22       1.0  0.54722  0.13951  0.19027  1.0000
  C   C23       1.0  0.55119  0.86159  0.32755  1.0000
  C   C24       1.0  0.45089  0.14025  0.31911  1.0000
  C   C25       1.0  0.28188  0.72200  0.07420  1.0000
  C   C26       1.0  0.71312  0.27410  0.07904  1.0000
  C   C27       1.0  0.71948  0.72701  0.43388  1.0000
  C   C28       1.0  0.28027  0.27366  0.41343  1.0000
  C   C29       1.0  0.11531  0.59364  0.10946  1.0000
  C   C30       1.0  0.88468  0.39882  0.10614  1.0000
  C   C31       1.0  0.88932  0.60327  0.37652  1.0000
  C   C32       1.0  0.11501  0.40417  0.38822  1.0000
  C   C33       1.0  0.07204  0.60488  0.07937  1.0000
  C   C34       1.0  0.92726  0.38546  0.08371  1.0000
  C   C35       1.0  0.93258  0.61714  0.39054  1.0000
  C   C36       1.0  0.07183  0.39347  0.40655  1.0000
  C   C37       1.0  0.03923  0.57577  0.11604  1.0000
  C   C38       1.0  0.96132  0.41665  0.12015  1.0000
  C   C39       1.0  0.96530  0.58631  0.34872  1.0000
  C   C40       1.0  0.03905  0.42360  0.36581  1.0000
  C   C41       1.0  0.04983  0.53451  0.18496  1.0000
  C   C42       1.0  0.95262  0.46281  0.18084  1.0000
  C   C43       1.0  0.95469  0.53977  0.29235  1.0000
  C   C44       1.0  0.04961  0.46543  0.30364  1.0000
  C   C45       1.0  0.09290  0.52166  0.21395  1.0000
  C   C46       1.0  0.91010  0.47701  0.20476  1.0000
  C   C47       1.0  0.91140  0.52526  0.27452  1.0000
  C   C48       1.0  0.09275  0.47754  0.28584  1.0000
  C   C49       1.0  0.12533  0.55124  0.17476  1.0000
  C   C50       1.0  0.87646  0.44528  0.16585  1.0000
  C   C51       1.0  0.87920  0.55670  0.31785  1.0000
  C   C52       1.0  0.12508  0.44707  0.32998  1.0000
  C   C53       1.0  0.50354  0.97637  0.26526  1.0000
  C   C54       1.0  0.50338  0.02518  0.26974  1.0000
  C   C55       1.0  0.47831  0.89833  0.73550  1.0000
  C   C56       1.0  0.52225  0.10366  0.72873  1.0000
  C   C57       1.0  0.52330  0.89879  0.78852  1.0000
  C   C58       1.0  0.47864  0.10433  0.78112  1.0000
  C   C59       1.0  0.53806  0.94622  0.80314  1.0000
  C   C60       1.0  0.46708  0.05744  0.80447  1.0000
  C   C61       1.0  0.46535  0.94556  0.72293  1.0000
  C   C62       1.0  0.53706  0.05642  0.72437  1.0000
  C   C63       1.0  0.42421  0.95309  0.65614  1.0000
  C   C64       1.0  0.57725  0.04646  0.66617  1.0000
  C   C65       1.0  0.57990  0.95547  0.86565  1.0000
  C   C66       1.0  0.42868  0.04998  0.87573  1.0000
  C   C67       1.0  0.39637  0.91523  0.61557  1.0000
  C   C68       1.0  0.60274  0.08268  0.62386  1.0000
  C   C69       1.0  0.60651  0.91853  0.90195  1.0000
  C   C70       1.0  0.40118  0.08729  0.90828  1.0000
  C   C71       1.0  0.40840  0.86850  0.63672  1.0000
  C   C72       1.0  0.58906  0.12982  0.63419  1.0000
  C   C73       1.0  0.59251  0.87123  0.88047  1.0000
  C   C74       1.0  0.41063  0.13347  0.87279  1.0000
  C   C75       1.0  0.45063  0.86069  0.69369  1.0000
  C   C76       1.0  0.54763  0.13955  0.68419  1.0000
  C   C77       1.0  0.54975  0.86212  0.82619  1.0000
  C   C78       1.0  0.45095  0.14145  0.81330  1.0000
  C   C79       1.0  0.28178  0.72163  0.57472  1.0000
  C   C80       1.0  0.71496  0.27164  0.57293  1.0000
  C   C81       1.0  0.71809  0.72690  0.92894  1.0000
  C   C82       1.0  0.28087  0.27608  0.91237  1.0000
  C   C83       1.0  0.11428  0.59518  0.61660  1.0000
  C   C84       1.0  0.88446  0.39857  0.60486  1.0000
  C   C85       1.0  0.88769  0.60273  0.88217  1.0000
  C   C86       1.0  0.11397  0.40430  0.88457  1.0000
  C   C87       1.0  0.07104  0.60705  0.59023  1.0000
  C   C88       1.0  0.92708  0.38604  0.57912  1.0000
  C   C89       1.0  0.93084  0.61686  0.89633  1.0000
  C   C90       1.0  0.07088  0.39369  0.90466  1.0000
  C   C91       1.0  0.03809  0.57769  0.62403  1.0000
  C   C92       1.0  0.96082  0.41754  0.61693  1.0000
  C   C93       1.0  0.96363  0.58627  0.85399  1.0000
  C   C94       1.0  0.03808  0.42399  0.86523  1.0000
  C   C95       1.0  0.04854  0.53559  0.68783  1.0000
  C   C96       1.0  0.95173  0.46317  0.68192  1.0000
  C   C97       1.0  0.95329  0.53973  0.79710  1.0000
  C   C98       1.0  0.04850  0.46577  0.80240  1.0000
  C   C99       1.0  0.09163  0.52236  0.71453  1.0000
  C   C100      1.0  0.90915  0.47673  0.70818  1.0000
  C   C101      1.0  0.91011  0.52483  0.77980  1.0000
  C   C102      1.0  0.09157  0.47780  0.78348  1.0000
  C   C103      1.0  0.12411  0.55209  0.67715  1.0000
  C   C104      1.0  0.87587  0.44459  0.66871  1.0000
  C   C105      1.0  0.87776  0.55609  0.82369  1.0000
  C   C106      1.0  0.12398  0.44714  0.82592  1.0000
  C   C107      1.0  0.50226  0.97710  0.76524  1.0000
  C   C108      1.0  0.50260  0.02587  0.76650  1.0000
  N   N1        1.0  0.24389  0.26725  0.47272  1.0000
  N   N2        1.0  0.75800  0.73746  0.48791  1.0000
  N   N3        1.0  0.75037  0.26315  0.03101  1.0000
  N   N4        1.0  0.24340  0.72839  0.01813  1.0000
  N   N5        1.0  0.02374  0.50033  0.24102  1.0000
  N   N6        1.0  0.97967  0.50125  0.23547  1.0000
  N   N7        1.0  0.24359  0.26783  0.96082  1.0000
  N   N8        1.0  0.75638  0.73741  0.98526  1.0000
  N   N9        1.0  0.75168  0.26106  0.51846  1.0000
  N   N10       1.0  0.24336  0.72793  0.51756  1.0000
  N   N11       1.0  0.02254  0.50100  0.74210  1.0000
  N   N12       1.0  0.97849  0.50167  0.73818  1.0000
  C  Sn1       1.0  0.31853  0.80228  0.95228  1.0000
  C   C109      1.0  0.30364  0.73143  0.02417  1.0000
  C  Sn2       1.0  0.33320  0.72438  0.15402  1.0000
  C  Sn3       1.0  0.36278  0.76045  0.21333  1.0000
  C   C110      1.0  0.36219  0.80280  0.14147  1.0000
  C  Sn4       1.0  0.33265  0.80987  0.01159  1.0000
  O  Te1       1.0  0.28870  0.80855  0.82262  1.0000
  O  Te2       1.0  0.33316  0.68171  0.22387  1.0000
  O  Te3       1.0  0.39262  0.75414  0.34310  1.0000
  O  Te4       1.0  0.34813  0.88099  0.94178  1.0000
  Mg  Mg1       1.0  0.37995  0.68991  0.39785  1.0000
  Mg  Mg2       1.0  0.30134  0.87284  0.76786  1.0000
  C  Sn5       1.0  0.67260  0.18779  0.95253  1.0000
  C   C111      1.0  0.65867  0.20541  0.02791  1.0000
  C  Sn6       1.0  0.63250  0.21917  0.15639  1.0000
  C  Sn7       1.0  0.60422  0.18615  0.21074  1.0000
  C   C112      1.0  0.60270  0.14007  0.13540  1.0000
  C  Sn8       1.0  0.62885  0.12629  0.00688  1.0000
  O  Te5       1.0  0.69905  0.17481  0.82431  1.0000
  O  Te6       1.0  0.63459  0.26546  0.22981  1.0000
  O  Te7       1.0  0.57775  0.19916  0.33907  1.0000
  O  Te8       1.0  0.64223  0.10850  0.93351  1.0000
  Mg  Mg3       1.0  0.59222  0.26625  0.40001  1.0000
  Mg  Mg4       1.0  0.68461  0.10767  0.76335  1.0000
  C  Sn9       1.0  0.61589  0.77364  0.36579  1.0000
  C   C113      1.0  0.61788  0.82031  0.43558  1.0000
  C  Sn10      1.0  0.65643  0.83995  0.50306  1.0000
  C  Sn11      1.0  0.69378  0.81238  0.50065  1.0000
  C   C114      1.0  0.69178  0.76575  0.43087  1.0000
  C  Sn12      1.0  0.65324  0.74607  0.36338  1.0000
  O  Te9       1.0  0.57701  0.75473  0.29904  1.0000
  O  Te10      1.0  0.65763  0.88668  0.57220  1.0000
  O  Te11      1.0  0.73267  0.83134  0.56749  1.0000
  O  Te12      1.0  0.65203  0.69938  0.29425  1.0000
  Mg  Mg5       1.0  0.71812  0.89661  0.64762  1.0000
  Mg  Mg6       1.0  0.59156  0.68942  0.21872  1.0000
  C  Sn13      1.0  0.32757  0.16240  0.44815  1.0000
  C   C115      1.0  0.36656  0.16398  0.37570  1.0000
  C  Sn14      1.0  0.38218  0.20638  0.33143  1.0000
  C  Sn15      1.0  0.35835  0.24810  0.36027  1.0000
  C   C116      1.0  0.31939  0.24651  0.43271  1.0000
  C  Sn16      1.0  0.30374  0.20411  0.47699  1.0000
  O  Te13      1.0  0.31256  0.11962  0.49143  1.0000
  O  Te14      1.0  0.42124  0.20708  0.25912  1.0000
  O  Te15      1.0  0.37339  0.29090  0.31693  1.0000
  O  Te16      1.0  0.26471  0.20341  0.54929  1.0000
  Mg  Mg7       1.0  0.42828  0.27391  0.22188  1.0000
  Mg  Mg8       1.0  0.25765  0.13660  0.58665  1.0000
  C  Sn17      1.0  0.17160  0.70248  0.15581  1.0000
  C   C117      1.0  0.20994  0.69428  0.08046  1.0000
  C  Sn18      1.0  0.23226  0.68011  0.98682  1.0000
  C  Sn19      1.0  0.20012  0.64492  0.96800  1.0000
  C   C118      1.0  0.14635  0.62464  0.04330  1.0000
  C  Sn20      1.0  0.13947  0.66728  0.13700  1.0000
  O  Te17      1.0  0.16544  0.74538  0.24886  1.0000
  O  Te18      1.0  0.27085  0.67273  0.91271  1.0000
  O  Te19      1.0  0.20632  0.60199  0.87486  1.0000
  O  Te20      1.0  0.10090  0.67468  0.21105  1.0000
  Mg  Mg9       1.0  0.26421  0.60855  0.79797  1.0000
  Mg  Mg10      1.0  0.10750  0.73885  0.32574  1.0000
  C  Sn21      1.0  0.85407  0.30513  0.09266  1.0000
  C   C119      1.0  0.85386  0.35090  0.04665  1.0000
  C  Sn22      1.0  0.81556  0.37247  0.00456  1.0000
  C  Sn23      1.0  0.77666  0.34778  0.00863  1.0000
  C   C120      1.0  0.77688  0.30204  0.05465  1.0000
  C  Sn24      1.0  0.81516  0.28044  0.09673  1.0000
  O  Te21      1.0  0.89273  0.28426  0.13425  1.0000
  O  Te22      1.0  0.83161  0.44673  0.95891  1.0000
  O  Te23      1.0  0.75344  0.39716  0.96699  1.0000
  O  Te24      1.0  0.81458  0.23469  0.14238  1.0000
  Mg  Mg11      1.0  0.77071  0.46013  0.91304  1.0000
  Mg  Mg12      1.0  0.87546  0.22126  0.18836  1.0000
  C  Sn25      1.0  0.83080  0.70867  0.35059  1.0000
  C   C121      1.0  0.79261  0.70217  0.42436  1.0000
  C  Sn26      1.0  0.78673  0.66302  0.51041  1.0000
  C  Sn27      1.0  0.81971  0.62968  0.52309  1.0000
  C   C122      1.0  0.85787  0.63620  0.44938  1.0000
  C  Sn28      1.0  0.86378  0.67534  0.36327  1.0000
  O  Te25      1.0  0.83599  0.74807  0.26518  1.0000
  O  Te26      1.0  0.74826  0.65727  0.58308  1.0000
  O  Te27      1.0  0.81449  0.59026  0.60859  1.0000
  O  Te28      1.0  0.90222  0.68110  0.29066  1.0000
  Mg  Mg13      1.0  0.75639  0.59790  0.68646  1.0000
  Mg  Mg14      1.0  0.89414  0.74046  0.18733  1.0000
  C  Sn29      1.0  0.21205  0.35745  0.55701  1.0000
  C   C123      1.0  0.21038  0.30922  0.50802  1.0000
  C  Sn30      1.0  0.17771  0.29021  0.39784  1.0000
  C  Sn31      1.0  0.14607  0.32003  0.33523  1.0000
  C   C124      1.0  0.14776  0.36823  0.38419  1.0000
  C  Sn32      1.0  0.18042  0.38727  0.49439  1.0000
  O  Te29      1.0  0.24500  0.37569  0.66728  1.0000
  O  Te30      1.0  0.17670  0.24188  0.35072  1.0000
  O  Te31      1.0  0.11311  0.30174  0.22488  1.0000
  O  Te32      1.0  0.18144  0.43557  0.54149  1.0000
  Mg  Mg15      1.0  0.12545  0.23369  0.19756  1.0000
  Mg  Mg16      1.0  0.23269  0.44380  0.69457  1.0000
  C  Sn33      1.0  0.38546  0.77196  0.64255  1.0000
  C   C125      1.0  0.38350  0.81550  0.57851  1.0000
  C  Sn34      1.0  0.34487  0.83210  0.51512  1.0000
  C  Sn35      1.0  0.30741  0.80464  0.51585  1.0000
  C   C126      1.0  0.30937  0.76114  0.57989  1.0000
  C  Sn36      1.0  0.34799  0.74450  0.64328  1.0000
  O  Te33      1.0  0.42442  0.75606  0.70530  1.0000
  O  Te34      1.0  0.34371  0.87573  0.45170  1.0000
  O  Te35      1.0  0.26843  0.82059  0.45303  1.0000
  O  Te36      1.0  0.34916  0.70091  0.70669  1.0000
  Mg  Mg17      1.0  0.28307  0.88226  0.38016  1.0000
  Mg  Mg18      1.0  0.40978  0.69435  0.77834  1.0000
  C  Sn37      1.0  0.66725  0.15875  0.52636  1.0000
  C   C127      1.0  0.63060  0.16296  0.61502  1.0000
  C  Sn38      1.0  0.61613  0.20721  0.67456  1.0000
  C  Sn39      1.0  0.63875  0.24812  0.64479  1.0000
  C   C128      1.0  0.67537  0.24390  0.55616  1.0000
  C  Sn40      1.0  0.68986  0.19966  0.49659  1.0000
  O  Te37      1.0  0.68113  0.11416  0.46798  1.0000
  O  Te38      1.0  0.57942  0.21053  0.76293  1.0000
  O  Te39      1.0  0.62483  0.29273  0.70326  1.0000
  O  Te40      1.0  0.72654  0.19633  0.40825  1.0000
  Mg  Mg19      1.0  0.57314  0.27909  0.81708  1.0000
  Mg  Mg20      1.0  0.73284  0.12779  0.35396  1.0000
  C  Sn41      1.0  0.64495  0.76324  0.78649  1.0000
  C   C129      1.0  0.68195  0.76431  0.89034  1.0000
  C  Sn42      1.0  0.67252  0.77076  0.02249  1.0000
  C  Sn43      1.0  0.64090  0.80531  0.05153  1.0000
  C   C130      1.0  0.61939  0.83270  0.94774  1.0000
  C  Sn44      1.0  0.61334  0.79780  0.81553  1.0000
  O  Te41      1.0  0.63959  0.72800  0.65512  1.0000
  O  Te42      1.0  0.70978  0.77111  0.12459  1.0000
  O  Te43      1.0  0.64629  0.84057  0.18302  1.0000
  O  Te44      1.0  0.57610  0.79743  0.71349  1.0000
  Mg  Mg21      1.0  0.70243  0.82623  0.28760  1.0000
  Mg  Mg22      1.0  0.58341  0.74232  0.55050  1.0000
  C  Sn45      1.0  0.38531  0.23016  0.88070  1.0000
  C   C131      1.0  0.38384  0.18463  0.92838  1.0000
  C  Sn46      1.0  0.34513  0.16457  0.96023  1.0000
  C  Sn47      1.0  0.30710  0.19056  0.94400  1.0000
  C   C132      1.0  0.30859  0.23606  0.89633  1.0000
  C  Sn48      1.0  0.34728  0.25615  0.86448  1.0000
  O  Te45      1.0  0.42436  0.24951  0.84948  1.0000
  O  Te46      1.0  0.32900  0.09052  0.00778  1.0000
  O  Te47      1.0  0.26804  0.17117  0.97528  1.0000
  O  Te48      1.0  0.34797  0.30169  0.81693  1.0000
  Mg  Mg23      1.0  0.26802  0.07941  0.03658  1.0000
  Mg  Mg24      1.0  0.40892  0.31282  0.78802  1.0000
  C  Sn49      1.0  0.20759  0.63766  0.44762  1.0000
  C   C133      1.0  0.20830  0.68623  0.48978  1.0000
  C  Sn50      1.0  0.17961  0.70707  0.59869  1.0000
  C  Sn51      1.0  0.14959  0.67876  0.66698  1.0000
  C   C134      1.0  0.14888  0.63021  0.62484  1.0000
  C  Sn52      1.0  0.17756  0.60935  0.51591  1.0000
  O  Te49      1.0  0.23657  0.61759  0.33850  1.0000
  O  Te50      1.0  0.18093  0.75570  0.63894  1.0000
  O  Te51      1.0  0.12059  0.69887  0.77617  1.0000
  O  Te52      1.0  0.17626  0.56075  0.47568  1.0000
  Mg  Mg25      1.0  0.13492  0.76664  0.79320  1.0000
  Mg  Mg26      1.0  0.22227  0.54977  0.32151  1.0000
  C  Sn53      1.0  0.85525  0.30409  0.57555  1.0000
  C   C135      1.0  0.85393  0.35090  0.54032  1.0000
  C  Sn54      1.0  0.81504  0.37253  0.50846  1.0000
  C  Sn55      1.0  0.77664  0.34686  0.51198  1.0000
  C   C136      1.0  0.77796  0.30008  0.54723  1.0000
  C  Sn56      1.0  0.81685  0.27841  0.57908  1.0000
  O  Te53      1.0  0.89449  0.28317  0.60703  1.0000
  O  Te54      1.0  0.81453  0.41936  0.47348  1.0000
  O  Te55      1.0  0.73738  0.36782  0.48046  1.0000
  O  Te56      1.0  0.81737  0.23161  0.61407  1.0000
  Mg  Mg27      1.0  0.75317  0.43240  0.43897  1.0000
  Mg  Mg28      1.0  0.87871  0.21855  0.64867  1.0000
  C  Sn57      1.0  0.82834  0.70677  0.84335  1.0000
  C   C137      1.0  0.79078  0.70144  0.92266  1.0000
  C  Sn58      1.0  0.77039  0.63554  0.01788  1.0000
  C  Sn59      1.0  0.80370  0.60277  0.03426  1.0000
  C   C138      1.0  0.85670  0.63659  0.95501  1.0000
  C  Sn60      1.0  0.86165  0.67400  0.85973  1.0000
  O  Te57      1.0  0.83258  0.74445  0.74878  1.0000
  O  Te58      1.0  0.73254  0.63093  0.09595  1.0000
  O  Te59      1.0  0.79943  0.56506  0.12892  1.0000
  O  Te60      1.0  0.89948  0.67862  0.78172  1.0000
  Mg  Mg29      1.0  0.74190  0.57377  0.21140  1.0000
  Mg  Mg30      1.0  0.89017  0.73577  0.66632  1.0000
  C  Sn61      1.0  0.19980  0.38079  0.96350  1.0000
  C   C139      1.0  0.15863  0.37327  0.89212  1.0000
  C  Sn62      1.0  0.14182  0.32780  0.86243  1.0000
  C  Sn63      1.0  0.16667  0.28904  0.90507  1.0000
  C   C140      1.0  0.20781  0.29656  0.97642  1.0000
  C  Sn64      1.0  0.20919  0.31355  0.00613  1.0000
  O  Te61      1.0  0.21595  0.42655  0.99208  1.0000
  O  Te62      1.0  0.10058  0.32116  0.79090  1.0000
  O  Te63      1.0  0.15048  0.24325  0.87642  1.0000
  O  Te64      1.0  0.25039  0.32020  0.07765  1.0000
  Mg  Mg31      1.0  0.09266  0.25218  0.77639  1.0000
  Mg  Mg32      1.0  0.25835  0.38916  0.09229  1.0000
