data_image0
_chemical_formula_structural       H88C160N8SnCSn2CSnTe4Mg2SnCSn2CSnTe4Mg2SnCSn2CSnTe4Mg2SnCSn2CSnTe4Mg2SnCSn2CSnTe4Mg2SnCSn2CSnTe4Mg2SnCSn2CSnTe4Mg2SnCSn2CSnTe4Mg2
_chemical_formula_sum              "H88 C176 N8 Sn32 Te32 Mg16"
_cell_length_a       31.601
_cell_length_b       29.6194
_cell_length_c       8.11762
_cell_angle_alpha    113.368
_cell_angle_beta     88.71
_cell_angle_gamma    90.1257

_symmetry_space_group_name_H-M    'P1'
_space_group_IT_number       1

loop_
  _space_group_symop_operation_xyz
  'x, y, z'

loop_
  _atom_site_type_symbol
  _atom_site_label
  _atom_site_symmetry_multiplicity
  _atom_site_fract_x
  _atom_site_fract_y
  _atom_site_fract_z
  _atom_site_occupancy
  H   H1        1.0  0.41897  0.96625  0.13791  1.0000
  H   H2        1.0  0.36807  0.90012  0.10511  1.0000
  H   H3        1.0  0.46238  0.82054  0.25835  1.0000
  H   H4        1.0  0.54183  0.82427  0.30311  1.0000
  H   H5        1.0  0.64277  0.92910  0.40855  1.0000
  H   H6        1.0  0.59418  0.98991  0.38554  1.0000
  H   H7        1.0  0.29847  0.67423  0.12284  1.0000
  H   H8        1.0  0.28765  0.30080  0.43246  1.0000
  H   H9        1.0  0.59412  0.00141  0.19047  1.0000
  H   H10       1.0  0.64015  0.06383  0.16131  1.0000
  H   H11       1.0  0.53426  0.16353  0.26592  1.0000
  H   H12       1.0  0.74690  0.62694  0.12892  1.0000
  H   H13       1.0  0.45518  0.16403  0.32342  1.0000
  H   H14       1.0  0.80294  0.56688  0.11191  1.0000
  H   H15       1.0  0.36235  0.07726  0.46019  1.0000
  H   H16       1.0  0.41647  0.01412  0.42783  1.0000
  H   H17       1.0  0.40839  0.22928  0.02746  1.0000
  H   H18       1.0  0.35425  0.28262  0.52202  1.0000
  H   H19       1.0  0.26988  0.16342  0.25567  1.0000
  H   H20       1.0  0.32500  0.10401  0.26275  1.0000
  H   H21       1.0  0.01574  0.38108  0.13223  1.0000
  H   H22       1.0  0.07228  0.32784  0.15411  1.0000
  H   H23       1.0  0.15996  0.44811  0.30558  1.0000
  H   H24       1.0  0.16252  0.53150  0.27839  1.0000
  H   H25       1.0  0.07437  0.65016  0.37213  1.0000
  H   H26       1.0  0.01498  0.59655  0.36248  1.0000
  H   H27       1.0  0.70192  0.29876  0.20372  1.0000
  H   H28       1.0  0.71505  0.70034  0.36474  1.0000
  H   H29       1.0  0.99378  0.56793  0.11329  1.0000
  H   H30       1.0  0.93634  0.62082  0.09430  1.0000
  H   H31       1.0  0.84517  0.53665  0.25174  1.0000
  H   H32       1.0  0.84221  0.45428  0.27383  1.0000
  H   H33       1.0  0.92762  0.36124  0.40667  1.0000
  H   H34       1.0  0.98809  0.40938  0.37824  1.0000
  H   H35       1.0  0.89520  0.68250  0.26613  1.0000
  H   H36       1.0  0.83945  0.74212  0.27207  1.0000
  H   H37       1.0  0.41296  0.97052  0.64776  1.0000
  H   H38       1.0  0.36228  0.90425  0.61523  1.0000
  H   H39       1.0  0.45877  0.82185  0.74241  1.0000
  H   H40       1.0  0.53752  0.82588  0.79002  1.0000
  H   H41       1.0  0.63714  0.93303  0.91870  1.0000
  H   H42       1.0  0.58850  0.99344  0.89198  1.0000
  H   H43       1.0  0.32529  0.87676  0.81951  1.0000
  H   H44       1.0  0.27189  0.81478  0.81934  1.0000
  H   H45       1.0  0.36212  0.69894  0.54864  1.0000
  H   H46       1.0  0.41481  0.76042  0.54357  1.0000
  H   H47       1.0  0.29351  0.67757  0.62507  1.0000
  H   H48       1.0  0.28863  0.30743  0.91784  1.0000
  H   H49       1.0  0.58995  0.00182  0.68405  1.0000
  H   H50       1.0  0.63659  0.06368  0.65538  1.0000
  H   H51       1.0  0.53279  0.16630  0.77379  1.0000
  H   H52       1.0  0.73995  0.62762  0.63542  1.0000
  H   H53       1.0  0.45319  0.16773  0.82339  1.0000
  H   H54       1.0  0.79547  0.56750  0.61907  1.0000
  H   H55       1.0  0.35994  0.08345  0.97162  1.0000
  H   H56       1.0  0.79526  0.42460  0.93428  1.0000
  H   H57       1.0  0.41272  0.01891  0.93338  1.0000
  H   H58       1.0  0.73698  0.36707  0.92181  1.0000
  H   H59       1.0  0.82548  0.24659  0.74969  1.0000
  H   H60       1.0  0.88342  0.30331  0.74992  1.0000
  H   H61       1.0  0.40902  0.22373  0.53024  1.0000
  H   H62       1.0  0.35573  0.28890  0.00970  1.0000
  H   H63       1.0  0.26782  0.17093  0.76848  1.0000
  H   H64       1.0  0.32124  0.11094  0.78070  1.0000
  H   H65       1.0  0.01201  0.38390  0.63783  1.0000
  H   H66       1.0  0.07012  0.33047  0.64196  1.0000
  H   H67       1.0  0.15537  0.45306  0.81747  1.0000
  H   H68       1.0  0.15739  0.53576  0.78670  1.0000
  H   H69       1.0  0.06886  0.65324  0.87044  1.0000
  H   H70       1.0  0.00962  0.59975  0.86362  1.0000
  H   H71       1.0  0.10480  0.30882  0.82644  1.0000
  H   H72       1.0  0.15896  0.25182  0.85217  1.0000
  H   H73       1.0  0.25672  0.33574  0.73478  1.0000
  H   H74       1.0  0.20322  0.39148  0.69956  1.0000
  H   H75       1.0  0.20297  0.59476  0.87476  1.0000
  H   H76       1.0  0.25907  0.64833  0.83705  1.0000
  H   H77       1.0  0.16591  0.73148  0.69757  1.0000
  H   H78       1.0  0.11028  0.67387  0.71037  1.0000
  H   H79       1.0  0.70226  0.29527  0.68910  1.0000
  H   H80       1.0  0.70791  0.70056  0.85540  1.0000
  H   H81       1.0  0.98766  0.56957  0.61455  1.0000
  H   H82       1.0  0.92990  0.62120  0.59341  1.0000
  H   H83       1.0  0.83952  0.53499  0.74479  1.0000
  H   H84       1.0  0.83836  0.45233  0.77398  1.0000
  H   H85       1.0  0.92586  0.36081  0.90336  1.0000
  H   H86       1.0  0.98498  0.41150  0.88195  1.0000
  H   H87       1.0  0.88863  0.68239  0.74986  1.0000
  H   H88       1.0  0.83301  0.74156  0.75417  1.0000
  C   C1        1.0  0.48138  0.89070  0.25681  1.0000
  C   C2        1.0  0.47682  0.09439  0.31906  1.0000
  C   C3        1.0  0.52627  0.89445  0.29709  1.0000
  C   C4        1.0  0.46580  0.04953  0.33386  1.0000
  C   C5        1.0  0.54070  0.94110  0.30735  1.0000
  C   C6        1.0  0.50368  0.01749  0.29531  1.0000
  C   C7        1.0  0.50478  0.96883  0.27931  1.0000
  C   C8        1.0  0.53846  0.04740  0.26843  1.0000
  C   C9        1.0  0.46862  0.93461  0.23952  1.0000
  C   C10       1.0  0.58118  0.03748  0.21920  1.0000
  C   C11       1.0  0.42813  0.93612  0.17404  1.0000
  C   C12       1.0  0.60712  0.07312  0.20052  1.0000
  C   C13       1.0  0.39964  0.89835  0.15335  1.0000
  C   C14       1.0  0.59164  0.11993  0.22351  1.0000
  C   C15       1.0  0.41093  0.85728  0.19008  1.0000
  C   C16       1.0  0.54775  0.12871  0.25591  1.0000
  C   C17       1.0  0.45310  0.85273  0.23424  1.0000
  C   C18       1.0  0.44678  0.13090  0.34341  1.0000
  C   C19       1.0  0.55350  0.86012  0.31652  1.0000
  C   C20       1.0  0.40448  0.12384  0.38571  1.0000
  C   C21       1.0  0.59684  0.87103  0.34502  1.0000
  C   C22       1.0  0.39445  0.08139  0.41649  1.0000
  C   C23       1.0  0.61015  0.91880  0.37238  1.0000
  C   C24       1.0  0.42476  0.04532  0.39567  1.0000
  C   C25       1.0  0.58269  0.95333  0.35655  1.0000
  C   C26       1.0  0.37134  0.15955  0.39360  1.0000
  C   C27       1.0  0.37890  0.21042  0.46745  1.0000
  C   C28       1.0  0.34800  0.24335  0.46337  1.0000
  C   C29       1.0  0.30866  0.22675  0.38491  1.0000
  C   C30       1.0  0.30055  0.17593  0.31479  1.0000
  C   C31       1.0  0.33121  0.14327  0.32117  1.0000
  C   C32       1.0  0.09558  0.46400  0.26496  1.0000
  C   C33       1.0  0.28844  0.71286  0.18899  1.0000
  C   C34       1.0  0.09635  0.51514  0.28561  1.0000
  C   C35       1.0  0.27749  0.26213  0.37821  1.0000
  C   C36       1.0  0.05368  0.53099  0.28857  1.0000
  C   C37       1.0  0.52206  0.09326  0.27875  1.0000
  C   C38       1.0  0.02488  0.48931  0.25590  1.0000
  C   C39       1.0  0.05291  0.44759  0.23631  1.0000
  C   C40       1.0  0.95705  0.41763  0.34316  1.0000
  C   C41       1.0  0.04614  0.39707  0.18170  1.0000
  C   C42       1.0  0.85339  0.62005  0.18811  1.0000
  C   C43       1.0  0.07865  0.36667  0.19145  1.0000
  C   C44       1.0  0.11962  0.38448  0.24714  1.0000
  C   C45       1.0  0.86293  0.66995  0.23138  1.0000
  C   C46       1.0  0.12821  0.43355  0.27300  1.0000
  C   C47       1.0  0.83180  0.70364  0.23770  1.0000
  C   C48       1.0  0.13035  0.54576  0.29426  1.0000
  C   C49       1.0  0.78917  0.68913  0.20816  1.0000
  C   C50       1.0  0.12303  0.59438  0.31170  1.0000
  C   C51       1.0  0.77933  0.63916  0.16144  1.0000
  C   C52       1.0  0.08077  0.61176  0.34341  1.0000
  C   C53       1.0  0.81097  0.60546  0.15117  1.0000
  C   C54       1.0  0.04674  0.58123  0.33577  1.0000
  C   C55       1.0  0.71087  0.27072  0.25378  1.0000
  C   C56       1.0  0.72273  0.72616  0.30145  1.0000
  C   C57       1.0  0.91031  0.51436  0.23628  1.0000
  C   C58       1.0  0.90875  0.47007  0.27299  1.0000
  C   C59       1.0  0.95114  0.45582  0.28573  1.0000
  C   C60       1.0  0.98071  0.48982  0.25088  1.0000
  C   C61       1.0  0.95352  0.52529  0.21625  1.0000
  C   C62       1.0  0.96205  0.56255  0.15537  1.0000
  C   C63       1.0  0.92927  0.59244  0.14376  1.0000
  C   C64       1.0  0.88686  0.58544  0.18634  1.0000
  C   C65       1.0  0.87771  0.54408  0.22453  1.0000
  C   C66       1.0  0.87409  0.44363  0.29318  1.0000
  C   C67       1.0  0.88072  0.40155  0.32986  1.0000
  C   C68       1.0  0.92246  0.39061  0.36098  1.0000
  C   C69       1.0  0.47657  0.89285  0.74885  1.0000
  C   C70       1.0  0.47373  0.09778  0.81928  1.0000
  C   C71       1.0  0.52148  0.89648  0.78899  1.0000
  C   C72       1.0  0.46214  0.05309  0.83441  1.0000
  C   C73       1.0  0.53582  0.94358  0.80419  1.0000
  C   C74       1.0  0.49937  0.02012  0.79280  1.0000
  C   C75       1.0  0.49999  0.97151  0.77709  1.0000
  C   C76       1.0  0.53460  0.04895  0.76341  1.0000
  C   C77       1.0  0.46370  0.93750  0.73753  1.0000
  C   C78       1.0  0.57717  0.03799  0.71288  1.0000
  C   C79       1.0  0.42273  0.93967  0.67821  1.0000
  C   C80       1.0  0.60363  0.07328  0.69433  1.0000
  C   C81       1.0  0.39420  0.90200  0.65864  1.0000
  C   C82       1.0  0.58895  0.12055  0.72068  1.0000
  C   C83       1.0  0.40583  0.85992  0.68808  1.0000
  C   C84       1.0  0.54539  0.13055  0.75667  1.0000
  C   C85       1.0  0.44844  0.85461  0.72449  1.0000
  C   C86       1.0  0.44426  0.13489  0.84494  1.0000
  C   C87       1.0  0.54887  0.86215  0.80762  1.0000
  C   C88       1.0  0.40195  0.12895  0.89088  1.0000
  C   C89       1.0  0.59184  0.87397  0.84523  1.0000
  C   C90       1.0  0.39162  0.08663  0.92262  1.0000
  C   C91       1.0  0.60486  0.92213  0.87671  1.0000
  C   C92       1.0  0.42133  0.04978  0.89968  1.0000
  C   C93       1.0  0.57749  0.95637  0.85804  1.0000
  C   C94       1.0  0.37409  0.82297  0.68259  1.0000
  C   C95       1.0  0.36928  0.16547  0.90071  1.0000
  C   C96       1.0  0.33308  0.83776  0.75784  1.0000
  C   C97       1.0  0.30334  0.80345  0.75941  1.0000
  C   C98       1.0  0.31353  0.75293  0.68537  1.0000
  C   C99       1.0  0.35403  0.73797  0.60784  1.0000
  C   C100      1.0  0.38376  0.77246  0.60608  1.0000
  C   C101      1.0  0.37808  0.21622  0.96664  1.0000
  C   C102      1.0  0.34825  0.24977  0.95846  1.0000
  C   C103      1.0  0.30837  0.23372  0.88461  1.0000
  C   C104      1.0  0.29891  0.18318  0.82310  1.0000
  C   C105      1.0  0.32867  0.14996  0.83243  1.0000
  C   C106      1.0  0.09115  0.46782  0.77178  1.0000
  C   C107      1.0  0.28307  0.71620  0.68792  1.0000
  C   C108      1.0  0.09131  0.51897  0.79221  1.0000
  C   C109      1.0  0.27770  0.26895  0.87259  1.0000
  C   C110      1.0  0.04846  0.53420  0.79321  1.0000
  C   C111      1.0  0.51900  0.09548  0.77736  1.0000
  C   C112      1.0  0.02009  0.49213  0.76091  1.0000
  C   C113      1.0  0.04873  0.45078  0.74091  1.0000
  C   C114      1.0  0.95393  0.41891  0.84422  1.0000
  C   C115      1.0  0.04260  0.40006  0.68286  1.0000
  C   C116      1.0  0.84682  0.61997  0.68516  1.0000
  C   C117      1.0  0.07574  0.36966  0.68692  1.0000
  C   C118      1.0  0.84360  0.36812  0.83621  1.0000
  C   C119      1.0  0.11668  0.38765  0.74232  1.0000
  C   C120      1.0  0.85627  0.66965  0.72113  1.0000
  C   C121      1.0  0.12416  0.43756  0.77835  1.0000
  C   C122      1.0  0.82527  0.70335  0.72622  1.0000
  C   C123      1.0  0.12516  0.54981  0.80072  1.0000
  C   C124      1.0  0.78250  0.68927  0.70351  1.0000
  C   C125      1.0  0.11766  0.59805  0.81425  1.0000
  C   C126      1.0  0.77259  0.63958  0.66269  1.0000
  C   C127      1.0  0.07528  0.61498  0.84394  1.0000
  C   C128      1.0  0.80410  0.60577  0.65367  1.0000
  C   C129      1.0  0.04132  0.58432  0.83752  1.0000
  C   C130      1.0  0.80179  0.38534  0.88673  1.0000
  C   C131      1.0  0.14958  0.35498  0.76158  1.0000
  C   C132      1.0  0.76906  0.35322  0.88112  1.0000
  C   C133      1.0  0.15184  0.62995  0.79617  1.0000
  C   C134      1.0  0.77720  0.30257  0.82683  1.0000
  C   C135      1.0  0.13807  0.31471  0.80372  1.0000
  C   C136      1.0  0.81932  0.28561  0.78806  1.0000
  C   C137      1.0  0.16818  0.28247  0.81820  1.0000
  C   C138      1.0  0.85146  0.31763  0.78930  1.0000
  C   C139      1.0  0.21167  0.28968  0.79678  1.0000
  C   C140      1.0  0.22348  0.33050  0.75881  1.0000
  C   C141      1.0  0.19321  0.36207  0.73989  1.0000
  C   C142      1.0  0.19460  0.62330  0.82814  1.0000
  C   C143      1.0  0.22640  0.65385  0.80939  1.0000
  C   C144      1.0  0.21641  0.69393  0.76470  1.0000
  C   C145      1.0  0.17363  0.70136  0.73621  1.0000
  C   C146      1.0  0.14248  0.66929  0.74617  1.0000
  C   C147      1.0  0.70995  0.26856  0.74730  1.0000
  C   C148      1.0  0.71634  0.72718  0.79694  1.0000
  C   C149      1.0  0.90504  0.51454  0.73509  1.0000
  C   C150      1.0  0.90438  0.47033  0.77332  1.0000
  C   C151      1.0  0.94704  0.45714  0.78766  1.0000
  C   C152      1.0  0.97595  0.49172  0.75342  1.0000
  C   C153      1.0  0.94812  0.52628  0.71616  1.0000
  C   C154      1.0  0.95602  0.56369  0.65585  1.0000
  C   C155      1.0  0.92284  0.59287  0.64288  1.0000
  C   C156      1.0  0.88046  0.58534  0.68391  1.0000
  C   C157      1.0  0.87199  0.54363  0.72167  1.0000
  C   C158      1.0  0.87057  0.44266  0.79290  1.0000
  C   C159      1.0  0.87817  0.40071  0.82920  1.0000
  C   C160      1.0  0.92014  0.39058  0.86008  1.0000
  N   N1        1.0  0.24030  0.24935  0.31398  1.0000
  N   N2        1.0  0.25096  0.72530  0.26209  1.0000
  N   N3        1.0  0.75905  0.72518  0.22354  1.0000
  N   N4        1.0  0.74762  0.27034  0.31966  1.0000
  N   N5        1.0  0.24013  0.25578  0.81374  1.0000
  N   N6        1.0  0.24534  0.72852  0.75560  1.0000
  N   N7        1.0  0.75285  0.72588  0.71998  1.0000
  N   N8        1.0  0.74637  0.26770  0.81432  1.0000
  C  Sn1       1.0  0.69174  0.17530  0.23298  1.0000
  C   C161      1.0  0.68494  0.21670  0.19468  1.0000
  C  Sn2       1.0  0.64382  0.23265  0.18579  1.0000
  C  Sn3       1.0  0.60875  0.20670  0.21592  1.0000
  C   C162      1.0  0.61556  0.16534  0.25422  1.0000
  C  Sn4       1.0  0.65667  0.14935  0.26311  1.0000
  O  Te1       1.0  0.73312  0.16001  0.24120  1.0000
  O  Te2       1.0  0.63782  0.27413  0.14722  1.0000
  O  Te3       1.0  0.56735  0.22203  0.20765  1.0000
  O  Te4       1.0  0.66268  0.10790  0.30168  1.0000
  Mg  Mg1       1.0  0.57543  0.28060  0.15072  1.0000
  Mg  Mg2       1.0  0.72506  0.10141  0.29830  1.0000
  C  Sn5       1.0  0.77384  0.36287  0.32989  1.0000
  C   C163      1.0  0.77574  0.31237  0.28810  1.0000
  C  Sn6       1.0  0.81446  0.28946  0.28595  1.0000
  C  Sn7       1.0  0.85207  0.31761  0.32651  1.0000
  C   C164      1.0  0.85016  0.36808  0.36830  1.0000
  C  Sn8       1.0  0.81145  0.39103  0.37045  1.0000
  O  Te5       1.0  0.73479  0.38501  0.33125  1.0000
  O  Te6       1.0  0.81556  0.23892  0.24372  1.0000
  O  Te7       1.0  0.89114  0.29543  0.32512  1.0000
  O  Te8       1.0  0.81033  0.44153  0.41268  1.0000
  Mg  Mg3       1.0  0.87637  0.22556  0.25954  1.0000
  Mg  Mg4       1.0  0.74955  0.45494  0.39699  1.0000
  C  Sn9       1.0  0.62711  0.79502  0.44561  1.0000
  C   C165      1.0  0.63065  0.83418  0.39145  1.0000
  C  Sn10      1.0  0.66425  0.83580  0.27914  1.0000
  C  Sn11      1.0  0.69493  0.79746  0.21963  1.0000
  C   C166      1.0  0.69138  0.75833  0.27376  1.0000
  C  Sn12      1.0  0.65780  0.75668  0.38609  1.0000
  O  Te9       1.0  0.59326  0.79416  0.55792  1.0000
  O  Te10      1.0  0.66712  0.87534  0.22684  1.0000
  O  Te11      1.0  0.72879  0.79836  0.10724  1.0000
  O  Te12      1.0  0.65491  0.71717  0.43836  1.0000
  Mg  Mg5       1.0  0.71900  0.85997  0.07266  1.0000
  Mg  Mg6       1.0  0.60304  0.73249  0.59246  1.0000
  C  Sn13      1.0  0.15441  0.66704  0.19497  1.0000
  C   C167      1.0  0.15841  0.62601  0.23791  1.0000
  C  Sn14      1.0  0.19497  0.61893  0.31856  1.0000
  C  Sn15      1.0  0.22822  0.65361  0.35721  1.0000
  C   C168      1.0  0.22420  0.69461  0.31430  1.0000
  C  Sn16      1.0  0.18765  0.70171  0.23362  1.0000
  O  Te13      1.0  0.11757  0.67337  0.11440  1.0000
  O  Te14      1.0  0.19825  0.57762  0.36019  1.0000
  O  Te15      1.0  0.26507  0.64724  0.43783  1.0000
  O  Te16      1.0  0.18436  0.74300  0.19203  1.0000
  Mg  Mg7       1.0  0.25464  0.58516  0.46910  1.0000
  Mg  Mg8       1.0  0.12798  0.73551  0.08321  1.0000
  C  Sn17      1.0  0.20323  0.34446  0.19821  1.0000
  C   C169      1.0  0.15928  0.34420  0.22107  1.0000
  C  Sn18      1.0  0.14067  0.31597  0.30564  1.0000
  C  Sn19      1.0  0.16654  0.28742  0.36879  1.0000
  C   C170      1.0  0.21046  0.28769  0.34596  1.0000
  C  Sn20      1.0  0.22910  0.31591  0.26137  1.0000
  O  Te17      1.0  0.22115  0.37296  0.11329  1.0000
  O  Te18      1.0  0.09666  0.31629  0.32689  1.0000
  O  Te19      1.0  0.14858  0.25891  0.45376  1.0000
  O  Te20      1.0  0.27308  0.31560  0.24014  1.0000
  Mg  Mg9       1.0  0.08715  0.27147  0.45124  1.0000
  Mg  Mg10      1.0  0.28262  0.36043  0.11589  1.0000
  C  Sn21      1.0  0.38042  0.75870  0.05161  1.0000
  C   C171      1.0  0.37624  0.80990  0.12653  1.0000
  C  Sn22      1.0  0.34328  0.83259  0.24899  1.0000
  C  Sn23      1.0  0.31389  0.80349  0.29768  1.0000
  C   C172      1.0  0.31808  0.75232  0.22280  1.0000
  C  Sn24      1.0  0.35103  0.72960  0.10030  1.0000
  O  Te21      1.0  0.40806  0.84550  0.92947  1.0000
  O  Te22      1.0  0.33974  0.88384  0.32205  1.0000
  O  Te23      1.0  0.28067  0.82543  0.41993  1.0000
  O  Te24      1.0  0.35458  0.67838  0.02729  1.0000
  Mg  Mg11      1.0  0.28917  0.89653  0.48289  1.0000
  Mg  Mg12      1.0  0.39959  0.77435  0.86651  1.0000
  C  Sn25      1.0  0.63150  0.76030  0.83644  1.0000
  C   C173      1.0  0.67382  0.75747  0.77924  1.0000
  C  Sn26      1.0  0.69354  0.79820  0.76606  1.0000
  C  Sn27      1.0  0.67049  0.84270  0.81110  1.0000
  C   C174      1.0  0.62819  0.84552  0.86829  1.0000
  C  Sn28      1.0  0.60844  0.80480  0.88148  1.0000
  O  Te25      1.0  0.61243  0.71912  0.84863  1.0000
  O  Te26      1.0  0.73588  0.79448  0.70849  1.0000
  O  Te27      1.0  0.68960  0.88389  0.79886  1.0000
  O  Te28      1.0  0.56614  0.80851  0.93904  1.0000
  Mg  Mg13      1.0  0.74792  0.86066  0.71380  1.0000
  Mg  Mg14      1.0  0.55407  0.74236  0.93386  1.0000
  C  Sn29      1.0  0.66671  0.16872  0.82144  1.0000
  C   C175      1.0  0.62424  0.16549  0.77382  1.0000
  C  Sn30      1.0  0.60875  0.19342  0.68405  1.0000
  C  Sn31      1.0  0.63628  0.22522  0.64086  1.0000
  C   C176      1.0  0.67872  0.22843  0.68843  1.0000
  C  Sn32      1.0  0.69424  0.20052  0.77825  1.0000
  O  Te29      1.0  0.68152  0.14046  0.91113  1.0000
  O  Te30      1.0  0.56616  0.18958  0.63789  1.0000
  O  Te31      1.0  0.62143  0.25349  0.55110  1.0000
  O  Te32      1.0  0.73679  0.20434  0.82437  1.0000
  Mg  Mg15      1.0  0.56094  0.23552  0.51659  1.0000
  Mg  Mg16      1.0  0.74206  0.15840  0.94558  1.0000
