data_image0
_chemical_formula_structural       H56C112N8C2Sn2C2HTe2HMgC2Sn2C2HTe2HMgC2Sn2C2HTe2HMgC2Sn2C2HTe2HMgC2Sn2C2HTe2HMgC2Sn2C2HTe2HMgC2Sn2C2HTe2HMgC2Sn2C2HTe2HMgC2Sn2C2HTe2HMgC2Sn2C2HTe2HMgC2Sn2C2HTe2HMgC2Sn2C2HTe2HMgC2Sn2C2HTe2HMgC2Sn2C2HTe2HMgC2Sn2C2HTe2HMgC2Sn2C2HTe2HMg
_chemical_formula_sum              "H88 C176 N8 Sn32 Te32 Mg16"
_cell_length_a       31.601
_cell_length_b       29.6194
_cell_length_c       8.11762
_cell_angle_alpha    113.368
_cell_angle_beta     88.71
_cell_angle_gamma    90.1257

_symmetry_space_group_name_H-M    'P1'
_space_group_IT_number       1

loop_
  _space_group_symop_operation_xyz
  'x, y, z'

loop_
  _atom_site_type_symbol
  _atom_site_label
  _atom_site_symmetry_multiplicity
  _atom_site_fract_x
  _atom_site_fract_y
  _atom_site_fract_z
  _atom_site_occupancy
  H   H1        1.0  0.41897  0.96625  0.13791  1.0000
  H   H2        1.0  0.36807  0.90012  0.10511  1.0000
  H   H3        1.0  0.46238  0.82054  0.25835  1.0000
  H   H4        1.0  0.54183  0.82427  0.30311  1.0000
  H   H5        1.0  0.64277  0.92910  0.40855  1.0000
  H   H6        1.0  0.59418  0.98991  0.38554  1.0000
  H   H7        1.0  0.29847  0.67423  0.12284  1.0000
  H   H8        1.0  0.28765  0.30080  0.43246  1.0000
  H   H9        1.0  0.59412  0.00141  0.19047  1.0000
  H   H10       1.0  0.64015  0.06383  0.16131  1.0000
  H   H11       1.0  0.53426  0.16353  0.26592  1.0000
  H   H12       1.0  0.45518  0.16403  0.32342  1.0000
  H   H13       1.0  0.36235  0.07726  0.46019  1.0000
  H   H14       1.0  0.41647  0.01412  0.42783  1.0000
  H   H15       1.0  0.01574  0.38108  0.13223  1.0000
  H   H16       1.0  0.07228  0.32784  0.15411  1.0000
  H   H17       1.0  0.15996  0.44811  0.30558  1.0000
  H   H18       1.0  0.16252  0.53150  0.27839  1.0000
  H   H19       1.0  0.07437  0.65016  0.37213  1.0000
  H   H20       1.0  0.01498  0.59655  0.36248  1.0000
  H   H21       1.0  0.70192  0.29876  0.20372  1.0000
  H   H22       1.0  0.71505  0.70034  0.36474  1.0000
  H   H23       1.0  0.99378  0.56793  0.11329  1.0000
  H   H24       1.0  0.93634  0.62082  0.09430  1.0000
  H   H25       1.0  0.84517  0.53665  0.25174  1.0000
  H   H26       1.0  0.84221  0.45428  0.27383  1.0000
  H   H27       1.0  0.92762  0.36124  0.40667  1.0000
  H   H28       1.0  0.98809  0.40938  0.37824  1.0000
  H   H29       1.0  0.41296  0.97052  0.64776  1.0000
  H   H30       1.0  0.36228  0.90425  0.61523  1.0000
  H   H31       1.0  0.45877  0.82185  0.74241  1.0000
  H   H32       1.0  0.53752  0.82588  0.79002  1.0000
  H   H33       1.0  0.63714  0.93303  0.91870  1.0000
  H   H34       1.0  0.58850  0.99344  0.89198  1.0000
  H   H35       1.0  0.29351  0.67757  0.62507  1.0000
  H   H36       1.0  0.28863  0.30743  0.91784  1.0000
  H   H37       1.0  0.58995  0.00182  0.68405  1.0000
  H   H38       1.0  0.63659  0.06368  0.65538  1.0000
  H   H39       1.0  0.53279  0.16630  0.77379  1.0000
  H   H40       1.0  0.45319  0.16773  0.82339  1.0000
  H   H41       1.0  0.35994  0.08345  0.97162  1.0000
  H   H42       1.0  0.41272  0.01891  0.93338  1.0000
  H   H43       1.0  0.01201  0.38390  0.63783  1.0000
  H   H44       1.0  0.07012  0.33047  0.64196  1.0000
  H   H45       1.0  0.15537  0.45306  0.81747  1.0000
  H   H46       1.0  0.15739  0.53576  0.78670  1.0000
  H   H47       1.0  0.06886  0.65324  0.87044  1.0000
  H   H48       1.0  0.00962  0.59975  0.86362  1.0000
  H   H49       1.0  0.70226  0.29527  0.68910  1.0000
  H   H50       1.0  0.70791  0.70056  0.85540  1.0000
  H   H51       1.0  0.98766  0.56957  0.61455  1.0000
  H   H52       1.0  0.92990  0.62120  0.59341  1.0000
  H   H53       1.0  0.83952  0.53499  0.74479  1.0000
  H   H54       1.0  0.83836  0.45233  0.77398  1.0000
  H   H55       1.0  0.92586  0.36081  0.90336  1.0000
  H   H56       1.0  0.98498  0.41150  0.88195  1.0000
  C   C1        1.0  0.48138  0.89070  0.25681  1.0000
  C   C2        1.0  0.47682  0.09439  0.31906  1.0000
  C   C3        1.0  0.52627  0.89445  0.29709  1.0000
  C   C4        1.0  0.46580  0.04953  0.33386  1.0000
  C   C5        1.0  0.54070  0.94110  0.30735  1.0000
  C   C6        1.0  0.50368  0.01749  0.29531  1.0000
  C   C7        1.0  0.50478  0.96883  0.27931  1.0000
  C   C8        1.0  0.53846  0.04740  0.26843  1.0000
  C   C9        1.0  0.46862  0.93461  0.23952  1.0000
  C   C10       1.0  0.58118  0.03748  0.21920  1.0000
  C   C11       1.0  0.42813  0.93612  0.17404  1.0000
  C   C12       1.0  0.60712  0.07312  0.20052  1.0000
  C   C13       1.0  0.39964  0.89835  0.15335  1.0000
  C   C14       1.0  0.59164  0.11993  0.22351  1.0000
  C   C15       1.0  0.41093  0.85728  0.19008  1.0000
  C   C16       1.0  0.54775  0.12871  0.25591  1.0000
  C   C17       1.0  0.45310  0.85273  0.23424  1.0000
  C   C18       1.0  0.44678  0.13090  0.34341  1.0000
  C   C19       1.0  0.55350  0.86012  0.31652  1.0000
  C   C20       1.0  0.40448  0.12384  0.38571  1.0000
  C   C21       1.0  0.59684  0.87103  0.34502  1.0000
  C   C22       1.0  0.39445  0.08139  0.41649  1.0000
  C   C23       1.0  0.61015  0.91880  0.37238  1.0000
  C   C24       1.0  0.42476  0.04532  0.39567  1.0000
  C   C25       1.0  0.58269  0.95333  0.35655  1.0000
  C   C26       1.0  0.09558  0.46400  0.26496  1.0000
  C   C27       1.0  0.28844  0.71286  0.18899  1.0000
  C   C28       1.0  0.09635  0.51514  0.28561  1.0000
  C   C29       1.0  0.27749  0.26213  0.37821  1.0000
  C   C30       1.0  0.05368  0.53099  0.28857  1.0000
  C   C31       1.0  0.52206  0.09326  0.27875  1.0000
  C   C32       1.0  0.02488  0.48931  0.25590  1.0000
  C   C33       1.0  0.05291  0.44759  0.23631  1.0000
  C   C34       1.0  0.95705  0.41763  0.34316  1.0000
  C   C35       1.0  0.04614  0.39707  0.18170  1.0000
  C   C36       1.0  0.07865  0.36667  0.19145  1.0000
  C   C37       1.0  0.11962  0.38448  0.24714  1.0000
  C   C38       1.0  0.12821  0.43355  0.27300  1.0000
  C   C39       1.0  0.13035  0.54576  0.29426  1.0000
  C   C40       1.0  0.12303  0.59438  0.31170  1.0000
  C   C41       1.0  0.08077  0.61176  0.34341  1.0000
  C   C42       1.0  0.04674  0.58123  0.33577  1.0000
  C   C43       1.0  0.71087  0.27072  0.25378  1.0000
  C   C44       1.0  0.72273  0.72616  0.30145  1.0000
  C   C45       1.0  0.91031  0.51436  0.23628  1.0000
  C   C46       1.0  0.90875  0.47007  0.27299  1.0000
  C   C47       1.0  0.95114  0.45582  0.28573  1.0000
  C   C48       1.0  0.98071  0.48982  0.25088  1.0000
  C   C49       1.0  0.95352  0.52529  0.21625  1.0000
  C   C50       1.0  0.96205  0.56255  0.15537  1.0000
  C   C51       1.0  0.92927  0.59244  0.14376  1.0000
  C   C52       1.0  0.88686  0.58544  0.18634  1.0000
  C   C53       1.0  0.87771  0.54408  0.22453  1.0000
  C   C54       1.0  0.87409  0.44363  0.29318  1.0000
  C   C55       1.0  0.88072  0.40155  0.32986  1.0000
  C   C56       1.0  0.92246  0.39061  0.36098  1.0000
  C   C57       1.0  0.47657  0.89285  0.74885  1.0000
  C   C58       1.0  0.47373  0.09778  0.81928  1.0000
  C   C59       1.0  0.52148  0.89648  0.78899  1.0000
  C   C60       1.0  0.46214  0.05309  0.83441  1.0000
  C   C61       1.0  0.53582  0.94358  0.80419  1.0000
  C   C62       1.0  0.49937  0.02012  0.79280  1.0000
  C   C63       1.0  0.49999  0.97151  0.77709  1.0000
  C   C64       1.0  0.53460  0.04895  0.76341  1.0000
  C   C65       1.0  0.46370  0.93750  0.73753  1.0000
  C   C66       1.0  0.57717  0.03799  0.71288  1.0000
  C   C67       1.0  0.42273  0.93967  0.67821  1.0000
  C   C68       1.0  0.60363  0.07328  0.69433  1.0000
  C   C69       1.0  0.39420  0.90200  0.65864  1.0000
  C   C70       1.0  0.58895  0.12055  0.72068  1.0000
  C   C71       1.0  0.40583  0.85992  0.68808  1.0000
  C   C72       1.0  0.54539  0.13055  0.75667  1.0000
  C   C73       1.0  0.44844  0.85461  0.72449  1.0000
  C   C74       1.0  0.44426  0.13489  0.84494  1.0000
  C   C75       1.0  0.54887  0.86215  0.80762  1.0000
  C   C76       1.0  0.40195  0.12895  0.89088  1.0000
  C   C77       1.0  0.59184  0.87397  0.84523  1.0000
  C   C78       1.0  0.39162  0.08663  0.92262  1.0000
  C   C79       1.0  0.60486  0.92213  0.87671  1.0000
  C   C80       1.0  0.42133  0.04978  0.89968  1.0000
  C   C81       1.0  0.57749  0.95637  0.85804  1.0000
  C   C82       1.0  0.09115  0.46782  0.77178  1.0000
  C   C83       1.0  0.28307  0.71620  0.68792  1.0000
  C   C84       1.0  0.09131  0.51897  0.79221  1.0000
  C   C85       1.0  0.27770  0.26895  0.87259  1.0000
  C   C86       1.0  0.04846  0.53420  0.79321  1.0000
  C   C87       1.0  0.51900  0.09548  0.77736  1.0000
  C   C88       1.0  0.02009  0.49213  0.76091  1.0000
  C   C89       1.0  0.04873  0.45078  0.74091  1.0000
  C   C90       1.0  0.95393  0.41891  0.84422  1.0000
  C   C91       1.0  0.04260  0.40006  0.68286  1.0000
  C   C92       1.0  0.07574  0.36966  0.68692  1.0000
  C   C93       1.0  0.11668  0.38765  0.74232  1.0000
  C   C94       1.0  0.12416  0.43756  0.77835  1.0000
  C   C95       1.0  0.12516  0.54981  0.80072  1.0000
  C   C96       1.0  0.11766  0.59805  0.81425  1.0000
  C   C97       1.0  0.07528  0.61498  0.84394  1.0000
  C   C98       1.0  0.04132  0.58432  0.83752  1.0000
  C   C99       1.0  0.70995  0.26856  0.74730  1.0000
  C   C100      1.0  0.71634  0.72718  0.79694  1.0000
  C   C101      1.0  0.90504  0.51454  0.73509  1.0000
  C   C102      1.0  0.90438  0.47033  0.77332  1.0000
  C   C103      1.0  0.94704  0.45714  0.78766  1.0000
  C   C104      1.0  0.97595  0.49172  0.75342  1.0000
  C   C105      1.0  0.94812  0.52628  0.71616  1.0000
  C   C106      1.0  0.95602  0.56369  0.65585  1.0000
  C   C107      1.0  0.92284  0.59287  0.64288  1.0000
  C   C108      1.0  0.88046  0.58534  0.68391  1.0000
  C   C109      1.0  0.87199  0.54363  0.72167  1.0000
  C   C110      1.0  0.87057  0.44266  0.79290  1.0000
  C   C111      1.0  0.87817  0.40071  0.82920  1.0000
  C   C112      1.0  0.92014  0.39058  0.86008  1.0000
  N   N1        1.0  0.24030  0.24935  0.31398  1.0000
  N   N2        1.0  0.25096  0.72530  0.26209  1.0000
  N   N3        1.0  0.75905  0.72518  0.22354  1.0000
  N   N4        1.0  0.74762  0.27034  0.31966  1.0000
  N   N5        1.0  0.24013  0.25578  0.81374  1.0000
  N   N6        1.0  0.24534  0.72852  0.75560  1.0000
  N   N7        1.0  0.75285  0.72588  0.71998  1.0000
  N   N8        1.0  0.74637  0.26770  0.81432  1.0000
  C   C113      1.0  0.67483  0.16063  0.27673  1.0000
  C   C114      1.0  0.63144  0.15838  0.24497  1.0000
  C  Sn1       1.0  0.61213  0.19353  0.19633  1.0000
  C  Sn2       1.0  0.63680  0.23159  0.17922  1.0000
  C   C115      1.0  0.68019  0.23350  0.21116  1.0000
  C   C116      1.0  0.69919  0.19815  0.25982  1.0000
  H   H57       1.0  0.68954  0.13327  0.31428  1.0000
  O  Te1       1.0  0.56874  0.19074  0.16515  1.0000
  O  Te2       1.0  0.61830  0.26718  0.13072  1.0000
  H   H58       1.0  0.73279  0.19989  0.28429  1.0000
  Mg  Mg1       1.0  0.55803  0.24778  0.10229  1.0000
  C   C117      1.0  0.32692  0.83175  0.26554  1.0000
  C   C118      1.0  0.36929  0.82486  0.20757  1.0000
  C  Sn3       1.0  0.38633  0.77743  0.12531  1.0000
  C  Sn4       1.0  0.36037  0.73621  0.10078  1.0000
  C   C119      1.0  0.31801  0.74349  0.15913  1.0000
  C   C120      1.0  0.30129  0.79111  0.24133  1.0000
  H   H59       1.0  0.31398  0.86859  0.32905  1.0000
  O  Te3       1.0  0.42873  0.77120  0.06825  1.0000
  O  Te4       1.0  0.37658  0.68840  0.01891  1.0000
  H   H60       1.0  0.26848  0.79644  0.28609  1.0000
  Mg  Mg2       1.0  0.43070  0.80751  0.96396  1.0000
  C   C121      1.0  0.35839  0.24132  0.48075  1.0000
  C   C122      1.0  0.31910  0.23195  0.39853  1.0000
  C  Sn5       1.0  0.30442  0.18376  0.31712  1.0000
  C  Sn6       1.0  0.32961  0.14430  0.31829  1.0000
  C   C123      1.0  0.36885  0.15406  0.40101  1.0000
  C   C124      1.0  0.38324  0.20242  0.48203  1.0000
  H   H61       1.0  0.36952  0.27874  0.54353  1.0000
  O  Te5       1.0  0.26510  0.17505  0.23552  1.0000
  O  Te6       1.0  0.31569  0.09578  0.23798  1.0000
  H   H62       1.0  0.41365  0.20967  0.54578  1.0000
  Mg  Mg3       1.0  0.25987  0.10260  0.14386  1.0000
  C   C125      1.0  0.62147  0.78349  0.39596  1.0000
  C   C126      1.0  0.62548  0.82574  0.36017  1.0000
  C  Sn7       1.0  0.66354  0.83557  0.29029  1.0000
  C  Sn8       1.0  0.69817  0.80242  0.25571  1.0000
  C   C127      1.0  0.69383  0.76023  0.29186  1.0000
  C   C128      1.0  0.65561  0.75075  0.36183  1.0000
  H   H63       1.0  0.59189  0.77614  0.45001  1.0000
  O  Te7       1.0  0.66701  0.87797  0.25537  1.0000
  O  Te8       1.0  0.73657  0.81134  0.18583  1.0000
  H   H64       1.0  0.65250  0.71802  0.38942  1.0000
  Mg  Mg4       1.0  0.72580  0.87409  0.16054  1.0000
  C   C129      1.0  0.79940  0.60819  0.15149  1.0000
  C   C130      1.0  0.84313  0.61493  0.16793  1.0000
  C  Sn9       1.0  0.86035  0.66170  0.21329  1.0000
  C  Sn10      1.0  0.83322  0.70241  0.24270  1.0000
  C   C131      1.0  0.78951  0.69529  0.22605  1.0000
  C   C132      1.0  0.77261  0.64833  0.18054  1.0000
  H   H65       1.0  0.78632  0.57187  0.11638  1.0000
  O  Te9       1.0  0.90411  0.66778  0.22909  1.0000
  O  Te10      1.0  0.84959  0.74956  0.28825  1.0000
  H   H66       1.0  0.73875  0.64313  0.16794  1.0000
  Mg  Mg5       1.0  0.91133  0.73919  0.29381  1.0000
  C   C133      1.0  0.79204  0.38554  0.38254  1.0000
  C   C134      1.0  0.83552  0.37579  0.36110  1.0000
  C  Sn11      1.0  0.85069  0.32789  0.31378  1.0000
  C  Sn12      1.0  0.82170  0.28912  0.28747  1.0000
  C   C135      1.0  0.77826  0.29925  0.30912  1.0000
  C   C136      1.0  0.76343  0.34731  0.35655  1.0000
  H   H67       1.0  0.78056  0.42272  0.41914  1.0000
  O  Te11      1.0  0.89423  0.31880  0.29297  1.0000
  O  Te12      1.0  0.83600  0.24091  0.24005  1.0000
  H   H68       1.0  0.72976  0.35485  0.37302  1.0000
  Mg  Mg6       1.0  0.89828  0.24699  0.22744  1.0000
  C   C137      1.0  0.14152  0.29909  0.31361  1.0000
  C   C138      1.0  0.14810  0.34319  0.29250  1.0000
  C  Sn13      1.0  0.18898  0.35704  0.26366  1.0000
  C  Sn14      1.0  0.22385  0.32610  0.25584  1.0000
  C   C139      1.0  0.21693  0.28205  0.27700  1.0000
  C   C140      1.0  0.17589  0.26855  0.30585  1.0000
  H   H69       1.0  0.10977  0.28863  0.33583  1.0000
  O  Te13      1.0  0.19499  0.40123  0.24290  1.0000
  O  Te14      1.0  0.26503  0.33905  0.22712  1.0000
  H   H70       1.0  0.17081  0.23439  0.32208  1.0000
  Mg  Mg7       1.0  0.25708  0.40291  0.20668  1.0000
  C   C141      1.0  0.16817  0.69437  0.23417  1.0000
  C   C142      1.0  0.21081  0.69591  0.27794  1.0000
  C  Sn15      1.0  0.22796  0.65958  0.32623  1.0000
  C  Sn16      1.0  0.20184  0.62102  0.33060  1.0000
  C   C143      1.0  0.15923  0.61978  0.28645  1.0000
  C   C144      1.0  0.14239  0.65634  0.23839  1.0000
  H   H71       1.0  0.15514  0.72263  0.19688  1.0000
  O  Te15      1.0  0.27062  0.66169  0.36963  1.0000
  O  Te16      1.0  0.21817  0.58423  0.37832  1.0000
  H   H72       1.0  0.10938  0.65511  0.20439  1.0000
  Mg  Mg8       1.0  0.27822  0.60308  0.42627  1.0000
  C   C145      1.0  0.67275  0.15893  0.76817  1.0000
  C   C146      1.0  0.62926  0.15759  0.73917  1.0000
  C  Sn17      1.0  0.61016  0.19360  0.69456  1.0000
  C  Sn18      1.0  0.63515  0.23160  0.67875  1.0000
  C   C147      1.0  0.67864  0.23260  0.70790  1.0000
  C   C148      1.0  0.69743  0.19639  0.75253  1.0000
  H   H73       1.0  0.68730  0.13091  0.80261  1.0000
  O  Te17      1.0  0.56666  0.19172  0.66610  1.0000
  O  Te18      1.0  0.61687  0.26804  0.63426  1.0000
  H   H74       1.0  0.73110  0.19742  0.77486  1.0000
  Mg  Mg9       1.0  0.55634  0.24971  0.60839  1.0000
  C   C149      1.0  0.30645  0.81670  0.77616  1.0000
  C   C150      1.0  0.30896  0.76540  0.69471  1.0000
  C  Sn19      1.0  0.34655  0.74219  0.60944  1.0000
  C  Sn20      1.0  0.38224  0.77097  0.60590  1.0000
  C   C151      1.0  0.37942  0.82226  0.68789  1.0000
  C   C152      1.0  0.34164  0.84510  0.77280  1.0000
  H   H75       1.0  0.27723  0.83438  0.84194  1.0000
  O  Te19      1.0  0.34850  0.69091  0.52867  1.0000
  O  Te20      1.0  0.42021  0.74872  0.52167  1.0000
  H   H76       1.0  0.33972  0.88482  0.83595  1.0000
  Mg  Mg10      1.0  0.40725  0.67766  0.43051  1.0000
  C   C153      1.0  0.37571  0.22902  0.97093  1.0000
  C   C154      1.0  0.37129  0.17876  0.92945  1.0000
  C  Sn21      1.0  0.33406  0.15463  0.85401  1.0000
  C  Sn22      1.0  0.30068  0.18142  0.81956  1.0000
  C   C155      1.0  0.30542  0.23169  0.86142  1.0000
  C   C156      1.0  0.34281  0.25547  0.93693  1.0000
  H   H77       1.0  0.41020  0.13873  0.02926  1.0000
  O  Te21      1.0  0.33017  0.10440  0.81344  1.0000
  O  Te22      1.0  0.26313  0.15821  0.74419  1.0000
  H   H78       1.0  0.34622  0.29438  0.96893  1.0000
  Mg  Mg11      1.0  0.27288  0.08920  0.71238  1.0000
  C   C157      1.0  0.69223  0.81544  0.75750  1.0000
  C   C158      1.0  0.68937  0.77687  0.81510  1.0000
  C  Sn23      1.0  0.65110  0.76739  0.88452  1.0000
  C  Sn24      1.0  0.61508  0.79713  0.89628  1.0000
  C   C159      1.0  0.61827  0.83560  0.83818  1.0000
  C   C160      1.0  0.65672  0.84477  0.76899  1.0000
  H   H79       1.0  0.72197  0.82252  0.70387  1.0000
  O  Te23      1.0  0.64879  0.72873  0.94152  1.0000
  O  Te24      1.0  0.57644  0.78846  0.96505  1.0000
  H   H80       1.0  0.65892  0.87462  0.72430  1.0000
  Mg  Mg12      1.0  0.59470  0.62277  0.02545  1.0000
  C   C161      1.0  0.85352  0.68207  0.72238  1.0000
  C   C162      1.0  0.84951  0.63337  0.70463  1.0000
  C  Sn25      1.0  0.81011  0.61039  0.67084  1.0000
  C  Sn26      1.0  0.77412  0.63675  0.65453  1.0000
  C   C163      1.0  0.77847  0.68545  0.67238  1.0000
  C   C164      1.0  0.81804  0.70809  0.70624  1.0000
  H   H81       1.0  0.88414  0.69959  0.74848  1.0000
  O  Te25      1.0  0.80666  0.56172  0.65354  1.0000
  O  Te26      1.0  0.73437  0.61467  0.62071  1.0000
  H   H82       1.0  0.82114  0.74579  0.71986  1.0000
  Mg  Mg13      1.0  0.74574  0.54763  0.60786  1.0000
  C   C165      1.0  0.83051  0.28715  0.77520  1.0000
  C   C166      1.0  0.78844  0.29804  0.83448  1.0000
  C  Sn27      1.0  0.77308  0.34619  0.89217  1.0000
  C  Sn28      1.0  0.80040  0.38406  0.89027  1.0000
  C   C167      1.0  0.84243  0.37278  0.83060  1.0000
  C   C168      1.0  0.85749  0.32448  0.77322  1.0000
  H   H83       1.0  0.84216  0.24978  0.73071  1.0000
  O  Te27      1.0  0.73096  0.35643  0.95104  1.0000
  O  Te28      1.0  0.78586  0.43249  0.94713  1.0000
  H   H84       1.0  0.89005  0.31606  0.72722  1.0000
  Mg  Mg14      1.0  0.73149  0.31942  0.01549  1.0000
  C   C169      1.0  0.15691  0.28682  0.82524  1.0000
  C   C170      1.0  0.20047  0.28495  0.78931  1.0000
  C  Sn29      1.0  0.21975  0.32110  0.74403  1.0000
  C  Sn30      1.0  0.19488  0.35980  0.73472  1.0000
  C   C171      1.0  0.15132  0.36136  0.77104  1.0000
  C   C172      1.0  0.13235  0.32499  0.81616  1.0000
  H   H85       1.0  0.14223  0.25870  0.86025  1.0000
  O  Te29      1.0  0.26332  0.31867  0.70847  1.0000
  O  Te30      1.0  0.21334  0.39642  0.68985  1.0000
  H   H86       1.0  0.09862  0.32647  0.84409  1.0000
  Mg  Mg15      1.0  0.27389  0.37714  0.65300  1.0000
  C   C173      1.0  0.20619  0.62560  0.82504  1.0000
  C   C174      1.0  0.16231  0.62970  0.81675  1.0000
  C  Sn31      1.0  0.14489  0.66587  0.76833  1.0000
  C  Sn32      1.0  0.17197  0.69848  0.72748  1.0000
  C   C175      1.0  0.21583  0.69406  0.73604  1.0000
  C   C176      1.0  0.23292  0.65774  0.78470  1.0000
  H   H87       1.0  0.21942  0.59748  0.86259  1.0000
  O  Te31      1.0  0.10099  0.66947  0.76077  1.0000
  O  Te32      1.0  0.15540  0.73496  0.67864  1.0000
  H   H88       1.0  0.26689  0.65455  0.79100  1.0000
  Mg  Mg16      1.0  0.09352  0.72520  0.68741  1.0000
