data_image0
_chemical_formula_structural       H56C108N12C2Sn2C2HTe2HMgC2Sn2C2HTe2HMgC2Sn2C2HTe2HMgC2Sn2C2HTe2HMgC2Sn2C2HTe2HMgC2Sn2C2HTe2HMgC2Sn2C2HTe2HMgC2Sn2C2HTe2HMgC2Sn2C2HTe2HMgC2Sn2C2HTe2HMgC2Sn2C2HTe2HMgC2Sn2C2HTe2HMgC2Sn2C2HTe2HMgC2Sn2C2HTe2HMgC2Sn2C2HTe2HMgC2Sn2C2HTe2HMg
_chemical_formula_sum              "H88 C172 N12 Sn32 Te32 Mg16"
_cell_length_a       31.5314
_cell_length_b       28.6097
_cell_length_c       8.13901
_cell_angle_alpha    95.7396
_cell_angle_beta     93.4245
_cell_angle_gamma    90.0888

_symmetry_space_group_name_H-M    'P1'
_space_group_IT_number       1

loop_
  _space_group_symop_operation_xyz
  'x, y, z'

loop_
  _atom_site_type_symbol
  _atom_site_label
  _atom_site_symmetry_multiplicity
  _atom_site_fract_x
  _atom_site_fract_y
  _atom_site_fract_z
  _atom_site_occupancy
  H   H1        1.0  0.36601  0.92245  0.06480  1.0000
  H   H2        1.0  0.63446  0.07556  0.08752  1.0000
  H   H3        1.0  0.64046  0.92617  0.44687  1.0000
  H   H4        1.0  0.36935  0.07740  0.44683  1.0000
  H   H5        1.0  0.46220  0.82457  0.20640  1.0000
  H   H6        1.0  0.53430  0.17478  0.19190  1.0000
  H   H7        1.0  0.53885  0.82583  0.31779  1.0000
  H   H8        1.0  0.46085  0.17588  0.30378  1.0000
  H   H9        1.0  0.29070  0.69065  0.13652  1.0000
  H   H10       1.0  0.70590  0.30989  0.13275  1.0000
  H   H11       1.0  0.71106  0.69215  0.37043  1.0000
  H   H12       1.0  0.28655  0.30492  0.34960  1.0000
  H   H13       1.0  0.06432  0.63698  0.02306  1.0000
  H   H14       1.0  0.93366  0.34946  0.03580  1.0000
  H   H15       1.0  0.94064  0.65328  0.43645  1.0000
  H   H16       1.0  0.06396  0.36078  0.45592  1.0000
  H   H17       1.0  0.00630  0.58487  0.09294  1.0000
  H   H18       1.0  0.99358  0.40492  0.10519  1.0000
  H   H19       1.0  0.99790  0.59863  0.35811  1.0000
  H   H20       1.0  0.00622  0.41431  0.37821  1.0000
  H   H21       1.0  0.15839  0.54222  0.20031  1.0000
  H   H22       1.0  0.84407  0.45617  0.18816  1.0000
  H   H23       1.0  0.84612  0.54536  0.30093  1.0000
  H   H24       1.0  0.15800  0.45566  0.31196  1.0000
  H   H25       1.0  0.41595  0.98783  0.13197  1.0000
  H   H26       1.0  0.58974  0.01120  0.15700  1.0000
  H   H27       1.0  0.59320  0.99077  0.38565  1.0000
  H   H28       1.0  0.41933  0.01296  0.39785  1.0000
  H   H29       1.0  0.36417  0.92223  0.56946  1.0000
  H   H30       1.0  0.63453  0.07464  0.58480  1.0000
  H   H31       1.0  0.63933  0.92634  0.94463  1.0000
  H   H32       1.0  0.37143  0.08013  0.96198  1.0000
  H   H33       1.0  0.46186  0.82504  0.70225  1.0000
  H   H34       1.0  0.53527  0.17507  0.68515  1.0000
  H   H35       1.0  0.53726  0.82641  0.81648  1.0000
  H   H36       1.0  0.46069  0.17671  0.79210  1.0000
  H   H37       1.0  0.29028  0.69064  0.63944  1.0000
  H   H38       1.0  0.70868  0.30688  0.63392  1.0000
  H   H39       1.0  0.71006  0.69212  0.86368  1.0000
  H   H40       1.0  0.28830  0.30913  0.86107  1.0000
  H   H41       1.0  0.06336  0.63998  0.53937  1.0000
  H   H42       1.0  0.93379  0.35053  0.52691  1.0000
  H   H43       1.0  0.93875  0.65301  0.94262  1.0000
  H   H44       1.0  0.06331  0.36099  0.95474  1.0000
  H   H45       1.0  0.00522  0.58732  0.60214  1.0000
  H   H46       1.0  0.99317  0.40643  0.59984  1.0000
  H   H47       1.0  0.99612  0.59883  0.86222  1.0000
  H   H48       1.0  0.00533  0.41495  0.88026  1.0000
  H   H49       1.0  0.15716  0.54265  0.70052  1.0000
  H   H50       1.0  0.84344  0.45479  0.69321  1.0000
  H   H51       1.0  0.84472  0.54465  0.80706  1.0000
  H   H52       1.0  0.15689  0.45550  0.80679  1.0000
  H   H53       1.0  0.41341  0.98829  0.63758  1.0000
  H   H54       1.0  0.58888  0.01072  0.65377  1.0000
  H   H55       1.0  0.59191  0.99124  0.88609  1.0000
  H   H56       1.0  0.42003  0.01518  0.90520  1.0000
  C   C1        1.0  0.47955  0.89760  0.23576  1.0000
  C   C2        1.0  0.52245  0.10325  0.23551  1.0000
  C   C3        1.0  0.52458  0.89809  0.28937  1.0000
  C   C4        1.0  0.47881  0.10337  0.28689  1.0000
  C   C5        1.0  0.53933  0.94557  0.30355  1.0000
  C   C6        1.0  0.46734  0.05622  0.30684  1.0000
  C   C7        1.0  0.46685  0.94481  0.22172  1.0000
  C   C8        1.0  0.53766  0.05619  0.22977  1.0000
  C   C9        1.0  0.42604  0.95257  0.15288  1.0000
  C   C10       1.0  0.57783  0.04683  0.17045  1.0000
  C   C11       1.0  0.58112  0.95501  0.36612  1.0000
  C   C12       1.0  0.42823  0.04802  0.37198  1.0000
  C   C13       1.0  0.39789  0.91506  0.11321  1.0000
  C   C14       1.0  0.60277  0.08344  0.12782  1.0000
  C   C15       1.0  0.60774  0.91823  0.40328  1.0000
  C   C16       1.0  0.40015  0.08499  0.40200  1.0000
  C   C17       1.0  0.40928  0.86838  0.13767  1.0000
  C   C18       1.0  0.58857  0.13044  0.13844  1.0000
  C   C19       1.0  0.59389  0.87092  0.38248  1.0000
  C   C20       1.0  0.41012  0.13156  0.37301  1.0000
  C   C21       1.0  0.45144  0.86025  0.19547  1.0000
  C   C22       1.0  0.54722  0.13951  0.19027  1.0000
  C   C23       1.0  0.55119  0.86159  0.32755  1.0000
  C   C24       1.0  0.45089  0.14025  0.31911  1.0000
  C   C25       1.0  0.28188  0.72200  0.07420  1.0000
  C   C26       1.0  0.71312  0.27410  0.07904  1.0000
  C   C27       1.0  0.71948  0.72701  0.43388  1.0000
  C   C28       1.0  0.28027  0.27366  0.41343  1.0000
  C   C29       1.0  0.11531  0.59364  0.10946  1.0000
  C   C30       1.0  0.88468  0.39882  0.10614  1.0000
  C   C31       1.0  0.88932  0.60327  0.37652  1.0000
  C   C32       1.0  0.11501  0.40417  0.38822  1.0000
  C   C33       1.0  0.07204  0.60488  0.07937  1.0000
  C   C34       1.0  0.92726  0.38546  0.08371  1.0000
  C   C35       1.0  0.93258  0.61714  0.39054  1.0000
  C   C36       1.0  0.07183  0.39347  0.40655  1.0000
  C   C37       1.0  0.03923  0.57577  0.11604  1.0000
  C   C38       1.0  0.96132  0.41665  0.12015  1.0000
  C   C39       1.0  0.96530  0.58631  0.34872  1.0000
  C   C40       1.0  0.03905  0.42360  0.36581  1.0000
  C   C41       1.0  0.04983  0.53451  0.18496  1.0000
  C   C42       1.0  0.95262  0.46281  0.18084  1.0000
  C   C43       1.0  0.95469  0.53977  0.29235  1.0000
  C   C44       1.0  0.04961  0.46543  0.30364  1.0000
  C   C45       1.0  0.09290  0.52166  0.21395  1.0000
  C   C46       1.0  0.91010  0.47701  0.20476  1.0000
  C   C47       1.0  0.91140  0.52526  0.27452  1.0000
  C   C48       1.0  0.09275  0.47754  0.28584  1.0000
  C   C49       1.0  0.12533  0.55124  0.17476  1.0000
  C   C50       1.0  0.87646  0.44528  0.16585  1.0000
  C   C51       1.0  0.87920  0.55670  0.31785  1.0000
  C   C52       1.0  0.12508  0.44707  0.32998  1.0000
  C   C53       1.0  0.50354  0.97637  0.26526  1.0000
  C   C54       1.0  0.50338  0.02518  0.26974  1.0000
  C   C55       1.0  0.47831  0.89833  0.73550  1.0000
  C   C56       1.0  0.52225  0.10366  0.72873  1.0000
  C   C57       1.0  0.52330  0.89879  0.78852  1.0000
  C   C58       1.0  0.47864  0.10433  0.78112  1.0000
  C   C59       1.0  0.53806  0.94622  0.80314  1.0000
  C   C60       1.0  0.46708  0.05744  0.80447  1.0000
  C   C61       1.0  0.46535  0.94556  0.72293  1.0000
  C   C62       1.0  0.53706  0.05642  0.72437  1.0000
  C   C63       1.0  0.42421  0.95309  0.65614  1.0000
  C   C64       1.0  0.57725  0.04646  0.66617  1.0000
  C   C65       1.0  0.57990  0.95547  0.86565  1.0000
  C   C66       1.0  0.42868  0.04998  0.87573  1.0000
  C   C67       1.0  0.39637  0.91523  0.61557  1.0000
  C   C68       1.0  0.60274  0.08268  0.62386  1.0000
  C   C69       1.0  0.60651  0.91853  0.90195  1.0000
  C   C70       1.0  0.40118  0.08729  0.90828  1.0000
  C   C71       1.0  0.40840  0.86850  0.63672  1.0000
  C   C72       1.0  0.58906  0.12982  0.63419  1.0000
  C   C73       1.0  0.59251  0.87123  0.88047  1.0000
  C   C74       1.0  0.41063  0.13347  0.87279  1.0000
  C   C75       1.0  0.45063  0.86069  0.69369  1.0000
  C   C76       1.0  0.54763  0.13955  0.68419  1.0000
  C   C77       1.0  0.54975  0.86212  0.82619  1.0000
  C   C78       1.0  0.45095  0.14145  0.81330  1.0000
  C   C79       1.0  0.28178  0.72163  0.57472  1.0000
  C   C80       1.0  0.71496  0.27164  0.57293  1.0000
  C   C81       1.0  0.71809  0.72690  0.92894  1.0000
  C   C82       1.0  0.28087  0.27608  0.91237  1.0000
  C   C83       1.0  0.11428  0.59518  0.61660  1.0000
  C   C84       1.0  0.88446  0.39857  0.60486  1.0000
  C   C85       1.0  0.88769  0.60273  0.88217  1.0000
  C   C86       1.0  0.11397  0.40430  0.88457  1.0000
  C   C87       1.0  0.07104  0.60705  0.59023  1.0000
  C   C88       1.0  0.92708  0.38604  0.57912  1.0000
  C   C89       1.0  0.93084  0.61686  0.89633  1.0000
  C   C90       1.0  0.07088  0.39369  0.90466  1.0000
  C   C91       1.0  0.03809  0.57769  0.62403  1.0000
  C   C92       1.0  0.96082  0.41754  0.61693  1.0000
  C   C93       1.0  0.96363  0.58627  0.85399  1.0000
  C   C94       1.0  0.03808  0.42399  0.86523  1.0000
  C   C95       1.0  0.04854  0.53559  0.68783  1.0000
  C   C96       1.0  0.95173  0.46317  0.68192  1.0000
  C   C97       1.0  0.95329  0.53973  0.79710  1.0000
  C   C98       1.0  0.04850  0.46577  0.80240  1.0000
  C   C99       1.0  0.09163  0.52236  0.71453  1.0000
  C   C100      1.0  0.90915  0.47673  0.70818  1.0000
  C   C101      1.0  0.91011  0.52483  0.77980  1.0000
  C   C102      1.0  0.09157  0.47780  0.78348  1.0000
  C   C103      1.0  0.12411  0.55209  0.67715  1.0000
  C   C104      1.0  0.87587  0.44459  0.66871  1.0000
  C   C105      1.0  0.87776  0.55609  0.82369  1.0000
  C   C106      1.0  0.12398  0.44714  0.82592  1.0000
  C   C107      1.0  0.50226  0.97710  0.76524  1.0000
  C   C108      1.0  0.50260  0.02587  0.76650  1.0000
  N   N1        1.0  0.24389  0.26725  0.47272  1.0000
  N   N2        1.0  0.75800  0.73746  0.48791  1.0000
  N   N3        1.0  0.75037  0.26315  0.03101  1.0000
  N   N4        1.0  0.24340  0.72839  0.01813  1.0000
  N   N5        1.0  0.02374  0.50033  0.24102  1.0000
  N   N6        1.0  0.97967  0.50125  0.23547  1.0000
  N   N7        1.0  0.24359  0.26783  0.96082  1.0000
  N   N8        1.0  0.75638  0.73741  0.98526  1.0000
  N   N9        1.0  0.75168  0.26106  0.51846  1.0000
  N   N10       1.0  0.24336  0.72793  0.51756  1.0000
  N   N11       1.0  0.02254  0.50100  0.74210  1.0000
  N   N12       1.0  0.97849  0.50167  0.73818  1.0000
  C   C109      1.0  0.31149  0.81141  0.99010  1.0000
  C   C110      1.0  0.29763  0.73836  0.04636  1.0000
  C  Sn1       1.0  0.33289  0.72516  0.14288  1.0000
  C  Sn2       1.0  0.36713  0.75727  0.18366  1.0000
  C   C111      1.0  0.36522  0.80180  0.12687  1.0000
  C   C112      1.0  0.32979  0.81463  0.03033  1.0000
  H   H57       1.0  0.28407  0.82136  0.91548  1.0000
  O  Te1       1.0  0.33397  0.68048  0.19801  1.0000
  O  Te2       1.0  0.40275  0.74500  0.27999  1.0000
  H   H58       1.0  0.34401  0.87764  0.98688  1.0000
  Mg  Mg1       1.0  0.38942  0.68008  0.32581  1.0000
  C   C113      1.0  0.63175  0.24637  0.17428  1.0000
  C   C114      1.0  0.67035  0.24283  0.09821  1.0000
  C  Sn3       1.0  0.68187  0.20051  0.01202  1.0000
  C  Sn4       1.0  0.65416  0.16107  0.00196  1.0000
  C   C115      1.0  0.61560  0.16498  0.07839  1.0000
  C   C116      1.0  0.60439  0.20750  0.16438  1.0000
  H   H59       1.0  0.62306  0.27927  0.24074  1.0000
  O  Te3       1.0  0.73602  0.22605  0.93679  1.0000
  O  Te4       1.0  0.68034  0.14683  0.91655  1.0000
  H   H60       1.0  0.57449  0.21024  0.22317  1.0000
  Mg  Mg2       1.0  0.73651  0.16026  0.83459  1.0000
  C   C117      1.0  0.62095  0.77526  0.31581  1.0000
  C   C118      1.0  0.62016  0.82058  0.39740  1.0000
  C  Sn5       1.0  0.65447  0.83743  0.50353  1.0000
  C  Sn6       1.0  0.69018  0.80828  0.52815  1.0000
  C   C119      1.0  0.69067  0.76300  0.44586  1.0000
  C   C120      1.0  0.65617  0.74649  0.33997  1.0000
  H   H61       1.0  0.59426  0.76249  0.23381  1.0000
  O  Te5       1.0  0.65316  0.88279  0.58412  1.0000
  O  Te6       1.0  0.72491  0.82423  0.63349  1.0000
  H   H62       1.0  0.65680  0.71141  0.27674  1.0000
  Mg  Mg3       1.0  0.70819  0.88867  0.71545  1.0000
  C   C121      1.0  0.36237  0.24261  0.32389  1.0000
  C   C122      1.0  0.32304  0.24176  0.39418  1.0000
  C  Sn7       1.0  0.31170  0.20372  0.47785  1.0000
  C  Sn8       1.0  0.34034  0.16589  0.49124  1.0000
  C   C123      1.0  0.37962  0.16710  0.42059  1.0000
  C   C124      1.0  0.39064  0.20533  0.33709  1.0000
  H   H63       1.0  0.37090  0.27220  0.25936  1.0000
  O  Te7       1.0  0.27228  0.20342  0.54729  1.0000
  O  Te8       1.0  0.32982  0.12745  0.57423  1.0000
  H   H64       1.0  0.42110  0.20599  0.28278  1.0000
  Mg  Mg4       1.0  0.27241  0.14321  0.64814  1.0000
  C   C125      1.0  0.21530  0.63298  0.98593  1.0000
  C   C126      1.0  0.19911  0.65348  0.01445  1.0000
  C  Sn9       1.0  0.16455  0.67596  0.08690  1.0000
  C  Sn10      1.0  0.13014  0.64883  0.13154  1.0000
  C   C127      1.0  0.13119  0.59985  0.10260  1.0000
  C   C128      1.0  0.16592  0.57771  0.02998  1.0000
  H   H65       1.0  0.24218  0.61585  0.92983  1.0000
  O  Te9       1.0  0.16433  0.72492  0.11447  1.0000
  O  Te10      1.0  0.09521  0.67040  0.20419  1.0000
  H   H66       1.0  0.16648  0.53980  0.00802  1.0000
  Mg  Mg5       1.0  0.10961  0.73810  0.21676  1.0000
  C   C129      1.0  0.78086  0.35388  0.97712  1.0000
  C   C130      1.0  0.76494  0.27933  0.02014  1.0000
  C  Sn11      1.0  0.80046  0.26132  0.10264  1.0000
  C  Sn12      1.0  0.83707  0.29005  0.14269  1.0000
  C   C131      1.0  0.83720  0.33611  0.09921  1.0000
  C   C132      1.0  0.80149  0.35377  0.01663  1.0000
  H   H67       1.0  0.75322  0.36756  0.91331  1.0000
  O  Te11      1.0  0.79946  0.21521  0.14465  1.0000
  O  Te12      1.0  0.87300  0.27294  0.22515  1.0000
  H   H68       1.0  0.81731  0.41793  0.98344  1.0000
  Mg  Mg6       1.0  0.85627  0.20782  0.25624  1.0000
  C   C133      1.0  0.85546  0.69629  0.37216  1.0000
  C   C134      1.0  0.85823  0.64977  0.41006  1.0000
  C  Sn13      1.0  0.82431  0.62883  0.47877  1.0000
  C  Sn14      1.0  0.78697  0.65503  0.50993  1.0000
  C   C135      1.0  0.78450  0.70153  0.47146  1.0000
  C   C136      1.0  0.81863  0.72214  0.40279  1.0000
  H   H69       1.0  0.88186  0.71223  0.31894  1.0000
  O  Te13      1.0  0.82762  0.58233  0.51595  1.0000
  O  Te14      1.0  0.75259  0.63496  0.57846  1.0000
  H   H70       1.0  0.81647  0.75815  0.37335  1.0000
  Mg  Mg7       1.0  0.77228  0.57048  0.60786  1.0000
  C   C137      1.0  0.16059  0.29051  0.38516  1.0000
  C   C138      1.0  0.20286  0.29748  0.44453  1.0000
  C  Sn15      1.0  0.21780  0.34255  0.50148  1.0000
  C  Sn16      1.0  0.18982  0.38130  0.49883  1.0000
  C   C139      1.0  0.14758  0.37396  0.43930  1.0000
  C   C140      1.0  0.13297  0.32871  0.38256  1.0000
  H   H71       1.0  0.14927  0.25550  0.34134  1.0000
  O  Te15      1.0  0.26014  0.34889  0.56033  1.0000
  O  Te16      1.0  0.20392  0.42671  0.55506  1.0000
  H   H72       1.0  0.10023  0.32332  0.33670  1.0000
  Mg  Mg8       1.0  0.26438  0.41748  0.62365  1.0000
  C   C141      1.0  0.31197  0.80983  0.48274  1.0000
  C   C142      1.0  0.31325  0.76594  0.54427  1.0000
  C  Sn17      1.0  0.34798  0.75375  0.64566  1.0000
  C  Sn18      1.0  0.38199  0.78619  0.68603  1.0000
  C   C143      1.0  0.38038  0.83003  0.62395  1.0000
  C   C144      1.0  0.34549  0.84186  0.52255  1.0000
  H   H73       1.0  0.28496  0.81900  0.40437  1.0000
  O  Te17      1.0  0.34876  0.70974  0.70601  1.0000
  O  Te18      1.0  0.41707  0.77493  0.78715  1.0000
  H   H74       1.0  0.34449  0.87586  0.47503  1.0000
  Mg  Mg9       1.0  0.40349  0.71064  0.83915  1.0000
  C   C145      1.0  0.67960  0.17965  0.47337  1.0000
  C   C146      1.0  0.68156  0.22649  0.54132  1.0000
  C  Sn19      1.0  0.65105  0.24412  0.64830  1.0000
  C  Sn20      1.0  0.61801  0.21422  0.68779  1.0000
  C   C147      1.0  0.61634  0.16740  0.61926  1.0000
  C   C148      1.0  0.64703  0.15012  0.51230  1.0000
  H   H75       1.0  0.70336  0.16627  0.39069  1.0000
  O  Te19      1.0  0.65348  0.29101  0.71505  1.0000
  O  Te20      1.0  0.58711  0.23093  0.79442  1.0000
  H   H76       1.0  0.64551  0.11385  0.45980  1.0000
  Mg  Mg10      1.0  0.60396  0.29744  0.85411  1.0000
  C   C149      1.0  0.62029  0.77616  0.80484  1.0000
  C   C150      1.0  0.61867  0.82061  0.89256  1.0000
  C  Sn21      1.0  0.63656  0.80797  0.00521  1.0000
  C  Sn22      1.0  0.67216  0.77868  0.03020  1.0000
  C   C151      1.0  0.68895  0.76276  0.94174  1.0000
  C   C152      1.0  0.65540  0.74725  0.82936  1.0000
  H   H77       1.0  0.59434  0.76417  0.71781  1.0000
  O  Te21      1.0  0.63442  0.85247  0.09188  1.0000
  O  Te22      1.0  0.70594  0.79364  0.14199  1.0000
  H   H78       1.0  0.65668  0.71285  0.76137  1.0000
  Mg  Mg11      1.0  0.68832  0.85714  0.23077  1.0000
  C   C153      1.0  0.38110  0.22732  0.82651  1.0000
  C   C154      1.0  0.38216  0.18349  0.88851  1.0000
  C  Sn23      1.0  0.34699  0.16720  0.96318  1.0000
  C  Sn24      1.0  0.31012  0.19539  0.97581  1.0000
  C   C155      1.0  0.30937  0.23917  0.91330  1.0000
  C   C156      1.0  0.34474  0.25514  0.83886  1.0000
  H   H79       1.0  0.40846  0.23967  0.76883  1.0000
  O  Te23      1.0  0.33313  0.09485  0.02452  1.0000
  O  Te24      1.0  0.25906  0.15147  0.04980  1.0000
  H   H80       1.0  0.34390  0.28906  0.79078  1.0000
  Mg  Mg12      1.0  0.27660  0.08916  0.11480  1.0000
  C   C157      1.0  0.14691  0.68948  0.63448  1.0000
  C   C158      1.0  0.14507  0.64099  0.59087  1.0000
  C  Sn25      1.0  0.17931  0.61781  0.51858  1.0000
  C  Sn26      1.0  0.21605  0.64376  0.48961  1.0000
  C   C159      1.0  0.21759  0.69226  0.53379  1.0000
  C   C160      1.0  0.18314  0.71510  0.60600  1.0000
  H   H81       1.0  0.12026  0.70716  0.69044  1.0000
  O  Te25      1.0  0.17694  0.56935  0.47571  1.0000
  O  Te26      1.0  0.25074  0.62148  0.41760  1.0000
  H   H82       1.0  0.18458  0.75264  0.63985  1.0000
  Mg  Mg13      1.0  0.23236  0.55485  0.38074  1.0000
  C   C161      1.0  0.83534  0.28692  0.61000  1.0000
  C   C162      1.0  0.79329  0.29190  0.55011  1.0000
  C  Sn27      1.0  0.77978  0.33412  0.49246  1.0000
  C  Sn28      1.0  0.80899  0.37200  0.49493  1.0000
  C   C163      1.0  0.85099  0.36666  0.55498  1.0000
  C   C164      1.0  0.86417  0.32426  0.61241  1.0000
  H   H83       1.0  0.84554  0.25411  0.65436  1.0000
  O  Te27      1.0  0.73766  0.33851  0.43310  1.0000
  O  Te28      1.0  0.79634  0.41458  0.43800  1.0000
  H   H84       1.0  0.89673  0.32040  0.65867  1.0000
  Mg  Mg14      1.0  0.73559  0.40348  0.36891  1.0000
  C   C165      1.0  0.83681  0.71338  0.88626  1.0000
  C   C166      1.0  0.79715  0.70744  0.94962  1.0000
  C  Sn29      1.0  0.77100  0.63633  0.00715  1.0000
  C  Sn30      1.0  0.80064  0.59903  0.00102  1.0000
  C   C167      1.0  0.85571  0.63381  0.93752  1.0000
  C   C168      1.0  0.86607  0.67661  0.88024  1.0000
  H   H85       1.0  0.84484  0.74650  0.84202  1.0000
  O  Te29      1.0  0.73123  0.63099  0.07000  1.0000
  O  Te30      1.0  0.79079  0.55606  0.05775  1.0000
  H   H86       1.0  0.89680  0.68121  0.83129  1.0000
  Mg  Mg15      1.0  0.73255  0.56582  0.13240  1.0000
  C   C169      1.0  0.18196  0.35129  0.01729  1.0000
  C   C170      1.0  0.15769  0.37412  0.93174  1.0000
  C  Sn31      1.0  0.14413  0.32977  0.86029  1.0000
  C  Sn32      1.0  0.17090  0.29041  0.87501  1.0000
  C   C171      1.0  0.21058  0.29642  0.96095  1.0000
  C   C172      1.0  0.20838  0.31248  0.03192  1.0000
  H   H87       1.0  0.19222  0.38575  0.07228  1.0000
  O  Te31      1.0  0.10435  0.32476  0.77520  1.0000
  O  Te32      1.0  0.15813  0.24569  0.80485  1.0000
  H   H88       1.0  0.23913  0.31684  0.09824  1.0000
  Mg  Mg16      1.0  0.10111  0.25670  0.70096  1.0000
