data_image0
_chemical_formula_structural       H30C57N4SnCSn2CSnTe4Mg2SnCSn2CSnTe4Mg2SnCSn2CSnTe4Mg2SnCSn2CSnTe4Mg2SnCSn2CSnTe4Mg2SnCSn2CSnTe4Mg2
_chemical_formula_sum              "H30 C69 N4 Sn24 Te24 Mg12"
_cell_length_a       27.9124
_cell_length_b       27.2492
_cell_length_c       6.0361
_cell_angle_alpha    99.8658
_cell_angle_beta     91.7819
_cell_angle_gamma    90.8945

_symmetry_space_group_name_H-M    'P1'
_space_group_IT_number       1

loop_
  _space_group_symop_operation_xyz
  'x, y, z'

loop_
  _atom_site_type_symbol
  _atom_site_label
  _atom_site_symmetry_multiplicity
  _atom_site_fract_x
  _atom_site_fract_y
  _atom_site_fract_z
  _atom_site_occupancy
  H   H1        1.0  0.43799  0.01486  0.78576  1.0000
  H   H2        1.0  0.37885  0.94830  0.81763  1.0000
  H   H3        1.0  0.47557  0.83616  0.51490  1.0000
  H   H4        1.0  0.56777  0.83279  0.42460  1.0000
  H   H5        1.0  0.68260  0.93469  0.34766  1.0000
  H   H6        1.0  0.62864  0.00526  0.41345  1.0000
  H   H7        1.0  0.05567  0.62386  0.28653  1.0000
  H   H8        1.0  0.96938  0.62413  0.35283  1.0000
  H   H9        1.0  0.98300  0.39596  0.64522  1.0000
  H   H10       1.0  0.06642  0.39223  0.54753  1.0000
  H   H11       1.0  0.18386  0.51738  0.41233  1.0000
  H   H12       1.0  0.62631  0.04731  0.73006  1.0000
  H   H13       1.0  0.68305  0.11718  0.72686  1.0000
  H   H14       1.0  0.57448  0.20023  0.44425  1.0000
  H   H15       1.0  0.48430  0.19682  0.41210  1.0000
  H   H16       1.0  0.36764  0.08713  0.36571  1.0000
  H   H17       1.0  0.42446  0.02418  0.43124  1.0000
  H   H18       1.0  0.43712  0.24456  0.31322  1.0000
  H   H19       1.0  0.37933  0.31176  0.34824  1.0000
  H   H20       1.0  0.27102  0.20966  0.51176  1.0000
  H   H21       1.0  0.32997  0.14932  0.48797  1.0000
  H   H22       1.0  0.86780  0.47321  0.03610  1.0000
  H   H23       1.0  0.80387  0.39578  0.00421  1.0000
  H   H24       1.0  0.87486  0.38599  0.40366  1.0000
  H   H25       1.0  0.91145  0.35595  0.58446  1.0000
  H   H26       1.0  0.86185  0.51812  0.68190  1.0000
  H   H27       1.0  0.78968  0.72875  0.03115  1.0000
  H   H28       1.0  0.75067  0.36325  0.65917  1.0000
  H   H29       1.0  0.29131  0.69621  0.63472  1.0000
  H   H30       1.0  0.30023  0.34144  0.39923  1.0000
  C   C1        1.0  0.50073  0.91287  0.55495  1.0000
  C   C2        1.0  0.00043  0.42860  0.59904  1.0000
  C   C3        1.0  0.55065  0.91116  0.48771  1.0000
  C   C4        1.0  0.04797  0.42690  0.54704  1.0000
  C   C5        1.0  0.56794  0.96122  0.49500  1.0000
  C   C6        1.0  0.07279  0.46966  0.49636  1.0000
  C   C7        1.0  0.52870  0.99555  0.55819  1.0000
  C   C8        1.0  0.12309  0.47020  0.45843  1.0000
  C   C9        1.0  0.48886  0.96429  0.60923  1.0000
  C   C10       1.0  0.14502  0.51439  0.41910  1.0000
  C   C11       1.0  0.44565  0.97649  0.71652  1.0000
  C   C12       1.0  0.11948  0.55774  0.41166  1.0000
  C   C13       1.0  0.41236  0.93882  0.73496  1.0000
  C   C14       1.0  0.42173  0.88797  0.65680  1.0000
  C   C15       1.0  0.46740  0.87523  0.57323  1.0000
  C   C16       1.0  0.58069  0.87093  0.43131  1.0000
  C   C17       1.0  0.62937  0.87970  0.39574  1.0000
  C   C18       1.0  0.64560  0.92860  0.38963  1.0000
  C   C19       1.0  0.61502  0.96871  0.42973  1.0000
  C   C20       1.0  0.55335  0.12761  0.50713  1.0000
  C   C21       1.0  0.50183  0.12380  0.46165  1.0000
  C   C22       1.0  0.48620  0.07460  0.48623  1.0000
  C   C23       1.0  0.52728  0.04665  0.54566  1.0000
  C   C24       1.0  0.56822  0.08188  0.56870  1.0000
  C   C25       1.0  0.61488  0.07935  0.65851  1.0000
  C   C26       1.0  0.64676  0.11930  0.66056  1.0000
  C   C27       1.0  0.04560  0.51324  0.47986  1.0000
  C   C28       1.0  0.63340  0.16277  0.57793  1.0000
  C   C29       1.0  0.06863  0.55579  0.41792  1.0000
  C   C30       1.0  0.58561  0.16676  0.50539  1.0000
  C   C31       1.0  0.03943  0.59475  0.36287  1.0000
  C   C32       1.0  0.47030  0.15977  0.42079  1.0000
  C   C33       1.0  0.99128  0.59511  0.40321  1.0000
  C   C34       1.0  0.42010  0.14917  0.40343  1.0000
  C   C35       1.0  0.28607  0.30735  0.45136  1.0000
  C   C36       1.0  0.40512  0.09868  0.40211  1.0000
  C   C37       1.0  0.43720  0.06229  0.43806  1.0000
  C   C38       1.0  0.38779  0.18922  0.39891  1.0000
  C   C39       1.0  0.40072  0.23759  0.35989  1.0000
  C   C40       1.0  0.36800  0.27515  0.37678  1.0000
  C   C41       1.0  0.31923  0.26706  0.43440  1.0000
  C   C42       1.0  0.30717  0.21956  0.47025  1.0000
  C   C43       1.0  0.80564  0.71624  0.35548  1.0000
  C   C44       1.0  0.86642  0.44083  0.90302  1.0000
  C   C45       1.0  0.83170  0.40011  0.88652  1.0000
  C   C46       1.0  0.83962  0.36641  0.69522  1.0000
  C   C47       1.0  0.88290  0.38356  0.58224  1.0000
  C   C48       1.0  0.89562  0.43406  0.72217  1.0000
  C   C49       1.0  0.92004  0.56017  0.56976  1.0000
  C   C50       1.0  0.89924  0.51792  0.63777  1.0000
  C   C51       1.0  0.92374  0.47403  0.64774  1.0000
  C   C52       1.0  0.97296  0.47166  0.59144  1.0000
  C   C53       1.0  0.96888  0.55794  0.50571  1.0000
  C   C54       1.0  0.99565  0.51442  0.52747  1.0000
  C   C55       1.0  0.78099  0.73821  0.21102  1.0000
  C   C56       1.0  0.76733  0.32653  0.62292  1.0000
  C   C57       1.0  0.27713  0.73253  0.60894  1.0000
  N   N1        1.0  0.23252  0.73696  0.55924  1.0000
  N   N2        1.0  0.24252  0.30488  0.52273  1.0000
  N   N3        1.0  0.33999  0.18300  0.45182  1.0000
  N   N4        1.0  0.81374  0.32327  0.61584  1.0000
  C  Sn1       1.0  0.20364  0.61166  0.35469  1.0000
  C   C58       1.0  0.15987  0.60259  0.44809  1.0000
  C  Sn2       1.0  0.13480  0.64180  0.56896  1.0000
  C  Sn3       1.0  0.15387  0.69111  0.59695  1.0000
  C   C59       1.0  0.19761  0.70016  0.50356  1.0000
  C  Sn4       1.0  0.22271  0.66097  0.38268  1.0000
  O  Te1       1.0  0.22809  0.57190  0.23449  1.0000
  O  Te2       1.0  0.09111  0.63180  0.66083  1.0000
  O  Te3       1.0  0.12938  0.73088  0.71727  1.0000
  O  Te4       1.0  0.26637  0.67095  0.29081  1.0000
  Mg  Mg1       1.0  0.07122  0.69842  0.81047  1.0000
  Mg  Mg2       1.0  0.28628  0.60437  0.14106  1.0000
  C  Sn5       1.0  0.18482  0.39512  0.26235  1.0000
  C   C60       1.0  0.15186  0.41687  0.41733  1.0000
  C  Sn6       1.0  0.15144  0.40480  0.63305  1.0000
  C  Sn7       1.0  0.18468  0.37030  0.69524  1.0000
  C   C61       1.0  0.21762  0.34859  0.54033  1.0000
  C  Sn8       1.0  0.21806  0.36063  0.32454  1.0000
  O  Te5       1.0  0.18460  0.40774  0.04762  1.0000
  O  Te6       1.0  0.11815  0.42701  0.78505  1.0000
  O  Te7       1.0  0.18488  0.35770  0.91017  1.0000
  O  Te8       1.0  0.25134  0.33844  0.17261  1.0000
  Mg  Mg3       1.0  0.12529  0.35979  0.05774  1.0000
  Mg  Mg4       1.0  0.24424  0.40566  0.89992  1.0000
  C  Sn9       1.0  0.36767  0.77440  0.76257  1.0000
  C   C62       1.0  0.31893  0.77680  0.70600  1.0000
  C  Sn10      1.0  0.30197  0.81541  0.60171  1.0000
  C  Sn11      1.0  0.33440  0.85238  0.55281  1.0000
  C   C63       1.0  0.38311  0.84997  0.60933  1.0000
  C  Sn12      1.0  0.40010  0.81137  0.71367  1.0000
  O  Te9       1.0  0.38383  0.73546  0.86674  1.0000
  O  Te10      1.0  0.25308  0.81703  0.54683  1.0000
  O  Te11      1.0  0.31820  0.89133  0.44856  1.0000
  O  Te12      1.0  0.44895  0.80974  0.76851  1.0000
  Mg  Mg5       1.0  0.24839  0.87741  0.40647  1.0000
  Mg  Mg6       1.0  0.45368  0.74936  0.90875  1.0000
  C  Sn13      1.0  0.72867  0.80663  0.52749  1.0000
  C   C64       1.0  0.73334  0.76920  0.34024  1.0000
  C  Sn14      1.0  0.70517  0.76924  0.14492  1.0000
  C  Sn15      1.0  0.67164  0.80751  0.13651  1.0000
  C   C65       1.0  0.66699  0.84492  0.32366  1.0000
  C  Sn16      1.0  0.69514  0.84490  0.51908  1.0000
  O  Te13      1.0  0.75721  0.80584  0.72099  1.0000
  O  Te14      1.0  0.71778  0.76949  0.95989  1.0000
  O  Te15      1.0  0.65040  0.84634  0.94280  1.0000
  O  Te16      1.0  0.68985  0.88270  0.70401  1.0000
  Mg  Mg7       1.0  0.67078  0.78672  0.73446  1.0000
  Mg  Mg8       1.0  0.73685  0.86552  0.92947  1.0000
  C  Sn17      1.0  0.72856  0.20237  0.62115  1.0000
  C   C66       1.0  0.67870  0.20434  0.63366  1.0000
  C  Sn18      1.0  0.65476  0.24764  0.60614  1.0000
  C  Sn19      1.0  0.68121  0.28985  0.56511  1.0000
  C   C67       1.0  0.73104  0.28787  0.55258  1.0000
  C  Sn20      1.0  0.75501  0.24458  0.58012  1.0000
  O  Te17      1.0  0.75174  0.15868  0.64917  1.0000
  O  Te18      1.0  0.60489  0.24873  0.61944  1.0000
  O  Te19      1.0  0.65798  0.33355  0.53709  1.0000
  O  Te20      1.0  0.80484  0.24348  0.56680  1.0000
  Mg  Mg9       1.0  0.58960  0.31679  0.56972  1.0000
  Mg  Mg10      1.0  0.82017  0.17543  0.61638  1.0000
  C  Sn21      1.0  0.84037  0.59810  0.37740  1.0000
  C   C68       1.0  0.88549  0.60122  0.48645  1.0000
  C  Sn22      1.0  0.90310  0.64666  0.60653  1.0000
  C  Sn23      1.0  0.87500  0.68989  0.61799  1.0000
  C   C69       1.0  0.82989  0.68676  0.50902  1.0000
  C  Sn24      1.0  0.81227  0.64133  0.38886  1.0000
  O  Te21      1.0  0.82349  0.55229  0.25833  1.0000
  O  Te22      1.0  0.94832  0.64886  0.71410  1.0000
  O  Te23      1.0  0.89192  0.73573  0.73719  1.0000
  O  Te24      1.0  0.76707  0.63912  0.28137  1.0000
  Mg  Mg11      1.0  0.95568  0.71981  0.85557  1.0000
  Mg  Mg12      1.0  0.75966  0.56819  0.13996  1.0000
