data_image0
_chemical_formula_structural       H30C57N4C2Sn2C2HTe2HMgC2Sn2C2HTe2HMgC2Sn2C2HTe2HMgC2Sn2C2HTe2HMgC2Sn2C2HTe2HMgC2Sn2C2HTe2HMg
_chemical_formula_sum              "H42 C81 N4 Sn12 Te12 Mg6"
_cell_length_a       27.9124
_cell_length_b       27.2492
_cell_length_c       6.0361
_cell_angle_alpha    99.8658
_cell_angle_beta     91.7819
_cell_angle_gamma    90.8945

_symmetry_space_group_name_H-M    'P1'
_space_group_IT_number       1

loop_
  _space_group_symop_operation_xyz
  'x, y, z'

loop_
  _atom_site_type_symbol
  _atom_site_label
  _atom_site_symmetry_multiplicity
  _atom_site_fract_x
  _atom_site_fract_y
  _atom_site_fract_z
  _atom_site_occupancy
  H   H1        1.0  0.43799  0.01486  0.78576  1.0000
  H   H2        1.0  0.37885  0.94830  0.81763  1.0000
  H   H3        1.0  0.47557  0.83616  0.51490  1.0000
  H   H4        1.0  0.56777  0.83279  0.42460  1.0000
  H   H5        1.0  0.68260  0.93469  0.34766  1.0000
  H   H6        1.0  0.62864  0.00526  0.41345  1.0000
  H   H7        1.0  0.05567  0.62386  0.28653  1.0000
  H   H8        1.0  0.96938  0.62413  0.35283  1.0000
  H   H9        1.0  0.98300  0.39596  0.64522  1.0000
  H   H10       1.0  0.06642  0.39223  0.54753  1.0000
  H   H11       1.0  0.18386  0.51738  0.41233  1.0000
  H   H12       1.0  0.62631  0.04731  0.73006  1.0000
  H   H13       1.0  0.68305  0.11718  0.72686  1.0000
  H   H14       1.0  0.57448  0.20023  0.44425  1.0000
  H   H15       1.0  0.48430  0.19682  0.41210  1.0000
  H   H16       1.0  0.36764  0.08713  0.36571  1.0000
  H   H17       1.0  0.42446  0.02418  0.43124  1.0000
  H   H18       1.0  0.43712  0.24456  0.31322  1.0000
  H   H19       1.0  0.37933  0.31176  0.34824  1.0000
  H   H20       1.0  0.27102  0.20966  0.51176  1.0000
  H   H21       1.0  0.32997  0.14932  0.48797  1.0000
  H   H22       1.0  0.86780  0.47321  0.03610  1.0000
  H   H23       1.0  0.80387  0.39578  0.00421  1.0000
  H   H24       1.0  0.87486  0.38599  0.40366  1.0000
  H   H25       1.0  0.91145  0.35595  0.58446  1.0000
  H   H26       1.0  0.86185  0.51812  0.68190  1.0000
  H   H27       1.0  0.78968  0.72875  0.03115  1.0000
  H   H28       1.0  0.75067  0.36325  0.65917  1.0000
  H   H29       1.0  0.29131  0.69621  0.63472  1.0000
  H   H30       1.0  0.30023  0.34144  0.39923  1.0000
  C   C1        1.0  0.50073  0.91287  0.55495  1.0000
  C   C2        1.0  0.00043  0.42860  0.59904  1.0000
  C   C3        1.0  0.55065  0.91116  0.48771  1.0000
  C   C4        1.0  0.04797  0.42690  0.54704  1.0000
  C   C5        1.0  0.56794  0.96122  0.49500  1.0000
  C   C6        1.0  0.07279  0.46966  0.49636  1.0000
  C   C7        1.0  0.52870  0.99555  0.55819  1.0000
  C   C8        1.0  0.12309  0.47020  0.45843  1.0000
  C   C9        1.0  0.48886  0.96429  0.60923  1.0000
  C   C10       1.0  0.14502  0.51439  0.41910  1.0000
  C   C11       1.0  0.44565  0.97649  0.71652  1.0000
  C   C12       1.0  0.11948  0.55774  0.41166  1.0000
  C   C13       1.0  0.41236  0.93882  0.73496  1.0000
  C   C14       1.0  0.42173  0.88797  0.65680  1.0000
  C   C15       1.0  0.46740  0.87523  0.57323  1.0000
  C   C16       1.0  0.58069  0.87093  0.43131  1.0000
  C   C17       1.0  0.62937  0.87970  0.39574  1.0000
  C   C18       1.0  0.64560  0.92860  0.38963  1.0000
  C   C19       1.0  0.61502  0.96871  0.42973  1.0000
  C   C20       1.0  0.55335  0.12761  0.50713  1.0000
  C   C21       1.0  0.50183  0.12380  0.46165  1.0000
  C   C22       1.0  0.48620  0.07460  0.48623  1.0000
  C   C23       1.0  0.52728  0.04665  0.54566  1.0000
  C   C24       1.0  0.56822  0.08188  0.56870  1.0000
  C   C25       1.0  0.61488  0.07935  0.65851  1.0000
  C   C26       1.0  0.64676  0.11930  0.66056  1.0000
  C   C27       1.0  0.04560  0.51324  0.47986  1.0000
  C   C28       1.0  0.63340  0.16277  0.57793  1.0000
  C   C29       1.0  0.06863  0.55579  0.41792  1.0000
  C   C30       1.0  0.58561  0.16676  0.50539  1.0000
  C   C31       1.0  0.03943  0.59475  0.36287  1.0000
  C   C32       1.0  0.47030  0.15977  0.42079  1.0000
  C   C33       1.0  0.99128  0.59511  0.40321  1.0000
  C   C34       1.0  0.42010  0.14917  0.40343  1.0000
  C   C35       1.0  0.28607  0.30735  0.45136  1.0000
  C   C36       1.0  0.40512  0.09868  0.40211  1.0000
  C   C37       1.0  0.43720  0.06229  0.43806  1.0000
  C   C38       1.0  0.38779  0.18922  0.39891  1.0000
  C   C39       1.0  0.40072  0.23759  0.35989  1.0000
  C   C40       1.0  0.36800  0.27515  0.37678  1.0000
  C   C41       1.0  0.31923  0.26706  0.43440  1.0000
  C   C42       1.0  0.30717  0.21956  0.47025  1.0000
  C   C43       1.0  0.80564  0.71624  0.35548  1.0000
  C   C44       1.0  0.86642  0.44083  0.90302  1.0000
  C   C45       1.0  0.83170  0.40011  0.88652  1.0000
  C   C46       1.0  0.83962  0.36641  0.69522  1.0000
  C   C47       1.0  0.88290  0.38356  0.58224  1.0000
  C   C48       1.0  0.89562  0.43406  0.72217  1.0000
  C   C49       1.0  0.92004  0.56017  0.56976  1.0000
  C   C50       1.0  0.89924  0.51792  0.63777  1.0000
  C   C51       1.0  0.92374  0.47403  0.64774  1.0000
  C   C52       1.0  0.97296  0.47166  0.59144  1.0000
  C   C53       1.0  0.96888  0.55794  0.50571  1.0000
  C   C54       1.0  0.99565  0.51442  0.52747  1.0000
  C   C55       1.0  0.78099  0.73821  0.21102  1.0000
  C   C56       1.0  0.76733  0.32653  0.62292  1.0000
  C   C57       1.0  0.27713  0.73253  0.60894  1.0000
  N   N1        1.0  0.23252  0.73696  0.55924  1.0000
  N   N2        1.0  0.24252  0.30488  0.52273  1.0000
  N   N3        1.0  0.33999  0.18300  0.45182  1.0000
  N   N4        1.0  0.81374  0.32327  0.61584  1.0000
  C   C58       1.0  0.19839  0.61731  0.29220  1.0000
  C   C59       1.0  0.15718  0.60532  0.39908  1.0000
  C  Sn1       1.0  0.13780  0.64015  0.56804  1.0000
  C  Sn2       1.0  0.16017  0.68784  0.63075  1.0000
  C   C60       1.0  0.20137  0.69948  0.52269  1.0000
  C   C61       1.0  0.22047  0.66434  0.35389  1.0000
  H   H31       1.0  0.21316  0.59013  0.16151  1.0000
  O  Te1       1.0  0.09661  0.62755  0.67316  1.0000
  O  Te2       1.0  0.14155  0.72335  0.79902  1.0000
  H   H32       1.0  0.25236  0.67365  0.27106  1.0000
  Mg  Mg1       1.0  0.08479  0.68859  0.89290  1.0000
  C   C62       1.0  0.19804  0.40456  0.28674  1.0000
  C   C63       1.0  0.16144  0.42390  0.42667  1.0000
  C  Sn3       1.0  0.15123  0.40344  0.61737  1.0000
  C  Sn4       1.0  0.17824  0.36289  0.66853  1.0000
  C   C64       1.0  0.21481  0.34384  0.52756  1.0000
  C   C65       1.0  0.22471  0.36457  0.33713  1.0000
  H   H33       1.0  0.20572  0.42062  0.13946  1.0000
  O  Te3       1.0  0.11452  0.42320  0.75532  1.0000
  O  Te4       1.0  0.16880  0.34176  0.85810  1.0000
  H   H34       1.0  0.25307  0.34962  0.22890  1.0000
  Mg  Mg2       1.0  0.11520  0.38168  0.99449  1.0000
  C   C66       1.0  0.30349  0.83494  0.59633  1.0000
  C   C67       1.0  0.30852  0.78485  0.61500  1.0000
  C  Sn5       1.0  0.35324  0.76703  0.66997  1.0000
  C  Sn6       1.0  0.39360  0.80007  0.70691  1.0000
  C   C68       1.0  0.38819  0.85012  0.68798  1.0000
  C   C69       1.0  0.34328  0.86755  0.63281  1.0000
  H   H35       1.0  0.26875  0.84843  0.55376  1.0000
  O  Te5       1.0  0.35764  0.71688  0.68786  1.0000
  O  Te6       1.0  0.43870  0.78326  0.76215  1.0000
  H   H36       1.0  0.33939  0.90634  0.61851  1.0000
  Mg  Mg3       1.0  0.42656  0.71166  0.76688  1.0000
  C   C70       1.0  0.66933  0.79405  0.12519  1.0000
  C   C71       1.0  0.66147  0.82804  0.32121  1.0000
  C  Sn7       1.0  0.69624  0.83609  0.49587  1.0000
  C  Sn8       1.0  0.73965  0.80956  0.47337  1.0000
  C   C72       1.0  0.74718  0.77566  0.27654  1.0000
  C   C73       1.0  0.71214  0.76788  0.10283  1.0000
  H   H37       1.0  0.64953  0.82613  0.99073  1.0000
  O  Te7       1.0  0.68780  0.87017  0.69060  1.0000
  O  Te8       1.0  0.77501  0.81689  0.64531  1.0000
  H   H38       1.0  0.72555  0.77966  0.95103  1.0000
  Mg  Mg4       1.0  0.74684  0.86727  0.87822  1.0000
  C   C74       1.0  0.67203  0.28865  0.60739  1.0000
  C   C75       1.0  0.72202  0.28778  0.60101  1.0000
  C  Sn9       1.0  0.74565  0.24242  0.57010  1.0000
  C  Sn10      1.0  0.71864  0.19715  0.54510  1.0000
  C   C76       1.0  0.66865  0.19841  0.55158  1.0000
  C   C77       1.0  0.64536  0.24401  0.58267  1.0000
  H   H39       1.0  0.65401  0.32392  0.63132  1.0000
  O  Te9       1.0  0.79562  0.24223  0.56422  1.0000
  O  Te10      1.0  0.74135  0.15129  0.51391  1.0000
  H   H40       1.0  0.60666  0.24466  0.58746  1.0000
  Mg  Mg5       1.0  0.81016  0.17035  0.51786  1.0000
  C   C78       1.0  0.90425  0.66658  0.60537  1.0000
  C   C79       1.0  0.89359  0.61560  0.57969  1.0000
  C  Sn11      1.0  0.85004  0.59639  0.47808  1.0000
  C  Sn12      1.0  0.81661  0.62891  0.40086  1.0000
  C   C80       1.0  0.82763  0.67985  0.42719  1.0000
  C   C81       1.0  0.87131  0.69868  0.52917  1.0000
  H   H41       1.0  0.93806  0.68116  0.68416  1.0000
  O  Te11      1.0  0.83995  0.54536  0.45383  1.0000
  O  Te12      1.0  0.77282  0.61069  0.29862  1.0000
  H   H42       1.0  0.87957  0.73815  0.54890  1.0000
  Mg  Mg6       1.0  0.77549  0.53832  0.30374  1.0000
