data_image0
_chemical_formula_structural       H42C75N4SnCSn2CSnTe4Mg2SnCSn2CSnTe4Mg2SnCSn2CSnTe4Mg2
_chemical_formula_sum              "H42 C81 N4 Sn12 Te12 Mg6"
_cell_length_a       27.9124
_cell_length_b       27.2492
_cell_length_c       6.0361
_cell_angle_alpha    99.8658
_cell_angle_beta     91.7819
_cell_angle_gamma    90.8945

_symmetry_space_group_name_H-M    'P1'
_space_group_IT_number       1

loop_
  _space_group_symop_operation_xyz
  'x, y, z'

loop_
  _atom_site_type_symbol
  _atom_site_label
  _atom_site_symmetry_multiplicity
  _atom_site_fract_x
  _atom_site_fract_y
  _atom_site_fract_z
  _atom_site_occupancy
  H   H1        1.0  0.43799  0.01486  0.78576  1.0000
  H   H2        1.0  0.37885  0.94830  0.81763  1.0000
  H   H3        1.0  0.47557  0.83616  0.51490  1.0000
  H   H4        1.0  0.56777  0.83279  0.42460  1.0000
  H   H5        1.0  0.68260  0.93469  0.34766  1.0000
  H   H6        1.0  0.62864  0.00526  0.41345  1.0000
  H   H7        1.0  0.05567  0.62386  0.28653  1.0000
  H   H8        1.0  0.96938  0.62413  0.35283  1.0000
  H   H9        1.0  0.98300  0.39596  0.64522  1.0000
  H   H10       1.0  0.06642  0.39223  0.54753  1.0000
  H   H11       1.0  0.18386  0.51738  0.41233  1.0000
  H   H12       1.0  0.19784  0.57987  0.17647  1.0000
  H   H13       1.0  0.24972  0.65525  0.25876  1.0000
  H   H14       1.0  0.15206  0.72125  0.75445  1.0000
  H   H15       1.0  0.10348  0.64314  0.69741  1.0000
  H   H16       1.0  0.12654  0.41312  0.78752  1.0000
  H   H17       1.0  0.17618  0.33979  0.80823  1.0000
  H   H18       1.0  0.24064  0.35920  0.18737  1.0000
  H   H19       1.0  0.19110  0.43255  0.17019  1.0000
  H   H20       1.0  0.62631  0.04731  0.73006  1.0000
  H   H21       1.0  0.68305  0.11718  0.72686  1.0000
  H   H22       1.0  0.57448  0.20023  0.44425  1.0000
  H   H23       1.0  0.48430  0.19682  0.41210  1.0000
  H   H24       1.0  0.36764  0.08713  0.36571  1.0000
  H   H25       1.0  0.42446  0.02418  0.43124  1.0000
  H   H26       1.0  0.72980  0.15727  0.52672  1.0000
  H   H27       1.0  0.78829  0.22884  0.54345  1.0000
  H   H28       1.0  0.67285  0.33140  0.63736  1.0000
  H   H29       1.0  0.61470  0.26134  0.63052  1.0000
  H   H30       1.0  0.43712  0.24456  0.31322  1.0000
  H   H31       1.0  0.37933  0.31176  0.34824  1.0000
  H   H32       1.0  0.27102  0.20966  0.51176  1.0000
  H   H33       1.0  0.32997  0.14932  0.48797  1.0000
  H   H34       1.0  0.86780  0.47321  0.03610  1.0000
  H   H35       1.0  0.80387  0.39578  0.00421  1.0000
  H   H36       1.0  0.87486  0.38599  0.40366  1.0000
  H   H37       1.0  0.91145  0.35595  0.58446  1.0000
  H   H38       1.0  0.86185  0.51812  0.68190  1.0000
  H   H39       1.0  0.78968  0.72875  0.03115  1.0000
  H   H40       1.0  0.75067  0.36325  0.65917  1.0000
  H   H41       1.0  0.29131  0.69621  0.63472  1.0000
  H   H42       1.0  0.30023  0.34144  0.39923  1.0000
  C   C1        1.0  0.50073  0.91287  0.55495  1.0000
  C   C2        1.0  0.00043  0.42860  0.59904  1.0000
  C   C3        1.0  0.55065  0.91116  0.48771  1.0000
  C   C4        1.0  0.04797  0.42690  0.54704  1.0000
  C   C5        1.0  0.56794  0.96122  0.49500  1.0000
  C   C6        1.0  0.07279  0.46966  0.49636  1.0000
  C   C7        1.0  0.52870  0.99555  0.55819  1.0000
  C   C8        1.0  0.12309  0.47020  0.45843  1.0000
  C   C9        1.0  0.48886  0.96429  0.60923  1.0000
  C   C10       1.0  0.14502  0.51439  0.41910  1.0000
  C   C11       1.0  0.44565  0.97649  0.71652  1.0000
  C   C12       1.0  0.11948  0.55774  0.41166  1.0000
  C   C13       1.0  0.41236  0.93882  0.73496  1.0000
  C   C14       1.0  0.14645  0.60517  0.43032  1.0000
  C   C15       1.0  0.42173  0.88797  0.65680  1.0000
  C   C16       1.0  0.15351  0.42714  0.47310  1.0000
  C   C17       1.0  0.46740  0.87523  0.57323  1.0000
  C   C18       1.0  0.18793  0.61005  0.30819  1.0000
  C   C19       1.0  0.58069  0.87093  0.43131  1.0000
  C   C20       1.0  0.21686  0.65275  0.35053  1.0000
  C   C21       1.0  0.62937  0.87970  0.39574  1.0000
  C   C22       1.0  0.20405  0.69340  0.51226  1.0000
  C   C23       1.0  0.64560  0.92860  0.38963  1.0000
  C   C24       1.0  0.16113  0.69018  0.62607  1.0000
  C   C25       1.0  0.61502  0.96871  0.42973  1.0000
  C   C26       1.0  0.13361  0.64647  0.59037  1.0000
  C   C27       1.0  0.15044  0.40048  0.65261  1.0000
  C   C28       1.0  0.17929  0.35988  0.66873  1.0000
  C   C29       1.0  0.21341  0.34527  0.50403  1.0000
  C   C30       1.0  0.21687  0.37187  0.32368  1.0000
  C   C31       1.0  0.18781  0.41239  0.30945  1.0000
  C   C32       1.0  0.55335  0.12761  0.50713  1.0000
  C   C33       1.0  0.50183  0.12380  0.46165  1.0000
  C   C34       1.0  0.48620  0.07460  0.48623  1.0000
  C   C35       1.0  0.52728  0.04665  0.54566  1.0000
  C   C36       1.0  0.56822  0.08188  0.56870  1.0000
  C   C37       1.0  0.61488  0.07935  0.65851  1.0000
  C   C38       1.0  0.64676  0.11930  0.66056  1.0000
  C   C39       1.0  0.04560  0.51324  0.47986  1.0000
  C   C40       1.0  0.63340  0.16277  0.57793  1.0000
  C   C41       1.0  0.06863  0.55579  0.41792  1.0000
  C   C42       1.0  0.58561  0.16676  0.50539  1.0000
  C   C43       1.0  0.03943  0.59475  0.36287  1.0000
  C   C44       1.0  0.47030  0.15977  0.42079  1.0000
  C   C45       1.0  0.99128  0.59511  0.40321  1.0000
  C   C46       1.0  0.42010  0.14917  0.40343  1.0000
  C   C47       1.0  0.28607  0.30735  0.45136  1.0000
  C   C48       1.0  0.40512  0.09868  0.40211  1.0000
  C   C49       1.0  0.43720  0.06229  0.43806  1.0000
  C   C50       1.0  0.66788  0.20396  0.57559  1.0000
  C   C51       1.0  0.38779  0.18922  0.39891  1.0000
  C   C52       1.0  0.71747  0.19546  0.55380  1.0000
  C   C53       1.0  0.74999  0.23475  0.56261  1.0000
  C   C54       1.0  0.73427  0.28418  0.59270  1.0000
  C   C55       1.0  0.68485  0.29300  0.60950  1.0000
  C   C56       1.0  0.65230  0.25361  0.60146  1.0000
  C   C57       1.0  0.40072  0.23759  0.35989  1.0000
  C   C58       1.0  0.36800  0.27515  0.37678  1.0000
  C   C59       1.0  0.31923  0.26706  0.43440  1.0000
  C   C60       1.0  0.30717  0.21956  0.47025  1.0000
  C   C61       1.0  0.80564  0.71624  0.35548  1.0000
  C   C62       1.0  0.86642  0.44083  0.90302  1.0000
  C   C63       1.0  0.83170  0.40011  0.88652  1.0000
  C   C64       1.0  0.83962  0.36641  0.69522  1.0000
  C   C65       1.0  0.88290  0.38356  0.58224  1.0000
  C   C66       1.0  0.89562  0.43406  0.72217  1.0000
  C   C67       1.0  0.92004  0.56017  0.56976  1.0000
  C   C68       1.0  0.89924  0.51792  0.63777  1.0000
  C   C69       1.0  0.92374  0.47403  0.64774  1.0000
  C   C70       1.0  0.97296  0.47166  0.59144  1.0000
  C   C71       1.0  0.96888  0.55794  0.50571  1.0000
  C   C72       1.0  0.99565  0.51442  0.52747  1.0000
  C   C73       1.0  0.78099  0.73821  0.21102  1.0000
  C   C74       1.0  0.76733  0.32653  0.62292  1.0000
  C   C75       1.0  0.27713  0.73253  0.60894  1.0000
  N   N1        1.0  0.23252  0.73696  0.55924  1.0000
  N   N2        1.0  0.24252  0.30488  0.52273  1.0000
  N   N3        1.0  0.33999  0.18300  0.45182  1.0000
  N   N4        1.0  0.81374  0.32327  0.61584  1.0000
  C  Sn1       1.0  0.30808  0.82720  0.52815  1.0000
  C   C76       1.0  0.31321  0.77868  0.57047  1.0000
  C  Sn2       1.0  0.35438  0.76567  0.68267  1.0000
  C  Sn3       1.0  0.39118  0.80192  0.75421  1.0000
  C   C77       1.0  0.38604  0.85041  0.71192  1.0000
  C  Sn4       1.0  0.34488  0.86345  0.59969  1.0000
  O  Te1       1.0  0.26662  0.83938  0.41571  1.0000
  O  Te2       1.0  0.35870  0.71692  0.72299  1.0000
  O  Te3       1.0  0.43266  0.78970  0.86672  1.0000
  O  Te4       1.0  0.34055  0.91217  0.55940  1.0000
  Mg  Mg1       1.0  0.42190  0.71843  0.88247  1.0000
  Mg  Mg2       1.0  0.27735  0.91071  0.40004  1.0000
  C  Sn5       1.0  0.69821  0.78647  0.08250  1.0000
  C   C78       1.0  0.73989  0.78281  0.21254  1.0000
  C  Sn6       1.0  0.74285  0.80512  0.43899  1.0000
  C  Sn7       1.0  0.70331  0.83161  0.53759  1.0000
  C   C79       1.0  0.66166  0.83525  0.40759  1.0000
  C  Sn8       1.0  0.65867  0.81296  0.18110  1.0000
  O  Te5       1.0  0.70336  0.80195  0.85644  1.0000
  O  Te6       1.0  0.78490  0.80097  0.56557  1.0000
  O  Te7       1.0  0.70550  0.85420  0.76383  1.0000
  O  Te8       1.0  0.61665  0.81710  0.05456  1.0000
  Mg  Mg3       1.0  0.77050  0.83814  0.86677  1.0000
  Mg  Mg4       1.0  0.63830  0.81799  0.75339  1.0000
  C  Sn9       1.0  0.89177  0.68484  0.51576  1.0000
  C   C80       1.0  0.84534  0.68196  0.42024  1.0000
  C  Sn10      1.0  0.81752  0.63842  0.40629  1.0000
  C  Sn11      1.0  0.83648  0.59689  0.48967  1.0000
  C   C81       1.0  0.88288  0.59978  0.58516  1.0000
  C  Sn12      1.0  0.91074  0.64331  0.59915  1.0000
  O  Te9       1.0  0.91895  0.72875  0.52798  1.0000
  O  Te10      1.0  0.77120  0.63642  0.31000  1.0000
  O  Te11      1.0  0.80926  0.55296  0.47738  1.0000
  O  Te12      1.0  0.95702  0.64532  0.69539  1.0000
  Mg  Mg5       1.0  0.74813  0.56839  0.33166  1.0000
  Mg  Mg6       1.0  0.98011  0.71334  0.67394  1.0000
