data_image0
_chemical_formula_structural       H88C160N8C2Sn2C2HTe2HMgC2Sn2C2HTe2HMgC2Sn2C2HTe2HMgC2Sn2C2HTe2HMgC2Sn2C2HTe2HMgC2Sn2C2HTe2HMgC2Sn2C2HTe2HMgC2Sn2C2HTe2HMg
_chemical_formula_sum              "H104 C192 N8 Sn16 Te16 Mg8"
_cell_length_a       31.601
_cell_length_b       29.6194
_cell_length_c       8.11762
_cell_angle_alpha    113.368
_cell_angle_beta     88.71
_cell_angle_gamma    90.1257

_symmetry_space_group_name_H-M    'P1'
_space_group_IT_number       1

loop_
  _space_group_symop_operation_xyz
  'x, y, z'

loop_
  _atom_site_type_symbol
  _atom_site_label
  _atom_site_symmetry_multiplicity
  _atom_site_fract_x
  _atom_site_fract_y
  _atom_site_fract_z
  _atom_site_occupancy
  H   H1        1.0  0.41897  0.96625  0.13791  1.0000
  H   H2        1.0  0.36807  0.90012  0.10511  1.0000
  H   H3        1.0  0.46238  0.82054  0.25835  1.0000
  H   H4        1.0  0.54183  0.82427  0.30311  1.0000
  H   H5        1.0  0.64277  0.92910  0.40855  1.0000
  H   H6        1.0  0.59418  0.98991  0.38554  1.0000
  H   H7        1.0  0.29847  0.67423  0.12284  1.0000
  H   H8        1.0  0.28765  0.30080  0.43246  1.0000
  H   H9        1.0  0.59412  0.00141  0.19047  1.0000
  H   H10       1.0  0.64015  0.06383  0.16131  1.0000
  H   H11       1.0  0.53426  0.16353  0.26592  1.0000
  H   H12       1.0  0.45518  0.16403  0.32342  1.0000
  H   H13       1.0  0.36235  0.07726  0.46019  1.0000
  H   H14       1.0  0.79728  0.42668  0.42301  1.0000
  H   H15       1.0  0.41647  0.01412  0.42783  1.0000
  H   H16       1.0  0.73848  0.37004  0.41183  1.0000
  H   H17       1.0  0.67334  0.12749  0.31396  1.0000
  H   H18       1.0  0.82608  0.24865  0.25822  1.0000
  H   H19       1.0  0.72483  0.19147  0.32079  1.0000
  H   H20       1.0  0.88482  0.30434  0.25525  1.0000
  H   H21       1.0  0.62854  0.26464  0.15182  1.0000
  H   H22       1.0  0.57729  0.19984  0.13587  1.0000
  H   H23       1.0  0.35425  0.28262  0.52202  1.0000
  H   H24       1.0  0.26988  0.16342  0.25567  1.0000
  H   H25       1.0  0.32500  0.10401  0.26275  1.0000
  H   H26       1.0  0.01574  0.38108  0.13223  1.0000
  H   H27       1.0  0.07228  0.32784  0.15411  1.0000
  H   H28       1.0  0.15996  0.44811  0.30558  1.0000
  H   H29       1.0  0.16252  0.53150  0.27839  1.0000
  H   H30       1.0  0.07437  0.65016  0.37213  1.0000
  H   H31       1.0  0.01498  0.59655  0.36248  1.0000
  H   H32       1.0  0.70192  0.29876  0.20372  1.0000
  H   H33       1.0  0.71505  0.70034  0.36474  1.0000
  H   H34       1.0  0.99378  0.56793  0.11329  1.0000
  H   H35       1.0  0.93634  0.62082  0.09430  1.0000
  H   H36       1.0  0.84517  0.53665  0.25174  1.0000
  H   H37       1.0  0.84221  0.45428  0.27383  1.0000
  H   H38       1.0  0.92762  0.36124  0.40667  1.0000
  H   H39       1.0  0.98809  0.40938  0.37824  1.0000
  H   H40       1.0  0.41296  0.97052  0.64776  1.0000
  H   H41       1.0  0.36228  0.90425  0.61523  1.0000
  H   H42       1.0  0.45877  0.82185  0.74241  1.0000
  H   H43       1.0  0.53752  0.82588  0.79002  1.0000
  H   H44       1.0  0.63714  0.93303  0.91870  1.0000
  H   H45       1.0  0.58850  0.99344  0.89198  1.0000
  H   H46       1.0  0.29351  0.67757  0.62507  1.0000
  H   H47       1.0  0.28863  0.30743  0.91784  1.0000
  H   H48       1.0  0.58995  0.00182  0.68405  1.0000
  H   H49       1.0  0.63659  0.06368  0.65538  1.0000
  H   H50       1.0  0.53279  0.16630  0.77379  1.0000
  H   H51       1.0  0.73995  0.62762  0.63542  1.0000
  H   H52       1.0  0.45319  0.16773  0.82339  1.0000
  H   H53       1.0  0.79547  0.56750  0.61907  1.0000
  H   H54       1.0  0.35994  0.08345  0.97162  1.0000
  H   H55       1.0  0.79526  0.42460  0.93428  1.0000
  H   H56       1.0  0.41272  0.01891  0.93338  1.0000
  H   H57       1.0  0.73698  0.36707  0.92181  1.0000
  H   H58       1.0  0.67095  0.12507  0.80142  1.0000
  H   H59       1.0  0.82548  0.24659  0.74969  1.0000
  H   H60       1.0  0.72315  0.18839  0.80974  1.0000
  H   H61       1.0  0.88342  0.30331  0.74992  1.0000
  H   H62       1.0  0.62708  0.26479  0.65302  1.0000
  H   H63       1.0  0.57504  0.20080  0.63788  1.0000
  H   H64       1.0  0.40902  0.22373  0.53024  1.0000
  H   H65       1.0  0.01201  0.38390  0.63783  1.0000
  H   H66       1.0  0.07012  0.33047  0.64196  1.0000
  H   H67       1.0  0.15537  0.45306  0.81747  1.0000
  H   H68       1.0  0.15739  0.53576  0.78670  1.0000
  H   H69       1.0  0.06886  0.65324  0.87044  1.0000
  H   H70       1.0  0.00962  0.59975  0.86362  1.0000
  H   H71       1.0  0.10480  0.30882  0.82644  1.0000
  H   H72       1.0  0.15896  0.25182  0.85217  1.0000
  H   H73       1.0  0.25672  0.33574  0.73478  1.0000
  H   H74       1.0  0.20322  0.39148  0.69956  1.0000
  H   H75       1.0  0.20297  0.59476  0.87476  1.0000
  H   H76       1.0  0.25907  0.64833  0.83705  1.0000
  H   H77       1.0  0.16591  0.73148  0.69757  1.0000
  H   H78       1.0  0.11028  0.67387  0.71037  1.0000
  H   H79       1.0  0.70226  0.29527  0.68910  1.0000
  H   H80       1.0  0.70791  0.70056  0.85540  1.0000
  H   H81       1.0  0.98766  0.56957  0.61455  1.0000
  H   H82       1.0  0.92990  0.62120  0.59341  1.0000
  H   H83       1.0  0.83952  0.53499  0.74479  1.0000
  H   H84       1.0  0.83836  0.45233  0.77398  1.0000
  H   H85       1.0  0.92586  0.36081  0.90336  1.0000
  H   H86       1.0  0.98498  0.41150  0.88195  1.0000
  H   H87       1.0  0.88863  0.68239  0.74986  1.0000
  H   H88       1.0  0.83301  0.74156  0.75417  1.0000
  C   C1        1.0  0.48138  0.89070  0.25681  1.0000
  C   C2        1.0  0.47682  0.09439  0.31906  1.0000
  C   C3        1.0  0.52627  0.89445  0.29709  1.0000
  C   C4        1.0  0.46580  0.04953  0.33386  1.0000
  C   C5        1.0  0.54070  0.94110  0.30735  1.0000
  C   C6        1.0  0.50368  0.01749  0.29531  1.0000
  C   C7        1.0  0.50478  0.96883  0.27931  1.0000
  C   C8        1.0  0.53846  0.04740  0.26843  1.0000
  C   C9        1.0  0.46862  0.93461  0.23952  1.0000
  C   C10       1.0  0.58118  0.03748  0.21920  1.0000
  C   C11       1.0  0.42813  0.93612  0.17404  1.0000
  C   C12       1.0  0.60712  0.07312  0.20052  1.0000
  C   C13       1.0  0.39964  0.89835  0.15335  1.0000
  C   C14       1.0  0.59164  0.11993  0.22351  1.0000
  C   C15       1.0  0.41093  0.85728  0.19008  1.0000
  C   C16       1.0  0.54775  0.12871  0.25591  1.0000
  C   C17       1.0  0.45310  0.85273  0.23424  1.0000
  C   C18       1.0  0.44678  0.13090  0.34341  1.0000
  C   C19       1.0  0.55350  0.86012  0.31652  1.0000
  C   C20       1.0  0.40448  0.12384  0.38571  1.0000
  C   C21       1.0  0.59684  0.87103  0.34502  1.0000
  C   C22       1.0  0.39445  0.08139  0.41649  1.0000
  C   C23       1.0  0.61015  0.91880  0.37238  1.0000
  C   C24       1.0  0.42476  0.04532  0.39567  1.0000
  C   C25       1.0  0.58269  0.95333  0.35655  1.0000
  C   C26       1.0  0.62128  0.15820  0.22183  1.0000
  C   C27       1.0  0.37134  0.15955  0.39360  1.0000
  C   C28       1.0  0.66356  0.15649  0.27271  1.0000
  C   C29       1.0  0.69230  0.19270  0.28158  1.0000
  C   C30       1.0  0.67996  0.23281  0.24204  1.0000
  C   C31       1.0  0.63811  0.23475  0.18932  1.0000
  C   C32       1.0  0.60922  0.19813  0.18047  1.0000
  C   C33       1.0  0.37890  0.21042  0.46745  1.0000
  C   C34       1.0  0.34800  0.24335  0.46337  1.0000
  C   C35       1.0  0.30866  0.22675  0.38491  1.0000
  C   C36       1.0  0.30055  0.17593  0.31479  1.0000
  C   C37       1.0  0.33121  0.14327  0.32117  1.0000
  C   C38       1.0  0.09558  0.46400  0.26496  1.0000
  C   C39       1.0  0.28844  0.71286  0.18899  1.0000
  C   C40       1.0  0.09635  0.51514  0.28561  1.0000
  C   C41       1.0  0.27749  0.26213  0.37821  1.0000
  C   C42       1.0  0.05368  0.53099  0.28857  1.0000
  C   C43       1.0  0.52206  0.09326  0.27875  1.0000
  C   C44       1.0  0.02488  0.48931  0.25590  1.0000
  C   C45       1.0  0.05291  0.44759  0.23631  1.0000
  C   C46       1.0  0.95705  0.41763  0.34316  1.0000
  C   C47       1.0  0.04614  0.39707  0.18170  1.0000
  C   C48       1.0  0.07865  0.36667  0.19145  1.0000
  C   C49       1.0  0.84559  0.36963  0.33639  1.0000
  C   C50       1.0  0.11962  0.38448  0.24714  1.0000
  C   C51       1.0  0.12821  0.43355  0.27300  1.0000
  C   C52       1.0  0.13035  0.54576  0.29426  1.0000
  C   C53       1.0  0.12303  0.59438  0.31170  1.0000
  C   C54       1.0  0.08077  0.61176  0.34341  1.0000
  C   C55       1.0  0.04674  0.58123  0.33577  1.0000
  C   C56       1.0  0.80374  0.38747  0.38153  1.0000
  C   C57       1.0  0.77063  0.35584  0.37691  1.0000
  C   C58       1.0  0.77835  0.30530  0.33055  1.0000
  C   C59       1.0  0.82035  0.28772  0.29359  1.0000
  C   C60       1.0  0.85294  0.31913  0.29317  1.0000
  C   C61       1.0  0.71087  0.27072  0.25378  1.0000
  C   C62       1.0  0.72273  0.72616  0.30145  1.0000
  C   C63       1.0  0.91031  0.51436  0.23628  1.0000
  C   C64       1.0  0.90875  0.47007  0.27299  1.0000
  C   C65       1.0  0.95114  0.45582  0.28573  1.0000
  C   C66       1.0  0.98071  0.48982  0.25088  1.0000
  C   C67       1.0  0.95352  0.52529  0.21625  1.0000
  C   C68       1.0  0.96205  0.56255  0.15537  1.0000
  C   C69       1.0  0.92927  0.59244  0.14376  1.0000
  C   C70       1.0  0.88686  0.58544  0.18634  1.0000
  C   C71       1.0  0.87771  0.54408  0.22453  1.0000
  C   C72       1.0  0.87409  0.44363  0.29318  1.0000
  C   C73       1.0  0.88072  0.40155  0.32986  1.0000
  C   C74       1.0  0.92246  0.39061  0.36098  1.0000
  C   C75       1.0  0.47657  0.89285  0.74885  1.0000
  C   C76       1.0  0.47373  0.09778  0.81928  1.0000
  C   C77       1.0  0.52148  0.89648  0.78899  1.0000
  C   C78       1.0  0.46214  0.05309  0.83441  1.0000
  C   C79       1.0  0.53582  0.94358  0.80419  1.0000
  C   C80       1.0  0.49937  0.02012  0.79280  1.0000
  C   C81       1.0  0.49999  0.97151  0.77709  1.0000
  C   C82       1.0  0.53460  0.04895  0.76341  1.0000
  C   C83       1.0  0.46370  0.93750  0.73753  1.0000
  C   C84       1.0  0.57717  0.03799  0.71288  1.0000
  C   C85       1.0  0.42273  0.93967  0.67821  1.0000
  C   C86       1.0  0.60363  0.07328  0.69433  1.0000
  C   C87       1.0  0.39420  0.90200  0.65864  1.0000
  C   C88       1.0  0.58895  0.12055  0.72068  1.0000
  C   C89       1.0  0.40583  0.85992  0.68808  1.0000
  C   C90       1.0  0.54539  0.13055  0.75667  1.0000
  C   C91       1.0  0.44844  0.85461  0.72449  1.0000
  C   C92       1.0  0.44426  0.13489  0.84494  1.0000
  C   C93       1.0  0.54887  0.86215  0.80762  1.0000
  C   C94       1.0  0.40195  0.12895  0.89088  1.0000
  C   C95       1.0  0.59184  0.87397  0.84523  1.0000
  C   C96       1.0  0.39162  0.08663  0.92262  1.0000
  C   C97       1.0  0.60486  0.92213  0.87671  1.0000
  C   C98       1.0  0.42133  0.04978  0.89968  1.0000
  C   C99       1.0  0.57749  0.95637  0.85804  1.0000
  C   C100      1.0  0.61903  0.15816  0.71879  1.0000
  C   C101      1.0  0.66143  0.15498  0.76459  1.0000
  C   C102      1.0  0.69060  0.19062  0.77295  1.0000
  C   C103      1.0  0.67850  0.23134  0.73667  1.0000
  C   C104      1.0  0.63656  0.23438  0.68744  1.0000
  C   C105      1.0  0.60715  0.19851  0.67989  1.0000
  C   C106      1.0  0.09115  0.46782  0.77178  1.0000
  C   C107      1.0  0.28307  0.71620  0.68792  1.0000
  C   C108      1.0  0.09131  0.51897  0.79221  1.0000
  C   C109      1.0  0.27770  0.26895  0.87259  1.0000
  C   C110      1.0  0.04846  0.53420  0.79321  1.0000
  C   C111      1.0  0.51900  0.09548  0.77736  1.0000
  C   C112      1.0  0.02009  0.49213  0.76091  1.0000
  C   C113      1.0  0.04873  0.45078  0.74091  1.0000
  C   C114      1.0  0.95393  0.41891  0.84422  1.0000
  C   C115      1.0  0.04260  0.40006  0.68286  1.0000
  C   C116      1.0  0.84682  0.61997  0.68516  1.0000
  C   C117      1.0  0.07574  0.36966  0.68692  1.0000
  C   C118      1.0  0.84360  0.36812  0.83621  1.0000
  C   C119      1.0  0.11668  0.38765  0.74232  1.0000
  C   C120      1.0  0.85627  0.66965  0.72113  1.0000
  C   C121      1.0  0.12416  0.43756  0.77835  1.0000
  C   C122      1.0  0.82527  0.70335  0.72622  1.0000
  C   C123      1.0  0.12516  0.54981  0.80072  1.0000
  C   C124      1.0  0.78250  0.68927  0.70351  1.0000
  C   C125      1.0  0.11766  0.59805  0.81425  1.0000
  C   C126      1.0  0.77259  0.63958  0.66269  1.0000
  C   C127      1.0  0.07528  0.61498  0.84394  1.0000
  C   C128      1.0  0.80410  0.60577  0.65367  1.0000
  C   C129      1.0  0.04132  0.58432  0.83752  1.0000
  C   C130      1.0  0.80179  0.38534  0.88673  1.0000
  C   C131      1.0  0.14958  0.35498  0.76158  1.0000
  C   C132      1.0  0.76906  0.35322  0.88112  1.0000
  C   C133      1.0  0.15184  0.62995  0.79617  1.0000
  C   C134      1.0  0.77720  0.30257  0.82683  1.0000
  C   C135      1.0  0.13807  0.31471  0.80372  1.0000
  C   C136      1.0  0.81932  0.28561  0.78806  1.0000
  C   C137      1.0  0.16818  0.28247  0.81820  1.0000
  C   C138      1.0  0.85146  0.31763  0.78930  1.0000
  C   C139      1.0  0.21167  0.28968  0.79678  1.0000
  C   C140      1.0  0.22348  0.33050  0.75881  1.0000
  C   C141      1.0  0.19321  0.36207  0.73989  1.0000
  C   C142      1.0  0.19460  0.62330  0.82814  1.0000
  C   C143      1.0  0.22640  0.65385  0.80939  1.0000
  C   C144      1.0  0.21641  0.69393  0.76470  1.0000
  C   C145      1.0  0.17363  0.70136  0.73621  1.0000
  C   C146      1.0  0.14248  0.66929  0.74617  1.0000
  C   C147      1.0  0.70995  0.26856  0.74730  1.0000
  C   C148      1.0  0.71634  0.72718  0.79694  1.0000
  C   C149      1.0  0.90504  0.51454  0.73509  1.0000
  C   C150      1.0  0.90438  0.47033  0.77332  1.0000
  C   C151      1.0  0.94704  0.45714  0.78766  1.0000
  C   C152      1.0  0.97595  0.49172  0.75342  1.0000
  C   C153      1.0  0.94812  0.52628  0.71616  1.0000
  C   C154      1.0  0.95602  0.56369  0.65585  1.0000
  C   C155      1.0  0.92284  0.59287  0.64288  1.0000
  C   C156      1.0  0.88046  0.58534  0.68391  1.0000
  C   C157      1.0  0.87199  0.54363  0.72167  1.0000
  C   C158      1.0  0.87057  0.44266  0.79290  1.0000
  C   C159      1.0  0.87817  0.40071  0.82920  1.0000
  C   C160      1.0  0.92014  0.39058  0.86008  1.0000
  N   N1        1.0  0.24030  0.24935  0.31398  1.0000
  N   N2        1.0  0.25096  0.72530  0.26209  1.0000
  N   N3        1.0  0.75905  0.72518  0.22354  1.0000
  N   N4        1.0  0.74762  0.27034  0.31966  1.0000
  N   N5        1.0  0.24013  0.25578  0.81374  1.0000
  N   N6        1.0  0.24534  0.72852  0.75560  1.0000
  N   N7        1.0  0.75285  0.72588  0.71998  1.0000
  N   N8        1.0  0.74637  0.26770  0.81432  1.0000
  C   C161      1.0  0.68121  0.83287  0.26734  1.0000
  C   C162      1.0  0.63839  0.83482  0.31669  1.0000
  C  Sn1       1.0  0.62171  0.80064  0.37910  1.0000
  C  Sn2       1.0  0.64848  0.76387  0.39224  1.0000
  C   C163      1.0  0.69128  0.76225  0.34265  1.0000
  C   C164      1.0  0.70764  0.79663  0.28032  1.0000
  H   H89       1.0  0.69388  0.85948  0.21920  1.0000
  O  Te1       1.0  0.57885  0.80310  0.42779  1.0000
  O  Te2       1.0  0.63264  0.72926  0.45424  1.0000
  H   H90       1.0  0.74081  0.79512  0.24222  1.0000
  Mg  Mg1       1.0  0.57208  0.74774  0.50444  1.0000
  C   C165      1.0  0.35855  0.24766  0.97627  1.0000
  C   C166      1.0  0.31909  0.23875  0.89549  1.0000
  C  Sn3       1.0  0.30305  0.19103  0.82250  1.0000
  C  Sn4       1.0  0.32704  0.15157  0.83077  1.0000
  C   C167      1.0  0.36647  0.16087  0.91198  1.0000
  C   C168      1.0  0.38222  0.20877  0.98455  1.0000
  H   H91       1.0  0.37630  0.17603  0.03251  1.0000
  O  Te3       1.0  0.26358  0.18277  0.74222  1.0000
  O  Te4       1.0  0.31175  0.10352  0.75893  1.0000
  H   H92       1.0  0.41833  0.10697  0.04718  1.0000
  Mg  Mg2       1.0  0.25627  0.11085  0.66331  1.0000
  C   C169      1.0  0.61573  0.78596  0.89506  1.0000
  C   C170      1.0  0.62055  0.82894  0.86453  1.0000
  C  Sn5       1.0  0.65905  0.83894  0.79833  1.0000
  C  Sn6       1.0  0.69330  0.80522  0.76211  1.0000
  C   C171      1.0  0.68815  0.76231  0.79298  1.0000
  C   C172      1.0  0.64949  0.75267  0.85931  1.0000
  H   H93       1.0  0.58582  0.77849  0.94628  1.0000
  O  Te5       1.0  0.66333  0.88206  0.76865  1.0000
  O  Te6       1.0  0.73212  0.81429  0.69582  1.0000
  H   H94       1.0  0.64576  0.71937  0.88282  1.0000
  Mg  Mg3       1.0  0.72244  0.87812  0.67724  1.0000
  C   C173      1.0  0.30645  0.81670  0.77616  1.0000
  C   C174      1.0  0.30896  0.76540  0.69471  1.0000
  C  Sn7       1.0  0.34655  0.74219  0.60944  1.0000
  C  Sn8       1.0  0.38224  0.77097  0.60590  1.0000
  C   C175      1.0  0.37942  0.82226  0.68789  1.0000
  C   C176      1.0  0.34164  0.84510  0.77280  1.0000
  H   H95       1.0  0.27723  0.83438  0.84194  1.0000
  O  Te7       1.0  0.34850  0.69091  0.52867  1.0000
  O  Te8       1.0  0.42021  0.74872  0.52167  1.0000
  H   H96       1.0  0.33972  0.88482  0.83595  1.0000
  Mg  Mg4       1.0  0.40725  0.67766  0.43051  1.0000
  C   C177      1.0  0.32692  0.83175  0.26554  1.0000
  C   C178      1.0  0.36929  0.82486  0.20757  1.0000
  C  Sn9       1.0  0.38633  0.77743  0.12531  1.0000
  C  Sn10      1.0  0.36037  0.73621  0.10078  1.0000
  C   C179      1.0  0.31801  0.74349  0.15913  1.0000
  C   C180      1.0  0.30129  0.79111  0.24133  1.0000
  H   H97       1.0  0.31398  0.86859  0.32905  1.0000
  O  Te9       1.0  0.42873  0.77120  0.06825  1.0000
  O  Te10      1.0  0.37658  0.68840  0.01891  1.0000
  H   H98       1.0  0.26848  0.79644  0.28609  1.0000
  Mg  Mg5       1.0  0.43070  0.80751  0.96396  1.0000
  C   C181      1.0  0.22898  0.63958  0.32362  1.0000
  C   C182      1.0  0.22640  0.67763  0.26354  1.0000
  C  Sn11      1.0  0.18717  0.69213  0.22424  1.0000
  C  Sn12      1.0  0.14989  0.66803  0.24567  1.0000
  C   C183      1.0  0.15281  0.63003  0.30598  1.0000
  C   C184      1.0  0.19223  0.61580  0.34486  1.0000
  H   H99       1.0  0.25948  0.62859  0.35381  1.0000
  O  Te11      1.0  0.18515  0.73020  0.16428  1.0000
  O  Te12      1.0  0.11027  0.68179  0.20743  1.0000
  H   H100      1.0  0.19422  0.58636  0.39149  1.0000
  Mg  Mg6       1.0  0.12384  0.73571  0.12950  1.0000
  C   C185      1.0  0.20685  0.35504  0.25375  1.0000
  C   C186      1.0  0.16268  0.35269  0.25762  1.0000
  C  Sn13      1.0  0.14251  0.31584  0.29595  1.0000
  C  Sn14      1.0  0.16709  0.28075  0.33104  1.0000
  C   C187      1.0  0.21125  0.28343  0.32696  1.0000
  C   C188      1.0  0.23111  0.32045  0.28841  1.0000
  H   H101      1.0  0.22222  0.38370  0.22402  1.0000
  O  Te13      1.0  0.09836  0.31402  0.29921  1.0000
  O  Te14      1.0  0.14774  0.24355  0.36977  1.0000
  H   H102      1.0  0.26531  0.32228  0.28553  1.0000
  Mg  Mg7       1.0  0.08664  0.25640  0.35853  1.0000
  C   C189      1.0  0.84288  0.70152  0.24853  1.0000
  C   C190      1.0  0.80062  0.69295  0.19865  1.0000
  C  Sn15      1.0  0.78359  0.64594  0.14900  1.0000
  C  Sn16      1.0  0.80941  0.60687  0.14947  1.0000
  C   C191      1.0  0.85164  0.61583  0.19971  1.0000
  C   C192      1.0  0.86837  0.66300  0.24910  1.0000
  H   H103      1.0  0.85582  0.73802  0.28684  1.0000
  O  Te15      1.0  0.74131  0.63802  0.09948  1.0000
  O  Te16      1.0  0.79319  0.55954  0.10051  1.0000
  H   H104      1.0  0.90108  0.66963  0.28782  1.0000
  Mg  Mg8       1.0  0.73371  0.56709  0.04348  1.0000
