data_image0
_chemical_formula_structural       H88C156N12SnCSn2CSnTe4Mg2SnCSn2CSnTe4Mg2SnCSn2CSnTe4Mg2SnCSn2CSnTe4Mg2SnCSn2CSnTe4Mg2SnCSn2CSnTe4Mg2SnCSn2CSnTe4Mg2SnCSn2CSnTe4Mg2
_chemical_formula_sum              "H88 C172 N12 Sn32 Te32 Mg16"
_cell_length_a       31.5314
_cell_length_b       28.6097
_cell_length_c       8.13901
_cell_angle_alpha    95.7396
_cell_angle_beta     93.4245
_cell_angle_gamma    90.0888

_symmetry_space_group_name_H-M    'P1'
_space_group_IT_number       1

loop_
  _space_group_symop_operation_xyz
  'x, y, z'

loop_
  _atom_site_type_symbol
  _atom_site_label
  _atom_site_symmetry_multiplicity
  _atom_site_fract_x
  _atom_site_fract_y
  _atom_site_fract_z
  _atom_site_occupancy
  H   H1        1.0  0.36601  0.92245  0.06480  1.0000
  H   H2        1.0  0.63446  0.07556  0.08752  1.0000
  H   H3        1.0  0.64046  0.92617  0.44687  1.0000
  H   H4        1.0  0.36935  0.07740  0.44683  1.0000
  H   H5        1.0  0.46220  0.82457  0.20640  1.0000
  H   H6        1.0  0.53430  0.17478  0.19190  1.0000
  H   H7        1.0  0.53885  0.82583  0.31779  1.0000
  H   H8        1.0  0.46085  0.17588  0.30378  1.0000
  H   H9        1.0  0.33350  0.86556  0.95039  1.0000
  H   H10       1.0  0.27872  0.80317  0.92497  1.0000
  H   H11       1.0  0.35981  0.71979  0.22101  1.0000
  H   H12       1.0  0.41356  0.78253  0.25523  1.0000
  H   H13       1.0  0.29070  0.69065  0.13652  1.0000
  H   H14       1.0  0.70590  0.30989  0.13275  1.0000
  H   H15       1.0  0.71106  0.69215  0.37043  1.0000
  H   H16       1.0  0.28655  0.30492  0.34960  1.0000
  H   H17       1.0  0.82592  0.25245  0.16368  1.0000
  H   H18       1.0  0.16602  0.25103  0.35872  1.0000
  H   H19       1.0  0.88450  0.31150  0.20198  1.0000
  H   H20       1.0  0.11002  0.31032  0.31483  1.0000
  H   H21       1.0  0.80663  0.40749  0.94550  1.0000
  H   H22       1.0  0.19485  0.41980  0.53452  1.0000
  H   H23       1.0  0.74725  0.34964  0.91661  1.0000
  H   H24       1.0  0.25188  0.36072  0.56716  1.0000
  H   H25       1.0  0.06432  0.63698  0.02306  1.0000
  H   H26       1.0  0.93366  0.34946  0.03580  1.0000
  H   H27       1.0  0.94064  0.65328  0.43645  1.0000
  H   H28       1.0  0.06396  0.36078  0.45592  1.0000
  H   H29       1.0  0.00630  0.58487  0.09294  1.0000
  H   H30       1.0  0.99358  0.40492  0.10519  1.0000
  H   H31       1.0  0.99790  0.59863  0.35811  1.0000
  H   H32       1.0  0.00622  0.41431  0.37821  1.0000
  H   H33       1.0  0.15839  0.54222  0.20031  1.0000
  H   H34       1.0  0.84407  0.45617  0.18816  1.0000
  H   H35       1.0  0.84612  0.54536  0.30093  1.0000
  H   H36       1.0  0.15800  0.45566  0.31196  1.0000
  H   H37       1.0  0.41595  0.98783  0.13197  1.0000
  H   H38       1.0  0.58974  0.01120  0.15700  1.0000
  H   H39       1.0  0.59320  0.99077  0.38565  1.0000
  H   H40       1.0  0.41933  0.01296  0.39785  1.0000
  H   H41       1.0  0.36417  0.92223  0.56946  1.0000
  H   H42       1.0  0.63453  0.07464  0.58480  1.0000
  H   H43       1.0  0.63933  0.92634  0.94463  1.0000
  H   H44       1.0  0.37143  0.08013  0.96198  1.0000
  H   H45       1.0  0.46186  0.82504  0.70225  1.0000
  H   H46       1.0  0.53527  0.17507  0.68515  1.0000
  H   H47       1.0  0.53726  0.82641  0.81648  1.0000
  H   H48       1.0  0.46069  0.17671  0.79210  1.0000
  H   H49       1.0  0.65416  0.12435  0.42537  1.0000
  H   H50       1.0  0.66323  0.87348  0.09224  1.0000
  H   H51       1.0  0.33402  0.13072  0.01624  1.0000
  H   H52       1.0  0.70954  0.18480  0.40383  1.0000
  H   H53       1.0  0.71807  0.81181  0.10921  1.0000
  H   H54       1.0  0.27840  0.19084  0.02719  1.0000
  H   H55       1.0  0.64376  0.28171  0.73488  1.0000
  H   H56       1.0  0.64223  0.71934  0.76026  1.0000
  H   H57       1.0  0.35900  0.28333  0.79874  1.0000
  H   H58       1.0  0.59033  0.22092  0.76682  1.0000
  H   H59       1.0  0.58894  0.78155  0.73329  1.0000
  H   H60       1.0  0.41403  0.22321  0.77972  1.0000
  H   H61       1.0  0.29028  0.69064  0.63944  1.0000
  H   H62       1.0  0.70868  0.30688  0.63392  1.0000
  H   H63       1.0  0.71006  0.69212  0.86368  1.0000
  H   H64       1.0  0.28830  0.30913  0.86107  1.0000
  H   H65       1.0  0.82859  0.24931  0.63781  1.0000
  H   H66       1.0  0.16720  0.25216  0.83118  1.0000
  H   H67       1.0  0.88649  0.30902  0.68167  1.0000
  H   H68       1.0  0.11078  0.31136  0.79193  1.0000
  H   H69       1.0  0.80512  0.40867  0.45965  1.0000
  H   H70       1.0  0.19195  0.41882  0.05028  1.0000
  H   H71       1.0  0.74639  0.34974  0.42499  1.0000
  H   H72       1.0  0.24900  0.36002  0.08186  1.0000
  H   H73       1.0  0.06336  0.63998  0.53937  1.0000
  H   H74       1.0  0.93379  0.35053  0.52691  1.0000
  H   H75       1.0  0.93875  0.65301  0.94262  1.0000
  H   H76       1.0  0.06331  0.36099  0.95474  1.0000
  H   H77       1.0  0.00522  0.58732  0.60214  1.0000
  H   H78       1.0  0.99317  0.40643  0.59984  1.0000
  H   H79       1.0  0.99612  0.59883  0.86222  1.0000
  H   H80       1.0  0.00533  0.41495  0.88026  1.0000
  H   H81       1.0  0.15716  0.54265  0.70052  1.0000
  H   H82       1.0  0.84344  0.45479  0.69321  1.0000
  H   H83       1.0  0.84472  0.54465  0.80706  1.0000
  H   H84       1.0  0.15689  0.45550  0.80679  1.0000
  H   H85       1.0  0.41341  0.98829  0.63758  1.0000
  H   H86       1.0  0.58888  0.01072  0.65377  1.0000
  H   H87       1.0  0.59191  0.99124  0.88609  1.0000
  H   H88       1.0  0.42003  0.01518  0.90520  1.0000
  C   C1        1.0  0.47955  0.89760  0.23576  1.0000
  C   C2        1.0  0.52245  0.10325  0.23551  1.0000
  C   C3        1.0  0.52458  0.89809  0.28937  1.0000
  C   C4        1.0  0.47881  0.10337  0.28689  1.0000
  C   C5        1.0  0.53933  0.94557  0.30355  1.0000
  C   C6        1.0  0.46734  0.05622  0.30684  1.0000
  C   C7        1.0  0.46685  0.94481  0.22172  1.0000
  C   C8        1.0  0.53766  0.05619  0.22977  1.0000
  C   C9        1.0  0.42604  0.95257  0.15288  1.0000
  C   C10       1.0  0.57783  0.04683  0.17045  1.0000
  C   C11       1.0  0.58112  0.95501  0.36612  1.0000
  C   C12       1.0  0.42823  0.04802  0.37198  1.0000
  C   C13       1.0  0.39789  0.91506  0.11321  1.0000
  C   C14       1.0  0.60277  0.08344  0.12782  1.0000
  C   C15       1.0  0.60774  0.91823  0.40328  1.0000
  C   C16       1.0  0.40015  0.08499  0.40200  1.0000
  C   C17       1.0  0.40928  0.86838  0.13767  1.0000
  C   C18       1.0  0.58857  0.13044  0.13844  1.0000
  C   C19       1.0  0.59389  0.87092  0.38248  1.0000
  C   C20       1.0  0.41012  0.13156  0.37301  1.0000
  C   C21       1.0  0.45144  0.86025  0.19547  1.0000
  C   C22       1.0  0.54722  0.13951  0.19027  1.0000
  C   C23       1.0  0.55119  0.86159  0.32755  1.0000
  C   C24       1.0  0.45089  0.14025  0.31911  1.0000
  C   C25       1.0  0.37798  0.82964  0.10751  1.0000
  C   C26       1.0  0.33928  0.83424  0.01353  1.0000
  C   C27       1.0  0.30847  0.79912  0.99686  1.0000
  C   C28       1.0  0.31516  0.75737  0.07262  1.0000
  C   C29       1.0  0.35433  0.75151  0.15947  1.0000
  C   C30       1.0  0.38492  0.78701  0.17754  1.0000
  C   C31       1.0  0.28188  0.72200  0.07420  1.0000
  C   C32       1.0  0.71312  0.27410  0.07904  1.0000
  C   C33       1.0  0.71948  0.72701  0.43388  1.0000
  C   C34       1.0  0.28027  0.27366  0.41343  1.0000
  C   C35       1.0  0.78240  0.29749  0.04181  1.0000
  C   C36       1.0  0.21294  0.30208  0.46078  1.0000
  C   C37       1.0  0.82213  0.28642  0.11562  1.0000
  C   C38       1.0  0.17198  0.28808  0.39682  1.0000
  C   C39       1.0  0.85483  0.31944  0.13558  1.0000
  C   C40       1.0  0.14075  0.32138  0.37391  1.0000
  C   C41       1.0  0.84980  0.36394  0.07763  1.0000
  C   C42       1.0  0.14838  0.36956  0.42027  1.0000
  C   C43       1.0  0.81060  0.37411  0.99793  1.0000
  C   C44       1.0  0.18878  0.38299  0.49183  1.0000
  C   C45       1.0  0.77717  0.34163  0.98124  1.0000
  C   C46       1.0  0.22079  0.35000  0.51058  1.0000
  C   C47       1.0  0.11531  0.59364  0.10946  1.0000
  C   C48       1.0  0.88468  0.39882  0.10614  1.0000
  C   C49       1.0  0.88932  0.60327  0.37652  1.0000
  C   C50       1.0  0.11501  0.40417  0.38822  1.0000
  C   C51       1.0  0.07204  0.60488  0.07937  1.0000
  C   C52       1.0  0.92726  0.38546  0.08371  1.0000
  C   C53       1.0  0.93258  0.61714  0.39054  1.0000
  C   C54       1.0  0.07183  0.39347  0.40655  1.0000
  C   C55       1.0  0.03923  0.57577  0.11604  1.0000
  C   C56       1.0  0.96132  0.41665  0.12015  1.0000
  C   C57       1.0  0.96530  0.58631  0.34872  1.0000
  C   C58       1.0  0.03905  0.42360  0.36581  1.0000
  C   C59       1.0  0.04983  0.53451  0.18496  1.0000
  C   C60       1.0  0.95262  0.46281  0.18084  1.0000
  C   C61       1.0  0.95469  0.53977  0.29235  1.0000
  C   C62       1.0  0.04961  0.46543  0.30364  1.0000
  C   C63       1.0  0.09290  0.52166  0.21395  1.0000
  C   C64       1.0  0.91010  0.47701  0.20476  1.0000
  C   C65       1.0  0.91140  0.52526  0.27452  1.0000
  C   C66       1.0  0.09275  0.47754  0.28584  1.0000
  C   C67       1.0  0.12533  0.55124  0.17476  1.0000
  C   C68       1.0  0.87646  0.44528  0.16585  1.0000
  C   C69       1.0  0.87920  0.55670  0.31785  1.0000
  C   C70       1.0  0.12508  0.44707  0.32998  1.0000
  C   C71       1.0  0.50354  0.97637  0.26526  1.0000
  C   C72       1.0  0.50338  0.02518  0.26974  1.0000
  C   C73       1.0  0.47831  0.89833  0.73550  1.0000
  C   C74       1.0  0.52225  0.10366  0.72873  1.0000
  C   C75       1.0  0.52330  0.89879  0.78852  1.0000
  C   C76       1.0  0.47864  0.10433  0.78112  1.0000
  C   C77       1.0  0.53806  0.94622  0.80314  1.0000
  C   C78       1.0  0.46708  0.05744  0.80447  1.0000
  C   C79       1.0  0.46535  0.94556  0.72293  1.0000
  C   C80       1.0  0.53706  0.05642  0.72437  1.0000
  C   C81       1.0  0.42421  0.95309  0.65614  1.0000
  C   C82       1.0  0.57725  0.04646  0.66617  1.0000
  C   C83       1.0  0.57990  0.95547  0.86565  1.0000
  C   C84       1.0  0.42868  0.04998  0.87573  1.0000
  C   C85       1.0  0.39637  0.91523  0.61557  1.0000
  C   C86       1.0  0.60274  0.08268  0.62386  1.0000
  C   C87       1.0  0.60651  0.91853  0.90195  1.0000
  C   C88       1.0  0.40118  0.08729  0.90828  1.0000
  C   C89       1.0  0.40840  0.86850  0.63672  1.0000
  C   C90       1.0  0.58906  0.12982  0.63419  1.0000
  C   C91       1.0  0.59251  0.87123  0.88047  1.0000
  C   C92       1.0  0.41063  0.13347  0.87279  1.0000
  C   C93       1.0  0.45063  0.86069  0.69369  1.0000
  C   C94       1.0  0.54763  0.13955  0.68419  1.0000
  C   C95       1.0  0.54975  0.86212  0.82619  1.0000
  C   C96       1.0  0.45095  0.14145  0.81330  1.0000
  C   C97       1.0  0.61841  0.16746  0.60101  1.0000
  C   C98       1.0  0.62227  0.83276  0.90840  1.0000
  C   C99       1.0  0.37892  0.17128  0.89464  1.0000
  C   C100      1.0  0.65243  0.15836  0.49730  1.0000
  C   C101      1.0  0.65903  0.84018  0.01591  1.0000
  C   C102      1.0  0.33989  0.16366  0.96545  1.0000
  C   C103      1.0  0.68320  0.19216  0.48265  1.0000
  C   C104      1.0  0.68954  0.80564  0.02789  1.0000
  C   C105      1.0  0.30843  0.19743  0.97400  1.0000
  C   C106      1.0  0.68087  0.23702  0.57018  1.0000
  C   C107      1.0  0.68426  0.76169  0.93423  1.0000
  C   C108      1.0  0.31455  0.24119  0.91355  1.0000
  C   C109      1.0  0.64574  0.24732  0.66537  1.0000
  C   C110      1.0  0.64659  0.75304  0.83445  1.0000
  C   C111      1.0  0.35372  0.24994  0.84821  1.0000
  C   C112      1.0  0.61528  0.21310  0.68187  1.0000
  C   C113      1.0  0.61633  0.78800  0.82058  1.0000
  C   C114      1.0  0.38506  0.21572  0.83839  1.0000
  C   C115      1.0  0.28178  0.72163  0.57472  1.0000
  C   C116      1.0  0.71496  0.27164  0.57293  1.0000
  C   C117      1.0  0.71809  0.72690  0.92894  1.0000
  C   C118      1.0  0.28087  0.27608  0.91237  1.0000
  C   C119      1.0  0.78342  0.29582  0.53249  1.0000
  C   C120      1.0  0.21232  0.30241  0.95298  1.0000
  C   C121      1.0  0.82387  0.28421  0.59825  1.0000
  C   C122      1.0  0.17221  0.28874  0.87892  1.0000
  C   C123      1.0  0.85620  0.31768  0.62133  1.0000
  C   C124      1.0  0.14077  0.32197  0.85830  1.0000
  C   C125      1.0  0.84999  0.36331  0.57428  1.0000
  C   C126      1.0  0.14741  0.36964  0.91589  1.0000
  C   C127      1.0  0.80999  0.37417  0.50286  1.0000
  C   C128      1.0  0.18678  0.38259  0.99794  1.0000
  C   C129      1.0  0.77698  0.34118  0.48329  1.0000
  C   C130      1.0  0.21891  0.34969  0.01574  1.0000
  C   C131      1.0  0.11428  0.59518  0.61660  1.0000
  C   C132      1.0  0.88446  0.39857  0.60486  1.0000
  C   C133      1.0  0.88769  0.60273  0.88217  1.0000
  C   C134      1.0  0.11397  0.40430  0.88457  1.0000
  C   C135      1.0  0.07104  0.60705  0.59023  1.0000
  C   C136      1.0  0.92708  0.38604  0.57912  1.0000
  C   C137      1.0  0.93084  0.61686  0.89633  1.0000
  C   C138      1.0  0.07088  0.39369  0.90466  1.0000
  C   C139      1.0  0.03809  0.57769  0.62403  1.0000
  C   C140      1.0  0.96082  0.41754  0.61693  1.0000
  C   C141      1.0  0.96363  0.58627  0.85399  1.0000
  C   C142      1.0  0.03808  0.42399  0.86523  1.0000
  C   C143      1.0  0.04854  0.53559  0.68783  1.0000
  C   C144      1.0  0.95173  0.46317  0.68192  1.0000
  C   C145      1.0  0.95329  0.53973  0.79710  1.0000
  C   C146      1.0  0.04850  0.46577  0.80240  1.0000
  C   C147      1.0  0.09163  0.52236  0.71453  1.0000
  C   C148      1.0  0.90915  0.47673  0.70818  1.0000
  C   C149      1.0  0.91011  0.52483  0.77980  1.0000
  C   C150      1.0  0.09157  0.47780  0.78348  1.0000
  C   C151      1.0  0.12411  0.55209  0.67715  1.0000
  C   C152      1.0  0.87587  0.44459  0.66871  1.0000
  C   C153      1.0  0.87776  0.55609  0.82369  1.0000
  C   C154      1.0  0.12398  0.44714  0.82592  1.0000
  C   C155      1.0  0.50226  0.97710  0.76524  1.0000
  C   C156      1.0  0.50260  0.02587  0.76650  1.0000
  N   N1        1.0  0.24389  0.26725  0.47272  1.0000
  N   N2        1.0  0.75800  0.73746  0.48791  1.0000
  N   N3        1.0  0.75037  0.26315  0.03101  1.0000
  N   N4        1.0  0.24340  0.72839  0.01813  1.0000
  N   N5        1.0  0.02374  0.50033  0.24102  1.0000
  N   N6        1.0  0.97967  0.50125  0.23547  1.0000
  N   N7        1.0  0.24359  0.26783  0.96082  1.0000
  N   N8        1.0  0.75638  0.73741  0.98526  1.0000
  N   N9        1.0  0.75168  0.26106  0.51846  1.0000
  N   N10       1.0  0.24336  0.72793  0.51756  1.0000
  N   N11       1.0  0.02254  0.50100  0.74210  1.0000
  N   N12       1.0  0.97849  0.50167  0.73818  1.0000
  C  Sn1       1.0  0.32102  0.19468  0.53897  1.0000
  C   C157      1.0  0.31896  0.23672  0.46508  1.0000
  C  Sn2       1.0  0.34593  0.24464  0.34051  1.0000
  C  Sn3       1.0  0.37558  0.20979  0.28862  1.0000
  C   C158      1.0  0.37763  0.16778  0.36247  1.0000
  C  Sn4       1.0  0.35066  0.15983  0.48709  1.0000
  O  Te1       1.0  0.29374  0.18751  0.66328  1.0000
  O  Te2       1.0  0.34329  0.28695  0.26852  1.0000
  O  Te3       1.0  0.40287  0.21699  0.16421  1.0000
  O  Te4       1.0  0.35329  0.11754  0.55903  1.0000
  Mg  Mg1       1.0  0.38719  0.28030  0.10385  1.0000
  Mg  Mg2       1.0  0.30940  0.12415  0.72365  1.0000
  C  Sn5       1.0  0.86012  0.69706  0.42602  1.0000
  C   C159      1.0  0.86027  0.64933  0.44937  1.0000
  C  Sn6       1.0  0.82250  0.62624  0.47476  1.0000
  C  Sn7       1.0  0.78377  0.65138  0.47676  1.0000
  C   C160      1.0  0.78364  0.69908  0.45339  1.0000
  C  Sn8       1.0  0.82139  0.72220  0.42801  1.0000
  O  Te5       1.0  0.89825  0.71942  0.40083  1.0000
  O  Te6       1.0  0.82345  0.57851  0.49787  1.0000
  O  Te7       1.0  0.74562  0.62897  0.50197  1.0000
  O  Te8       1.0  0.82046  0.76990  0.40488  1.0000
  Mg  Mg3       1.0  0.76322  0.56359  0.52752  1.0000
  Mg  Mg4       1.0  0.88066  0.78485  0.37515  1.0000
  C  Sn9       1.0  0.61034  0.22797  0.13696  1.0000
  C   C161      1.0  0.61096  0.18060  0.07549  1.0000
  C  Sn10      1.0  0.64836  0.16026  0.01943  1.0000
  C  Sn11      1.0  0.68594  0.18783  0.02500  1.0000
  C   C162      1.0  0.68531  0.23517  0.08646  1.0000
  C  Sn12      1.0  0.64791  0.25554  0.14253  1.0000
  O  Te9       1.0  0.57259  0.24757  0.19236  1.0000
  O  Te10      1.0  0.66366  0.14131  0.95846  1.0000
  O  Te11      1.0  0.73917  0.19666  0.96953  1.0000
  O  Te12      1.0  0.64807  0.30293  0.20349  1.0000
  Mg  Mg5       1.0  0.72296  0.13059  0.89740  1.0000
  Mg  Mg6       1.0  0.58879  0.31368  0.26466  1.0000
  C  Sn13      1.0  0.82834  0.70677  0.84335  1.0000
  C   C163      1.0  0.79078  0.70144  0.92266  1.0000
  C  Sn14      1.0  0.77039  0.63554  0.01788  1.0000
  C  Sn15      1.0  0.80370  0.60277  0.03426  1.0000
  C   C164      1.0  0.85670  0.63659  0.95501  1.0000
  C  Sn16      1.0  0.86165  0.67400  0.85973  1.0000
  O  Te13      1.0  0.83258  0.74445  0.74878  1.0000
  O  Te14      1.0  0.73254  0.63093  0.09595  1.0000
  O  Te15      1.0  0.79943  0.56506  0.12892  1.0000
  O  Te16      1.0  0.89948  0.67862  0.78172  1.0000
  Mg  Mg7       1.0  0.74190  0.57377  0.21140  1.0000
  Mg  Mg8       1.0  0.89017  0.73577  0.66632  1.0000
  C  Sn17      1.0  0.31925  0.80040  0.44658  1.0000
  C   C165      1.0  0.31942  0.75884  0.52340  1.0000
  C  Sn18      1.0  0.34822  0.75307  0.65692  1.0000
  C  Sn19      1.0  0.37744  0.78962  0.71495  1.0000
  C   C166      1.0  0.37726  0.83115  0.63817  1.0000
  C  Sn20      1.0  0.34848  0.83695  0.50461  1.0000
  O  Te17      1.0  0.29018  0.80541  0.31329  1.0000
  O  Te18      1.0  0.34779  0.71120  0.73168  1.0000
  O  Te19      1.0  0.40653  0.78458  0.84835  1.0000
  O  Te20      1.0  0.34889  0.87879  0.42988  1.0000
  Mg  Mg9       1.0  0.39356  0.72106  0.90926  1.0000
  Mg  Mg10      1.0  0.30312  0.86898  0.25236  1.0000
  C  Sn21      1.0  0.14261  0.68658  0.07871  1.0000
  C   C167      1.0  0.14364  0.63775  0.04485  1.0000
  C  Sn22      1.0  0.18191  0.61502  0.01329  1.0000
  C  Sn23      1.0  0.21996  0.64166  0.01571  1.0000
  C   C168      1.0  0.21892  0.69046  0.04958  1.0000
  C  Sn24      1.0  0.18066  0.71322  0.08113  1.0000
  O  Te21      1.0  0.10399  0.70856  0.10992  1.0000
  O  Te22      1.0  0.19760  0.59465  0.97969  1.0000
  O  Te23      1.0  0.27406  0.64811  0.98446  1.0000
  O  Te24      1.0  0.18042  0.76204  0.11474  1.0000
  Mg  Mg11      1.0  0.25810  0.58081  0.94503  1.0000
  Mg  Mg12      1.0  0.11994  0.77591  0.14950  1.0000
  C  Sn25      1.0  0.17131  0.70373  0.65679  1.0000
  C   C169      1.0  0.20958  0.69473  0.58176  1.0000
  C  Sn26      1.0  0.21620  0.65149  0.49146  1.0000
  C  Sn27      1.0  0.18388  0.61652  0.47573  1.0000
  C   C170      1.0  0.14563  0.62553  0.55071  1.0000
  C  Sn28      1.0  0.13899  0.66876  0.64106  1.0000
  O  Te25      1.0  0.16538  0.74721  0.74647  1.0000
  O  Te26      1.0  0.25473  0.64331  0.41761  1.0000
  O  Te27      1.0  0.18984  0.57302  0.38597  1.0000
  O  Te28      1.0  0.10048  0.67695  0.71486  1.0000
  Mg  Mg13      1.0  0.24774  0.57857  0.30804  1.0000
  Mg  Mg14      1.0  0.10744  0.74168  0.82437  1.0000
  C  Sn29      1.0  0.68157  0.81139  0.57027  1.0000
  C   C171      1.0  0.68154  0.76621  0.48719  1.0000
  C  Sn30      1.0  0.65310  0.75425  0.35120  1.0000
  C  Sn31      1.0  0.62409  0.78815  0.29705  1.0000
  C   C172      1.0  0.62413  0.83330  0.38010  1.0000
  C  Sn32      1.0  0.65257  0.84529  0.51612  1.0000
  O  Te29      1.0  0.71029  0.82258  0.70591  1.0000
  O  Te30      1.0  0.65366  0.70885  0.27017  1.0000
  O  Te31      1.0  0.59536  0.77692  0.16130  1.0000
  O  Te32      1.0  0.65202  0.89066  0.59712  1.0000
  Mg  Mg15      1.0  0.60838  0.71048  0.09154  1.0000
  Mg  Mg16      1.0  0.69730  0.88907  0.77569  1.0000
