data_image0
_chemical_formula_structural       H42C75N4C2Sn2C2HTe2HMgC2Sn2C2HTe2HMgC2Sn2C2HTe2HMg
_chemical_formula_sum              "H48 C87 N4 Sn6 Te6 Mg3"
_cell_length_a       27.9124
_cell_length_b       27.2492
_cell_length_c       6.0361
_cell_angle_alpha    99.8658
_cell_angle_beta     91.7819
_cell_angle_gamma    90.8945

_symmetry_space_group_name_H-M    'P1'
_space_group_IT_number       1

loop_
  _space_group_symop_operation_xyz
  'x, y, z'

loop_
  _atom_site_type_symbol
  _atom_site_label
  _atom_site_symmetry_multiplicity
  _atom_site_fract_x
  _atom_site_fract_y
  _atom_site_fract_z
  _atom_site_occupancy
  H   H1        1.0  0.43799  0.01486  0.78576  1.0000
  H   H2        1.0  0.37885  0.94830  0.81763  1.0000
  H   H3        1.0  0.47557  0.83616  0.51490  1.0000
  H   H4        1.0  0.56777  0.83279  0.42460  1.0000
  H   H5        1.0  0.68260  0.93469  0.34766  1.0000
  H   H6        1.0  0.62864  0.00526  0.41345  1.0000
  H   H7        1.0  0.32592  0.89502  0.57456  1.0000
  H   H8        1.0  0.26328  0.82820  0.55268  1.0000
  H   H9        1.0  0.36929  0.72774  0.72840  1.0000
  H   H10       1.0  0.43217  0.79362  0.74759  1.0000
  H   H11       1.0  0.05567  0.62386  0.28653  1.0000
  H   H12       1.0  0.96938  0.62413  0.35283  1.0000
  H   H13       1.0  0.98300  0.39596  0.64522  1.0000
  H   H14       1.0  0.06642  0.39223  0.54753  1.0000
  H   H15       1.0  0.18386  0.51738  0.41233  1.0000
  H   H16       1.0  0.19784  0.57987  0.17647  1.0000
  H   H17       1.0  0.24972  0.65525  0.25876  1.0000
  H   H18       1.0  0.15206  0.72125  0.75445  1.0000
  H   H19       1.0  0.10348  0.64314  0.69741  1.0000
  H   H20       1.0  0.62631  0.04731  0.73006  1.0000
  H   H21       1.0  0.68305  0.11718  0.72686  1.0000
  H   H22       1.0  0.57448  0.20023  0.44425  1.0000
  H   H23       1.0  0.48430  0.19682  0.41210  1.0000
  H   H24       1.0  0.36764  0.08713  0.36571  1.0000
  H   H25       1.0  0.42446  0.02418  0.43124  1.0000
  H   H26       1.0  0.72980  0.15727  0.52672  1.0000
  H   H27       1.0  0.78829  0.22884  0.54345  1.0000
  H   H28       1.0  0.67285  0.33140  0.63736  1.0000
  H   H29       1.0  0.61470  0.26134  0.63052  1.0000
  H   H30       1.0  0.43712  0.24456  0.31322  1.0000
  H   H31       1.0  0.37933  0.31176  0.34824  1.0000
  H   H32       1.0  0.27102  0.20966  0.51176  1.0000
  H   H33       1.0  0.32997  0.14932  0.48797  1.0000
  H   H34       1.0  0.86780  0.47321  0.03610  1.0000
  H   H35       1.0  0.80387  0.39578  0.00421  1.0000
  H   H36       1.0  0.87486  0.38599  0.40366  1.0000
  H   H37       1.0  0.91145  0.35595  0.58446  1.0000
  H   H38       1.0  0.86185  0.51812  0.68190  1.0000
  H   H39       1.0  0.78968  0.72875  0.03115  1.0000
  H   H40       1.0  0.75067  0.36325  0.65917  1.0000
  H   H41       1.0  0.29131  0.69621  0.63472  1.0000
  H   H42       1.0  0.30023  0.34144  0.39923  1.0000
  C   C1        1.0  0.50073  0.91287  0.55495  1.0000
  C   C2        1.0  0.00043  0.42860  0.59904  1.0000
  C   C3        1.0  0.55065  0.91116  0.48771  1.0000
  C   C4        1.0  0.04797  0.42690  0.54704  1.0000
  C   C5        1.0  0.56794  0.96122  0.49500  1.0000
  C   C6        1.0  0.07279  0.46966  0.49636  1.0000
  C   C7        1.0  0.52870  0.99555  0.55819  1.0000
  C   C8        1.0  0.12309  0.47020  0.45843  1.0000
  C   C9        1.0  0.48886  0.96429  0.60923  1.0000
  C   C10       1.0  0.14502  0.51439  0.41910  1.0000
  C   C11       1.0  0.44565  0.97649  0.71652  1.0000
  C   C12       1.0  0.11948  0.55774  0.41166  1.0000
  C   C13       1.0  0.41236  0.93882  0.73496  1.0000
  C   C14       1.0  0.14645  0.60517  0.43032  1.0000
  C   C15       1.0  0.42173  0.88797  0.65680  1.0000
  C   C16       1.0  0.46740  0.87523  0.57323  1.0000
  C   C17       1.0  0.18793  0.61005  0.30819  1.0000
  C   C18       1.0  0.58069  0.87093  0.43131  1.0000
  C   C19       1.0  0.21686  0.65275  0.35053  1.0000
  C   C20       1.0  0.62937  0.87970  0.39574  1.0000
  C   C21       1.0  0.20405  0.69340  0.51226  1.0000
  C   C22       1.0  0.64560  0.92860  0.38963  1.0000
  C   C23       1.0  0.16113  0.69018  0.62607  1.0000
  C   C24       1.0  0.61502  0.96871  0.42973  1.0000
  C   C25       1.0  0.13361  0.64647  0.59037  1.0000
  C   C26       1.0  0.38424  0.84936  0.65958  1.0000
  C   C27       1.0  0.33566  0.85845  0.60981  1.0000
  C   C28       1.0  0.30052  0.82146  0.59553  1.0000
  C   C29       1.0  0.31232  0.77331  0.63318  1.0000
  C   C30       1.0  0.36024  0.76429  0.69029  1.0000
  C   C31       1.0  0.55335  0.12761  0.50713  1.0000
  C   C32       1.0  0.39549  0.80135  0.70165  1.0000
  C   C33       1.0  0.50183  0.12380  0.46165  1.0000
  C   C34       1.0  0.48620  0.07460  0.48623  1.0000
  C   C35       1.0  0.52728  0.04665  0.54566  1.0000
  C   C36       1.0  0.56822  0.08188  0.56870  1.0000
  C   C37       1.0  0.61488  0.07935  0.65851  1.0000
  C   C38       1.0  0.64676  0.11930  0.66056  1.0000
  C   C39       1.0  0.04560  0.51324  0.47986  1.0000
  C   C40       1.0  0.63340  0.16277  0.57793  1.0000
  C   C41       1.0  0.06863  0.55579  0.41792  1.0000
  C   C42       1.0  0.58561  0.16676  0.50539  1.0000
  C   C43       1.0  0.03943  0.59475  0.36287  1.0000
  C   C44       1.0  0.47030  0.15977  0.42079  1.0000
  C   C45       1.0  0.99128  0.59511  0.40321  1.0000
  C   C46       1.0  0.42010  0.14917  0.40343  1.0000
  C   C47       1.0  0.28607  0.30735  0.45136  1.0000
  C   C48       1.0  0.40512  0.09868  0.40211  1.0000
  C   C49       1.0  0.43720  0.06229  0.43806  1.0000
  C   C50       1.0  0.66788  0.20396  0.57559  1.0000
  C   C51       1.0  0.38779  0.18922  0.39891  1.0000
  C   C52       1.0  0.71747  0.19546  0.55380  1.0000
  C   C53       1.0  0.74999  0.23475  0.56261  1.0000
  C   C54       1.0  0.73427  0.28418  0.59270  1.0000
  C   C55       1.0  0.68485  0.29300  0.60950  1.0000
  C   C56       1.0  0.65230  0.25361  0.60146  1.0000
  C   C57       1.0  0.40072  0.23759  0.35989  1.0000
  C   C58       1.0  0.36800  0.27515  0.37678  1.0000
  C   C59       1.0  0.31923  0.26706  0.43440  1.0000
  C   C60       1.0  0.30717  0.21956  0.47025  1.0000
  C   C61       1.0  0.80564  0.71624  0.35548  1.0000
  C   C62       1.0  0.86642  0.44083  0.90302  1.0000
  C   C63       1.0  0.83170  0.40011  0.88652  1.0000
  C   C64       1.0  0.83962  0.36641  0.69522  1.0000
  C   C65       1.0  0.88290  0.38356  0.58224  1.0000
  C   C66       1.0  0.89562  0.43406  0.72217  1.0000
  C   C67       1.0  0.92004  0.56017  0.56976  1.0000
  C   C68       1.0  0.89924  0.51792  0.63777  1.0000
  C   C69       1.0  0.92374  0.47403  0.64774  1.0000
  C   C70       1.0  0.97296  0.47166  0.59144  1.0000
  C   C71       1.0  0.96888  0.55794  0.50571  1.0000
  C   C72       1.0  0.99565  0.51442  0.52747  1.0000
  C   C73       1.0  0.78099  0.73821  0.21102  1.0000
  C   C74       1.0  0.76733  0.32653  0.62292  1.0000
  C   C75       1.0  0.27713  0.73253  0.60894  1.0000
  N   N1        1.0  0.23252  0.73696  0.55924  1.0000
  N   N2        1.0  0.24252  0.30488  0.52273  1.0000
  N   N3        1.0  0.33999  0.18300  0.45182  1.0000
  N   N4        1.0  0.81374  0.32327  0.61584  1.0000
  C   C76       1.0  0.68891  0.77460  0.10474  1.0000
  C   C77       1.0  0.73298  0.77362  0.22010  1.0000
  C  Sn1       1.0  0.74225  0.80573  0.42405  1.0000
  C  Sn2       1.0  0.70666  0.83939  0.51380  1.0000
  C   C78       1.0  0.66267  0.84005  0.39718  1.0000
  C   C79       1.0  0.65378  0.80777  0.19318  1.0000
  H   H43       1.0  0.68932  0.78768  0.94697  1.0000
  O  Te1       1.0  0.78648  0.80428  0.53707  1.0000
  O  Te2       1.0  0.71497  0.87187  0.71736  1.0000
  H   H44       1.0  0.61964  0.80852  0.10398  1.0000
  Mg  Mg1       1.0  0.78085  0.85588  0.80873  1.0000
  C   C80       1.0  0.19804  0.40456  0.28674  1.0000
  C   C81       1.0  0.16144  0.42390  0.42667  1.0000
  C  Sn3       1.0  0.15123  0.40344  0.61737  1.0000
  C  Sn4       1.0  0.17824  0.36289  0.66853  1.0000
  C   C82       1.0  0.21481  0.34384  0.52756  1.0000
  C   C83       1.0  0.22471  0.36457  0.33713  1.0000
  H   H45       1.0  0.20572  0.42062  0.13946  1.0000
  O  Te3       1.0  0.11452  0.42320  0.75532  1.0000
  O  Te4       1.0  0.16880  0.34176  0.85810  1.0000
  H   H46       1.0  0.25307  0.34962  0.22890  1.0000
  Mg  Mg2       1.0  0.11520  0.38168  0.99449  1.0000
  C   C84       1.0  0.88846  0.68778  0.58967  1.0000
  C   C85       1.0  0.84413  0.68555  0.47375  1.0000
  C  Sn5       1.0  0.82050  0.63973  0.40231  1.0000
  C  Sn6       1.0  0.84171  0.59539  0.44807  1.0000
  C   C86       1.0  0.88605  0.59803  0.56430  1.0000
  C   C87       1.0  0.90939  0.64407  0.63495  1.0000
  H   H47       1.0  0.90651  0.72341  0.64446  1.0000
  O  Te5       1.0  0.77625  0.63817  0.28662  1.0000
  O  Te6       1.0  0.81886  0.54911  0.37867  1.0000
  H   H48       1.0  0.94370  0.64579  0.72483  1.0000
  Mg  Mg3       1.0  0.75908  0.56620  0.22646  1.0000
