data_image0
_chemical_formula_structural       H24C60Br12N24SnCSn2CSnTe4Mg2SnCSn2CSnTe4Mg2SnCSn2CSnTe4Mg2SnCSn2CSnTe4Mg2SnCSn2CSnTe4Mg2SnCSn2CSnTe4Mg2SnCSn2CSnTe4Mg2SnCSn2CSnTe4Mg2SnCSn2CSnTe4Mg2SnCSn2CSnTe4Mg2SnCSn2CSnTe4Mg2SnCSn2CSnTe4Mg2
_chemical_formula_sum              "H24 C84 Br12 N24 Sn48 Te48 Mg24"
_cell_length_a       36.5899
_cell_length_b       36.7171
_cell_length_c       8.13789
_cell_angle_alpha    89.6213
_cell_angle_beta     90.3183
_cell_angle_gamma    120.005

_symmetry_space_group_name_H-M    'P1'
_space_group_IT_number       1

loop_
  _space_group_symop_operation_xyz
  'x, y, z'

loop_
  _atom_site_type_symbol
  _atom_site_label
  _atom_site_symmetry_multiplicity
  _atom_site_fract_x
  _atom_site_fract_y
  _atom_site_fract_z
  _atom_site_occupancy
  H   H1        1.0  0.95440  0.52181  0.38557  1.0000
  H   H2        1.0  0.47642  0.42997  0.36602  1.0000
  H   H3        1.0  0.56667  0.04795  0.39169  1.0000
  H   H4        1.0  0.04712  0.47683  0.12153  1.0000
  H   H5        1.0  0.52163  0.56592  0.08167  1.0000
  H   H6        1.0  0.43065  0.95261  0.11651  1.0000
  H   H7        1.0  0.89654  0.41734  0.17990  1.0000
  H   H8        1.0  0.58415  0.47889  0.18426  1.0000
  H   H9        1.0  0.51883  0.10328  0.17212  1.0000
  H   H10       1.0  0.10464  0.58019  0.33550  1.0000
  H   H11       1.0  0.41604  0.51838  0.28529  1.0000
  H   H12       1.0  0.48136  0.89785  0.32279  1.0000
  H   H13       1.0  0.95212  0.52078  0.88581  1.0000
  H   H14       1.0  0.47205  0.42854  0.86607  1.0000
  H   H15       1.0  0.57169  0.04511  0.89143  1.0000
  H   H16       1.0  0.04586  0.47703  0.62153  1.0000
  H   H17       1.0  0.52304  0.56651  0.59041  1.0000
  H   H18       1.0  0.43332  0.95451  0.62138  1.0000
  H   H19       1.0  0.89491  0.41538  0.68965  1.0000
  H   H20       1.0  0.58097  0.47569  0.69311  1.0000
  H   H21       1.0  0.52644  0.10268  0.66251  1.0000
  H   H22       1.0  0.10245  0.58197  0.82649  1.0000
  H   H23       1.0  0.41670  0.52153  0.78912  1.0000
  H   H24       1.0  0.47653  0.89521  0.84283  1.0000
  C   C1        1.0  0.97507  0.51220  0.32910  1.0000
  C   C2        1.0  0.48614  0.45994  0.30576  1.0000
  C   C3        1.0  0.53721  0.02665  0.32996  1.0000
  C   C4        1.0  0.02644  0.48628  0.17915  1.0000
  C   C5        1.0  0.51225  0.53631  0.14451  1.0000
  C   C6        1.0  0.46082  0.97389  0.17369  1.0000
  C   C7        1.0  0.95607  0.47262  0.25167  1.0000
  C   C8        1.0  0.52680  0.48136  0.23606  1.0000
  C   C9        1.0  0.51574  0.04468  0.25015  1.0000
  C   C10       1.0  0.04541  0.52581  0.25673  1.0000
  C   C11       1.0  0.47206  0.51545  0.21849  1.0000
  C   C12       1.0  0.48265  0.95590  0.25118  1.0000
  C   C13       1.0  0.98302  0.46049  0.17709  1.0000
  C   C14       1.0  0.53882  0.51965  0.15398  1.0000
  C   C15       1.0  0.47715  0.01703  0.17248  1.0000
  C   C16       1.0  0.01848  0.53792  0.33142  1.0000
  C   C17       1.0  0.45975  0.47678  0.29786  1.0000
  C   C18       1.0  0.52116  0.98356  0.32940  1.0000
  C   C19       1.0  0.91014  0.44665  0.25032  1.0000
  C   C20       1.0  0.55403  0.46298  0.25025  1.0000
  C   C21       1.0  0.53445  0.09040  0.24898  1.0000
  C   C22       1.0  0.09128  0.55190  0.25884  1.0000
  C   C23       1.0  0.44556  0.53471  0.21553  1.0000
  C   C24       1.0  0.46429  0.91022  0.25203  1.0000
  C   C25       1.0  0.70827  0.35648  0.34045  1.0000
  C   C26       1.0  0.64410  0.35249  0.34519  1.0000
  C   C27       1.0  0.64800  0.29247  0.33832  1.0000
  C   C28       1.0  0.29310  0.64369  0.17490  1.0000
  C   C29       1.0  0.35748  0.64826  0.16252  1.0000
  C   C30       1.0  0.35303  0.70793  0.17494  1.0000
  C   C31       1.0  0.97316  0.51167  0.82903  1.0000
  C   C32       1.0  0.48302  0.45893  0.80723  1.0000
  C   C33       1.0  0.54121  0.02496  0.83398  1.0000
  C   C34       1.0  0.02497  0.48628  0.67868  1.0000
  C   C35       1.0  0.51216  0.53637  0.65120  1.0000
  C   C36       1.0  0.46343  0.97462  0.68117  1.0000
  C   C37       1.0  0.95448  0.47181  0.75402  1.0000
  C   C38       1.0  0.52390  0.47924  0.73915  1.0000
  C   C39       1.0  0.52124  0.04439  0.75264  1.0000
  C   C40       1.0  0.04367  0.52607  0.75452  1.0000
  C   C41       1.0  0.47169  0.51654  0.72298  1.0000
  C   C42       1.0  0.48353  0.95516  0.76094  1.0000
  C   C43       1.0  0.98157  0.46005  0.67837  1.0000
  C   C44       1.0  0.53745  0.51820  0.65988  1.0000
  C   C45       1.0  0.48181  0.01793  0.67814  1.0000
  C   C46       1.0  0.01651  0.53792  0.82922  1.0000
  C   C47       1.0  0.45786  0.47720  0.79972  1.0000
  C   C48       1.0  0.52263  0.98153  0.83805  1.0000
  C   C49       1.0  0.90860  0.44512  0.75730  1.0000
  C   C50       1.0  0.54991  0.45936  0.75214  1.0000
  C   C51       1.0  0.54146  0.09008  0.74400  1.0000
  C   C52       1.0  0.08954  0.55276  0.75572  1.0000
  C   C53       1.0  0.44651  0.53730  0.72103  1.0000
  C   C54       1.0  0.46325  0.90939  0.76032  1.0000
  C   C55       1.0  0.70693  0.35688  0.84501  1.0000
  C   C56       1.0  0.64188  0.35090  0.83587  1.0000
  C   C57       1.0  0.64799  0.29214  0.82483  1.0000
  C   C58       1.0  0.29232  0.64447  0.67546  1.0000
  C   C59       1.0  0.35685  0.64911  0.67100  1.0000
  C   C60       1.0  0.35221  0.70874  0.67250  1.0000
  Br  Br1       1.0  0.96077  0.40674  0.07012  1.0000
  Br  Br2       1.0  0.59362  0.55116  0.05252  1.0000
  Br  Br3       1.0  0.44429  0.03818  0.06550  1.0000
  Br  Br4       1.0  0.04097  0.59209  0.43500  1.0000
  Br  Br5       1.0  0.40508  0.44512  0.39980  1.0000
  Br  Br6       1.0  0.55392  0.96256  0.43833  1.0000
  Br  Br7       1.0  0.95913  0.40592  0.57413  1.0000
  Br  Br8       1.0  0.59261  0.54888  0.56075  1.0000
  Br  Br9       1.0  0.45068  0.04099  0.57079  1.0000
  Br  Br10      1.0  0.03860  0.59206  0.93293  1.0000
  Br  Br11      1.0  0.40266  0.44654  0.89905  1.0000
  Br  Br12      1.0  0.55336  0.95803  0.94596  1.0000
  N   N1        1.0  0.88702  0.45854  0.32613  1.0000
  N   N2        1.0  0.54225  0.42890  0.33357  1.0000
  N   N3        1.0  0.56843  0.11394  0.33133  1.0000
  N   N4        1.0  0.11454  0.54118  0.17724  1.0000
  N   N5        1.0  0.45756  0.56999  0.14085  1.0000
  N   N6        1.0  0.42911  0.88621  0.17748  1.0000
  N   N7        1.0  0.68639  0.37707  0.34467  1.0000
  N   N8        1.0  0.62342  0.31014  0.34174  1.0000
  N   N9        1.0  0.69060  0.31426  0.33740  1.0000
  N   N10       1.0  0.31521  0.62344  0.16564  1.0000
  N   N11       1.0  0.37794  0.69064  0.16675  1.0000
  N   N12       1.0  0.31050  0.68581  0.18036  1.0000
  N   N13       1.0  0.88575  0.45723  0.83360  1.0000
  N   N14       1.0  0.53627  0.42358  0.82504  1.0000
  N   N15       1.0  0.57551  0.11420  0.82517  1.0000
  N   N16       1.0  0.11339  0.54164  0.68077  1.0000
  N   N17       1.0  0.45936  0.57310  0.64898  1.0000
  N   N18       1.0  0.43079  0.88708  0.66820  1.0000
  N   N19       1.0  0.68404  0.37648  0.84820  1.0000
  N   N20       1.0  0.62242  0.30871  0.82032  1.0000
  N   N21       1.0  0.69034  0.31491  0.83695  1.0000
  N   N22       1.0  0.31454  0.62421  0.67258  1.0000
  N   N23       1.0  0.37717  0.69146  0.67336  1.0000
  N   N24       1.0  0.30967  0.68665  0.67342  1.0000
  C  Sn1       1.0  0.80846  0.44971  0.36216  1.0000
  C   C61       1.0  0.83807  0.43637  0.37547  1.0000
  C  Sn2       1.0  0.82571  0.39399  0.35562  1.0000
  C  Sn3       1.0  0.78287  0.36431  0.32164  1.0000
  C   C62       1.0  0.75330  0.37765  0.30831  1.0000
  C  Sn4       1.0  0.76563  0.42003  0.32818  1.0000
  O  Te1       1.0  0.82153  0.49224  0.38246  1.0000
  O  Te2       1.0  0.85587  0.38141  0.36954  1.0000
  O  Te3       1.0  0.76982  0.32175  0.30134  1.0000
  O  Te4       1.0  0.73549  0.43261  0.31423  1.0000
  Mg  Mg1       1.0  0.82264  0.32000  0.33171  1.0000
  Mg  Mg2       1.0  0.76870  0.49401  0.35196  1.0000
  C  Sn5       1.0  0.63292  0.42183  0.42435  1.0000
  C   C63       1.0  0.61950  0.37930  0.40064  1.0000
  C  Sn6       1.0  0.57970  0.35237  0.33393  1.0000
  C  Sn7       1.0  0.55275  0.36829  0.28991  1.0000
  C   C64       1.0  0.56617  0.41079  0.31360  1.0000
  C  Sn8       1.0  0.60597  0.43775  0.38032  1.0000
  O  Te5       1.0  0.67284  0.44818  0.49121  1.0000
  O  Te6       1.0  0.56698  0.30997  0.31144  1.0000
  O  Te7       1.0  0.51281  0.34189  0.22300  1.0000
  O  Te8       1.0  0.61869  0.48012  0.40280  1.0000
  Mg  Mg3       1.0  0.50974  0.28655  0.21594  1.0000
  Mg  Mg4       1.0  0.67593  0.50357  0.49819  1.0000
  C  Sn9       1.0  0.63787  0.19145  0.38101  1.0000
  C   C65       1.0  0.59452  0.16285  0.38104  1.0000
  C  Sn10      1.0  0.56582  0.17622  0.34263  1.0000
  C  Sn11      1.0  0.58076  0.21907  0.30328  1.0000
  C   C66       1.0  0.62409  0.24765  0.30323  1.0000
  C  Sn12      1.0  0.65281  0.23430  0.34166  1.0000
  O  Te9       1.0  0.66599  0.17739  0.41978  1.0000
  O  Te10      1.0  0.52262  0.14705  0.34352  1.0000
  O  Te11      1.0  0.55260  0.23312  0.26450  1.0000
  O  Te12      1.0  0.69598  0.26345  0.34075  1.0000
  Mg  Mg5       1.0  0.49676  0.18144  0.28223  1.0000
  Mg  Mg6       1.0  0.72187  0.22909  0.40194  1.0000
  C  Sn13      1.0  0.21171  0.63423  0.21905  1.0000
  C   C67       1.0  0.24134  0.62081  0.22264  1.0000
  C  Sn14      1.0  0.22923  0.57914  0.18621  1.0000
  C  Sn15      1.0  0.18661  0.55029  0.14524  1.0000
  C   C68       1.0  0.15701  0.56372  0.14164  1.0000
  C  Sn16      1.0  0.16910  0.60538  0.17808  1.0000
  O  Te13      1.0  0.22453  0.67604  0.25590  1.0000
  O  Te14      1.0  0.25942  0.56646  0.19065  1.0000
  O  Te15      1.0  0.17381  0.50846  0.10839  1.0000
  O  Te16      1.0  0.13894  0.61807  0.17363  1.0000
  Mg  Mg7       1.0  0.22655  0.50624  0.13087  1.0000
  Mg  Mg8       1.0  0.17177  0.67829  0.23330  1.0000
  C  Sn17      1.0  0.44727  0.63609  0.21611  1.0000
  C   C69       1.0  0.43317  0.59375  0.18408  1.0000
  C  Sn18      1.0  0.39281  0.56783  0.11991  1.0000
  C  Sn19      1.0  0.36600  0.58459  0.08696  1.0000
  C   C70       1.0  0.38011  0.62691  0.11896  1.0000
  C  Sn20      1.0  0.42046  0.65285  0.18316  1.0000
  O  Te17      1.0  0.48774  0.66142  0.28026  1.0000
  O  Te18      1.0  0.37941  0.52559  0.08896  1.0000
  O  Te19      1.0  0.32551  0.55921  0.02276  1.0000
  O  Te20      1.0  0.43387  0.69507  0.21408  1.0000
  Mg  Mg9       1.0  0.32160  0.50370  0.00130  1.0000
  Mg  Mg10      1.0  0.49168  0.71698  0.30165  1.0000
  C  Sn21      1.0  0.34887  0.78255  0.14752  1.0000
  C   C71       1.0  0.36832  0.75820  0.13559  1.0000
  C  Sn22      1.0  0.41191  0.77657  0.15672  1.0000
  C  Sn23      1.0  0.43658  0.82017  0.19059  1.0000
  C   C72       1.0  0.41713  0.84449  0.20253  1.0000
  C  Sn24      1.0  0.37354  0.82615  0.18139  1.0000
  O  Te21      1.0  0.30524  0.76353  0.12596  1.0000
  O  Te22      1.0  0.43064  0.75159  0.14416  1.0000
  O  Te23      1.0  0.48024  0.83918  0.21214  1.0000
  O  Te24      1.0  0.35481  0.85111  0.19396  1.0000
  Mg  Mg11      1.0  0.49117  0.79198  0.18340  1.0000
  Mg  Mg12      1.0  0.29428  0.81074  0.15483  1.0000
  C  Sn25      1.0  0.81272  0.37799  0.82107  1.0000
  C   C73       1.0  0.83773  0.42153  0.80151  1.0000
  C  Sn26      1.0  0.82024  0.44746  0.81988  1.0000
  C  Sn27      1.0  0.77684  0.42951  0.85871  1.0000
  C   C74       1.0  0.75186  0.38601  0.87828  1.0000
  C  Sn28      1.0  0.76932  0.36005  0.85991  1.0000
  O  Te25      1.0  0.83087  0.35267  0.80215  1.0000
  O  Te26      1.0  0.84587  0.49089  0.79967  1.0000
  O  Te27      1.0  0.75870  0.45488  0.87762  1.0000
  O  Te28      1.0  0.74371  0.31664  0.88012  1.0000
  Mg  Mg13      1.0  0.80656  0.51227  0.83799  1.0000
  Mg  Mg14      1.0  0.78299  0.29524  0.84191  1.0000
  C  Sn29      1.0  0.56903  0.35277  0.73359  1.0000
  C   C75       1.0  0.61052  0.37045  0.79069  1.0000
  C  Sn30      1.0  0.62783  0.40610  0.89032  1.0000
  C  Sn31      1.0  0.60314  0.42445  0.93387  1.0000
  C   C76       1.0  0.56167  0.40677  0.87681  1.0000
  C  Sn32      1.0  0.54433  0.37112  0.77715  1.0000
  O  Te29      1.0  0.55237  0.31712  0.63415  1.0000
  O  Te30      1.0  0.66939  0.42322  0.94586  1.0000
  O  Te31      1.0  0.61916  0.46126  0.03340  1.0000
  O  Te32      1.0  0.50280  0.35400  0.72165  1.0000
  Mg  Mg15      1.0  0.67728  0.47303  0.07849  1.0000
  Mg  Mg16      1.0  0.49420  0.30531  0.58909  1.0000
  C  Sn33      1.0  0.64191  0.19340  0.88149  1.0000
  C   C77       1.0  0.59916  0.16323  0.86801  1.0000
  C  Sn34      1.0  0.57004  0.17464  0.81278  1.0000
  C  Sn35      1.0  0.58396  0.21710  0.77002  1.0000
  C   C78       1.0  0.62669  0.24725  0.78347  1.0000
  C  Sn36      1.0  0.65582  0.23586  0.83873  1.0000
  O  Te33      1.0  0.67046  0.18128  0.93698  1.0000
  O  Te34      1.0  0.52746  0.14392  0.80038  1.0000
  O  Te35      1.0  0.55536  0.22921  0.71450  1.0000
  O  Te36      1.0  0.69838  0.26656  0.85110  1.0000
  Mg  Mg17      1.0  0.50067  0.17592  0.71847  1.0000
  Mg  Mg18      1.0  0.72520  0.23459  0.93292  1.0000
  C  Sn37      1.0  0.19201  0.55390  0.74909  1.0000
  C   C79       1.0  0.16243  0.56701  0.72708  1.0000
  C  Sn38      1.0  0.17485  0.60706  0.66462  1.0000
  C  Sn39      1.0  0.21772  0.63457  0.62321  1.0000
  C   C80       1.0  0.24728  0.62145  0.64520  1.0000
  C  Sn40      1.0  0.23489  0.58141  0.70768  1.0000
  O  Te37      1.0  0.17889  0.51373  0.81170  1.0000
  O  Te38      1.0  0.14470  0.61946  0.64375  1.0000
  O  Te39      1.0  0.23083  0.67477  0.56056  1.0000
  O  Te40      1.0  0.26500  0.56900  0.72852  1.0000
  Mg  Mg19      1.0  0.17802  0.67724  0.55425  1.0000
  Mg  Mg20      1.0  0.23171  0.51123  0.81793  1.0000
  C  Sn41      1.0  0.44761  0.63878  0.72922  1.0000
  C   C81       1.0  0.43440  0.59659  0.69804  1.0000
  C  Sn42      1.0  0.39444  0.57007  0.63177  1.0000
  C  Sn43      1.0  0.36711  0.58607  0.59581  1.0000
  C   C82       1.0  0.38033  0.62824  0.62696  1.0000
  C  Sn44      1.0  0.42029  0.65478  0.69326  1.0000
  O  Te41      1.0  0.48770  0.66472  0.79550  1.0000
  O  Te42      1.0  0.38193  0.52800  0.60171  1.0000
  O  Te43      1.0  0.32700  0.56009  0.52948  1.0000
  O  Te44      1.0  0.43281  0.69683  0.72328  1.0000
  Mg  Mg21      1.0  0.32433  0.50509  0.51033  1.0000
  Mg  Mg22      1.0  0.49040  0.71977  0.81458  1.0000
  C  Sn45      1.0  0.42321  0.78894  0.72985  1.0000
  C   C83       1.0  0.38014  0.76015  0.71330  1.0000
  C  Sn46      1.0  0.35258  0.77333  0.65547  1.0000
  C  Sn47      1.0  0.36842  0.81616  0.61320  1.0000
  C   C84       1.0  0.41147  0.84492  0.62973  1.0000
  C  Sn48      1.0  0.43905  0.83178  0.68758  1.0000
  O  Te45      1.0  0.45018  0.77507  0.78790  1.0000
  O  Te46      1.0  0.30964  0.74397  0.64002  1.0000
  O  Te47      1.0  0.34141  0.83002  0.55512  1.0000
  O  Te48      1.0  0.48197  0.86111  0.70301  1.0000
  Mg  Mg23      1.0  0.28549  0.77813  0.55538  1.0000
  Mg  Mg24      1.0  0.50615  0.82698  0.78755  1.0000
