data_image0
_chemical_formula_structural       H48C96Br12N24SnCSn2CSnTe4Mg2SnCSn2CSnTe4Mg2SnCSn2CSnTe4Mg2SnCSn2CSnTe4Mg2SnCSn2CSnTe4Mg2SnCSn2CSnTe4Mg2
_chemical_formula_sum              "H48 C108 Br12 N24 Sn24 Te24 Mg12"
_cell_length_a       36.5899
_cell_length_b       36.7171
_cell_length_c       8.13789
_cell_angle_alpha    89.6213
_cell_angle_beta     90.3183
_cell_angle_gamma    120.005

_symmetry_space_group_name_H-M    'P1'
_space_group_IT_number       1

loop_
  _space_group_symop_operation_xyz
  'x, y, z'

loop_
  _atom_site_type_symbol
  _atom_site_label
  _atom_site_symmetry_multiplicity
  _atom_site_fract_x
  _atom_site_fract_y
  _atom_site_fract_z
  _atom_site_occupancy
  H   H1        1.0  0.95440  0.52181  0.38557  1.0000
  H   H2        1.0  0.47642  0.42997  0.36602  1.0000
  H   H3        1.0  0.56667  0.04795  0.39169  1.0000
  H   H4        1.0  0.04712  0.47683  0.12153  1.0000
  H   H5        1.0  0.52163  0.56592  0.08167  1.0000
  H   H6        1.0  0.43065  0.95261  0.11651  1.0000
  H   H7        1.0  0.89654  0.41734  0.17990  1.0000
  H   H8        1.0  0.58415  0.47889  0.18426  1.0000
  H   H9        1.0  0.51883  0.10328  0.17212  1.0000
  H   H10       1.0  0.10464  0.58019  0.33550  1.0000
  H   H11       1.0  0.41604  0.51838  0.28529  1.0000
  H   H12       1.0  0.48136  0.89785  0.32279  1.0000
  H   H13       1.0  0.51587  0.34989  0.31215  1.0000
  H   H14       1.0  0.64841  0.16577  0.33020  1.0000
  H   H15       1.0  0.16831  0.51480  0.18527  1.0000
  H   H16       1.0  0.48524  0.64908  0.17633  1.0000
  H   H17       1.0  0.62728  0.46978  0.39214  1.0000
  H   H18       1.0  0.52789  0.15949  0.34130  1.0000
  H   H19       1.0  0.15804  0.62638  0.15997  1.0000
  H   H20       1.0  0.37205  0.53045  0.09660  1.0000
  H   H21       1.0  0.67104  0.43473  0.39549  1.0000
  H   H22       1.0  0.56433  0.23790  0.34563  1.0000
  H   H23       1.0  0.23689  0.67068  0.16444  1.0000
  H   H24       1.0  0.32942  0.56650  0.10805  1.0000
  H   H25       1.0  0.56033  0.31527  0.31233  1.0000
  H   H26       1.0  0.68467  0.24469  0.32940  1.0000
  H   H27       1.0  0.24735  0.55970  0.18987  1.0000
  H   H28       1.0  0.44169  0.68452  0.19308  1.0000
  H   H29       1.0  0.95212  0.52078  0.88581  1.0000
  H   H30       1.0  0.47205  0.42854  0.86607  1.0000
  H   H31       1.0  0.57169  0.04511  0.89143  1.0000
  H   H32       1.0  0.04586  0.47703  0.62153  1.0000
  H   H33       1.0  0.52304  0.56651  0.59041  1.0000
  H   H34       1.0  0.43332  0.95451  0.62138  1.0000
  H   H35       1.0  0.89491  0.41538  0.68965  1.0000
  H   H36       1.0  0.58097  0.47569  0.69311  1.0000
  H   H37       1.0  0.52644  0.10268  0.66251  1.0000
  H   H38       1.0  0.10245  0.58197  0.82649  1.0000
  H   H39       1.0  0.41670  0.52153  0.78912  1.0000
  H   H40       1.0  0.47653  0.89521  0.84283  1.0000
  H   H41       1.0  0.83333  0.48439  0.80580  1.0000
  H   H42       1.0  0.48584  0.65245  0.69232  1.0000
  H   H43       1.0  0.84099  0.37257  0.88782  1.0000
  H   H44       1.0  0.37476  0.53324  0.59983  1.0000
  H   H45       1.0  0.76217  0.32995  0.89309  1.0000
  H   H46       1.0  0.33037  0.56738  0.61503  1.0000
  H   H47       1.0  0.75411  0.44097  0.80760  1.0000
  H   H48       1.0  0.44110  0.68660  0.70381  1.0000
  C   C1        1.0  0.97507  0.51220  0.32910  1.0000
  C   C2        1.0  0.48614  0.45994  0.30576  1.0000
  C   C3        1.0  0.53721  0.02665  0.32996  1.0000
  C   C4        1.0  0.02644  0.48628  0.17915  1.0000
  C   C5        1.0  0.51225  0.53631  0.14451  1.0000
  C   C6        1.0  0.46082  0.97389  0.17369  1.0000
  C   C7        1.0  0.95607  0.47262  0.25167  1.0000
  C   C8        1.0  0.52680  0.48136  0.23606  1.0000
  C   C9        1.0  0.51574  0.04468  0.25015  1.0000
  C   C10       1.0  0.04541  0.52581  0.25673  1.0000
  C   C11       1.0  0.47206  0.51545  0.21849  1.0000
  C   C12       1.0  0.48265  0.95590  0.25118  1.0000
  C   C13       1.0  0.98302  0.46049  0.17709  1.0000
  C   C14       1.0  0.53882  0.51965  0.15398  1.0000
  C   C15       1.0  0.47715  0.01703  0.17248  1.0000
  C   C16       1.0  0.01848  0.53792  0.33142  1.0000
  C   C17       1.0  0.45975  0.47678  0.29786  1.0000
  C   C18       1.0  0.52116  0.98356  0.32940  1.0000
  C   C19       1.0  0.91014  0.44665  0.25032  1.0000
  C   C20       1.0  0.55403  0.46298  0.25025  1.0000
  C   C21       1.0  0.53445  0.09040  0.24898  1.0000
  C   C22       1.0  0.09128  0.55190  0.25884  1.0000
  C   C23       1.0  0.44556  0.53471  0.21553  1.0000
  C   C24       1.0  0.46429  0.91022  0.25203  1.0000
  C   C25       1.0  0.54992  0.36804  0.32809  1.0000
  C   C26       1.0  0.63046  0.18206  0.33170  1.0000
  C   C27       1.0  0.18368  0.54891  0.18122  1.0000
  C   C28       1.0  0.45108  0.63141  0.16310  1.0000
  C   C29       1.0  0.56893  0.41196  0.34377  1.0000
  C   C30       1.0  0.58607  0.15763  0.33065  1.0000
  C   C31       1.0  0.15828  0.56772  0.17752  1.0000
  C   C32       1.0  0.43140  0.58758  0.14184  1.0000
  C   C33       1.0  0.61283  0.43611  0.37094  1.0000
  C   C34       1.0  0.56217  0.17811  0.33563  1.0000
  C   C35       1.0  0.17770  0.61194  0.16996  1.0000
  C   C36       1.0  0.38724  0.56406  0.12023  1.0000
  C   C37       1.0  0.63719  0.41672  0.37370  1.0000
  C   C38       1.0  0.58237  0.22178  0.33875  1.0000
  C   C39       1.0  0.22141  0.63657  0.17041  1.0000
  C   C40       1.0  0.36345  0.58396  0.12549  1.0000
  C   C41       1.0  0.61844  0.37315  0.34872  1.0000
  C   C42       1.0  0.62671  0.24615  0.33514  1.0000
  C   C43       1.0  0.24673  0.61778  0.17767  1.0000
  C   C44       1.0  0.38295  0.62747  0.15353  1.0000
  C   C45       1.0  0.57445  0.34904  0.32777  1.0000
  C   C46       1.0  0.65044  0.22563  0.33103  1.0000
  C   C47       1.0  0.22729  0.57367  0.18373  1.0000
  C   C48       1.0  0.42706  0.65092  0.17182  1.0000
  C   C49       1.0  0.70827  0.35648  0.34045  1.0000
  C   C50       1.0  0.64410  0.35249  0.34519  1.0000
  C   C51       1.0  0.64800  0.29247  0.33832  1.0000
  C   C52       1.0  0.29310  0.64369  0.17490  1.0000
  C   C53       1.0  0.35748  0.64826  0.16252  1.0000
  C   C54       1.0  0.35303  0.70793  0.17494  1.0000
  C   C55       1.0  0.97316  0.51167  0.82903  1.0000
  C   C56       1.0  0.48302  0.45893  0.80723  1.0000
  C   C57       1.0  0.54121  0.02496  0.83398  1.0000
  C   C58       1.0  0.02497  0.48628  0.67868  1.0000
  C   C59       1.0  0.51216  0.53637  0.65120  1.0000
  C   C60       1.0  0.46343  0.97462  0.68117  1.0000
  C   C61       1.0  0.95448  0.47181  0.75402  1.0000
  C   C62       1.0  0.52390  0.47924  0.73915  1.0000
  C   C63       1.0  0.52124  0.04439  0.75264  1.0000
  C   C64       1.0  0.04367  0.52607  0.75452  1.0000
  C   C65       1.0  0.47169  0.51654  0.72298  1.0000
  C   C66       1.0  0.48353  0.95516  0.76094  1.0000
  C   C67       1.0  0.98157  0.46005  0.67837  1.0000
  C   C68       1.0  0.53745  0.51820  0.65988  1.0000
  C   C69       1.0  0.48181  0.01793  0.67814  1.0000
  C   C70       1.0  0.01651  0.53792  0.82922  1.0000
  C   C71       1.0  0.45786  0.47720  0.79972  1.0000
  C   C72       1.0  0.52263  0.98153  0.83805  1.0000
  C   C73       1.0  0.90860  0.44512  0.75730  1.0000
  C   C74       1.0  0.54991  0.45936  0.75214  1.0000
  C   C75       1.0  0.54146  0.09008  0.74400  1.0000
  C   C76       1.0  0.08954  0.55276  0.75572  1.0000
  C   C77       1.0  0.44651  0.53730  0.72103  1.0000
  C   C78       1.0  0.46325  0.90939  0.76032  1.0000
  C   C79       1.0  0.81724  0.45051  0.82368  1.0000
  C   C80       1.0  0.45177  0.63422  0.67676  1.0000
  C   C81       1.0  0.84202  0.43118  0.84017  1.0000
  C   C82       1.0  0.43300  0.59058  0.65174  1.0000
  C   C83       1.0  0.82196  0.38741  0.86759  1.0000
  C   C84       1.0  0.38900  0.56659  0.62703  1.0000
  C   C85       1.0  0.77817  0.36369  0.87178  1.0000
  C   C86       1.0  0.36432  0.58555  0.63391  1.0000
  C   C87       1.0  0.75337  0.38274  0.84830  1.0000
  C   C88       1.0  0.38291  0.62887  0.66438  1.0000
  C   C89       1.0  0.77353  0.42653  0.82500  1.0000
  C   C90       1.0  0.42698  0.65296  0.68440  1.0000
  C   C91       1.0  0.70693  0.35688  0.84501  1.0000
  C   C92       1.0  0.64188  0.35090  0.83587  1.0000
  C   C93       1.0  0.64799  0.29214  0.82483  1.0000
  C   C94       1.0  0.29232  0.64447  0.67546  1.0000
  C   C95       1.0  0.35685  0.64911  0.67100  1.0000
  C   C96       1.0  0.35221  0.70874  0.67250  1.0000
  Br  Br1       1.0  0.96077  0.40674  0.07012  1.0000
  Br  Br2       1.0  0.59362  0.55116  0.05252  1.0000
  Br  Br3       1.0  0.44429  0.03818  0.06550  1.0000
  Br  Br4       1.0  0.04097  0.59209  0.43500  1.0000
  Br  Br5       1.0  0.40508  0.44512  0.39980  1.0000
  Br  Br6       1.0  0.55392  0.96256  0.43833  1.0000
  Br  Br7       1.0  0.95913  0.40592  0.57413  1.0000
  Br  Br8       1.0  0.59261  0.54888  0.56075  1.0000
  Br  Br9       1.0  0.45068  0.04099  0.57079  1.0000
  Br  Br10      1.0  0.03860  0.59206  0.93293  1.0000
  Br  Br11      1.0  0.40266  0.44654  0.89905  1.0000
  Br  Br12      1.0  0.55336  0.95803  0.94596  1.0000
  N   N1        1.0  0.88702  0.45854  0.32613  1.0000
  N   N2        1.0  0.54225  0.42890  0.33357  1.0000
  N   N3        1.0  0.56843  0.11394  0.33133  1.0000
  N   N4        1.0  0.11454  0.54118  0.17724  1.0000
  N   N5        1.0  0.45756  0.56999  0.14085  1.0000
  N   N6        1.0  0.42911  0.88621  0.17748  1.0000
  N   N7        1.0  0.68639  0.37707  0.34467  1.0000
  N   N8        1.0  0.62342  0.31014  0.34174  1.0000
  N   N9        1.0  0.69060  0.31426  0.33740  1.0000
  N   N10       1.0  0.31521  0.62344  0.16564  1.0000
  N   N11       1.0  0.37794  0.69064  0.16675  1.0000
  N   N12       1.0  0.31050  0.68581  0.18036  1.0000
  N   N13       1.0  0.88575  0.45723  0.83360  1.0000
  N   N14       1.0  0.53627  0.42358  0.82504  1.0000
  N   N15       1.0  0.57551  0.11420  0.82517  1.0000
  N   N16       1.0  0.11339  0.54164  0.68077  1.0000
  N   N17       1.0  0.45936  0.57310  0.64898  1.0000
  N   N18       1.0  0.43079  0.88708  0.66820  1.0000
  N   N19       1.0  0.68404  0.37648  0.84820  1.0000
  N   N20       1.0  0.62242  0.30871  0.82032  1.0000
  N   N21       1.0  0.69034  0.31491  0.83695  1.0000
  N   N22       1.0  0.31454  0.62421  0.67258  1.0000
  N   N23       1.0  0.37717  0.69146  0.67336  1.0000
  N   N24       1.0  0.30967  0.68665  0.67342  1.0000
  C  Sn1       1.0  0.65376  0.21841  0.78118  1.0000
  C   C97       1.0  0.63334  0.24194  0.77399  1.0000
  C  Sn2       1.0  0.59013  0.22291  0.80556  1.0000
  C  Sn3       1.0  0.56685  0.17947  0.84525  1.0000
  C   C98       1.0  0.58728  0.15597  0.85246  1.0000
  C  Sn4       1.0  0.63049  0.17497  0.82087  1.0000
  O  Te1       1.0  0.69699  0.23808  0.74917  1.0000
  O  Te2       1.0  0.57040  0.24708  0.79757  1.0000
  O  Te3       1.0  0.52359  0.15981  0.87727  1.0000
  O  Te4       1.0  0.65022  0.15083  0.82887  1.0000
  Mg  Mg1       1.0  0.51093  0.20601  0.85127  1.0000
  Mg  Mg2       1.0  0.70968  0.19187  0.77529  1.0000
  C  Sn5       1.0  0.42580  0.78894  0.20303  1.0000
  C   C99       1.0  0.38283  0.75952  0.21693  1.0000
  C  Sn6       1.0  0.35265  0.77181  0.19467  1.0000
  C  Sn7       1.0  0.36567  0.81438  0.15766  1.0000
  C   C100      1.0  0.40861  0.84377  0.14375  1.0000
  C  Sn8       1.0  0.43882  0.83152  0.16601  1.0000
  O  Te5       1.0  0.45543  0.77596  0.22576  1.0000
  O  Te6       1.0  0.30987  0.74183  0.20924  1.0000
  O  Te7       1.0  0.33599  0.82735  0.13493  1.0000
  O  Te8       1.0  0.48157  0.86146  0.15144  1.0000
  Mg  Mg3       1.0  0.28146  0.77486  0.16732  1.0000
  Mg  Mg4       1.0  0.51000  0.82846  0.19325  1.0000
  C  Sn9       1.0  0.43654  0.81412  0.63074  1.0000
  C   C101      1.0  0.41775  0.83916  0.62341  1.0000
  C  Sn10      1.0  0.37464  0.82171  0.65395  1.0000
  C  Sn11      1.0  0.34981  0.77832  0.69273  1.0000
  C   C102      1.0  0.36860  0.75331  0.70008  1.0000
  C  Sn12      1.0  0.41171  0.77073  0.66953  1.0000
  O  Te9       1.0  0.47969  0.83223  0.59977  1.0000
  O  Te10      1.0  0.35656  0.84737  0.64584  1.0000
  O  Te11      1.0  0.30663  0.76022  0.72371  1.0000
  O  Te12      1.0  0.42979  0.74510  0.67765  1.0000
  Mg  Mg5       1.0  0.29652  0.80811  0.69795  1.0000
  Mg  Mg6       1.0  0.48983  0.78433  0.62564  1.0000
  C  Sn13      1.0  0.21734  0.56566  0.65087  1.0000
  C   C103      1.0  0.24172  0.60942  0.63825  1.0000
  C  Sn14      1.0  0.22334  0.63443  0.66108  1.0000
  C  Sn15      1.0  0.17969  0.61531  0.69739  1.0000
  C   C104      1.0  0.15535  0.57158  0.71002  1.0000
  C  Sn16      1.0  0.17370  0.54654  0.68718  1.0000
  O  Te13      1.0  0.23638  0.54127  0.62759  1.0000
  O  Te14      1.0  0.24835  0.67811  0.64780  1.0000
  O  Te15      1.0  0.16067  0.63974  0.72067  1.0000
  O  Te16      1.0  0.14872  0.50289  0.70048  1.0000
  Mg  Mg7       1.0  0.20792  0.69791  0.69005  1.0000
  Mg  Mg8       1.0  0.18911  0.48305  0.65834  1.0000
  C  Sn17      1.0  0.78967  0.36795  0.40735  1.0000
  C   C105      1.0  0.76005  0.38102  0.38569  1.0000
  C  Sn18      1.0  0.77225  0.42076  0.32039  1.0000
  C  Sn19      1.0  0.81495  0.44799  0.27570  1.0000
  C   C106      1.0  0.84453  0.43491  0.29734  1.0000
  C  Sn20      1.0  0.83236  0.39518  0.36267  1.0000
  O  Te17      1.0  0.77676  0.32809  0.47285  1.0000
  O  Te18      1.0  0.74207  0.43313  0.29994  1.0000
  O  Te19      1.0  0.82783  0.48787  0.21017  1.0000
  O  Te20      1.0  0.86251  0.38280  0.38310  1.0000
  Mg  Mg9       1.0  0.77507  0.49043  0.20574  1.0000
  Mg  Mg10      1.0  0.82954  0.32550  0.47720  1.0000
  C  Sn21      1.0  0.61637  0.43251  0.85549  1.0000
  C   C107      1.0  0.57425  0.41414  0.80534  1.0000
  C  Sn22      1.0  0.54993  0.37064  0.78478  1.0000
  C  Sn23      1.0  0.56807  0.34495  0.81509  1.0000
  C   C108      1.0  0.61015  0.36332  0.86525  1.0000
  C  Sn24      1.0  0.63450  0.40682  0.88580  1.0000
  O  Te21      1.0  0.64009  0.47606  0.87526  1.0000
  O  Te22      1.0  0.50790  0.35300  0.73449  1.0000
  O  Te23      1.0  0.54431  0.30137  0.79528  1.0000
  O  Te24      1.0  0.67650  0.42446  0.93609  1.0000
  Mg  Mg11      1.0  0.48844  0.29212  0.72483  1.0000
  Mg  Mg12      1.0  0.69599  0.48533  0.94587  1.0000
