data_image0
_chemical_formula_structural       H24C60Br12N24C2Sn2C2HTe2HMgC2Sn2C2HTe2HMgC2Sn2C2HTe2HMgC2Sn2C2HTe2HMgC2Sn2C2HTe2HMgC2Sn2C2HTe2HMgC2Sn2C2HTe2HMgC2Sn2C2HTe2HMgC2Sn2C2HTe2HMgC2Sn2C2HTe2HMgC2Sn2C2HTe2HMgC2Sn2C2HTe2HMg
_chemical_formula_sum              "H48 C108 Br12 N24 Sn24 Te24 Mg12"
_cell_length_a       36.5899
_cell_length_b       36.7171
_cell_length_c       8.13789
_cell_angle_alpha    89.6213
_cell_angle_beta     90.3183
_cell_angle_gamma    120.005

_symmetry_space_group_name_H-M    'P1'
_space_group_IT_number       1

loop_
  _space_group_symop_operation_xyz
  'x, y, z'

loop_
  _atom_site_type_symbol
  _atom_site_label
  _atom_site_symmetry_multiplicity
  _atom_site_fract_x
  _atom_site_fract_y
  _atom_site_fract_z
  _atom_site_occupancy
  H   H1        1.0  0.95440  0.52181  0.38557  1.0000
  H   H2        1.0  0.47642  0.42997  0.36602  1.0000
  H   H3        1.0  0.56667  0.04795  0.39169  1.0000
  H   H4        1.0  0.04712  0.47683  0.12153  1.0000
  H   H5        1.0  0.52163  0.56592  0.08167  1.0000
  H   H6        1.0  0.43065  0.95261  0.11651  1.0000
  H   H7        1.0  0.89654  0.41734  0.17990  1.0000
  H   H8        1.0  0.58415  0.47889  0.18426  1.0000
  H   H9        1.0  0.51883  0.10328  0.17212  1.0000
  H   H10       1.0  0.10464  0.58019  0.33550  1.0000
  H   H11       1.0  0.41604  0.51838  0.28529  1.0000
  H   H12       1.0  0.48136  0.89785  0.32279  1.0000
  H   H13       1.0  0.95212  0.52078  0.88581  1.0000
  H   H14       1.0  0.47205  0.42854  0.86607  1.0000
  H   H15       1.0  0.57169  0.04511  0.89143  1.0000
  H   H16       1.0  0.04586  0.47703  0.62153  1.0000
  H   H17       1.0  0.52304  0.56651  0.59041  1.0000
  H   H18       1.0  0.43332  0.95451  0.62138  1.0000
  H   H19       1.0  0.89491  0.41538  0.68965  1.0000
  H   H20       1.0  0.58097  0.47569  0.69311  1.0000
  H   H21       1.0  0.52644  0.10268  0.66251  1.0000
  H   H22       1.0  0.10245  0.58197  0.82649  1.0000
  H   H23       1.0  0.41670  0.52153  0.78912  1.0000
  H   H24       1.0  0.47653  0.89521  0.84283  1.0000
  C   C1        1.0  0.97507  0.51220  0.32910  1.0000
  C   C2        1.0  0.48614  0.45994  0.30576  1.0000
  C   C3        1.0  0.53721  0.02665  0.32996  1.0000
  C   C4        1.0  0.02644  0.48628  0.17915  1.0000
  C   C5        1.0  0.51225  0.53631  0.14451  1.0000
  C   C6        1.0  0.46082  0.97389  0.17369  1.0000
  C   C7        1.0  0.95607  0.47262  0.25167  1.0000
  C   C8        1.0  0.52680  0.48136  0.23606  1.0000
  C   C9        1.0  0.51574  0.04468  0.25015  1.0000
  C   C10       1.0  0.04541  0.52581  0.25673  1.0000
  C   C11       1.0  0.47206  0.51545  0.21849  1.0000
  C   C12       1.0  0.48265  0.95590  0.25118  1.0000
  C   C13       1.0  0.98302  0.46049  0.17709  1.0000
  C   C14       1.0  0.53882  0.51965  0.15398  1.0000
  C   C15       1.0  0.47715  0.01703  0.17248  1.0000
  C   C16       1.0  0.01848  0.53792  0.33142  1.0000
  C   C17       1.0  0.45975  0.47678  0.29786  1.0000
  C   C18       1.0  0.52116  0.98356  0.32940  1.0000
  C   C19       1.0  0.91014  0.44665  0.25032  1.0000
  C   C20       1.0  0.55403  0.46298  0.25025  1.0000
  C   C21       1.0  0.53445  0.09040  0.24898  1.0000
  C   C22       1.0  0.09128  0.55190  0.25884  1.0000
  C   C23       1.0  0.44556  0.53471  0.21553  1.0000
  C   C24       1.0  0.46429  0.91022  0.25203  1.0000
  C   C25       1.0  0.70827  0.35648  0.34045  1.0000
  C   C26       1.0  0.64410  0.35249  0.34519  1.0000
  C   C27       1.0  0.64800  0.29247  0.33832  1.0000
  C   C28       1.0  0.29310  0.64369  0.17490  1.0000
  C   C29       1.0  0.35748  0.64826  0.16252  1.0000
  C   C30       1.0  0.35303  0.70793  0.17494  1.0000
  C   C31       1.0  0.97316  0.51167  0.82903  1.0000
  C   C32       1.0  0.48302  0.45893  0.80723  1.0000
  C   C33       1.0  0.54121  0.02496  0.83398  1.0000
  C   C34       1.0  0.02497  0.48628  0.67868  1.0000
  C   C35       1.0  0.51216  0.53637  0.65120  1.0000
  C   C36       1.0  0.46343  0.97462  0.68117  1.0000
  C   C37       1.0  0.95448  0.47181  0.75402  1.0000
  C   C38       1.0  0.52390  0.47924  0.73915  1.0000
  C   C39       1.0  0.52124  0.04439  0.75264  1.0000
  C   C40       1.0  0.04367  0.52607  0.75452  1.0000
  C   C41       1.0  0.47169  0.51654  0.72298  1.0000
  C   C42       1.0  0.48353  0.95516  0.76094  1.0000
  C   C43       1.0  0.98157  0.46005  0.67837  1.0000
  C   C44       1.0  0.53745  0.51820  0.65988  1.0000
  C   C45       1.0  0.48181  0.01793  0.67814  1.0000
  C   C46       1.0  0.01651  0.53792  0.82922  1.0000
  C   C47       1.0  0.45786  0.47720  0.79972  1.0000
  C   C48       1.0  0.52263  0.98153  0.83805  1.0000
  C   C49       1.0  0.90860  0.44512  0.75730  1.0000
  C   C50       1.0  0.54991  0.45936  0.75214  1.0000
  C   C51       1.0  0.54146  0.09008  0.74400  1.0000
  C   C52       1.0  0.08954  0.55276  0.75572  1.0000
  C   C53       1.0  0.44651  0.53730  0.72103  1.0000
  C   C54       1.0  0.46325  0.90939  0.76032  1.0000
  C   C55       1.0  0.70693  0.35688  0.84501  1.0000
  C   C56       1.0  0.64188  0.35090  0.83587  1.0000
  C   C57       1.0  0.64799  0.29214  0.82483  1.0000
  C   C58       1.0  0.29232  0.64447  0.67546  1.0000
  C   C59       1.0  0.35685  0.64911  0.67100  1.0000
  C   C60       1.0  0.35221  0.70874  0.67250  1.0000
  Br  Br1       1.0  0.96077  0.40674  0.07012  1.0000
  Br  Br2       1.0  0.59362  0.55116  0.05252  1.0000
  Br  Br3       1.0  0.44429  0.03818  0.06550  1.0000
  Br  Br4       1.0  0.04097  0.59209  0.43500  1.0000
  Br  Br5       1.0  0.40508  0.44512  0.39980  1.0000
  Br  Br6       1.0  0.55392  0.96256  0.43833  1.0000
  Br  Br7       1.0  0.95913  0.40592  0.57413  1.0000
  Br  Br8       1.0  0.59261  0.54888  0.56075  1.0000
  Br  Br9       1.0  0.45068  0.04099  0.57079  1.0000
  Br  Br10      1.0  0.03860  0.59206  0.93293  1.0000
  Br  Br11      1.0  0.40266  0.44654  0.89905  1.0000
  Br  Br12      1.0  0.55336  0.95803  0.94596  1.0000
  N   N1        1.0  0.88702  0.45854  0.32613  1.0000
  N   N2        1.0  0.54225  0.42890  0.33357  1.0000
  N   N3        1.0  0.56843  0.11394  0.33133  1.0000
  N   N4        1.0  0.11454  0.54118  0.17724  1.0000
  N   N5        1.0  0.45756  0.56999  0.14085  1.0000
  N   N6        1.0  0.42911  0.88621  0.17748  1.0000
  N   N7        1.0  0.68639  0.37707  0.34467  1.0000
  N   N8        1.0  0.62342  0.31014  0.34174  1.0000
  N   N9        1.0  0.69060  0.31426  0.33740  1.0000
  N   N10       1.0  0.31521  0.62344  0.16564  1.0000
  N   N11       1.0  0.37794  0.69064  0.16675  1.0000
  N   N12       1.0  0.31050  0.68581  0.18036  1.0000
  N   N13       1.0  0.88575  0.45723  0.83360  1.0000
  N   N14       1.0  0.53627  0.42358  0.82504  1.0000
  N   N15       1.0  0.57551  0.11420  0.82517  1.0000
  N   N16       1.0  0.11339  0.54164  0.68077  1.0000
  N   N17       1.0  0.45936  0.57310  0.64898  1.0000
  N   N18       1.0  0.43079  0.88708  0.66820  1.0000
  N   N19       1.0  0.68404  0.37648  0.84820  1.0000
  N   N20       1.0  0.62242  0.30871  0.82032  1.0000
  N   N21       1.0  0.69034  0.31491  0.83695  1.0000
  N   N22       1.0  0.31454  0.62421  0.67258  1.0000
  N   N23       1.0  0.37717  0.69146  0.67336  1.0000
  N   N24       1.0  0.30967  0.68665  0.67342  1.0000
  C   C61       1.0  0.79048  0.36413  0.35537  1.0000
  C   C62       1.0  0.76035  0.37690  0.35100  1.0000
  C  Sn1       1.0  0.77279  0.41930  0.32898  1.0000
  C  Sn2       1.0  0.81623  0.44942  0.31099  1.0000
  C   C63       1.0  0.84613  0.43632  0.31542  1.0000
  C   C64       1.0  0.83333  0.39381  0.33757  1.0000
  H   H25       1.0  0.78058  0.33124  0.37241  1.0000
  O  Te1       1.0  0.74227  0.43152  0.32498  1.0000
  O  Te2       1.0  0.82954  0.49200  0.28876  1.0000
  H   H26       1.0  0.85667  0.38393  0.34083  1.0000
  Mg  Mg1       1.0  0.77604  0.49319  0.29187  1.0000
  C   C65       1.0  0.55053  0.35833  0.31995  1.0000
  C   C66       1.0  0.56277  0.40019  0.35350  1.0000
  C  Sn3       1.0  0.60525  0.42968  0.38032  1.0000
  C  Sn4       1.0  0.63597  0.41694  0.37330  1.0000
  C   C67       1.0  0.62341  0.37500  0.33954  1.0000
  C   C68       1.0  0.58082  0.34574  0.31294  1.0000
  H   H27       1.0  0.51758  0.33570  0.29928  1.0000
  O  Te3       1.0  0.61693  0.47137  0.41375  1.0000
  O  Te4       1.0  0.67864  0.44577  0.39957  1.0000
  H   H28       1.0  0.57136  0.31335  0.28687  1.0000
  Mg  Mg2       1.0  0.67895  0.49900  0.44092  1.0000
  C   C69       1.0  0.65140  0.21598  0.33500  1.0000
  C   C70       1.0  0.63363  0.24190  0.32485  1.0000
  C  Sn5       1.0  0.58983  0.22441  0.32691  1.0000
  C  Sn6       1.0  0.56342  0.18016  0.33942  1.0000
  C   C71       1.0  0.58151  0.15450  0.34963  1.0000
  C   C72       1.0  0.62538  0.17233  0.34741  1.0000
  H   H29       1.0  0.68534  0.22977  0.33337  1.0000
  O  Te5       1.0  0.57259  0.25076  0.31660  1.0000
  O  Te6       1.0  0.51954  0.16186  0.34182  1.0000
  H   H30       1.0  0.63914  0.15225  0.35537  1.0000
  Mg  Mg3       1.0  0.51102  0.21092  0.32463  1.0000
  C   C73       1.0  0.21100  0.63602  0.16432  1.0000
  C   C74       1.0  0.24111  0.62356  0.18490  1.0000
  C  Sn7       1.0  0.22867  0.58089  0.19318  1.0000
  C  Sn8       1.0  0.18526  0.55020  0.18054  1.0000
  C   C75       1.0  0.15538  0.56300  0.15986  1.0000
  C   C76       1.0  0.16817  0.60578  0.15179  1.0000
  H   H31       1.0  0.22089  0.66912  0.15798  1.0000
  O  Te7       1.0  0.25917  0.56898  0.21383  1.0000
  O  Te8       1.0  0.17196  0.50735  0.18836  1.0000
  H   H32       1.0  0.14485  0.61542  0.13575  1.0000
  Mg  Mg4       1.0  0.22542  0.50676  0.21746  1.0000
  C   C77       1.0  0.45092  0.64152  0.16483  1.0000
  C   C78       1.0  0.43720  0.59868  0.14990  1.0000
  C  Sn9       1.0  0.39434  0.56967  0.12876  1.0000
  C  Sn10      1.0  0.36475  0.58390  0.12244  1.0000
  C   C79       1.0  0.37880  0.62683  0.13738  1.0000
  C   C80       1.0  0.42176  0.65559  0.15855  1.0000
  H   H33       1.0  0.48416  0.66377  0.18112  1.0000
  O  Te9       1.0  0.38117  0.52698  0.11411  1.0000
  O  Te10      1.0  0.32174  0.55559  0.10135  1.0000
  H   H34       1.0  0.43238  0.68876  0.17000  1.0000
  Mg  Mg5       1.0  0.31923  0.50057  0.08728  1.0000
  C   C81       1.0  0.42716  0.78975  0.14772  1.0000
  C   C82       1.0  0.38502  0.75981  0.17825  1.0000
  C  Sn11      1.0  0.35509  0.77234  0.20085  1.0000
  C  Sn12      1.0  0.36767  0.81566  0.19261  1.0000
  C   C83       1.0  0.40990  0.84536  0.16189  1.0000
  C   C84       1.0  0.43959  0.83248  0.13951  1.0000
  H   H35       1.0  0.45013  0.77979  0.13031  1.0000
  O  Te11      1.0  0.31312  0.74202  0.23130  1.0000
  O  Te12      1.0  0.33841  0.82905  0.21468  1.0000
  H   H36       1.0  0.47221  0.85567  0.11577  1.0000
  Mg  Mg6       1.0  0.28492  0.77583  0.25315  1.0000
  C   C85       1.0  0.81236  0.37702  0.87654  1.0000
  C   C86       1.0  0.83796  0.41975  0.84046  1.0000
  C  Sn13      1.0  0.82000  0.44510  0.81403  1.0000
  C  Sn14      1.0  0.77558  0.42725  0.82404  1.0000
  C   C87       1.0  0.75024  0.38446  0.86032  1.0000
  C   C88       1.0  0.76855  0.35938  0.88650  1.0000
  H   H37       1.0  0.82652  0.35761  0.89688  1.0000
  O  Te13      1.0  0.84603  0.48774  0.77804  1.0000
  O  Te14      1.0  0.75680  0.45187  0.79823  1.0000
  H   H38       1.0  0.74872  0.32630  0.91454  1.0000
  Mg  Mg7       1.0  0.80557  0.50837  0.75266  1.0000
  C   C89       1.0  0.56192  0.34550  0.77881  1.0000
  C   C90       1.0  0.60469  0.36398  0.81924  1.0000
  C  Sn15      1.0  0.62650  0.40499  0.87998  1.0000
  C  Sn16      1.0  0.60501  0.42784  0.90053  1.0000
  C   C91       1.0  0.56221  0.40905  0.85983  1.0000
  C   C92       1.0  0.54069  0.36800  0.79910  1.0000
  H   H39       1.0  0.54526  0.31373  0.73191  1.0000
  O  Te15      1.0  0.66923  0.42299  0.91971  1.0000
  O  Te16      1.0  0.62604  0.46887  0.96105  1.0000
  H   H40       1.0  0.50757  0.35369  0.76791  1.0000
  Mg  Mg8       1.0  0.68420  0.47978  0.99782  1.0000
  C   C93       1.0  0.64588  0.19441  0.82835  1.0000
  C   C94       1.0  0.60316  0.16369  0.83212  1.0000
  C  Sn17      1.0  0.57217  0.17521  0.82085  1.0000
  C  Sn18      1.0  0.58426  0.21831  0.80548  1.0000
  C   C95       1.0  0.62708  0.24880  0.80170  1.0000
  C   C96       1.0  0.65783  0.23692  0.81313  1.0000
  H   H41       1.0  0.66968  0.18522  0.83710  1.0000
  O  Te17      1.0  0.52963  0.14412  0.82488  1.0000
  O  Te18      1.0  0.55393  0.23070  0.79392  1.0000
  H   H42       1.0  0.69090  0.26070  0.81009  1.0000
  Mg  Mg9       1.0  0.50000  0.17669  0.80513  1.0000
  C   C97       1.0  0.19307  0.55036  0.69692  1.0000
  C   C98       1.0  0.16289  0.56307  0.69216  1.0000
  C  Sn19      1.0  0.17535  0.60556  0.67315  1.0000
  C  Sn20      1.0  0.21885  0.63581  0.65862  1.0000
  C   C99       1.0  0.24879  0.62277  0.66341  1.0000
  C   C100      1.0  0.23598  0.58018  0.68254  1.0000
  H   H43       1.0  0.18315  0.51740  0.71163  1.0000
  O  Te19      1.0  0.14479  0.61772  0.66870  1.0000
  O  Te20      1.0  0.23218  0.67848  0.63944  1.0000
  H   H44       1.0  0.25934  0.57034  0.68611  1.0000
  Mg  Mg10      1.0  0.17861  0.67954  0.64057  1.0000
  C   C101      1.0  0.36498  0.57598  0.62345  1.0000
  C   C102      1.0  0.37705  0.61740  0.66455  1.0000
  C  Sn21      1.0  0.41955  0.64687  0.69113  1.0000
  C  Sn22      1.0  0.45047  0.63455  0.67616  1.0000
  C   C103      1.0  0.43807  0.59304  0.63489  1.0000
  C   C104      1.0  0.39546  0.56381  0.60860  1.0000
  H   H45       1.0  0.33202  0.55337  0.60303  1.0000
  O  Te21      1.0  0.43106  0.68811  0.73216  1.0000
  O  Te22      1.0  0.49316  0.66336  0.70201  1.0000
  H   H46       1.0  0.38613  0.53175  0.57668  1.0000
  Mg  Mg11      1.0  0.49319  0.71591  0.75547  1.0000
  C   C105      1.0  0.42739  0.78985  0.67704  1.0000
  C   C106      1.0  0.38424  0.76048  0.67775  1.0000
  C  Sn23      1.0  0.35464  0.77379  0.66371  1.0000
  C  Sn24      1.0  0.36860  0.81734  0.64866  1.0000
  C   C107      1.0  0.41184  0.84646  0.64796  1.0000
  C   C108      1.0  0.44118  0.83280  0.66214  1.0000
  H   H47       1.0  0.45009  0.77928  0.68792  1.0000
  O  Te23      1.0  0.31165  0.74403  0.66469  1.0000
  O  Te24      1.0  0.33970  0.83150  0.63438  1.0000
  H   H48       1.0  0.47459  0.85554  0.66148  1.0000
  Mg  Mg12      1.0  0.28445  0.77883  0.64195  1.0000
