data_image0
_chemical_formula_structural       H96C120N12O12SnCSn2CSnTe4Mg2SnCSn2CSnTe4Mg2SnCSn2CSnTe4Mg2SnCSn2CSnTe4Mg2SnCSn2CSnTe4Mg2SnCSn2CSnTe4Mg2
_chemical_formula_sum              "H96 C132 N12 O12 Sn24 Te24 Mg12"
_cell_length_a       37.1967
_cell_length_b       37.1682
_cell_length_c       8.17291
_cell_angle_alpha    91.4083
_cell_angle_beta     90.0411
_cell_angle_gamma    119.959

_symmetry_space_group_name_H-M    'P1'
_space_group_IT_number       1

loop_
  _space_group_symop_operation_xyz
  'x, y, z'

loop_
  _atom_site_type_symbol
  _atom_site_label
  _atom_site_symmetry_multiplicity
  _atom_site_fract_x
  _atom_site_fract_y
  _atom_site_fract_z
  _atom_site_occupancy
  H   H1        1.0  0.30563  0.59165  0.37677  1.0000
  H   H2        1.0  0.41319  0.71336  0.36756  1.0000
  H   H3        1.0  0.29113  0.69918  0.36342  1.0000
  H   H4        1.0  0.34895  0.58108  0.20583  1.0000
  H   H5        1.0  0.42658  0.76751  0.22505  1.0000
  H   H6        1.0  0.23567  0.65491  0.21717  1.0000
  H   H7        1.0  0.39373  0.55005  0.19186  1.0000
  H   H8        1.0  0.45665  0.84270  0.20932  1.0000
  H   H9        1.0  0.16018  0.60829  0.19856  1.0000
  H   H10       1.0  0.48163  0.65225  0.99539  1.0000
  H   H11       1.0  0.43395  0.68094  0.01796  1.0000
  H   H12       1.0  0.42453  0.52014  0.29287  1.0000
  H   H13       1.0  0.46937  0.90058  0.17575  1.0000
  H   H14       1.0  0.09931  0.57563  0.32748  1.0000
  H   H15       1.0  0.43226  0.46523  0.29298  1.0000
  H   H16       1.0  0.52716  0.96404  0.18102  1.0000
  H   H17       1.0  0.03578  0.56628  0.32387  1.0000
  H   H18       1.0  0.47327  0.42872  0.28578  1.0000
  H   H19       1.0  0.56407  0.04164  0.20094  1.0000
  H   H20       1.0  0.95847  0.52345  0.30690  1.0000
  H   H21       1.0  0.70293  0.40974  0.27066  1.0000
  H   H22       1.0  0.59209  0.29014  0.27013  1.0000
  H   H23       1.0  0.71155  0.29856  0.26460  1.0000
  H   H24       1.0  0.76677  0.34086  0.10288  1.0000
  H   H25       1.0  0.84323  0.38274  0.10282  1.0000
  H   H26       1.0  0.83887  0.47449  0.41851  1.0000
  H   H27       1.0  0.76203  0.43191  0.42383  1.0000
  H   H28       1.0  0.59079  0.48621  0.28737  1.0000
  H   H29       1.0  0.51047  0.10307  0.29221  1.0000
  H   H30       1.0  0.90049  0.40645  0.26358  1.0000
  H   H31       1.0  0.51519  0.59474  0.07366  1.0000
  H   H32       1.0  0.39415  0.92142  0.04907  1.0000
  H   H33       1.0  0.05819  0.43160  0.03008  1.0000
  H   H34       1.0  0.56769  0.63559  0.08759  1.0000
  H   H35       1.0  0.35102  0.92711  0.11144  1.0000
  H   H36       1.0  0.10236  0.45683  0.16846  1.0000
  H   H37       1.0  0.53010  0.63298  0.23537  1.0000
  H   H38       1.0  0.36479  0.89416  0.22270  1.0000
  H   H39       1.0  0.08395  0.48639  0.06611  1.0000
  H   H40       1.0  0.61505  0.60745  0.37395  1.0000
  H   H41       1.0  0.38437  0.02542  0.35036  1.0000
  H   H42       1.0  0.95149  0.34798  0.29970  1.0000
  H   H43       1.0  0.65197  0.59043  0.33730  1.0000
  H   H44       1.0  0.42532  0.05905  0.49261  1.0000
  H   H45       1.0  0.95173  0.38120  0.46398  1.0000
  H   H46       1.0  0.61349  0.56661  0.49216  1.0000
  H   H47       1.0  0.40895  0.00508  0.47648  1.0000
  H   H48       1.0  0.99984  0.39006  0.37800  1.0000
  H   H49       1.0  0.30119  0.59167  0.87643  1.0000
  H   H50       1.0  0.40890  0.71342  0.86491  1.0000
  H   H51       1.0  0.28719  0.69968  0.87054  1.0000
  H   H52       1.0  0.34398  0.57880  0.71701  1.0000
  H   H53       1.0  0.39078  0.54991  0.69896  1.0000
  H   H54       1.0  0.48181  0.64637  0.51911  1.0000
  H   H55       1.0  0.35320  0.83530  0.47232  1.0000
  H   H56       1.0  0.17126  0.51959  0.49076  1.0000
  H   H57       1.0  0.43639  0.67779  0.53350  1.0000
  H   H58       1.0  0.32340  0.75918  0.49401  1.0000
  H   H59       1.0  0.24726  0.56727  0.51527  1.0000
  H   H60       1.0  0.42504  0.52331  0.82302  1.0000
  H   H61       1.0  0.47510  0.90352  0.74570  1.0000
  H   H62       1.0  0.09545  0.57274  0.76528  1.0000
  H   H63       1.0  0.43413  0.46917  0.80755  1.0000
  H   H64       1.0  0.52983  0.96645  0.73295  1.0000
  H   H65       1.0  0.03358  0.56459  0.77085  1.0000
  H   H66       1.0  0.47715  0.43469  0.79191  1.0000
  H   H67       1.0  0.56501  0.04401  0.73413  1.0000
  H   H68       1.0  0.95616  0.52319  0.76921  1.0000
  H   H69       1.0  0.70042  0.41106  0.77454  1.0000
  H   H70       1.0  0.58907  0.29169  0.77081  1.0000
  H   H71       1.0  0.70833  0.29962  0.76886  1.0000
  H   H72       1.0  0.65885  0.42507  0.62151  1.0000
  H   H73       1.0  0.61743  0.46015  0.62292  1.0000
  H   H74       1.0  0.52458  0.36283  0.91005  1.0000
  H   H75       1.0  0.56707  0.32836  0.91574  1.0000
  H   H76       1.0  0.59387  0.49308  0.79111  1.0000
  H   H77       1.0  0.50945  0.10445  0.79141  1.0000
  H   H78       1.0  0.89574  0.40621  0.77444  1.0000
  H   H79       1.0  0.56883  0.61879  0.55324  1.0000
  H   H80       1.0  0.40002  0.92390  0.55161  1.0000
  H   H81       1.0  0.07664  0.47378  0.53881  1.0000
  H   H82       1.0  0.55319  0.64843  0.68223  1.0000
  H   H83       1.0  0.35654  0.93080  0.59066  1.0000
  H   H84       1.0  0.07205  0.42545  0.59355  1.0000
  H   H85       1.0  0.51521  0.59995  0.59136  1.0000
  H   H86       1.0  0.36461  0.89470  0.70778  1.0000
  H   H87       1.0  0.10453  0.47215  0.71439  1.0000
  H   H88       1.0  0.62171  0.62061  0.84057  1.0000
  H   H89       1.0  0.40400  0.05855  0.88616  1.0000
  H   H90       1.0  0.99209  0.37402  0.79547  1.0000
  H   H91       1.0  0.65262  0.59647  0.87497  1.0000
  H   H92       1.0  0.42133  0.03256  0.01919  1.0000
  H   H93       1.0  0.93772  0.34587  0.84098  1.0000
  H   H94       1.0  0.60987  0.58533  0.00547  1.0000
  H   H95       1.0  0.38320  0.00347  0.86166  1.0000
  H   H96       1.0  0.97246  0.38908  0.96970  1.0000
  C   C1        1.0  0.29289  0.64223  0.37200  1.0000
  C   C2        1.0  0.36238  0.65044  0.37348  1.0000
  C   C3        1.0  0.35427  0.71176  0.36624  1.0000
  C   C4        1.0  0.31908  0.62519  0.37473  1.0000
  C   C5        1.0  0.37961  0.69369  0.36983  1.0000
  C   C6        1.0  0.31105  0.68556  0.36764  1.0000
  C   C7        1.0  0.24735  0.61501  0.36890  1.0000
  C   C8        1.0  0.38906  0.63149  0.37188  1.0000
  C   C9        1.0  0.37231  0.75722  0.35862  1.0000
  C   C10       1.0  0.37733  0.59470  0.27958  1.0000
  C   C11       1.0  0.41056  0.78217  0.28229  1.0000
  C   C12       1.0  0.22163  0.62619  0.28410  1.0000
  C   C13       1.0  0.40261  0.57706  0.27213  1.0000
  C   C14       1.0  0.42743  0.82488  0.27213  1.0000
  C   C15       1.0  0.17885  0.59983  0.27347  1.0000
  C   C16       1.0  0.44071  0.59558  0.35919  1.0000
  C   C17       1.0  0.40637  0.84461  0.33720  1.0000
  C   C18       1.0  0.16012  0.56082  0.34762  1.0000
  C   C19       1.0  0.45258  0.63247  0.45100  1.0000
  C   C20       1.0  0.36870  0.81989  0.41699  1.0000
  C   C21       1.0  0.18580  0.54949  0.43217  1.0000
  C   C22       1.0  0.42718  0.64998  0.45779  1.0000
  C   C23       1.0  0.35198  0.77718  0.42729  1.0000
  C   C24       1.0  0.22838  0.57623  0.44424  1.0000
  C   C25       1.0  0.45761  0.54351  0.30974  1.0000
  C   C26       1.0  0.45076  0.91152  0.24223  1.0000
  C   C27       1.0  0.09048  0.54258  0.31787  1.0000
  C   C28       1.0  0.48527  0.52686  0.28759  1.0000
  C   C29       1.0  0.46689  0.95601  0.23294  1.0000
  C   C30       1.0  0.04616  0.51447  0.29444  1.0000
  C   C31       1.0  0.46598  0.48286  0.28668  1.0000
  C   C32       1.0  0.51013  0.98030  0.20603  1.0000
  C   C33       1.0  0.02066  0.53274  0.30473  1.0000
  C   C34       1.0  0.48831  0.46239  0.28284  1.0000
  C   C35       1.0  0.53077  0.02307  0.21764  1.0000
  C   C36       1.0  0.97792  0.50938  0.29560  1.0000
  C   C37       1.0  0.71259  0.35713  0.26772  1.0000
  C   C38       1.0  0.64444  0.35226  0.27150  1.0000
  C   C39       1.0  0.64934  0.28891  0.26712  1.0000
  C   C40       1.0  0.68795  0.37602  0.27036  1.0000
  C   C41       1.0  0.62575  0.30883  0.26983  1.0000
  C   C42       1.0  0.69279  0.31353  0.26650  1.0000
  C   C43       1.0  0.75843  0.38257  0.26630  1.0000
  C   C44       1.0  0.78240  0.36927  0.17797  1.0000
  C   C45       1.0  0.82555  0.39283  0.17776  1.0000
  C   C46       1.0  0.84645  0.43099  0.26641  1.0000
  C   C47       1.0  0.82258  0.44513  0.34977  1.0000
  C   C48       1.0  0.77954  0.42115  0.35147  1.0000
  C   C49       1.0  0.55711  0.46533  0.28001  1.0000
  C   C50       1.0  0.53005  0.08922  0.26860  1.0000
  C   C51       1.0  0.91308  0.44016  0.26895  1.0000
  C   C52       1.0  0.53203  0.48541  0.27824  1.0000
  C   C53       1.0  0.50879  0.04404  0.25370  1.0000
  C   C54       1.0  0.95816  0.46587  0.27498  1.0000
  C   C55       1.0  0.55193  0.52907  0.27140  1.0000
  C   C56       1.0  0.46529  0.02065  0.26989  1.0000
  C   C57       1.0  0.98289  0.44699  0.26162  1.0000
  C   C58       1.0  0.52914  0.55022  0.27286  1.0000
  C   C59       1.0  0.44396  0.97675  0.25595  1.0000
  C   C60       1.0  0.02655  0.47072  0.26921  1.0000
  C   C61       1.0  0.54025  0.61529  0.15828  1.0000
  C   C62       1.0  0.37651  0.92279  0.15417  1.0000
  C   C63       1.0  0.07462  0.45663  0.12225  1.0000
  C   C64       1.0  0.61998  0.58073  0.37144  1.0000
  C   C65       1.0  0.41372  0.03202  0.40830  1.0000
  C   C66       1.0  0.96714  0.37970  0.35170  1.0000
  C   C67       1.0  0.28876  0.64244  0.87288  1.0000
  C   C68       1.0  0.35816  0.65036  0.87230  1.0000
  C   C69       1.0  0.35022  0.71186  0.86922  1.0000
  C   C70       1.0  0.31485  0.62524  0.87472  1.0000
  C   C71       1.0  0.37536  0.69362  0.86903  1.0000
  C   C72       1.0  0.30695  0.68583  0.87133  1.0000
  C   C73       1.0  0.38529  0.63193  0.86932  1.0000
  C   C74       1.0  0.37343  0.59423  0.78389  1.0000
  C   C75       1.0  0.39979  0.57777  0.77413  1.0000
  C   C76       1.0  0.43935  0.59879  0.85003  1.0000
  C   C77       1.0  0.45121  0.63643  0.93595  1.0000
  C   C78       1.0  0.42459  0.65244  0.94672  1.0000
  C   C79       1.0  0.45800  0.54761  0.81941  1.0000
  C   C80       1.0  0.45248  0.91325  0.77877  1.0000
  C   C81       1.0  0.08667  0.54022  0.78607  1.0000
  C   C82       1.0  0.48618  0.53141  0.80079  1.0000
  C   C83       1.0  0.46829  0.95747  0.76207  1.0000
  C   C84       1.0  0.04243  0.51157  0.76711  1.0000
  C   C85       1.0  0.46777  0.48761  0.79945  1.0000
  C   C86       1.0  0.51185  0.98218  0.74413  1.0000
  C   C87       1.0  0.01764  0.53079  0.76707  1.0000
  C   C88       1.0  0.49122  0.46830  0.79184  1.0000
  C   C89       1.0  0.53158  0.02494  0.74594  1.0000
  C   C90       1.0  0.97495  0.50828  0.76701  1.0000
  C   C91       1.0  0.70969  0.35826  0.77206  1.0000
  C   C92       1.0  0.64177  0.35380  0.77213  1.0000
  C   C93       1.0  0.64626  0.29026  0.76984  1.0000
  C   C94       1.0  0.68529  0.37732  0.77336  1.0000
  C   C95       1.0  0.62276  0.31031  0.77096  1.0000
  C   C96       1.0  0.68971  0.31472  0.77042  1.0000
  C   C97       1.0  0.61660  0.37443  0.77128  1.0000
  C   C98       1.0  0.63029  0.41209  0.69085  1.0000
  C   C99       1.0  0.60698  0.43194  0.69123  1.0000
  C   C100      1.0  0.56860  0.41445  0.77172  1.0000
  C   C101      1.0  0.55405  0.37606  0.84712  1.0000
  C   C102      1.0  0.57793  0.35686  0.84901  1.0000
  C   C103      1.0  0.56015  0.47236  0.78434  1.0000
  C   C104      1.0  0.52931  0.09068  0.77362  1.0000
  C   C105      1.0  0.90926  0.43996  0.76958  1.0000
  C   C106      1.0  0.53481  0.49217  0.78675  1.0000
  C   C107      1.0  0.50861  0.04544  0.76683  1.0000
  C   C108      1.0  0.95439  0.46453  0.76585  1.0000
  C   C109      1.0  0.55398  0.53602  0.78656  1.0000
  C   C110      1.0  0.46490  0.02162  0.77761  1.0000
  C   C111      1.0  0.97808  0.44441  0.75971  1.0000
  C   C112      1.0  0.53004  0.55577  0.79029  1.0000
  C   C113      1.0  0.44447  0.97771  0.76924  1.0000
  C   C114      1.0  0.02202  0.46744  0.75645  1.0000
  C   C115      1.0  0.54653  0.61717  0.64474  1.0000
  C   C116      1.0  0.37956  0.92454  0.64678  1.0000
  C   C117      1.0  0.07592  0.45500  0.64122  1.0000
  C   C118      1.0  0.62140  0.59254  0.88017  1.0000
  C   C119      1.0  0.41082  0.03318  0.89431  1.0000
  C   C120      1.0  0.96592  0.37649  0.84346  1.0000
  N   N1        1.0  0.46928  0.58155  0.35295  1.0000
  N   N2        1.0  0.41908  0.88704  0.32853  1.0000
  N   N3        1.0  0.11796  0.53118  0.33343  1.0000
  N   N4        1.0  0.54075  0.42534  0.27623  1.0000
  N   N5        1.0  0.56993  0.11169  0.25643  1.0000
  N   N6        1.0  0.88961  0.45666  0.27410  1.0000
  N   N7        1.0  0.46919  0.58651  0.83705  1.0000
  N   N8        1.0  0.41643  0.88730  0.83600  1.0000
  N   N9        1.0  0.11390  0.53047  0.83271  1.0000
  N   N10       1.0  0.54328  0.43234  0.77799  1.0000
  N   N11       1.0  0.56922  0.11328  0.76247  1.0000
  N   N12       1.0  0.88646  0.45724  0.77074  1.0000
  O   O1        1.0  0.55281  0.59227  0.26194  1.0000
  O   O2        1.0  0.40171  0.95820  0.26163  1.0000
  O   O3        1.0  0.04746  0.44913  0.26044  1.0000
  O   O4        1.0  0.59418  0.55038  0.24622  1.0000
  O   O5        1.0  0.44398  0.04200  0.27998  1.0000
  O   O6        1.0  0.96329  0.40486  0.22765  1.0000
  O   O7        1.0  0.55095  0.59837  0.79112  1.0000
  O   O8        1.0  0.40199  0.95771  0.76782  1.0000
  O   O9        1.0  0.04034  0.44358  0.74453  1.0000
  O   O10       1.0  0.59636  0.55771  0.76887  1.0000
  O   O11       1.0  0.44381  0.04325  0.77825  1.0000
  O   O12       1.0  0.95635  0.40183  0.73947  1.0000
  C  Sn1       1.0  0.34520  0.78523  0.91720  1.0000
  C   C121      1.0  0.35883  0.76004  0.84245  1.0000
  C  Sn2       1.0  0.39820  0.77771  0.77362  1.0000
  C  Sn3       1.0  0.42452  0.82147  0.77973  1.0000
  C   C122      1.0  0.41089  0.84663  0.85447  1.0000
  C  Sn4       1.0  0.37152  0.82899  0.92330  1.0000
  O  Te1       1.0  0.30572  0.76690  0.98522  1.0000
  O  Te2       1.0  0.41113  0.75189  0.69950  1.0000
  O  Te3       1.0  0.46402  0.83979  0.71163  1.0000
  O  Te4       1.0  0.35859  0.85478  0.99741  1.0000
  Mg  Mg1       1.0  0.46762  0.79156  0.62420  1.0000
  Mg  Mg2       1.0  0.29832  0.80784  0.07282  1.0000
  C  Sn5       1.0  0.62665  0.18790  0.38794  1.0000
  C   C123      1.0  0.59012  0.15961  0.30452  1.0000
  C  Sn6       1.0  0.57341  0.17309  0.18342  1.0000
  C  Sn7       1.0  0.59365  0.21573  0.14480  1.0000
  C   C124      1.0  0.63016  0.24399  0.22817  1.0000
  C  Sn8       1.0  0.64688  0.23054  0.34932  1.0000
  O  Te5       1.0  0.64280  0.17373  0.50855  1.0000
  O  Te6       1.0  0.53685  0.14422  0.10173  1.0000
  O  Te7       1.0  0.57747  0.22988  0.02408  1.0000
  O  Te8       1.0  0.68342  0.25938  0.43096  1.0000
  Mg  Mg3       1.0  0.53079  0.18595  0.94696  1.0000
  Mg  Mg4       1.0  0.69333  0.22499  0.58569  1.0000
  C  Sn9       1.0  0.21716  0.56344  0.90870  1.0000
  C   C125      1.0  0.24083  0.60270  0.84259  1.0000
  C  Sn10      1.0  0.22161  0.62380  0.78188  1.0000
  C  Sn11      1.0  0.17781  0.60529  0.78744  1.0000
  C   C126      1.0  0.15416  0.56605  0.85355  1.0000
  C  Sn12      1.0  0.17336  0.54492  0.91427  1.0000
  O  Te9       1.0  0.23703  0.54291  0.96870  1.0000
  O  Te10      1.0  0.24593  0.66302  0.71632  1.0000
  O  Te11      1.0  0.15795  0.62585  0.72737  1.0000
  O  Te12      1.0  0.14907  0.50573  0.97982  1.0000
  Mg  Mg5       1.0  0.20447  0.67866  0.64998  1.0000
  Mg  Mg6       1.0  0.18669  0.48277  0.04626  1.0000
  C  Sn13      1.0  0.81137  0.43726  0.89982  1.0000
  C   C127      1.0  0.83898  0.42913  0.81279  1.0000
  C  Sn14      1.0  0.82451  0.39889  0.68683  1.0000
  C  Sn15      1.0  0.78154  0.37631  0.64693  1.0000
  C   C128      1.0  0.75395  0.38445  0.73391  1.0000
  C  Sn16      1.0  0.76840  0.41469  0.85992  1.0000
  O  Te13      1.0  0.82272  0.46033  0.02527  1.0000
  O  Te14      1.0  0.85271  0.39130  0.60161  1.0000
  O  Te15      1.0  0.76639  0.34592  0.52137  1.0000
  O  Te16      1.0  0.74022  0.42229  0.94509  1.0000
  Mg  Mg7       1.0  0.81701  0.34686  0.44074  1.0000
  Mg  Mg8       1.0  0.77208  0.45942  0.10592  1.0000
  C  Sn17      1.0  0.57705  0.18577  0.63342  1.0000
  C   C129      1.0  0.58954  0.16096  0.71358  1.0000
  C  Sn18      1.0  0.61940  0.17785  0.83916  1.0000
  C  Sn19      1.0  0.63712  0.22043  0.88568  1.0000
  C   C130      1.0  0.62462  0.24521  0.80556  1.0000
  C  Sn20      1.0  0.59477  0.22834  0.67993  1.0000
  O  Te17      1.0  0.54715  0.16822  0.50822  1.0000
  O  Te18      1.0  0.63141  0.15243  0.91746  1.0000
  O  Te19      1.0  0.66324  0.23066  0.01098  1.0000
  O  Te20      1.0  0.58275  0.25373  0.60168  1.0000
  Mg  Mg9       1.0  0.66942  0.18340  0.08086  1.0000
  Mg  Mg10      1.0  0.54093  0.21550  0.43833  1.0000
  C  Sn21      1.0  0.56674  0.34813  0.31754  1.0000
  C   C131      1.0  0.60574  0.36277  0.24785  1.0000
  C  Sn22      1.0  0.62833  0.40361  0.19563  1.0000
  C  Sn23      1.0  0.61160  0.43040  0.21353  1.0000
  C   C132      1.0  0.57263  0.41576  0.28321  1.0000
  C  Sn24      1.0  0.55001  0.37492  0.33544  1.0000
  O  Te21      1.0  0.54471  0.30718  0.36889  1.0000
  O  Te22      1.0  0.66725  0.41754  0.12628  1.0000
  O  Te23      1.0  0.63367  0.47138  0.16211  1.0000
  O  Te24      1.0  0.51112  0.36099  0.40478  1.0000
  Mg  Mg11      1.0  0.68538  0.47590  0.07512  1.0000
  Mg  Mg12      1.0  0.49297  0.30264  0.45606  1.0000
