data_image0
_chemical_formula_structural       H84C120N12O24SnCSn2CSnTe4Mg2SnCSn2CSnTe4Mg2SnCSn2CSnTe4Mg2SnCSn2CSnTe4Mg2SnCSn2CSnTe4Mg2SnCSn2CSnTe4Mg2
_chemical_formula_sum              "H84 C132 N12 O24 Sn24 Te24 Mg12"
_cell_length_a       37.3432
_cell_length_b       37.4668
_cell_length_c       8.77484
_cell_angle_alpha    88.5501
_cell_angle_beta     91.0276
_cell_angle_gamma    120.236

_symmetry_space_group_name_H-M    'P1'
_space_group_IT_number       1

loop_
  _space_group_symop_operation_xyz
  'x, y, z'

loop_
  _atom_site_type_symbol
  _atom_site_label
  _atom_site_symmetry_multiplicity
  _atom_site_fract_x
  _atom_site_fract_y
  _atom_site_fract_z
  _atom_site_occupancy
  H   H1        1.0  0.30373  0.58944  0.37706  1.0000
  H   H2        1.0  0.41213  0.71066  0.37804  1.0000
  H   H3        1.0  0.29077  0.69706  0.37644  1.0000
  H   H4        1.0  0.34745  0.57913  0.04102  1.0000
  H   H5        1.0  0.42537  0.76796  0.02903  1.0000
  H   H6        1.0  0.38903  0.54457  0.02557  1.0000
  H   H7        1.0  0.45975  0.84444  0.01657  1.0000
  H   H8        1.0  0.16861  0.52909  0.20061  1.0000
  H   H9        1.0  0.24482  0.57063  0.21370  1.0000
  H   H10       1.0  0.43755  0.45961  0.41691  1.0000
  H   H11       1.0  0.53589  0.97718  0.39494  1.0000
  H   H12       1.0  0.02471  0.56168  0.42884  1.0000
  H   H13       1.0  0.47636  0.42687  0.31528  1.0000
  H   H14       1.0  0.56593  0.04826  0.28064  1.0000
  H   H15       1.0  0.95153  0.52253  0.33163  1.0000
  H   H16       1.0  0.70080  0.40805  0.19814  1.0000
  H   H17       1.0  0.58805  0.29061  0.18745  1.0000
  H   H18       1.0  0.70586  0.29609  0.17927  1.0000
  H   H19       1.0  0.57421  0.23585  0.02431  1.0000
  H   H20       1.0  0.76557  0.34247  0.04244  1.0000
  H   H21       1.0  0.53353  0.15930  0.04432  1.0000
  H   H22       1.0  0.84188  0.38129  0.07410  1.0000
  H   H23       1.0  0.62472  0.16091  0.35426  1.0000
  H   H24       1.0  0.83157  0.46231  0.38567  1.0000
  H   H25       1.0  0.66506  0.23728  0.33661  1.0000
  H   H26       1.0  0.75529  0.42297  0.35735  1.0000
  H   H27       1.0  0.98231  0.37466  0.11325  1.0000
  H   H28       1.0  0.63001  0.60945  0.12714  1.0000
  H   H29       1.0  0.37889  0.01152  0.11376  1.0000
  H   H30       1.0  0.99020  0.39285  0.30451  1.0000
  H   H31       1.0  0.60985  0.59565  0.31679  1.0000
  H   H32       1.0  0.39450  0.00617  0.30308  1.0000
  H   H33       1.0  0.04473  0.44227  0.03096  1.0000
  H   H34       1.0  0.56326  0.60619  0.04196  1.0000
  H   H35       1.0  0.38426  0.94993  0.03617  1.0000
  H   H36       1.0  0.05960  0.41870  0.18083  1.0000
  H   H37       1.0  0.58648  0.64223  0.19410  1.0000
  H   H38       1.0  0.34917  0.93549  0.19369  1.0000
  H   H39       1.0  0.48399  0.58661  0.26680  1.0000
  H   H40       1.0  0.41028  0.89286  0.25707  1.0000
  H   H41       1.0  0.10553  0.51864  0.26552  1.0000
  H   H42       1.0  0.55373  0.44619  0.38262  1.0000
  H   H43       1.0  0.54996  0.10342  0.34517  1.0000
  H   H44       1.0  0.89263  0.44574  0.38059  1.0000
  H   H45       1.0  0.30231  0.59188  0.89836  1.0000
  H   H46       1.0  0.41234  0.71166  0.88272  1.0000
  H   H47       1.0  0.29239  0.70135  0.88653  1.0000
  H   H48       1.0  0.23587  0.65054  0.53469  1.0000
  H   H49       1.0  0.15918  0.60910  0.52052  1.0000
  H   H50       1.0  0.47290  0.64100  0.71917  1.0000
  H   H51       1.0  0.36280  0.83465  0.71725  1.0000
  H   H52       1.0  0.43103  0.67480  0.73215  1.0000
  H   H53       1.0  0.32897  0.75872  0.72824  1.0000
  H   H54       1.0  0.43770  0.46001  0.91233  1.0000
  H   H55       1.0  0.54419  0.97907  0.89712  1.0000
  H   H56       1.0  0.02244  0.56031  0.91172  1.0000
  H   H57       1.0  0.47842  0.42977  0.80796  1.0000
  H   H58       1.0  0.57437  0.05105  0.78761  1.0000
  H   H59       1.0  0.95059  0.51900  0.80564  1.0000
  H   H60       1.0  0.70365  0.41180  0.68779  1.0000
  H   H61       1.0  0.58988  0.29500  0.67480  1.0000
  H   H62       1.0  0.70681  0.29879  0.67649  1.0000
  H   H63       1.0  0.57605  0.23630  0.51980  1.0000
  H   H64       1.0  0.53848  0.15979  0.54573  1.0000
  H   H65       1.0  0.62998  0.16804  0.86979  1.0000
  H   H66       1.0  0.66710  0.24434  0.84574  1.0000
  H   H67       1.0  0.98936  0.37404  0.61613  1.0000
  H   H68       1.0  0.62802  0.61519  0.61963  1.0000
  H   H69       1.0  0.38777  0.01577  0.62337  1.0000
  H   H70       1.0  0.99728  0.39192  0.80755  1.0000
  H   H71       1.0  0.61067  0.60332  0.81327  1.0000
  H   H72       1.0  0.40114  0.00917  0.81479  1.0000
  H   H73       1.0  0.04891  0.44413  0.53281  1.0000
  H   H74       1.0  0.55831  0.60623  0.54329  1.0000
  H   H75       1.0  0.39502  0.95475  0.54689  1.0000
  H   H76       1.0  0.06635  0.42169  0.67862  1.0000
  H   H77       1.0  0.58193  0.64504  0.68613  1.0000
  H   H78       1.0  0.35760  0.93945  0.69676  1.0000
  H   H79       1.0  0.48353  0.58858  0.78294  1.0000
  H   H80       1.0  0.41502  0.89712  0.78122  1.0000
  H   H81       1.0  0.10721  0.51932  0.77667  1.0000
  H   H82       1.0  0.54967  0.44335  0.86834  1.0000
  H   H83       1.0  0.55505  0.10756  0.85583  1.0000
  H   H84       1.0  0.89517  0.45191  0.86095  1.0000
  C   C1        1.0  0.29193  0.64015  0.37814  1.0000
  C   C2        1.0  0.36101  0.64785  0.37918  1.0000
  C   C3        1.0  0.35363  0.70913  0.37749  1.0000
  C   C4        1.0  0.31763  0.62286  0.37848  1.0000
  C   C5        1.0  0.37857  0.69094  0.37886  1.0000
  C   C6        1.0  0.31042  0.68333  0.37784  1.0000
  C   C7        1.0  0.24629  0.61395  0.37510  1.0000
  C   C8        1.0  0.22123  0.62422  0.45952  1.0000
  C   C9        1.0  0.17809  0.60101  0.45362  1.0000
  C   C10       1.0  0.15867  0.56635  0.35981  1.0000
  C   C11       1.0  0.18337  0.55523  0.27672  1.0000
  C   C12       1.0  0.22637  0.57862  0.28450  1.0000
  C   C13       1.0  0.45468  0.53529  0.40359  1.0000
  C   C14       1.0  0.46062  0.91647  0.39721  1.0000
  C   C15       1.0  0.08487  0.54772  0.40090  1.0000
  C   C16       1.0  0.48197  0.52038  0.34084  1.0000
  C   C17       1.0  0.47385  0.95856  0.32827  1.0000
  C   C18       1.0  0.04154  0.51968  0.34209  1.0000
  C   C19       1.0  0.46687  0.47783  0.35809  1.0000
  C   C20       1.0  0.51637  0.98728  0.33781  1.0000
  C   C21       1.0  0.01328  0.53314  0.36705  1.0000
  C   C22       1.0  0.48864  0.45996  0.30243  1.0000
  C   C23       1.0  0.53274  0.02676  0.27497  1.0000
  C   C24       1.0  0.97272  0.51113  0.31385  1.0000
  C   C25       1.0  0.70876  0.35500  0.18798  1.0000
  C   C26       1.0  0.64171  0.35185  0.19152  1.0000
  C   C27       1.0  0.64446  0.28812  0.17991  1.0000
  C   C28       1.0  0.68517  0.37457  0.19182  1.0000
  C   C29       1.0  0.62174  0.30866  0.18548  1.0000
  C   C30       1.0  0.68793  0.31168  0.18114  1.0000
  C   C31       1.0  0.75454  0.37952  0.19830  1.0000
  C   C32       1.0  0.62234  0.24241  0.18062  1.0000
  C   C33       1.0  0.58514  0.21956  0.09852  1.0000
  C   C34       1.0  0.77982  0.36836  0.11967  1.0000
  C   C35       1.0  0.56219  0.17654  0.10817  1.0000
  C   C36       1.0  0.82283  0.39024  0.13601  1.0000
  C   C37       1.0  0.57623  0.15522  0.20229  1.0000
  C   C38       1.0  0.84176  0.42419  0.23280  1.0000
  C   C39       1.0  0.61403  0.17752  0.28076  1.0000
  C   C40       1.0  0.81703  0.43634  0.30893  1.0000
  C   C41       1.0  0.63676  0.22046  0.26977  1.0000
  C   C42       1.0  0.77409  0.41430  0.29173  1.0000
  C   C43       1.0  0.54978  0.46474  0.16771  1.0000
  C   C44       1.0  0.52571  0.08228  0.13579  1.0000
  C   C45       1.0  0.91579  0.45211  0.16898  1.0000
  C   C46       1.0  0.52676  0.48422  0.22978  1.0000
  C   C47       1.0  0.50709  0.03952  0.20328  1.0000
  C   C48       1.0  0.95860  0.47425  0.23551  1.0000
  C   C49       1.0  0.54291  0.52699  0.21438  1.0000
  C   C50       1.0  0.46424  0.01149  0.19538  1.0000
  C   C51       1.0  0.98599  0.45944  0.21340  1.0000
  C   C52       1.0  0.52035  0.54487  0.26800  1.0000
  C   C53       1.0  0.44792  0.97106  0.25532  1.0000
  C   C54       1.0  0.02726  0.48225  0.26524  1.0000
  C   C55       1.0  0.99472  0.40232  0.18332  1.0000
  C   C56       1.0  0.60159  0.59312  0.19486  1.0000
  C   C57       1.0  0.39662  0.00068  0.18182  1.0000
  C   C58       1.0  0.04012  0.43214  0.15128  1.0000
  C   C59       1.0  0.57260  0.60971  0.16275  1.0000
  C   C60       1.0  0.38136  0.95539  0.15671  1.0000
  C   C61       1.0  0.29201  0.64362  0.89278  1.0000
  C   C62       1.0  0.36029  0.64943  0.89152  1.0000
  C   C63       1.0  0.35472  0.71184  0.88595  1.0000
  C   C64       1.0  0.31690  0.62538  0.89546  1.0000
  C   C65       1.0  0.37874  0.69263  0.88688  1.0000
  C   C66       1.0  0.31139  0.68689  0.88882  1.0000
  C   C67       1.0  0.38585  0.62955  0.88763  1.0000
  C   C68       1.0  0.37462  0.75737  0.87995  1.0000
  C   C69       1.0  0.37458  0.59248  0.96802  1.0000
  C   C70       1.0  0.41185  0.78251  0.95857  1.0000
  C   C71       1.0  0.39787  0.57289  0.96150  1.0000
  C   C72       1.0  0.43132  0.82551  0.95361  1.0000
  C   C73       1.0  0.43376  0.59039  0.87161  1.0000
  C   C74       1.0  0.41350  0.84468  0.86678  1.0000
  C   C75       1.0  0.44570  0.62776  0.79190  1.0000
  C   C76       1.0  0.37608  0.81992  0.78822  1.0000
  C   C77       1.0  0.42215  0.64688  0.79979  1.0000
  C   C78       1.0  0.35701  0.77709  0.79479  1.0000
  C   C79       1.0  0.45229  0.53482  0.90508  1.0000
  C   C80       1.0  0.46912  0.91867  0.89883  1.0000
  C   C81       1.0  0.08423  0.54818  0.90117  1.0000
  C   C82       1.0  0.48138  0.52176  0.84389  1.0000
  C   C83       1.0  0.48212  0.96126  0.83554  1.0000
  C   C84       1.0  0.04183  0.51908  0.83692  1.0000
  C   C85       1.0  0.46741  0.47936  0.85727  1.0000
  C   C86       1.0  0.52475  0.98974  0.84313  1.0000
  C   C87       1.0  0.01247  0.53160  0.85271  1.0000
  C   C88       1.0  0.49025  0.46284  0.79973  1.0000
  C   C89       1.0  0.54116  0.02958  0.78333  1.0000
  C   C90       1.0  0.97258  0.50829  0.79499  1.0000
  C   C91       1.0  0.71065  0.35809  0.67966  1.0000
  C   C92       1.0  0.64410  0.35599  0.67950  1.0000
  C   C93       1.0  0.64587  0.29167  0.67395  1.0000
  C   C94       1.0  0.68762  0.37828  0.68143  1.0000
  C   C95       1.0  0.62360  0.31268  0.67460  1.0000
  C   C96       1.0  0.68928  0.31479  0.67539  1.0000
  C   C97       1.0  0.62426  0.24602  0.68121  1.0000
  C   C98       1.0  0.58770  0.22145  0.59813  1.0000
  C   C99       1.0  0.56651  0.17843  0.61132  1.0000
  C   C100      1.0  0.58158  0.15898  0.71053  1.0000
  C   C101      1.0  0.61850  0.18311  0.79184  1.0000
  C   C102      1.0  0.63948  0.22597  0.77717  1.0000
  C   C103      1.0  0.55241  0.47017  0.66257  1.0000
  C   C104      1.0  0.53344  0.08523  0.64767  1.0000
  C   C105      1.0  0.91705  0.44606  0.65918  1.0000
  C   C106      1.0  0.52855  0.48822  0.72951  1.0000
  C   C107      1.0  0.51537  0.04268  0.71590  1.0000
  C   C108      1.0  0.95984  0.47069  0.72355  1.0000
  C   C109      1.0  0.54379  0.53099  0.71935  1.0000
  C   C110      1.0  0.47242  0.01505  0.71071  1.0000
  C   C111      1.0  0.98838  0.45687  0.71104  1.0000
  C   C112      1.0  0.52001  0.54747  0.77396  1.0000
  C   C113      1.0  0.45603  0.97444  0.76844  1.0000
  C   C114      1.0  0.02936  0.48147  0.76382  1.0000
  C   C115      1.0  0.00065  0.40150  0.68657  1.0000
  C   C116      1.0  0.60073  0.59857  0.69300  1.0000
  C   C117      1.0  0.40481  0.00459  0.69391  1.0000
  C   C118      1.0  0.04527  0.43343  0.65235  1.0000
  C   C119      1.0  0.56942  0.61227  0.66193  1.0000
  C   C120      1.0  0.39029  0.95957  0.66630  1.0000
  N   N1        1.0  0.46025  0.57199  0.34220  1.0000
  N   N2        1.0  0.42544  0.88433  0.33397  1.0000
  N   N3        1.0  0.11547  0.54196  0.34129  1.0000
  N   N4        1.0  0.55572  0.44016  0.26928  1.0000
  N   N5        1.0  0.55304  0.11208  0.23086  1.0000
  N   N6        1.0  0.88493  0.44538  0.26607  1.0000
  N   N7        1.0  0.45882  0.57270  0.85348  1.0000
  N   N8        1.0  0.43097  0.88763  0.85018  1.0000
  N   N9        1.0  0.11599  0.54321  0.84898  1.0000
  N   N10       1.0  0.55543  0.44195  0.75431  1.0000
  N   N11       1.0  0.56016  0.11581  0.74150  1.0000
  N   N12       1.0  0.88678  0.44449  0.74812  1.0000
  O   O1        1.0  0.42400  0.51181  0.99264  1.0000
  O   O2        1.0  0.49231  0.91277  0.98474  1.0000
  O   O3        1.0  0.08924  0.57498  0.99220  1.0000
  O   O4        1.0  0.56061  0.46981  0.03182  1.0000
  O   O5        1.0  0.51807  0.08893  0.00266  1.0000
  O   O6        1.0  0.91042  0.44283  0.03192  1.0000
  O   O7        1.0  0.97096  0.42172  0.14435  1.0000
  O   O8        1.0  0.58185  0.55065  0.15157  1.0000
  O   O9        1.0  0.43885  0.02508  0.13288  1.0000
  O   O10       1.0  0.05469  0.46767  0.24766  1.0000
  O   O11       1.0  0.53618  0.58743  0.25704  1.0000
  O   O12       1.0  0.40548  0.94280  0.25010  1.0000
  O   O13       1.0  0.42833  0.51440  0.50070  1.0000
  O   O14       1.0  0.48152  0.91213  0.49900  1.0000
  O   O15       1.0  0.09154  0.57459  0.49427  1.0000
  O   O16       1.0  0.56659  0.47959  0.53081  1.0000
  O   O17       1.0  0.52543  0.09093  0.51403  1.0000
  O   O18       1.0  0.91063  0.43004  0.53120  1.0000
  O   O19       1.0  0.97450  0.41835  0.65108  1.0000
  O   O20       1.0  0.58269  0.55573  0.65806  1.0000
  O   O21       1.0  0.44752  0.02958  0.65187  1.0000
  O   O22       1.0  0.05797  0.46814  0.75109  1.0000
  O   O23       1.0  0.53482  0.58991  0.76419  1.0000
  O   O24       1.0  0.41332  0.94683  0.76536  1.0000
  C  Sn1       1.0  0.18635  0.61895  0.92401  1.0000
  C   C121      1.0  0.16271  0.58163  0.84880  1.0000
  C  Sn2       1.0  0.18093  0.55915  0.80123  1.0000
  C  Sn3       1.0  0.22367  0.57429  0.82949  1.0000
  C   C122      1.0  0.24728  0.61159  0.90468  1.0000
  C  Sn4       1.0  0.22908  0.63409  0.95228  1.0000
  O  Te1       1.0  0.16748  0.64090  0.97057  1.0000
  O  Te2       1.0  0.15666  0.52192  0.72620  1.0000
  O  Te3       1.0  0.24252  0.55230  0.78286  1.0000
  O  Te4       1.0  0.25169  0.67640  0.02728  1.0000
  Mg  Mg1       1.0  0.19651  0.50321  0.68495  1.0000
  Mg  Mg2       1.0  0.21187  0.69513  0.06865  1.0000
  C  Sn5       1.0  0.57359  0.38030  0.35716  1.0000
  C   C123      1.0  0.58092  0.41669  0.28201  1.0000
  C  Sn6       1.0  0.60535  0.43060  0.15114  1.0000
  C  Sn7       1.0  0.62280  0.40766  0.09411  1.0000
  C   C124      1.0  0.61547  0.37130  0.16922  1.0000
  C  Sn8       1.0  0.59104  0.35736  0.30013  1.0000
  O  Te5       1.0  0.54906  0.36697  0.48780  1.0000
  O  Te6       1.0  0.61225  0.46707  0.07801  1.0000
  O  Te7       1.0  0.64898  0.41592  0.96336  1.0000
  O  Te8       1.0  0.58413  0.32091  0.37322  1.0000
  Mg  Mg3       1.0  0.64942  0.46745  0.90390  1.0000
  Mg  Mg4       1.0  0.54858  0.31539  0.54729  1.0000
  C  Sn9       1.0  0.57304  0.38178  0.83667  1.0000
  C   C125      1.0  0.58119  0.41910  0.76726  1.0000
  C  Sn10      1.0  0.60790  0.43523  0.64280  1.0000
  C  Sn11      1.0  0.62684  0.41360  0.58646  1.0000
  C   C126      1.0  0.61869  0.37630  0.65583  1.0000
  C  Sn12      1.0  0.59199  0.36015  0.78032  1.0000
  O  Te9       1.0  0.54624  0.36624  0.96095  1.0000
  O  Te10      1.0  0.61558  0.47259  0.57535  1.0000
  O  Te11      1.0  0.65366  0.42918  0.46208  1.0000
  O  Te12      1.0  0.58430  0.32281  0.84774  1.0000
  Mg  Mg5       1.0  0.65437  0.48118  0.40881  1.0000
  Mg  Mg6       1.0  0.54387  0.31929  0.01423  1.0000
  C  Sn13      1.0  0.43233  0.81525  0.41968  1.0000
  C   C127      1.0  0.41837  0.83832  0.33705  1.0000
  C  Sn14      1.0  0.37799  0.81931  0.27881  1.0000
  C  Sn15      1.0  0.35099  0.77634  0.30376  1.0000
  C   C128      1.0  0.36494  0.75329  0.38637  1.0000
  C  Sn16      1.0  0.40532  0.77228  0.44463  1.0000
  O  Te13      1.0  0.47282  0.83490  0.47686  1.0000
  O  Te14      1.0  0.36475  0.84302  0.19652  1.0000
  O  Te15      1.0  0.31047  0.75670  0.24650  1.0000
  O  Te16      1.0  0.41857  0.74860  0.52691  1.0000
  Mg  Mg7       1.0  0.30681  0.80217  0.14168  1.0000
  Mg  Mg8       1.0  0.47649  0.78942  0.58186  1.0000
  C  Sn17      1.0  0.78718  0.43003  0.75561  1.0000
  C   C129      1.0  0.76174  0.39468  0.67190  1.0000
  C  Sn18      1.0  0.77722  0.37038  0.61773  1.0000
  C  Sn19      1.0  0.81901  0.38163  0.64795  1.0000
  C   C130      1.0  0.84443  0.41695  0.73163  1.0000
  C  Sn20      1.0  0.82897  0.44127  0.78582  1.0000
  O  Te17      1.0  0.77104  0.45386  0.80865  1.0000
  O  Te18      1.0  0.75119  0.33520  0.53426  1.0000
  O  Te19      1.0  0.83514  0.35776  0.59482  1.0000
  O  Te20      1.0  0.85497  0.47644  0.86927  1.0000
  Mg  Mg9       1.0  0.78751  0.31266  0.48641  1.0000
  Mg  Mg10      1.0  0.81868  0.49898  0.91725  1.0000
  C  Sn21      1.0  0.45152  0.64058  0.31480  1.0000
  C   C131      1.0  0.44419  0.60350  0.38391  1.0000
  C  Sn22      1.0  0.40527  0.57575  0.44426  1.0000
  C  Sn23      1.0  0.37301  0.58525  0.43526  1.0000
  C   C132      1.0  0.38035  0.62230  0.36616  1.0000
  C  Sn24      1.0  0.41926  0.65008  0.30580  1.0000
  O  Te21      1.0  0.49067  0.66787  0.25523  1.0000
  O  Te22      1.0  0.39869  0.53888  0.51286  1.0000
  O  Te23      1.0  0.33384  0.55792  0.49491  1.0000
  O  Te24      1.0  0.42585  0.68692  0.23721  1.0000
  Mg  Mg11      1.0  0.34005  0.51164  0.57725  1.0000
  Mg  Mg12      1.0  0.48446  0.71417  0.17272  1.0000
