data_image0
_chemical_formula_structural       H84C120N12O12C2Sn2C2HTe2HMgC2Sn2C2HTe2HMgC2Sn2C2HTe2HMgC2Sn2C2HTe2HMgC2Sn2C2HTe2HMgC2Sn2C2HTe2HMg
_chemical_formula_sum              "H96 C144 N12 O12 Sn12 Te12 Mg6"
_cell_length_a       36.9782
_cell_length_b       37.3915
_cell_length_c       8.04343
_cell_angle_alpha    86.3516
_cell_angle_beta     94.8172
_cell_angle_gamma    120.395

_symmetry_space_group_name_H-M    'P1'
_space_group_IT_number       1

loop_
  _space_group_symop_operation_xyz
  'x, y, z'

loop_
  _atom_site_type_symbol
  _atom_site_label
  _atom_site_symmetry_multiplicity
  _atom_site_fract_x
  _atom_site_fract_y
  _atom_site_fract_z
  _atom_site_occupancy
  H   H1        1.0  0.30532  0.59026  0.15518  1.0000
  H   H2        1.0  0.41194  0.71390  0.16151  1.0000
  H   H3        1.0  0.28724  0.69501  0.15731  1.0000
  H   H4        1.0  0.35096  0.58175  0.00531  1.0000
  H   H5        1.0  0.42080  0.77227  0.01145  1.0000
  H   H6        1.0  0.39737  0.55198  0.03043  1.0000
  H   H7        1.0  0.45017  0.84729  0.03108  1.0000
  H   H8        1.0  0.48583  0.65174  0.34403  1.0000
  H   H9        1.0  0.35063  0.82532  0.33722  1.0000
  H   H10       1.0  0.43857  0.68110  0.32406  1.0000
  H   H11       1.0  0.32118  0.74941  0.31932  1.0000
  H   H12       1.0  0.42503  0.52215  0.20574  1.0000
  H   H13       1.0  0.47814  0.90520  0.14766  1.0000
  H   H14       1.0  0.09721  0.57716  0.17074  1.0000
  H   H15       1.0  0.43199  0.46603  0.19037  1.0000
  H   H16       1.0  0.53129  0.97016  0.12980  1.0000
  H   H17       1.0  0.03153  0.56816  0.16269  1.0000
  H   H18       1.0  0.47225  0.42854  0.23829  1.0000
  H   H19       1.0  0.56672  0.04628  0.17709  1.0000
  H   H20       1.0  0.95565  0.52779  0.22521  1.0000
  H   H21       1.0  0.69868  0.40732  0.34684  1.0000
  H   H22       1.0  0.58836  0.28640  0.32682  1.0000
  H   H23       1.0  0.71050  0.29903  0.32925  1.0000
  H   H24       1.0  0.57558  0.23448  0.15086  1.0000
  H   H25       1.0  0.76520  0.34249  0.19164  1.0000
  H   H26       1.0  0.54238  0.15832  0.13420  1.0000
  H   H27       1.0  0.84175  0.38734  0.18599  1.0000
  H   H28       1.0  0.64294  0.16151  0.45396  1.0000
  H   H29       1.0  0.83678  0.47738  0.47528  1.0000
  H   H30       1.0  0.67515  0.23762  0.47838  1.0000
  H   H31       1.0  0.75993  0.43125  0.48893  1.0000
  H   H32       1.0  0.58871  0.48232  0.34767  1.0000
  H   H33       1.0  0.51290  0.09911  0.33322  1.0000
  H   H34       1.0  0.90087  0.41455  0.35961  1.0000
  H   H35       1.0  0.98044  0.38649  0.19363  1.0000
  H   H36       1.0  0.61992  0.59514  0.20640  1.0000
  H   H37       1.0  0.39606  0.01204  0.21351  1.0000
  H   H38       1.0  0.97031  0.36197  0.39712  1.0000
  H   H39       1.0  0.64461  0.60341  0.41236  1.0000
  H   H40       1.0  0.39190  0.02440  0.41929  1.0000
  H   H41       1.0  0.04931  0.40402  0.35116  1.0000
  H   H42       1.0  0.60435  0.64265  0.35194  1.0000
  H   H43       1.0  0.35522  0.94556  0.37462  1.0000
  H   H44       1.0  0.04144  0.42877  0.01734  1.0000
  H   H45       1.0  0.57324  0.60487  0.02484  1.0000
  H   H46       1.0  0.39674  0.96729  0.03467  1.0000
  H   H47       1.0  0.30227  0.59327  0.64715  1.0000
  H   H48       1.0  0.41062  0.71556  0.65119  1.0000
  H   H49       1.0  0.28687  0.69958  0.64388  1.0000
  H   H50       1.0  0.42467  0.77559  0.52865  1.0000
  H   H51       1.0  0.22628  0.65381  0.48939  1.0000
  H   H52       1.0  0.45449  0.85071  0.55014  1.0000
  H   H53       1.0  0.14987  0.60681  0.50330  1.0000
  H   H54       1.0  0.34764  0.82916  0.80682  1.0000
  H   H55       1.0  0.17215  0.52208  0.81980  1.0000
  H   H56       1.0  0.31824  0.75324  0.79235  1.0000
  H   H57       1.0  0.24918  0.56991  0.80978  1.0000
  H   H58       1.0  0.42087  0.52031  0.66092  1.0000
  H   H59       1.0  0.48088  0.90603  0.69631  1.0000
  H   H60       1.0  0.09392  0.57632  0.65123  1.0000
  H   H61       1.0  0.43111  0.46582  0.65059  1.0000
  H   H62       1.0  0.53432  0.97258  0.65925  1.0000
  H   H63       1.0  0.02737  0.56431  0.63435  1.0000
  H   H64       1.0  0.47336  0.43074  0.71170  1.0000
  H   H65       1.0  0.56823  0.04908  0.69610  1.0000
  H   H66       1.0  0.95242  0.52327  0.71008  1.0000
  H   H67       1.0  0.69995  0.41047  0.84451  1.0000
  H   H68       1.0  0.58809  0.29073  0.81327  1.0000
  H   H69       1.0  0.70921  0.30062  0.83655  1.0000
  H   H70       1.0  0.58785  0.48674  0.85571  1.0000
  H   H71       1.0  0.51146  0.10195  0.82251  1.0000
  H   H72       1.0  0.90150  0.41319  0.87615  1.0000
  H   H73       1.0  0.98141  0.38582  0.71212  1.0000
  H   H74       1.0  0.61879  0.60157  0.72660  1.0000
  H   H75       1.0  0.39372  0.01067  0.69952  1.0000
  H   H76       1.0  0.97490  0.36338  0.91889  1.0000
  H   H77       1.0  0.63799  0.60704  0.93963  1.0000
  H   H78       1.0  0.38953  0.02573  0.90042  1.0000
  H   H79       1.0  0.05271  0.40599  0.85421  1.0000
  H   H80       1.0  0.59556  0.64410  0.86499  1.0000
  H   H81       1.0  0.35524  0.94668  0.87545  1.0000
  H   H82       1.0  0.03612  0.42545  0.51334  1.0000
  H   H83       1.0  0.58463  0.60608  0.52201  1.0000
  H   H84       1.0  0.39637  0.96251  0.53520  1.0000
  C   C1        1.0  0.29084  0.63936  0.15395  1.0000
  C   C2        1.0  0.36198  0.65010  0.15740  1.0000
  C   C3        1.0  0.35162  0.70979  0.15729  1.0000
  C   C4        1.0  0.31823  0.62365  0.15462  1.0000
  C   C5        1.0  0.37811  0.69310  0.15780  1.0000
  C   C6        1.0  0.30808  0.68248  0.15528  1.0000
  C   C7        1.0  0.39052  0.63307  0.16638  1.0000
  C   C8        1.0  0.36900  0.75498  0.16554  1.0000
  C   C9        1.0  0.37962  0.59632  0.08574  1.0000
  C   C10       1.0  0.40594  0.78367  0.08750  1.0000
  C   C11       1.0  0.40575  0.57938  0.10015  1.0000
  C   C12       1.0  0.42256  0.82621  0.09869  1.0000
  C   C13       1.0  0.44428  0.59900  0.19543  1.0000
  C   C14       1.0  0.40277  0.84182  0.18974  1.0000
  C   C15       1.0  0.45615  0.63675  0.27015  1.0000
  C   C16       1.0  0.36528  0.81315  0.26415  1.0000
  C   C17       1.0  0.42962  0.65312  0.25732  1.0000
  C   C18       1.0  0.34890  0.77073  0.25288  1.0000
  C   C19       1.0  0.45890  0.54507  0.21848  1.0000
  C   C20       1.0  0.45483  0.91224  0.18976  1.0000
  C   C21       1.0  0.08756  0.54419  0.19306  1.0000
  C   C22       1.0  0.48520  0.52629  0.24299  1.0000
  C   C23       1.0  0.47206  0.95618  0.21774  1.0000
  C   C24       1.0  0.04312  0.51774  0.22168  1.0000
  C   C25       1.0  0.46541  0.48285  0.22662  1.0000
  C   C26       1.0  0.51446  0.98334  0.18168  1.0000
  C   C27       1.0  0.01740  0.53591  0.20531  1.0000
  C   C28       1.0  0.48721  0.46179  0.25457  1.0000
  C   C29       1.0  0.53441  0.02543  0.20848  1.0000
  C   C30       1.0  0.97552  0.51399  0.24110  1.0000
  C   C31       1.0  0.71023  0.35638  0.34031  1.0000
  C   C32       1.0  0.64050  0.34906  0.33659  1.0000
  C   C33       1.0  0.64720  0.28737  0.32798  1.0000
  C   C34       1.0  0.68443  0.37383  0.34221  1.0000
  C   C35       1.0  0.62238  0.30588  0.33080  1.0000
  C   C36       1.0  0.69103  0.31306  0.33297  1.0000
  C   C37       1.0  0.75641  0.38305  0.34185  1.0000
  C   C38       1.0  0.62757  0.24187  0.31775  1.0000
  C   C39       1.0  0.58963  0.21851  0.22313  1.0000
  C   C40       1.0  0.78072  0.37104  0.26101  1.0000
  C   C41       1.0  0.57083  0.17561  0.21350  1.0000
  C   C42       1.0  0.82406  0.39632  0.25769  1.0000
  C   C43       1.0  0.58983  0.15449  0.29715  1.0000
  C   C44       1.0  0.84494  0.43528  0.33381  1.0000
  C   C45       1.0  0.62843  0.17782  0.38811  1.0000
  C   C46       1.0  0.82078  0.44775  0.41333  1.0000
  C   C47       1.0  0.64641  0.22050  0.40039  1.0000
  C   C48       1.0  0.77757  0.42180  0.41944  1.0000
  C   C49       1.0  0.55460  0.46237  0.32729  1.0000
  C   C50       1.0  0.53307  0.08732  0.30015  1.0000
  C   C51       1.0  0.91271  0.44753  0.33035  1.0000
  C   C52       1.0  0.53028  0.48328  0.30390  1.0000
  C   C53       1.0  0.51282  0.04284  0.27428  1.0000
  C   C54       1.0  0.95702  0.47235  0.29732  1.0000
  C   C55       1.0  0.55049  0.52655  0.32348  1.0000
  C   C56       1.0  0.47039  0.01638  0.31039  1.0000
  C   C57       1.0  0.98205  0.45356  0.31321  1.0000
  C   C58       1.0  0.52867  0.54822  0.29010  1.0000
  C   C59       1.0  0.44991  0.97353  0.28203  1.0000
  C   C60       1.0  0.02447  0.47556  0.27439  1.0000
  C   C61       1.0  0.98496  0.39184  0.32861  1.0000
  C   C62       1.0  0.61430  0.59035  0.34024  1.0000
  C   C63       1.0  0.40467  0.00990  0.34651  1.0000
  C   C64       1.0  0.03117  0.41850  0.37961  1.0000
  C   C65       1.0  0.58912  0.60956  0.38734  1.0000
  C   C66       1.0  0.38920  0.96521  0.40141  1.0000
  C   C67       1.0  0.28925  0.64331  0.64337  1.0000
  C   C68       1.0  0.35960  0.65234  0.64715  1.0000
  C   C69       1.0  0.35102  0.71312  0.64876  1.0000
  C   C70       1.0  0.31585  0.62674  0.64495  1.0000
  C   C71       1.0  0.37670  0.69548  0.64817  1.0000
  C   C72       1.0  0.30727  0.68652  0.64379  1.0000
  C   C73       1.0  0.24346  0.61549  0.64917  1.0000
  C   C74       1.0  0.36933  0.75839  0.66053  1.0000
  C   C75       1.0  0.40834  0.78696  0.59609  1.0000
  C   C76       1.0  0.21459  0.62548  0.56567  1.0000
  C   C77       1.0  0.42526  0.82953  0.60803  1.0000
  C   C78       1.0  0.17148  0.59898  0.57359  1.0000
  C   C79       1.0  0.40342  0.84527  0.68451  1.0000
  C   C80       1.0  0.15573  0.56129  0.66593  1.0000
  C   C81       1.0  0.36404  0.81684  0.74582  1.0000
  C   C82       1.0  0.18458  0.55093  0.74688  1.0000
  C   C83       1.0  0.34770  0.77440  0.73611  1.0000
  C   C84       1.0  0.22750  0.57768  0.73991  1.0000
  C   C85       1.0  0.45412  0.54384  0.68809  1.0000
  C   C86       1.0  0.45673  0.91458  0.70839  1.0000
  C   C87       1.0  0.08560  0.54376  0.67606  1.0000
  C   C88       1.0  0.48173  0.52657  0.71685  1.0000
  C   C89       1.0  0.47371  0.95871  0.73090  1.0000
  C   C90       1.0  0.04158  0.51628  0.70803  1.0000
  C   C91       1.0  0.46389  0.48347  0.69596  1.0000
  C   C92       1.0  0.51651  0.98587  0.70127  1.0000
  C   C93       1.0  0.01468  0.53303  0.68728  1.0000
  C   C94       1.0  0.48685  0.46375  0.73048  1.0000
  C   C95       1.0  0.53549  0.02816  0.72136  1.0000
  C   C96       1.0  0.97337  0.51077  0.72987  1.0000
  C   C97       1.0  0.71020  0.35866  0.84190  1.0000
  C   C98       1.0  0.64104  0.35290  0.83032  1.0000
  C   C99       1.0  0.64634  0.29034  0.82481  1.0000
  C   C100      1.0  0.68505  0.37691  0.84017  1.0000
  C   C101      1.0  0.62216  0.30965  0.82247  1.0000
  C   C102      1.0  0.69024  0.31530  0.83551  1.0000
  C   C103      1.0  0.55444  0.46649  0.82016  1.0000
  C   C104      1.0  0.53202  0.09021  0.79409  1.0000
  C   C105      1.0  0.91292  0.44570  0.83846  1.0000
  C   C106      1.0  0.52910  0.48624  0.79130  1.0000
  C   C107      1.0  0.51251  0.04561  0.77385  1.0000
  C   C108      1.0  0.95686  0.47041  0.79961  1.0000
  C   C109      1.0  0.54730  0.52911  0.81654  1.0000
  C   C110      1.0  0.46983  0.01900  0.80572  1.0000
  C   C111      1.0  0.98312  0.45302  0.82066  1.0000
  C   C112      1.0  0.52448  0.54953  0.77541  1.0000
  C   C113      1.0  0.45048  0.97595  0.78573  1.0000
  C   C114      1.0  0.02476  0.47509  0.77203  1.0000
  C   C115      1.0  0.98799  0.39261  0.84597  1.0000
  C   C116      1.0  0.60942  0.59422  0.85609  1.0000
  C   C117      1.0  0.40297  0.01096  0.83319  1.0000
  C   C118      1.0  0.03463  0.42031  0.88523  1.0000
  C   C119      1.0  0.58113  0.61074  0.89349  1.0000
  C   C120      1.0  0.38912  0.96746  0.89998  1.0000
  N   N1        1.0  0.47258  0.58444  0.21793  1.0000
  N   N2        1.0  0.41661  0.88366  0.21467  1.0000
  N   N3        1.0  0.11427  0.53142  0.20026  1.0000
  N   N4        1.0  0.53716  0.42245  0.32212  1.0000
  N   N5        1.0  0.57298  0.11164  0.28641  1.0000
  N   N6        1.0  0.88808  0.46286  0.32351  1.0000
  N   N7        1.0  0.46645  0.58269  0.70060  1.0000
  N   N8        1.0  0.41718  0.88720  0.70469  1.0000
  N   N9        1.0  0.11340  0.53240  0.68554  1.0000
  N   N10       1.0  0.53832  0.42705  0.80247  1.0000
  N   N11       1.0  0.57195  0.11471  0.78216  1.0000
  N   N12       1.0  0.88834  0.46113  0.82571  1.0000
  O   O1        1.0  0.96305  0.41257  0.36829  1.0000
  O   O2        1.0  0.59245  0.54661  0.37887  1.0000
  O   O3        1.0  0.44960  0.03406  0.37462  1.0000
  O   O4        1.0  0.04848  0.45693  0.28422  1.0000
  O   O5        1.0  0.54854  0.59062  0.29955  1.0000
  O   O6        1.0  0.40817  0.94781  0.30906  1.0000
  O   O7        1.0  0.96644  0.41335  0.89059  1.0000
  O   O8        1.0  0.58826  0.55005  0.88410  1.0000
  O   O9        1.0  0.44781  0.03665  0.85856  1.0000
  O   O10       1.0  0.04988  0.45770  0.78369  1.0000
  O   O11       1.0  0.54286  0.59165  0.78962  1.0000
  O   O12       1.0  0.40904  0.94963  0.81651  1.0000
  C   C121      1.0  0.64527  0.21366  0.90918  1.0000
  C   C122      1.0  0.63291  0.24040  0.82928  1.0000
  C  Sn1       1.0  0.59587  0.22456  0.72726  1.0000
  C  Sn2       1.0  0.57081  0.18114  0.70509  1.0000
  C   C123      1.0  0.58344  0.15465  0.78567  1.0000
  C   C124      1.0  0.62057  0.17083  0.88743  1.0000
  H   H85       1.0  0.67398  0.22617  0.98799  1.0000
  O  Te1       1.0  0.58399  0.25171  0.64831  1.0000
  O  Te2       1.0  0.53364  0.16448  0.60387  1.0000
  H   H86       1.0  0.63012  0.15012  0.94937  1.0000
  Mg  Mg1       1.0  0.53069  0.21412  0.52274  1.0000
  C   C125      1.0  0.19591  0.54927  0.26755  1.0000
  C   C126      1.0  0.16344  0.55583  0.20223  1.0000
  C  Sn3       1.0  0.17235  0.59105  0.10298  1.0000
  C  Sn4       1.0  0.21456  0.62019  0.06867  1.0000
  C   C127      1.0  0.24681  0.61333  0.13451  1.0000
  C   C128      1.0  0.23755  0.57798  0.23372  1.0000
  H   H87       1.0  0.18875  0.52191  0.34423  1.0000
  O  Te3       1.0  0.13953  0.59713  0.03876  1.0000
  O  Te4       1.0  0.23948  0.64954  0.96980  1.0000
  H   H88       1.0  0.26269  0.57290  0.28419  1.0000
  Mg  Mg2       1.0  0.18387  0.64411  0.91080  1.0000
  C   C129      1.0  0.56616  0.35274  0.90867  1.0000
  C   C130      1.0  0.60433  0.36613  0.83773  1.0000
  C  Sn5       1.0  0.62413  0.40421  0.75128  1.0000
  C  Sn6       1.0  0.60528  0.42930  0.73581  1.0000
  C   C131      1.0  0.56710  0.41565  0.80733  1.0000
  C   C132      1.0  0.54756  0.37747  0.89353  1.0000
  H   H89       1.0  0.55105  0.32322  0.97545  1.0000
  O  Te5       1.0  0.66225  0.41711  0.68111  1.0000
  O  Te6       1.0  0.62439  0.46751  0.65012  1.0000
  H   H90       1.0  0.51801  0.36713  0.94854  1.0000
  Mg  Mg3       1.0  0.67614  0.47161  0.57621  1.0000
  C   C133      1.0  0.37660  0.58884  0.55789  1.0000
  C   C134      1.0  0.38169  0.62282  0.64189  1.0000
  C  Sn7       1.0  0.41785  0.64602  0.74440  1.0000
  C  Sn8       1.0  0.44944  0.63492  0.76287  1.0000
  C   C135      1.0  0.44406  0.60088  0.67821  1.0000
  C   C136      1.0  0.40775  0.57787  0.57599  1.0000
  H   H91       1.0  0.34852  0.57104  0.47873  1.0000
  O  Te7       1.0  0.42242  0.67988  0.82746  1.0000
  O  Te8       1.0  0.48589  0.65758  0.86449  1.0000
  H   H92       1.0  0.40383  0.55157  0.51089  1.0000
  Mg  Mg4       1.0  0.47768  0.70113  0.95191  1.0000
  C   C137      1.0  0.78833  0.43306  0.93319  1.0000
  C   C138      1.0  0.76105  0.39508  0.85845  1.0000
  C  Sn9       1.0  0.77690  0.37541  0.77087  1.0000
  C  Sn10      1.0  0.82090  0.39419  0.75813  1.0000
  C   C139      1.0  0.84793  0.43218  0.83344  1.0000
  C   C140      1.0  0.83173  0.45159  0.92074  1.0000
  H   H93       1.0  0.76067  0.45419  0.00081  1.0000
  O  Te9       1.0  0.74920  0.33748  0.69690  1.0000
  O  Te10      1.0  0.83759  0.37520  0.67140  1.0000
  H   H94       1.0  0.85286  0.48098  0.97868  1.0000
  Mg  Mg5       1.0  0.78708  0.32371  0.59196  1.0000
  C   C141      1.0  0.62330  0.41402  0.22757  1.0000
  C   C142      1.0  0.61879  0.37898  0.31814  1.0000
  C  Sn11      1.0  0.58377  0.35519  0.41208  1.0000
  C  Sn12      1.0  0.55274  0.36677  0.41512  1.0000
  C   C143      1.0  0.55753  0.40186  0.32399  1.0000
  C   C144      1.0  0.59270  0.42545  0.23045  1.0000
  H   H95       1.0  0.65050  0.43226  0.15512  1.0000
  O  Te11      1.0  0.57976  0.32029  0.50189  1.0000
  O  Te12      1.0  0.51743  0.34354  0.50791  1.0000
  H   H96       1.0  0.59617  0.45257  0.16026  1.0000
  Mg  Mg6       1.0  0.52605  0.29858  0.60964  1.0000
