data_image0
_chemical_formula_structural       H60C84N12O12C2Sn2C2HTe2HMgC2Sn2C2HTe2HMgC2Sn2C2HTe2HMgC2Sn2C2HTe2HMgC2Sn2C2HTe2HMgC2Sn2C2HTe2HMgC2Sn2C2HTe2HMgC2Sn2C2HTe2HMgC2Sn2C2HTe2HMgC2Sn2C2HTe2HMgC2Sn2C2HTe2HMgC2Sn2C2HTe2HMg
_chemical_formula_sum              "H84 C132 N12 O12 Sn24 Te24 Mg12"
_cell_length_a       36.9782
_cell_length_b       37.3915
_cell_length_c       8.04343
_cell_angle_alpha    86.3516
_cell_angle_beta     94.8172
_cell_angle_gamma    120.395

_symmetry_space_group_name_H-M    'P1'
_space_group_IT_number       1

loop_
  _space_group_symop_operation_xyz
  'x, y, z'

loop_
  _atom_site_type_symbol
  _atom_site_label
  _atom_site_symmetry_multiplicity
  _atom_site_fract_x
  _atom_site_fract_y
  _atom_site_fract_z
  _atom_site_occupancy
  H   H1        1.0  0.30532  0.59026  0.15518  1.0000
  H   H2        1.0  0.41194  0.71390  0.16151  1.0000
  H   H3        1.0  0.28724  0.69501  0.15731  1.0000
  H   H4        1.0  0.42503  0.52215  0.20574  1.0000
  H   H5        1.0  0.47814  0.90520  0.14766  1.0000
  H   H6        1.0  0.09721  0.57716  0.17074  1.0000
  H   H7        1.0  0.43199  0.46603  0.19037  1.0000
  H   H8        1.0  0.53129  0.97016  0.12980  1.0000
  H   H9        1.0  0.03153  0.56816  0.16269  1.0000
  H   H10       1.0  0.47225  0.42854  0.23829  1.0000
  H   H11       1.0  0.56672  0.04628  0.17709  1.0000
  H   H12       1.0  0.95565  0.52779  0.22521  1.0000
  H   H13       1.0  0.69868  0.40732  0.34684  1.0000
  H   H14       1.0  0.58836  0.28640  0.32682  1.0000
  H   H15       1.0  0.71050  0.29903  0.32925  1.0000
  H   H16       1.0  0.58871  0.48232  0.34767  1.0000
  H   H17       1.0  0.51290  0.09911  0.33322  1.0000
  H   H18       1.0  0.90087  0.41455  0.35961  1.0000
  H   H19       1.0  0.98044  0.38649  0.19363  1.0000
  H   H20       1.0  0.61992  0.59514  0.20640  1.0000
  H   H21       1.0  0.39606  0.01204  0.21351  1.0000
  H   H22       1.0  0.97031  0.36197  0.39712  1.0000
  H   H23       1.0  0.64461  0.60341  0.41236  1.0000
  H   H24       1.0  0.39190  0.02440  0.41929  1.0000
  H   H25       1.0  0.04931  0.40402  0.35116  1.0000
  H   H26       1.0  0.60435  0.64265  0.35194  1.0000
  H   H27       1.0  0.35522  0.94556  0.37462  1.0000
  H   H28       1.0  0.04144  0.42877  0.01734  1.0000
  H   H29       1.0  0.57324  0.60487  0.02484  1.0000
  H   H30       1.0  0.39674  0.96729  0.03467  1.0000
  H   H31       1.0  0.30227  0.59327  0.64715  1.0000
  H   H32       1.0  0.41062  0.71556  0.65119  1.0000
  H   H33       1.0  0.28687  0.69958  0.64388  1.0000
  H   H34       1.0  0.42087  0.52031  0.66092  1.0000
  H   H35       1.0  0.48088  0.90603  0.69631  1.0000
  H   H36       1.0  0.09392  0.57632  0.65123  1.0000
  H   H37       1.0  0.43111  0.46582  0.65059  1.0000
  H   H38       1.0  0.53432  0.97258  0.65925  1.0000
  H   H39       1.0  0.02737  0.56431  0.63435  1.0000
  H   H40       1.0  0.47336  0.43074  0.71170  1.0000
  H   H41       1.0  0.56823  0.04908  0.69610  1.0000
  H   H42       1.0  0.95242  0.52327  0.71008  1.0000
  H   H43       1.0  0.69995  0.41047  0.84451  1.0000
  H   H44       1.0  0.58809  0.29073  0.81327  1.0000
  H   H45       1.0  0.70921  0.30062  0.83655  1.0000
  H   H46       1.0  0.58785  0.48674  0.85571  1.0000
  H   H47       1.0  0.51146  0.10195  0.82251  1.0000
  H   H48       1.0  0.90150  0.41319  0.87615  1.0000
  H   H49       1.0  0.98141  0.38582  0.71212  1.0000
  H   H50       1.0  0.61879  0.60157  0.72660  1.0000
  H   H51       1.0  0.39372  0.01067  0.69952  1.0000
  H   H52       1.0  0.97490  0.36338  0.91889  1.0000
  H   H53       1.0  0.63799  0.60704  0.93963  1.0000
  H   H54       1.0  0.38953  0.02573  0.90042  1.0000
  H   H55       1.0  0.05271  0.40599  0.85421  1.0000
  H   H56       1.0  0.59556  0.64410  0.86499  1.0000
  H   H57       1.0  0.35524  0.94668  0.87545  1.0000
  H   H58       1.0  0.03612  0.42545  0.51334  1.0000
  H   H59       1.0  0.58463  0.60608  0.52201  1.0000
  H   H60       1.0  0.39637  0.96251  0.53520  1.0000
  C   C1        1.0  0.29084  0.63936  0.15395  1.0000
  C   C2        1.0  0.36198  0.65010  0.15740  1.0000
  C   C3        1.0  0.35162  0.70979  0.15729  1.0000
  C   C4        1.0  0.31823  0.62365  0.15462  1.0000
  C   C5        1.0  0.37811  0.69310  0.15780  1.0000
  C   C6        1.0  0.30808  0.68248  0.15528  1.0000
  C   C7        1.0  0.45890  0.54507  0.21848  1.0000
  C   C8        1.0  0.45483  0.91224  0.18976  1.0000
  C   C9        1.0  0.08756  0.54419  0.19306  1.0000
  C   C10       1.0  0.48520  0.52629  0.24299  1.0000
  C   C11       1.0  0.47206  0.95618  0.21774  1.0000
  C   C12       1.0  0.04312  0.51774  0.22168  1.0000
  C   C13       1.0  0.46541  0.48285  0.22662  1.0000
  C   C14       1.0  0.51446  0.98334  0.18168  1.0000
  C   C15       1.0  0.01740  0.53591  0.20531  1.0000
  C   C16       1.0  0.48721  0.46179  0.25457  1.0000
  C   C17       1.0  0.53441  0.02543  0.20848  1.0000
  C   C18       1.0  0.97552  0.51399  0.24110  1.0000
  C   C19       1.0  0.71023  0.35638  0.34031  1.0000
  C   C20       1.0  0.64050  0.34906  0.33659  1.0000
  C   C21       1.0  0.64720  0.28737  0.32798  1.0000
  C   C22       1.0  0.68443  0.37383  0.34221  1.0000
  C   C23       1.0  0.62238  0.30588  0.33080  1.0000
  C   C24       1.0  0.69103  0.31306  0.33297  1.0000
  C   C25       1.0  0.55460  0.46237  0.32729  1.0000
  C   C26       1.0  0.53307  0.08732  0.30015  1.0000
  C   C27       1.0  0.91271  0.44753  0.33035  1.0000
  C   C28       1.0  0.53028  0.48328  0.30390  1.0000
  C   C29       1.0  0.51282  0.04284  0.27428  1.0000
  C   C30       1.0  0.95702  0.47235  0.29732  1.0000
  C   C31       1.0  0.55049  0.52655  0.32348  1.0000
  C   C32       1.0  0.47039  0.01638  0.31039  1.0000
  C   C33       1.0  0.98205  0.45356  0.31321  1.0000
  C   C34       1.0  0.52867  0.54822  0.29010  1.0000
  C   C35       1.0  0.44991  0.97353  0.28203  1.0000
  C   C36       1.0  0.02447  0.47556  0.27439  1.0000
  C   C37       1.0  0.98496  0.39184  0.32861  1.0000
  C   C38       1.0  0.61430  0.59035  0.34024  1.0000
  C   C39       1.0  0.40467  0.00990  0.34651  1.0000
  C   C40       1.0  0.03117  0.41850  0.37961  1.0000
  C   C41       1.0  0.58912  0.60956  0.38734  1.0000
  C   C42       1.0  0.38920  0.96521  0.40141  1.0000
  C   C43       1.0  0.28925  0.64331  0.64337  1.0000
  C   C44       1.0  0.35960  0.65234  0.64715  1.0000
  C   C45       1.0  0.35102  0.71312  0.64876  1.0000
  C   C46       1.0  0.31585  0.62674  0.64495  1.0000
  C   C47       1.0  0.37670  0.69548  0.64817  1.0000
  C   C48       1.0  0.30727  0.68652  0.64379  1.0000
  C   C49       1.0  0.45412  0.54384  0.68809  1.0000
  C   C50       1.0  0.45673  0.91458  0.70839  1.0000
  C   C51       1.0  0.08560  0.54376  0.67606  1.0000
  C   C52       1.0  0.48173  0.52657  0.71685  1.0000
  C   C53       1.0  0.47371  0.95871  0.73090  1.0000
  C   C54       1.0  0.04158  0.51628  0.70803  1.0000
  C   C55       1.0  0.46389  0.48347  0.69596  1.0000
  C   C56       1.0  0.51651  0.98587  0.70127  1.0000
  C   C57       1.0  0.01468  0.53303  0.68728  1.0000
  C   C58       1.0  0.48685  0.46375  0.73048  1.0000
  C   C59       1.0  0.53549  0.02816  0.72136  1.0000
  C   C60       1.0  0.97337  0.51077  0.72987  1.0000
  C   C61       1.0  0.71020  0.35866  0.84190  1.0000
  C   C62       1.0  0.64104  0.35290  0.83032  1.0000
  C   C63       1.0  0.64634  0.29034  0.82481  1.0000
  C   C64       1.0  0.68505  0.37691  0.84017  1.0000
  C   C65       1.0  0.62216  0.30965  0.82247  1.0000
  C   C66       1.0  0.69024  0.31530  0.83551  1.0000
  C   C67       1.0  0.55444  0.46649  0.82016  1.0000
  C   C68       1.0  0.53202  0.09021  0.79409  1.0000
  C   C69       1.0  0.91292  0.44570  0.83846  1.0000
  C   C70       1.0  0.52910  0.48624  0.79130  1.0000
  C   C71       1.0  0.51251  0.04561  0.77385  1.0000
  C   C72       1.0  0.95686  0.47041  0.79961  1.0000
  C   C73       1.0  0.54730  0.52911  0.81654  1.0000
  C   C74       1.0  0.46983  0.01900  0.80572  1.0000
  C   C75       1.0  0.98312  0.45302  0.82066  1.0000
  C   C76       1.0  0.52448  0.54953  0.77541  1.0000
  C   C77       1.0  0.45048  0.97595  0.78573  1.0000
  C   C78       1.0  0.02476  0.47509  0.77203  1.0000
  C   C79       1.0  0.98799  0.39261  0.84597  1.0000
  C   C80       1.0  0.60942  0.59422  0.85609  1.0000
  C   C81       1.0  0.40297  0.01096  0.83319  1.0000
  C   C82       1.0  0.03463  0.42031  0.88523  1.0000
  C   C83       1.0  0.58113  0.61074  0.89349  1.0000
  C   C84       1.0  0.38912  0.96746  0.89998  1.0000
  N   N1        1.0  0.47258  0.58444  0.21793  1.0000
  N   N2        1.0  0.41661  0.88366  0.21467  1.0000
  N   N3        1.0  0.11427  0.53142  0.20026  1.0000
  N   N4        1.0  0.53716  0.42245  0.32212  1.0000
  N   N5        1.0  0.57298  0.11164  0.28641  1.0000
  N   N6        1.0  0.88808  0.46286  0.32351  1.0000
  N   N7        1.0  0.46645  0.58269  0.70060  1.0000
  N   N8        1.0  0.41718  0.88720  0.70469  1.0000
  N   N9        1.0  0.11340  0.53240  0.68554  1.0000
  N   N10       1.0  0.53832  0.42705  0.80247  1.0000
  N   N11       1.0  0.57195  0.11471  0.78216  1.0000
  N   N12       1.0  0.88834  0.46113  0.82571  1.0000
  O   O1        1.0  0.96305  0.41257  0.36829  1.0000
  O   O2        1.0  0.59245  0.54661  0.37887  1.0000
  O   O3        1.0  0.44960  0.03406  0.37462  1.0000
  O   O4        1.0  0.04848  0.45693  0.28422  1.0000
  O   O5        1.0  0.54854  0.59062  0.29955  1.0000
  O   O6        1.0  0.40817  0.94781  0.30906  1.0000
  O   O7        1.0  0.96644  0.41335  0.89059  1.0000
  O   O8        1.0  0.58826  0.55005  0.88410  1.0000
  O   O9        1.0  0.44781  0.03665  0.85856  1.0000
  O   O10       1.0  0.04988  0.45770  0.78369  1.0000
  O   O11       1.0  0.54286  0.59165  0.78962  1.0000
  O   O12       1.0  0.40904  0.94963  0.81651  1.0000
  C   C85       1.0  0.43919  0.65331  0.27775  1.0000
  C   C86       1.0  0.40161  0.64037  0.18137  1.0000
  C  Sn1       1.0  0.38413  0.60440  0.08853  1.0000
  C  Sn2       1.0  0.40472  0.58099  0.09255  1.0000
  C   C87       1.0  0.44229  0.59418  0.18946  1.0000
  C   C88       1.0  0.45951  0.63024  0.28183  1.0000
  H   H61       1.0  0.45251  0.68119  0.34930  1.0000
  O  Te1       1.0  0.36170  0.58581  0.99286  1.0000
  O  Te2       1.0  0.38793  0.54490  0.00101  1.0000
  H   H62       1.0  0.48860  0.64023  0.35653  1.0000
  Mg  Mg1       1.0  0.35123  0.53446  0.88955  1.0000
  C   C89       1.0  0.42388  0.81751  0.08583  1.0000
  C   C90       1.0  0.40774  0.83892  0.15958  1.0000
  C  Sn3       1.0  0.37146  0.81729  0.24826  1.0000
  C  Sn4       1.0  0.35104  0.77341  0.26319  1.0000
  C   C91       1.0  0.36745  0.75228  0.18904  1.0000
  C   C92       1.0  0.40377  0.77423  0.10055  1.0000
  H   H63       1.0  0.45199  0.83449  0.01743  1.0000
  O  Te3       1.0  0.35575  0.83917  0.32112  1.0000
  O  Te4       1.0  0.31474  0.75102  0.35116  1.0000
  H   H64       1.0  0.41627  0.75764  0.04354  1.0000
  Mg  Mg2       1.0  0.30541  0.79480  0.42833  1.0000
  C   C93       1.0  0.20569  0.61957  0.05944  1.0000
  C   C94       1.0  0.23830  0.61576  0.14317  1.0000
  C  Sn5       1.0  0.22941  0.58084  0.24442  1.0000
  C  Sn6       1.0  0.18707  0.54918  0.26188  1.0000
  C   C95       1.0  0.15467  0.55327  0.17750  1.0000
  C   C96       1.0  0.16391  0.58836  0.07655  1.0000
  H   H65       1.0  0.22798  0.64059  0.98126  1.0000
  O  Te5       1.0  0.26237  0.57754  0.32723  1.0000
  O  Te6       1.0  0.17730  0.51394  0.36223  1.0000
  H   H66       1.0  0.13866  0.59128  0.01165  1.0000
  Mg  Mg3       1.0  0.23313  0.52364  0.44979  1.0000
  C   C97       1.0  0.61105  0.42514  0.23246  1.0000
  C   C98       1.0  0.57196  0.41025  0.29793  1.0000
  C  Sn7       1.0  0.55405  0.37343  0.39340  1.0000
  C  Sn8       1.0  0.57575  0.35118  0.42373  1.0000
  C   C99       1.0  0.61486  0.36635  0.35778  1.0000
  C   C100      1.0  0.63249  0.40321  0.26237  1.0000
  H   H67       1.0  0.62471  0.45368  0.15872  1.0000
  O  Te7       1.0  0.51496  0.35899  0.45782  1.0000
  O  Te8       1.0  0.55858  0.31430  0.51878  1.0000
  H   H68       1.0  0.66277  0.41475  0.21179  1.0000
  Mg  Mg4       1.0  0.50450  0.30721  0.57970  1.0000
  C   C101      1.0  0.57000  0.18512  0.20432  1.0000
  C   C102      1.0  0.58481  0.15910  0.27032  1.0000
  C  Sn9       1.0  0.62187  0.17508  0.37221  1.0000
  C  Sn10      1.0  0.64445  0.21791  0.40850  1.0000
  C   C103      1.0  0.62936  0.24368  0.34196  1.0000
  C   C104      1.0  0.59225  0.22737  0.24011  1.0000
  H   H69       1.0  0.54127  0.17250  0.12558  1.0000
  O  Te9       1.0  0.63623  0.14864  0.43707  1.0000
  O  Te10      1.0  0.68158  0.23469  0.51003  1.0000
  H   H70       1.0  0.58078  0.24752  0.18911  1.0000
  Mg  Mg5       1.0  0.68843  0.18614  0.56892  1.0000
  C   C105      1.0  0.81052  0.44633  0.42481  1.0000
  C   C106      1.0  0.83970  0.43914  0.35626  1.0000
  C  Sn11      1.0  0.82624  0.40287  0.26963  1.0000
  C  Sn12      1.0  0.78273  0.37330  0.25146  1.0000
  C   C107      1.0  0.75379  0.38079  0.32041  1.0000
  C   C108      1.0  0.76760  0.41719  0.40689  1.0000
  H   H71       1.0  0.82120  0.47450  0.49165  1.0000
  O  Te11      1.0  0.85582  0.39617  0.20198  1.0000
  O  Te12      1.0  0.76842  0.33679  0.16544  1.0000
  H   H72       1.0  0.74499  0.42275  0.45986  1.0000
  Mg  Mg6       1.0  0.82087  0.34170  0.09562  1.0000
  C   C109      1.0  0.43495  0.65216  0.76799  1.0000
  C   C110      1.0  0.39771  0.64074  0.67112  1.0000
  C  Sn13      1.0  0.37927  0.60511  0.57570  1.0000
  C  Sn14      1.0  0.39854  0.58051  0.57759  1.0000
  C   C111      1.0  0.43578  0.59219  0.67500  1.0000
  C   C112      1.0  0.45397  0.62792  0.76997  1.0000
  H   H73       1.0  0.44901  0.67979  0.84154  1.0000
  O  Te13      1.0  0.34206  0.59415  0.47958  1.0000
  O  Te14      1.0  0.38077  0.54474  0.48345  1.0000
  H   H74       1.0  0.48279  0.63674  0.84504  1.0000
  Mg  Mg7       1.0  0.32990  0.54266  0.37238  1.0000
  C   C113      1.0  0.34714  0.78315  0.75353  1.0000
  C   C114      1.0  0.36199  0.76155  0.67259  1.0000
  C  Sn15      1.0  0.40014  0.78305  0.59595  1.0000
  C  Sn16      1.0  0.42380  0.82698  0.60067  1.0000
  C   C115      1.0  0.40868  0.84829  0.68206  1.0000
  C   C116      1.0  0.37046  0.82647  0.75830  1.0000
  H   H75       1.0  0.31758  0.76626  0.81261  1.0000
  O  Te15      1.0  0.41451  0.76099  0.51556  1.0000
  O  Te16      1.0  0.46204  0.84924  0.52513  1.0000
  H   H76       1.0  0.35899  0.84320  0.82106  1.0000
  Mg  Mg8       1.0  0.46844  0.80524  0.43091  1.0000
  C   C117      1.0  0.18030  0.60937  0.56082  1.0000
  C   C118      1.0  0.15862  0.56994  0.63589  1.0000
  C  Sn17      1.0  0.18057  0.55344  0.72952  1.0000
  C  Sn18      1.0  0.22505  0.57692  0.74814  1.0000
  C   C119      1.0  0.24645  0.61635  0.67263  1.0000
  C   C120      1.0  0.22417  0.63256  0.57917  1.0000
  H   H77       1.0  0.16306  0.62193  0.48858  1.0000
  O  Te17      1.0  0.15841  0.51399  0.80364  1.0000
  O  Te18      1.0  0.24778  0.56118  0.84108  1.0000
  H   H78       1.0  0.24097  0.66310  0.52115  1.0000
  Mg  Mg9       1.0  0.20342  0.50594  0.91813  1.0000
  C   C121      1.0  0.55166  0.36158  0.89700  1.0000
  C   C122      1.0  0.56053  0.40052  0.83152  1.0000
  C  Sn19      1.0  0.59781  0.42591  0.75247  1.0000
  C  Sn20      1.0  0.62668  0.41197  0.73887  1.0000
  C   C123      1.0  0.61750  0.37295  0.80468  1.0000
  C   C124      1.0  0.58011  0.34780  0.88358  1.0000
  H   H79       1.0  0.52272  0.34211  0.95796  1.0000
  O  Te19      1.0  0.60619  0.46473  0.68780  1.0000
  O  Te20      1.0  0.66416  0.43671  0.66044  1.0000
  H   H80       1.0  0.57323  0.31764  0.93417  1.0000
  Mg  Mg10      1.0  0.66148  0.48717  0.59210  1.0000
  C   C125      1.0  0.57986  0.21177  0.70036  1.0000
  C   C126      1.0  0.61556  0.23932  0.79624  1.0000
  C  Sn21      1.0  0.63974  0.22525  0.88945  1.0000
  C  Sn22      1.0  0.62789  0.18278  0.88633  1.0000
  C   C127      1.0  0.59213  0.15547  0.78992  1.0000
  C   C128      1.0  0.56815  0.16988  0.69716  1.0000
  H   H81       1.0  0.56132  0.22292  0.62852  1.0000
  O  Te21      1.0  0.67531  0.25320  0.98461  1.0000
  O  Te22      1.0  0.65150  0.16789  0.97826  1.0000
  H   H82       1.0  0.54053  0.14854  0.62286  1.0000
  Mg  Mg11      1.0  0.68219  0.22414  0.08875  1.0000
  C   C129      1.0  0.79003  0.37265  0.75148  1.0000
  C   C130      1.0  0.76206  0.37924  0.83298  1.0000
  C  Sn23      1.0  0.77644  0.41608  0.91684  1.0000
  C  Sn24      1.0  0.81963  0.44683  0.91890  1.0000
  C   C131      1.0  0.84736  0.43995  0.83690  1.0000
  C   C132      1.0  0.83264  0.40297  0.75340  1.0000
  H   H83       1.0  0.77865  0.34405  0.68680  1.0000
  O  Te23      1.0  0.74807  0.42216  0.99767  1.0000
  O  Te24      1.0  0.81970  0.49005  0.00172  1.0000
  H   H84       1.0  0.85430  0.39788  0.69022  1.0000
  Mg  Mg12      1.0  0.76877  0.48392  0.09357  1.0000
