data_image0
_chemical_formula_structural       H72C114N12O24SnCSn2CSnTe4Mg2SnCSn2CSnTe4Mg2SnCSn2CSnTe4Mg2SnCSn2CSnTe4Mg2SnCSn2CSnTe4Mg2SnCSn2CSnTe4Mg2
_chemical_formula_sum              "H72 C126 N12 O24 Sn24 Te24 Mg12"
_cell_length_a       37.6884
_cell_length_b       37.7865
_cell_length_c       7.9479
_cell_angle_alpha    89.5656
_cell_angle_beta     89.5752
_cell_angle_gamma    120.317

_symmetry_space_group_name_H-M    'P1'
_space_group_IT_number       1

loop_
  _space_group_symop_operation_xyz
  'x, y, z'

loop_
  _atom_site_type_symbol
  _atom_site_label
  _atom_site_symmetry_multiplicity
  _atom_site_fract_x
  _atom_site_fract_y
  _atom_site_fract_z
  _atom_site_occupancy
  H   H1        1.0  0.29756  0.58945  0.24810  1.0000
  H   H2        1.0  0.41078  0.70492  0.26102  1.0000
  H   H3        1.0  0.29532  0.70192  0.25316  1.0000
  H   H4        1.0  0.33666  0.57179  0.10557  1.0000
  H   H5        1.0  0.42968  0.76241  0.11410  1.0000
  H   H6        1.0  0.23966  0.66260  0.08834  1.0000
  H   H7        1.0  0.37420  0.53399  0.11531  1.0000
  H   H8        1.0  0.46653  0.83822  0.11835  1.0000
  H   H9        1.0  0.16361  0.62492  0.09701  1.0000
  H   H10       1.0  0.46837  0.63060  0.40817  1.0000
  H   H11       1.0  0.36755  0.83299  0.41147  1.0000
  H   H12       1.0  0.16461  0.53219  0.41126  1.0000
  H   H13       1.0  0.43004  0.66733  0.40518  1.0000
  H   H14       1.0  0.33150  0.75753  0.41131  1.0000
  H   H15       1.0  0.24023  0.57039  0.40650  1.0000
  H   H16       1.0  0.43222  0.45241  0.13639  1.0000
  H   H17       1.0  0.54412  0.97749  0.10572  1.0000
  H   H18       1.0  0.02285  0.56741  0.11837  1.0000
  H   H19       1.0  0.48391  0.43017  0.15418  1.0000
  H   H20       1.0  0.56502  0.05133  0.10825  1.0000
  H   H21       1.0  0.94847  0.51583  0.13994  1.0000
  H   H22       1.0  0.70176  0.40710  0.27658  1.0000
  H   H23       1.0  0.58906  0.29136  0.26577  1.0000
  H   H24       1.0  0.70497  0.29528  0.25021  1.0000
  H   H25       1.0  0.57090  0.23742  0.11175  1.0000
  H   H26       1.0  0.53189  0.16157  0.11370  1.0000
  H   H27       1.0  0.63064  0.16097  0.37959  1.0000
  H   H28       1.0  0.66838  0.23636  0.38557  1.0000
  H   H29       1.0  0.56765  0.58702  0.05166  1.0000
  H   H30       1.0  0.40833  0.97982  0.06102  1.0000
  H   H31       1.0  0.02062  0.43544  0.08364  1.0000
  H   H32       1.0  0.59125  0.61844  0.37493  1.0000
  H   H33       1.0  0.37818  0.96697  0.38170  1.0000
  H   H34       1.0  0.02875  0.41148  0.39190  1.0000
  H   H35       1.0  0.47451  0.57650  0.33342  1.0000
  H   H36       1.0  0.42205  0.89424  0.33443  1.0000
  H   H37       1.0  0.10441  0.52716  0.33982  1.0000
  H   H38       1.0  0.52550  0.42135  0.35167  1.0000
  H   H39       1.0  0.57474  0.10100  0.30098  1.0000
  H   H40       1.0  0.89559  0.47449  0.34210  1.0000
  H   H41       1.0  0.29970  0.59257  0.75581  1.0000
  H   H42       1.0  0.41124  0.70944  0.76994  1.0000
  H   H43       1.0  0.29433  0.70339  0.76256  1.0000
  H   H44       1.0  0.43139  0.45560  0.64901  1.0000
  H   H45       1.0  0.54193  0.98015  0.60408  1.0000
  H   H46       1.0  0.02364  0.56480  0.62002  1.0000
  H   H47       1.0  0.48279  0.43272  0.65408  1.0000
  H   H48       1.0  0.56352  0.05418  0.60906  1.0000
  H   H49       1.0  0.94907  0.51287  0.63821  1.0000
  H   H50       1.0  0.70428  0.41097  0.77119  1.0000
  H   H51       1.0  0.59070  0.29622  0.74735  1.0000
  H   H52       1.0  0.70544  0.29790  0.75323  1.0000
  H   H53       1.0  0.66626  0.42967  0.61405  1.0000
  H   H54       1.0  0.76281  0.33571  0.62485  1.0000
  H   H55       1.0  0.62898  0.46792  0.62630  1.0000
  H   H56       1.0  0.83840  0.37169  0.64261  1.0000
  H   H57       1.0  0.53318  0.36960  0.92101  1.0000
  H   H58       1.0  0.83634  0.46739  0.92504  1.0000
  H   H59       1.0  0.57123  0.33248  0.91418  1.0000
  H   H60       1.0  0.76087  0.43031  0.91551  1.0000
  H   H61       1.0  0.56393  0.58544  0.55537  1.0000
  H   H62       1.0  0.41491  0.97761  0.54972  1.0000
  H   H63       1.0  0.02306  0.43648  0.57687  1.0000
  H   H64       1.0  0.59330  0.62133  0.87222  1.0000
  H   H65       1.0  0.37850  0.97111  0.87066  1.0000
  H   H66       1.0  0.02978  0.40933  0.91127  1.0000
  H   H67       1.0  0.47638  0.58054  0.84366  1.0000
  H   H68       1.0  0.42091  0.89748  0.84487  1.0000
  H   H69       1.0  0.10523  0.52407  0.83671  1.0000
  H   H70       1.0  0.52969  0.42708  0.85723  1.0000
  H   H71       1.0  0.57526  0.10455  0.81150  1.0000
  H   H72       1.0  0.89792  0.47243  0.84922  1.0000
  C   C1        1.0  0.29126  0.64302  0.24964  1.0000
  C   C2        1.0  0.35696  0.64454  0.25381  1.0000
  C   C3        1.0  0.35569  0.70870  0.25765  1.0000
  C   C4        1.0  0.31384  0.62277  0.25023  1.0000
  C   C5        1.0  0.37738  0.68752  0.25770  1.0000
  C   C6        1.0  0.31262  0.68599  0.25319  1.0000
  C   C7        1.0  0.24590  0.61972  0.24814  1.0000
  C   C8        1.0  0.38013  0.62256  0.25503  1.0000
  C   C9        1.0  0.37766  0.75394  0.26163  1.0000
  C   C10       1.0  0.36507  0.58456  0.17593  1.0000
  C   C11       1.0  0.41621  0.77768  0.18253  1.0000
  C   C12       1.0  0.22336  0.63449  0.16298  1.0000
  C   C13       1.0  0.38610  0.56303  0.17872  1.0000
  C   C14       1.0  0.43718  0.82037  0.18278  1.0000
  C   C15       1.0  0.18053  0.61341  0.16543  1.0000
  C   C16       1.0  0.42385  0.57972  0.26167  1.0000
  C   C17       1.0  0.41949  0.84068  0.26424  1.0000
  C   C18       1.0  0.15891  0.57619  0.25527  1.0000
  C   C19       1.0  0.43959  0.61786  0.34018  1.0000
  C   C20       1.0  0.38101  0.81745  0.34461  1.0000
  C   C21       1.0  0.18102  0.56062  0.33862  1.0000
  C   C22       1.0  0.41802  0.63873  0.33723  1.0000
  C   C23       1.0  0.36057  0.77487  0.34331  1.0000
  C   C24       1.0  0.22373  0.58208  0.33508  1.0000
  C   C25       1.0  0.43880  0.52315  0.20789  1.0000
  C   C26       1.0  0.47503  0.91280  0.19909  1.0000
  C   C27       1.0  0.08724  0.56158  0.20036  1.0000
  C   C28       1.0  0.47139  0.51213  0.23474  1.0000
  C   C29       1.0  0.48511  0.95630  0.21847  1.0000
  C   C30       1.0  0.04316  0.52966  0.23445  1.0000
  C   C31       1.0  0.46269  0.47264  0.18594  1.0000
  C   C32       1.0  0.52383  0.98746  0.15722  1.0000
  C   C33       1.0  0.01237  0.53762  0.17727  1.0000
  C   C34       1.0  0.49179  0.46053  0.19701  1.0000
  C   C35       1.0  0.53521  0.02856  0.15986  1.0000
  C   C36       1.0  0.97081  0.50854  0.19039  1.0000
  C   C37       1.0  0.70874  0.35402  0.26390  1.0000
  C   C38       1.0  0.64265  0.35179  0.26981  1.0000
  C   C39       1.0  0.64448  0.28809  0.25605  1.0000
  C   C40       1.0  0.68577  0.37384  0.27035  1.0000
  C   C41       1.0  0.62248  0.30891  0.26402  1.0000
  C   C42       1.0  0.68757  0.31107  0.25570  1.0000
  C   C43       1.0  0.62241  0.24288  0.25005  1.0000
  C   C44       1.0  0.58373  0.22079  0.17464  1.0000
  C   C45       1.0  0.56168  0.17812  0.17270  1.0000
  C   C46       1.0  0.57863  0.15626  0.24678  1.0000
  C   C47       1.0  0.61759  0.17779  0.31986  1.0000
  C   C48       1.0  0.63901  0.22039  0.32197  1.0000
  C   C49       1.0  0.56560  0.47696  0.24471  1.0000
  C   C50       1.0  0.51835  0.08530  0.20808  1.0000
  C   C51       1.0  0.91282  0.43485  0.25050  1.0000
  C   C52       1.0  0.53211  0.48711  0.25494  1.0000
  C   C53       1.0  0.50839  0.04175  0.21995  1.0000
  C   C54       1.0  0.95663  0.46881  0.25888  1.0000
  C   C55       1.0  0.54030  0.52573  0.30444  1.0000
  C   C56       1.0  0.47036  0.01099  0.27968  1.0000
  C   C57       1.0  0.98701  0.46143  0.31755  1.0000
  C   C58       1.0  0.51071  0.53750  0.29603  1.0000
  C   C59       1.0  0.45953  0.96980  0.28158  1.0000
  C   C60       1.0  0.02866  0.49111  0.30758  1.0000
  C   C61       1.0  0.56745  0.58783  0.41778  1.0000
  C   C62       1.0  0.40986  0.97591  0.41323  1.0000
  C   C63       1.0  0.02187  0.43461  0.43910  1.0000
  C   C64       1.0  0.29176  0.64506  0.75775  1.0000
  C   C65       1.0  0.35840  0.64849  0.76224  1.0000
  C   C66       1.0  0.35526  0.71168  0.76599  1.0000
  C   C67       1.0  0.31531  0.62586  0.75815  1.0000
  C   C68       1.0  0.37787  0.69141  0.76611  1.0000
  C   C69       1.0  0.31220  0.68806  0.76205  1.0000
  C   C70       1.0  0.43946  0.52678  0.72173  1.0000
  C   C71       1.0  0.47351  0.91582  0.70647  1.0000
  C   C72       1.0  0.08759  0.55943  0.70649  1.0000
  C   C73       1.0  0.47192  0.51539  0.74332  1.0000
  C   C74       1.0  0.48416  0.95949  0.72801  1.0000
  C   C75       1.0  0.04366  0.52711  0.73846  1.0000
  C   C76       1.0  0.46243  0.47573  0.69336  1.0000
  C   C77       1.0  0.52241  0.99040  0.66127  1.0000
  C   C78       1.0  0.01299  0.53496  0.67883  1.0000
  C   C79       1.0  0.49137  0.46331  0.69641  1.0000
  C   C80       1.0  0.53417  0.03160  0.66500  1.0000
  C   C81       1.0  0.97147  0.50578  0.68970  1.0000
  C   C82       1.0  0.71033  0.35723  0.76213  1.0000
  C   C83       1.0  0.64484  0.35613  0.75905  1.0000
  C   C84       1.0  0.64555  0.29180  0.75006  1.0000
  C   C85       1.0  0.68795  0.37770  0.76429  1.0000
  C   C86       1.0  0.62410  0.31322  0.75144  1.0000
  C   C87       1.0  0.68859  0.31427  0.75471  1.0000
  C   C88       1.0  0.75567  0.37995  0.76888  1.0000
  C   C89       1.0  0.62180  0.37820  0.76313  1.0000
  C   C90       1.0  0.63742  0.41669  0.68430  1.0000
  C   C91       1.0  0.77862  0.36417  0.69429  1.0000
  C   C92       1.0  0.61656  0.43835  0.68874  1.0000
  C   C93       1.0  0.82131  0.38442  0.70107  1.0000
  C   C94       1.0  0.57858  0.42136  0.77385  1.0000
  C   C95       1.0  0.84252  0.42216  0.78307  1.0000
  C   C96       1.0  0.56227  0.38271  0.85210  1.0000
  C   C97       1.0  0.82021  0.43867  0.85717  1.0000
  C   C98       1.0  0.58364  0.36161  0.84702  1.0000
  C   C99       1.0  0.77751  0.41777  0.85063  1.0000
  C   C100      1.0  0.56571  0.47970  0.72293  1.0000
  C   C101      1.0  0.51850  0.08887  0.72239  1.0000
  C   C102      1.0  0.91343  0.43247  0.74813  1.0000
  C   C103      1.0  0.53245  0.48996  0.74554  1.0000
  C   C104      1.0  0.50824  0.04519  0.73209  1.0000
  C   C105      1.0  0.95734  0.46600  0.75689  1.0000
  C   C106      1.0  0.54140  0.52864  0.79713  1.0000
  C   C107      1.0  0.47054  0.01468  0.79602  1.0000
  C   C108      1.0  0.98759  0.45854  0.81612  1.0000
  C   C109      1.0  0.51186  0.54055  0.79901  1.0000
  C   C110      1.0  0.45945  0.97340  0.79754  1.0000
  C   C111      1.0  0.02919  0.48854  0.81139  1.0000
  C   C112      1.0  0.56997  0.59040  0.91396  1.0000
  C   C113      1.0  0.40859  0.97954  0.92298  1.0000
  C   C114      1.0  0.02165  0.43235  0.94671  1.0000
  N   N1        1.0  0.44762  0.56061  0.27031  1.0000
  N   N2        1.0  0.43795  0.88361  0.26858  1.0000
  N   N3        1.0  0.11575  0.55295  0.26698  1.0000
  N   N4        1.0  0.55324  0.43695  0.29199  1.0000
  N   N5        1.0  0.55863  0.11315  0.24917  1.0000
  N   N6        1.0  0.88433  0.44664  0.28784  1.0000
  N   N7        1.0  0.44931  0.56481  0.78160  1.0000
  N   N8        1.0  0.43666  0.88675  0.77857  1.0000
  N   N9        1.0  0.11632  0.55052  0.76828  1.0000
  N   N10       1.0  0.55550  0.44130  0.78407  1.0000
  N   N11       1.0  0.55930  0.11662  0.75748  1.0000
  N   N12       1.0  0.88573  0.44485  0.79192  1.0000
  O   O1        1.0  0.52836  0.57830  0.34360  1.0000
  O   O2        1.0  0.41945  0.94616  0.34263  1.0000
  O   O3        1.0  0.05176  0.47453  0.36761  1.0000
  O   O4        1.0  0.57712  0.55799  0.35731  1.0000
  O   O5        1.0  0.43760  0.01472  0.33508  1.0000
  O   O6        1.0  0.98205  0.42527  0.38245  1.0000
  O   O7        1.0  0.40712  0.49992  0.13131  1.0000
  O   O8        1.0  0.49857  0.90499  0.12020  1.0000
  O   O9        1.0  0.09601  0.59224  0.11337  1.0000
  O   O10       1.0  0.60012  0.50202  0.19088  1.0000
  O   O11       1.0  0.49292  0.09459  0.16257  1.0000
  O   O12       1.0  0.90381  0.40011  0.20729  1.0000
  O   O13       1.0  0.53006  0.58117  0.84995  1.0000
  O   O14       1.0  0.42017  0.95006  0.86624  1.0000
  O   O15       1.0  0.05209  0.47193  0.87437  1.0000
  O   O16       1.0  0.57908  0.56112  0.84217  1.0000
  O   O17       1.0  0.43893  0.01916  0.85863  1.0000
  O   O18       1.0  0.98277  0.42195  0.87559  1.0000
  O   O19       1.0  0.40713  0.50346  0.64930  1.0000
  O   O20       1.0  0.49639  0.90771  0.62408  1.0000
  O   O21       1.0  0.09615  0.59062  0.62377  1.0000
  O   O22       1.0  0.59809  0.50349  0.64914  1.0000
  O   O23       1.0  0.49293  0.09839  0.68198  1.0000
  O   O24       1.0  0.90378  0.39796  0.69935  1.0000
  C  Sn1       1.0  0.42771  0.81491  0.64041  1.0000
  C   C115      1.0  0.41603  0.83993  0.72386  1.0000
  C  Sn2       1.0  0.38521  0.82347  0.84784  1.0000
  C  Sn3       1.0  0.36567  0.78111  0.88936  1.0000
  C   C116      1.0  0.37735  0.75611  0.80596  1.0000
  C  Sn4       1.0  0.40816  0.77255  0.68193  1.0000
  O  Te1       1.0  0.45859  0.83202  0.51690  1.0000
  O  Te2       1.0  0.37406  0.84910  0.92949  1.0000
  O  Te3       1.0  0.33794  0.76720  0.01298  1.0000
  O  Te4       1.0  0.41932  0.74694  0.60032  1.0000
  Mg  Mg1       1.0  0.33351  0.81461  0.08884  1.0000
  Mg  Mg2       1.0  0.46305  0.78460  0.44103  1.0000
  C  Sn5       1.0  0.19105  0.56720  0.88347  1.0000
  C   C117      1.0  0.16370  0.57672  0.80588  1.0000
  C  Sn6       1.0  0.17770  0.60762  0.68283  1.0000
  C  Sn7       1.0  0.21993  0.62945  0.63626  1.0000
  C   C118      1.0  0.24726  0.61992  0.71381  1.0000
  C  Sn8       1.0  0.23328  0.58903  0.83690  1.0000
  O  Te5       1.0  0.17955  0.53939  0.00617  1.0000
  O  Te6       1.0  0.14978  0.61660  0.60708  1.0000
  O  Te7       1.0  0.23460  0.66048  0.51346  1.0000
  O  Te8       1.0  0.26118  0.58004  0.91261  1.0000
  Mg  Mg3       1.0  0.18461  0.66144  0.44652  1.0000
  Mg  Mg4       1.0  0.22956  0.53839  0.07311  1.0000
  C  Sn9       1.0  0.57299  0.21512  0.70063  1.0000
  C   C119      1.0  0.61106  0.24178  0.77159  1.0000
  C  Sn10      1.0  0.63656  0.22720  0.82596  1.0000
  C  Sn11      1.0  0.62375  0.18509  0.80898  1.0000
  C   C120      1.0  0.58570  0.15846  0.73804  1.0000
  C  Sn12      1.0  0.56018  0.17302  0.68365  1.0000
  O  Te9       1.0  0.54800  0.23038  0.64712  1.0000
  O  Te10      1.0  0.67448  0.25443  0.89655  1.0000
  O  Te11      1.0  0.64878  0.16985  0.86257  1.0000
  O  Te12      1.0  0.52228  0.14580  0.61307  1.0000
  Mg  Mg5       1.0  0.69767  0.21899  0.95058  1.0000
  Mg  Mg6       1.0  0.49908  0.18121  0.55893  1.0000
  C  Sn13      1.0  0.36335  0.57661  0.72512  1.0000
  C   C121      1.0  0.37493  0.61523  0.78948  1.0000
  C  Sn14      1.0  0.41544  0.64155  0.83818  1.0000
  C  Sn15      1.0  0.44499  0.62903  0.82213  1.0000
  C   C122      1.0  0.43340  0.59043  0.75778  1.0000
  C  Sn16      1.0  0.39289  0.56409  0.70907  1.0000
  O  Te13      1.0  0.32268  0.55080  0.67721  1.0000
  O  Te14      1.0  0.42629  0.68001  0.90223  1.0000
  O  Te15      1.0  0.48568  0.65487  0.87011  1.0000
  O  Te16      1.0  0.38204  0.52566  0.64503  1.0000
  Mg  Mg7       1.0  0.48551  0.70426  0.95023  1.0000
  Mg  Mg8       1.0  0.32284  0.50139  0.59691  1.0000
  C  Sn17      1.0  0.56820  0.35338  0.31648  1.0000
  C   C123      1.0  0.60707  0.36622  0.24701  1.0000
  C  Sn18      1.0  0.63342  0.40743  0.20430  1.0000
  C  Sn19      1.0  0.62065  0.43641  0.23169  1.0000
  C   C124      1.0  0.58181  0.42356  0.30115  1.0000
  C  Sn20      1.0  0.55543  0.38236  0.34388  1.0000
  O  Te17      1.0  0.54237  0.31204  0.35824  1.0000
  O  Te18      1.0  0.67213  0.41953  0.13495  1.0000
  O  Te19      1.0  0.64652  0.47778  0.18986  1.0000
  O  Te20      1.0  0.51675  0.37026  0.41320  1.0000
  Mg  Mg9       1.0  0.69630  0.47928  0.09884  1.0000
  Mg  Mg10      1.0  0.49256  0.31052  0.44944  1.0000
  C  Sn21      1.0  0.78429  0.42805  0.31877  1.0000
  C   C125      1.0  0.75899  0.39035  0.24284  1.0000
  C  Sn22      1.0  0.77490  0.36571  0.19269  1.0000
  C  Sn23      1.0  0.81696  0.37901  0.21907  1.0000
  C   C126      1.0  0.84223  0.41669  0.29497  1.0000
  C  Sn24      1.0  0.82635  0.44136  0.34514  1.0000
  O  Te21      1.0  0.76773  0.45219  0.36791  1.0000
  O  Te22      1.0  0.74901  0.32814  0.11699  1.0000
  O  Te23      1.0  0.83351  0.35483  0.16985  1.0000
  O  Te24      1.0  0.85221  0.47890  0.42082  1.0000
  Mg  Mg11      1.0  0.78593  0.30613  0.07198  1.0000
  Mg  Mg12      1.0  0.81533  0.50092  0.46596  1.0000
