data_image0
_chemical_formula_structural       H72C84N12O12C2Sn2C2HTe2HMgC2Sn2C2HTe2HMgC2Sn2C2HTe2HMgC2Sn2C2HTe2HMgC2Sn2C2HTe2HMgC2Sn2C2HTe2HMgC2Sn2C2HTe2HMgC2Sn2C2HTe2HMgC2Sn2C2HTe2HMgC2Sn2C2HTe2HMgC2Sn2C2HTe2HMgC2Sn2C2HTe2HMg
_chemical_formula_sum              "H96 C132 N12 O12 Sn24 Te24 Mg12"
_cell_length_a       37.1967
_cell_length_b       37.1682
_cell_length_c       8.17291
_cell_angle_alpha    91.4083
_cell_angle_beta     90.0411
_cell_angle_gamma    119.959

_symmetry_space_group_name_H-M    'P1'
_space_group_IT_number       1

loop_
  _space_group_symop_operation_xyz
  'x, y, z'

loop_
  _atom_site_type_symbol
  _atom_site_label
  _atom_site_symmetry_multiplicity
  _atom_site_fract_x
  _atom_site_fract_y
  _atom_site_fract_z
  _atom_site_occupancy
  H   H1        1.0  0.30563  0.59165  0.37677  1.0000
  H   H2        1.0  0.41319  0.71336  0.36756  1.0000
  H   H3        1.0  0.29113  0.69918  0.36342  1.0000
  H   H4        1.0  0.42453  0.52014  0.29287  1.0000
  H   H5        1.0  0.46937  0.90058  0.17575  1.0000
  H   H6        1.0  0.09931  0.57563  0.32748  1.0000
  H   H7        1.0  0.43226  0.46523  0.29298  1.0000
  H   H8        1.0  0.52716  0.96404  0.18102  1.0000
  H   H9        1.0  0.03578  0.56628  0.32387  1.0000
  H   H10       1.0  0.47327  0.42872  0.28578  1.0000
  H   H11       1.0  0.56407  0.04164  0.20094  1.0000
  H   H12       1.0  0.95847  0.52345  0.30690  1.0000
  H   H13       1.0  0.70293  0.40974  0.27066  1.0000
  H   H14       1.0  0.59209  0.29014  0.27013  1.0000
  H   H15       1.0  0.71155  0.29856  0.26460  1.0000
  H   H16       1.0  0.59079  0.48621  0.28737  1.0000
  H   H17       1.0  0.51047  0.10307  0.29221  1.0000
  H   H18       1.0  0.90049  0.40645  0.26358  1.0000
  H   H19       1.0  0.51519  0.59474  0.07366  1.0000
  H   H20       1.0  0.39415  0.92142  0.04907  1.0000
  H   H21       1.0  0.05819  0.43160  0.03008  1.0000
  H   H22       1.0  0.56769  0.63559  0.08759  1.0000
  H   H23       1.0  0.35102  0.92711  0.11144  1.0000
  H   H24       1.0  0.10236  0.45683  0.16846  1.0000
  H   H25       1.0  0.53010  0.63298  0.23537  1.0000
  H   H26       1.0  0.36479  0.89416  0.22270  1.0000
  H   H27       1.0  0.08395  0.48639  0.06611  1.0000
  H   H28       1.0  0.61505  0.60745  0.37395  1.0000
  H   H29       1.0  0.38437  0.02542  0.35036  1.0000
  H   H30       1.0  0.95149  0.34798  0.29970  1.0000
  H   H31       1.0  0.65197  0.59043  0.33730  1.0000
  H   H32       1.0  0.42532  0.05905  0.49261  1.0000
  H   H33       1.0  0.95173  0.38120  0.46398  1.0000
  H   H34       1.0  0.61349  0.56661  0.49216  1.0000
  H   H35       1.0  0.40895  0.00508  0.47648  1.0000
  H   H36       1.0  0.99984  0.39006  0.37800  1.0000
  H   H37       1.0  0.30119  0.59167  0.87643  1.0000
  H   H38       1.0  0.40890  0.71342  0.86491  1.0000
  H   H39       1.0  0.28719  0.69968  0.87054  1.0000
  H   H40       1.0  0.42504  0.52331  0.82302  1.0000
  H   H41       1.0  0.47510  0.90352  0.74570  1.0000
  H   H42       1.0  0.09545  0.57274  0.76528  1.0000
  H   H43       1.0  0.43413  0.46917  0.80755  1.0000
  H   H44       1.0  0.52983  0.96645  0.73295  1.0000
  H   H45       1.0  0.03358  0.56459  0.77085  1.0000
  H   H46       1.0  0.47715  0.43469  0.79191  1.0000
  H   H47       1.0  0.56501  0.04401  0.73413  1.0000
  H   H48       1.0  0.95616  0.52319  0.76921  1.0000
  H   H49       1.0  0.70042  0.41106  0.77454  1.0000
  H   H50       1.0  0.58907  0.29169  0.77081  1.0000
  H   H51       1.0  0.70833  0.29962  0.76886  1.0000
  H   H52       1.0  0.59387  0.49308  0.79111  1.0000
  H   H53       1.0  0.50945  0.10445  0.79141  1.0000
  H   H54       1.0  0.89574  0.40621  0.77444  1.0000
  H   H55       1.0  0.56883  0.61879  0.55324  1.0000
  H   H56       1.0  0.40002  0.92390  0.55161  1.0000
  H   H57       1.0  0.07664  0.47378  0.53881  1.0000
  H   H58       1.0  0.55319  0.64843  0.68223  1.0000
  H   H59       1.0  0.35654  0.93080  0.59066  1.0000
  H   H60       1.0  0.07205  0.42545  0.59355  1.0000
  H   H61       1.0  0.51521  0.59995  0.59136  1.0000
  H   H62       1.0  0.36461  0.89470  0.70778  1.0000
  H   H63       1.0  0.10453  0.47215  0.71439  1.0000
  H   H64       1.0  0.62171  0.62061  0.84057  1.0000
  H   H65       1.0  0.40400  0.05855  0.88616  1.0000
  H   H66       1.0  0.99209  0.37402  0.79547  1.0000
  H   H67       1.0  0.65262  0.59647  0.87497  1.0000
  H   H68       1.0  0.42133  0.03256  0.01919  1.0000
  H   H69       1.0  0.93772  0.34587  0.84098  1.0000
  H   H70       1.0  0.60987  0.58533  0.00547  1.0000
  H   H71       1.0  0.38320  0.00347  0.86166  1.0000
  H   H72       1.0  0.97246  0.38908  0.96970  1.0000
  C   C1        1.0  0.29289  0.64223  0.37200  1.0000
  C   C2        1.0  0.36238  0.65044  0.37348  1.0000
  C   C3        1.0  0.35427  0.71176  0.36624  1.0000
  C   C4        1.0  0.31908  0.62519  0.37473  1.0000
  C   C5        1.0  0.37961  0.69369  0.36983  1.0000
  C   C6        1.0  0.31105  0.68556  0.36764  1.0000
  C   C7        1.0  0.45761  0.54351  0.30974  1.0000
  C   C8        1.0  0.45076  0.91152  0.24223  1.0000
  C   C9        1.0  0.09048  0.54258  0.31787  1.0000
  C   C10       1.0  0.48527  0.52686  0.28759  1.0000
  C   C11       1.0  0.46689  0.95601  0.23294  1.0000
  C   C12       1.0  0.04616  0.51447  0.29444  1.0000
  C   C13       1.0  0.46598  0.48286  0.28668  1.0000
  C   C14       1.0  0.51013  0.98030  0.20603  1.0000
  C   C15       1.0  0.02066  0.53274  0.30473  1.0000
  C   C16       1.0  0.48831  0.46239  0.28284  1.0000
  C   C17       1.0  0.53077  0.02307  0.21764  1.0000
  C   C18       1.0  0.97792  0.50938  0.29560  1.0000
  C   C19       1.0  0.71259  0.35713  0.26772  1.0000
  C   C20       1.0  0.64444  0.35226  0.27150  1.0000
  C   C21       1.0  0.64934  0.28891  0.26712  1.0000
  C   C22       1.0  0.68795  0.37602  0.27036  1.0000
  C   C23       1.0  0.62575  0.30883  0.26983  1.0000
  C   C24       1.0  0.69279  0.31353  0.26650  1.0000
  C   C25       1.0  0.55711  0.46533  0.28001  1.0000
  C   C26       1.0  0.53005  0.08922  0.26860  1.0000
  C   C27       1.0  0.91308  0.44016  0.26895  1.0000
  C   C28       1.0  0.53203  0.48541  0.27824  1.0000
  C   C29       1.0  0.50879  0.04404  0.25370  1.0000
  C   C30       1.0  0.95816  0.46587  0.27498  1.0000
  C   C31       1.0  0.55193  0.52907  0.27140  1.0000
  C   C32       1.0  0.46529  0.02065  0.26989  1.0000
  C   C33       1.0  0.98289  0.44699  0.26162  1.0000
  C   C34       1.0  0.52914  0.55022  0.27286  1.0000
  C   C35       1.0  0.44396  0.97675  0.25595  1.0000
  C   C36       1.0  0.02655  0.47072  0.26921  1.0000
  C   C37       1.0  0.54025  0.61529  0.15828  1.0000
  C   C38       1.0  0.37651  0.92279  0.15417  1.0000
  C   C39       1.0  0.07462  0.45663  0.12225  1.0000
  C   C40       1.0  0.61998  0.58073  0.37144  1.0000
  C   C41       1.0  0.41372  0.03202  0.40830  1.0000
  C   C42       1.0  0.96714  0.37970  0.35170  1.0000
  C   C43       1.0  0.28876  0.64244  0.87288  1.0000
  C   C44       1.0  0.35816  0.65036  0.87230  1.0000
  C   C45       1.0  0.35022  0.71186  0.86922  1.0000
  C   C46       1.0  0.31485  0.62524  0.87472  1.0000
  C   C47       1.0  0.37536  0.69362  0.86903  1.0000
  C   C48       1.0  0.30695  0.68583  0.87133  1.0000
  C   C49       1.0  0.45800  0.54761  0.81941  1.0000
  C   C50       1.0  0.45248  0.91325  0.77877  1.0000
  C   C51       1.0  0.08667  0.54022  0.78607  1.0000
  C   C52       1.0  0.48618  0.53141  0.80079  1.0000
  C   C53       1.0  0.46829  0.95747  0.76207  1.0000
  C   C54       1.0  0.04243  0.51157  0.76711  1.0000
  C   C55       1.0  0.46777  0.48761  0.79945  1.0000
  C   C56       1.0  0.51185  0.98218  0.74413  1.0000
  C   C57       1.0  0.01764  0.53079  0.76707  1.0000
  C   C58       1.0  0.49122  0.46830  0.79184  1.0000
  C   C59       1.0  0.53158  0.02494  0.74594  1.0000
  C   C60       1.0  0.97495  0.50828  0.76701  1.0000
  C   C61       1.0  0.70969  0.35826  0.77206  1.0000
  C   C62       1.0  0.64177  0.35380  0.77213  1.0000
  C   C63       1.0  0.64626  0.29026  0.76984  1.0000
  C   C64       1.0  0.68529  0.37732  0.77336  1.0000
  C   C65       1.0  0.62276  0.31031  0.77096  1.0000
  C   C66       1.0  0.68971  0.31472  0.77042  1.0000
  C   C67       1.0  0.56015  0.47236  0.78434  1.0000
  C   C68       1.0  0.52931  0.09068  0.77362  1.0000
  C   C69       1.0  0.90926  0.43996  0.76958  1.0000
  C   C70       1.0  0.53481  0.49217  0.78675  1.0000
  C   C71       1.0  0.50861  0.04544  0.76683  1.0000
  C   C72       1.0  0.95439  0.46453  0.76585  1.0000
  C   C73       1.0  0.55398  0.53602  0.78656  1.0000
  C   C74       1.0  0.46490  0.02162  0.77761  1.0000
  C   C75       1.0  0.97808  0.44441  0.75971  1.0000
  C   C76       1.0  0.53004  0.55577  0.79029  1.0000
  C   C77       1.0  0.44447  0.97771  0.76924  1.0000
  C   C78       1.0  0.02202  0.46744  0.75645  1.0000
  C   C79       1.0  0.54653  0.61717  0.64474  1.0000
  C   C80       1.0  0.37956  0.92454  0.64678  1.0000
  C   C81       1.0  0.07592  0.45500  0.64122  1.0000
  C   C82       1.0  0.62140  0.59254  0.88017  1.0000
  C   C83       1.0  0.41082  0.03318  0.89431  1.0000
  C   C84       1.0  0.96592  0.37649  0.84346  1.0000
  N   N1        1.0  0.46928  0.58155  0.35295  1.0000
  N   N2        1.0  0.41908  0.88704  0.32853  1.0000
  N   N3        1.0  0.11796  0.53118  0.33343  1.0000
  N   N4        1.0  0.54075  0.42534  0.27623  1.0000
  N   N5        1.0  0.56993  0.11169  0.25643  1.0000
  N   N6        1.0  0.88961  0.45666  0.27410  1.0000
  N   N7        1.0  0.46919  0.58651  0.83705  1.0000
  N   N8        1.0  0.41643  0.88730  0.83600  1.0000
  N   N9        1.0  0.11390  0.53047  0.83271  1.0000
  N   N10       1.0  0.54328  0.43234  0.77799  1.0000
  N   N11       1.0  0.56922  0.11328  0.76247  1.0000
  N   N12       1.0  0.88646  0.45724  0.77074  1.0000
  O   O1        1.0  0.55281  0.59227  0.26194  1.0000
  O   O2        1.0  0.40171  0.95820  0.26163  1.0000
  O   O3        1.0  0.04746  0.44913  0.26044  1.0000
  O   O4        1.0  0.59418  0.55038  0.24622  1.0000
  O   O5        1.0  0.44398  0.04200  0.27998  1.0000
  O   O6        1.0  0.96329  0.40486  0.22765  1.0000
  O   O7        1.0  0.55095  0.59837  0.79112  1.0000
  O   O8        1.0  0.40199  0.95771  0.76782  1.0000
  O   O9        1.0  0.04034  0.44358  0.74453  1.0000
  O   O10       1.0  0.59636  0.55771  0.76887  1.0000
  O   O11       1.0  0.44381  0.04325  0.77825  1.0000
  O   O12       1.0  0.95635  0.40183  0.73947  1.0000
  C   C85       1.0  0.43645  0.64973  0.47422  1.0000
  C   C86       1.0  0.39979  0.63846  0.38732  1.0000
  C  Sn1       1.0  0.38210  0.60318  0.28377  1.0000
  C  Sn2       1.0  0.40154  0.57877  0.26719  1.0000
  C   C87       1.0  0.43819  0.59029  0.35475  1.0000
  C   C88       1.0  0.45563  0.62567  0.45799  1.0000
  H   H73       1.0  0.44993  0.67709  0.55418  1.0000
  O  Te1       1.0  0.34547  0.59237  0.19780  1.0000
  O  Te2       1.0  0.38452  0.54335  0.16458  1.0000
  H   H74       1.0  0.48400  0.63437  0.52534  1.0000
  Mg  Mg1       1.0  0.33424  0.54136  0.07302  1.0000
  C   C89       1.0  0.35165  0.78675  0.44020  1.0000
  C   C90       1.0  0.36543  0.76109  0.37104  1.0000
  C  Sn3       1.0  0.40261  0.77827  0.28541  1.0000
  C  Sn4       1.0  0.42639  0.82196  0.26896  1.0000
  C   C91       1.0  0.41235  0.84736  0.33871  1.0000
  C   C92       1.0  0.37509  0.82984  0.42410  1.0000
  H   H75       1.0  0.32283  0.77319  0.50635  1.0000
  O  Te3       1.0  0.41591  0.75219  0.21701  1.0000
  O  Te4       1.0  0.46368  0.83995  0.18406  1.0000
  H   H76       1.0  0.36445  0.84971  0.47773  1.0000
  Mg  Mg2       1.0  0.46880  0.79144  0.11260  1.0000
  C   C93       1.0  0.21900  0.56656  0.45797  1.0000
  C   C94       1.0  0.24367  0.60443  0.38291  1.0000
  C  Sn5       1.0  0.22540  0.62191  0.28789  1.0000
  C  Sn6       1.0  0.18161  0.60102  0.26792  1.0000
  C   C95       1.0  0.15720  0.56316  0.34362  1.0000
  C   C96       1.0  0.17581  0.54594  0.43839  1.0000
  H   H77       1.0  0.23340  0.55325  0.53137  1.0000
  O  Te5       1.0  0.25051  0.65976  0.21370  1.0000
  O  Te6       1.0  0.16253  0.61779  0.17367  1.0000
  H   H78       1.0  0.15670  0.51664  0.49658  1.0000
  Mg  Mg3       1.0  0.20998  0.67010  0.09707  1.0000
  C   C97       1.0  0.61580  0.42812  0.18110  1.0000
  C   C98       1.0  0.57628  0.41354  0.24570  1.0000
  C  Sn7       1.0  0.55778  0.37734  0.33587  1.0000
  C  Sn8       1.0  0.57932  0.35539  0.36167  1.0000
  C   C99       1.0  0.61886  0.37025  0.29664  1.0000
  C   C100      1.0  0.63708  0.40650  0.20656  1.0000
  H   H79       1.0  0.62990  0.45618  0.11148  1.0000
  O  Te7       1.0  0.51827  0.36320  0.39949  1.0000
  O  Te8       1.0  0.56157  0.31913  0.45137  1.0000
  H   H80       1.0  0.66769  0.41780  0.15665  1.0000
  Mg  Mg4       1.0  0.50707  0.31226  0.51331  1.0000
  C   C101      1.0  0.56953  0.18514  0.17143  1.0000
  C   C102      1.0  0.58308  0.15930  0.23482  1.0000
  C  Sn9       1.0  0.62016  0.17625  0.32513  1.0000
  C  Sn10      1.0  0.64405  0.21990  0.35232  1.0000
  C   C103      1.0  0.63021  0.24549  0.28848  1.0000
  C   C104      1.0  0.59306  0.22820  0.19824  1.0000
  H   H81       1.0  0.54078  0.17177  0.10168  1.0000
  O  Te9       1.0  0.63325  0.14998  0.38754  1.0000
  O  Te10      1.0  0.68122  0.23766  0.44220  1.0000
  H   H82       1.0  0.58257  0.24822  0.14926  1.0000
  Mg  Mg5       1.0  0.68606  0.18895  0.50216  1.0000
  C   C105      1.0  0.78924  0.43026  0.36868  1.0000
  C   C106      1.0  0.76285  0.39354  0.28098  1.0000
  C  Sn11      1.0  0.77928  0.37414  0.18258  1.0000
  C  Sn12      1.0  0.82294  0.39190  0.17208  1.0000
  C   C107      1.0  0.84907  0.42863  0.26040  1.0000
  C   C108      1.0  0.83231  0.44779  0.35844  1.0000
  H   H83       1.0  0.77627  0.44508  0.44462  1.0000
  O  Te11      1.0  0.75247  0.33748  0.09572  1.0000
  O  Te12      1.0  0.84018  0.37316  0.07471  1.0000
  H   H84       1.0  0.85275  0.47621  0.42642  1.0000
  Mg  Mg6       1.0  0.79465  0.33085  0.97955  1.0000
  C   C109      1.0  0.38921  0.57629  0.76638  1.0000
  C   C110      1.0  0.42993  0.59320  0.82505  1.0000
  C  Sn13      1.0  0.44830  0.63014  0.91899  1.0000
  C  Sn14      1.0  0.42540  0.65045  0.95469  1.0000
  C   C111      1.0  0.38467  0.63327  0.89552  1.0000
  C   C112      1.0  0.36659  0.59630  0.80158  1.0000
  H   H85       1.0  0.37521  0.54767  0.69377  1.0000
  O  Te13      1.0  0.48903  0.64661  0.97659  1.0000
  O  Te14      1.0  0.43920  0.68010  0.04835  1.0000
  H   H86       1.0  0.33505  0.58320  0.75626  1.0000
  Mg  Mg7       1.0  0.49566  0.69034  0.09917  1.0000
  C   C113      1.0  0.35964  0.81076  0.95473  1.0000
  C   C114      1.0  0.39518  0.83961  0.87398  1.0000
  C  Sn15      1.0  0.41750  0.82627  0.77731  1.0000
  C  Sn16      1.0  0.40390  0.78324  0.76139  1.0000
  C   C115      1.0  0.36830  0.75462  0.84258  1.0000
  C   C116      1.0  0.34620  0.76831  0.93904  1.0000
  H   H87       1.0  0.33873  0.81404  0.02929  1.0000
  O  Te15      1.0  0.45294  0.85551  0.69753  1.0000
  O  Te16      1.0  0.42562  0.76905  0.66551  1.0000
  H   H88       1.0  0.31487  0.73866  0.00146  1.0000
  Mg  Mg8       1.0  0.47206  0.82091  0.58082  1.0000
  C   C117      1.0  0.18414  0.60950  0.75701  1.0000
  C   C118      1.0  0.16004  0.56951  0.81637  1.0000
  C  Sn17      1.0  0.17813  0.55233  0.91408  1.0000
  C  Sn18      1.0  0.22115  0.57568  0.95290  1.0000
  C   C119      1.0  0.24498  0.61567  0.89300  1.0000
  C   C120      1.0  0.22657  0.63256  0.79529  1.0000
  H   H89       1.0  0.16989  0.62258  0.68148  1.0000
  O  Te17      1.0  0.15360  0.51233  0.97232  1.0000
  O  Te18      1.0  0.23622  0.55196  0.05034  1.0000
  H   H90       1.0  0.24523  0.66353  0.74944  1.0000
  Mg  Mg9       1.0  0.18977  0.49614  0.10057  1.0000
  C   C121      1.0  0.55482  0.36671  0.85749  1.0000
  C   C122      1.0  0.56419  0.40480  0.79241  1.0000
  C  Sn19      1.0  0.60069  0.42765  0.70516  1.0000
  C  Sn20      1.0  0.62824  0.41200  0.68281  1.0000
  C   C123      1.0  0.61857  0.37384  0.74830  1.0000
  C   C124      1.0  0.58198  0.35124  0.83545  1.0000
  H   H91       1.0  0.52650  0.34921  0.92485  1.0000
  O  Te19      1.0  0.60958  0.46566  0.64101  1.0000
  O  Te20      1.0  0.66492  0.43419  0.59607  1.0000
  H   H92       1.0  0.57472  0.32174  0.88573  1.0000
  Mg  Mg10      1.0  0.66338  0.48444  0.53205  1.0000
  C   C125      1.0  0.64362  0.21463  0.86303  1.0000
  C   C126      1.0  0.63228  0.24015  0.78138  1.0000
  C  Sn21      1.0  0.59580  0.22269  0.68698  1.0000
  C  Sn22      1.0  0.57025  0.17885  0.67437  1.0000
  C   C127      1.0  0.58186  0.15360  0.75663  1.0000
  C   C128      1.0  0.61843  0.17140  0.85071  1.0000
  H   H93       1.0  0.67191  0.22841  0.93590  1.0000
  O  Te21      1.0  0.58494  0.24863  0.60615  1.0000
  O  Te22      1.0  0.53362  0.16058  0.58090  1.0000
  H   H94       1.0  0.62719  0.15164  0.91400  1.0000
  Mg  Mg11      1.0  0.53205  0.20900  0.49355  1.0000
  C   C129      1.0  0.81261  0.38313  0.67157  1.0000
  C   C130      1.0  0.83880  0.42274  0.73969  1.0000
  C  Sn23      1.0  0.82252  0.44268  0.83573  1.0000
  C  Sn24      1.0  0.77921  0.42251  0.86391  1.0000
  C   C131      1.0  0.75327  0.38287  0.79530  1.0000
  C   C132      1.0  0.76989  0.36321  0.69936  1.0000
  H   H95       1.0  0.82546  0.36791  0.59741  1.0000
  O  Te23      1.0  0.84913  0.48226  0.90281  1.0000
  O  Te24      1.0  0.76212  0.44172  0.95946  1.0000
  H   H96       1.0  0.74961  0.33253  0.64672  1.0000
  Mg  Mg12      1.0  0.80728  0.48840  0.02436  1.0000
