data_image0
_chemical_formula_structural       H60C84N12O24C2Sn2C2HTe2HMgC2Sn2C2HTe2HMgC2Sn2C2HTe2HMgC2Sn2C2HTe2HMgC2Sn2C2HTe2HMgC2Sn2C2HTe2HMgC2Sn2C2HTe2HMgC2Sn2C2HTe2HMgC2Sn2C2HTe2HMgC2Sn2C2HTe2HMgC2Sn2C2HTe2HMgC2Sn2C2HTe2HMg
_chemical_formula_sum              "H84 C132 N12 O24 Sn24 Te24 Mg12"
_cell_length_a       37.3432
_cell_length_b       37.4668
_cell_length_c       8.77484
_cell_angle_alpha    88.5501
_cell_angle_beta     91.0276
_cell_angle_gamma    120.236

_symmetry_space_group_name_H-M    'P1'
_space_group_IT_number       1

loop_
  _space_group_symop_operation_xyz
  'x, y, z'

loop_
  _atom_site_type_symbol
  _atom_site_label
  _atom_site_symmetry_multiplicity
  _atom_site_fract_x
  _atom_site_fract_y
  _atom_site_fract_z
  _atom_site_occupancy
  H   H1        1.0  0.30373  0.58944  0.37706  1.0000
  H   H2        1.0  0.41213  0.71066  0.37804  1.0000
  H   H3        1.0  0.29077  0.69706  0.37644  1.0000
  H   H4        1.0  0.43755  0.45961  0.41691  1.0000
  H   H5        1.0  0.53589  0.97718  0.39494  1.0000
  H   H6        1.0  0.02471  0.56168  0.42884  1.0000
  H   H7        1.0  0.47636  0.42687  0.31528  1.0000
  H   H8        1.0  0.56593  0.04826  0.28064  1.0000
  H   H9        1.0  0.95153  0.52253  0.33163  1.0000
  H   H10       1.0  0.70080  0.40805  0.19814  1.0000
  H   H11       1.0  0.58805  0.29061  0.18745  1.0000
  H   H12       1.0  0.70586  0.29609  0.17927  1.0000
  H   H13       1.0  0.98231  0.37466  0.11325  1.0000
  H   H14       1.0  0.63001  0.60945  0.12714  1.0000
  H   H15       1.0  0.37889  0.01152  0.11376  1.0000
  H   H16       1.0  0.99020  0.39285  0.30451  1.0000
  H   H17       1.0  0.60985  0.59565  0.31679  1.0000
  H   H18       1.0  0.39450  0.00617  0.30308  1.0000
  H   H19       1.0  0.04473  0.44227  0.03096  1.0000
  H   H20       1.0  0.56326  0.60619  0.04196  1.0000
  H   H21       1.0  0.38426  0.94993  0.03617  1.0000
  H   H22       1.0  0.05960  0.41870  0.18083  1.0000
  H   H23       1.0  0.58648  0.64223  0.19410  1.0000
  H   H24       1.0  0.34917  0.93549  0.19369  1.0000
  H   H25       1.0  0.48399  0.58661  0.26680  1.0000
  H   H26       1.0  0.41028  0.89286  0.25707  1.0000
  H   H27       1.0  0.10553  0.51864  0.26552  1.0000
  H   H28       1.0  0.55373  0.44619  0.38262  1.0000
  H   H29       1.0  0.54996  0.10342  0.34517  1.0000
  H   H30       1.0  0.89263  0.44574  0.38059  1.0000
  H   H31       1.0  0.30231  0.59188  0.89836  1.0000
  H   H32       1.0  0.41234  0.71166  0.88272  1.0000
  H   H33       1.0  0.29239  0.70135  0.88653  1.0000
  H   H34       1.0  0.43770  0.46001  0.91233  1.0000
  H   H35       1.0  0.54419  0.97907  0.89712  1.0000
  H   H36       1.0  0.02244  0.56031  0.91172  1.0000
  H   H37       1.0  0.47842  0.42977  0.80796  1.0000
  H   H38       1.0  0.57437  0.05105  0.78761  1.0000
  H   H39       1.0  0.95059  0.51900  0.80564  1.0000
  H   H40       1.0  0.70365  0.41180  0.68779  1.0000
  H   H41       1.0  0.58988  0.29500  0.67480  1.0000
  H   H42       1.0  0.70681  0.29879  0.67649  1.0000
  H   H43       1.0  0.98936  0.37404  0.61613  1.0000
  H   H44       1.0  0.62802  0.61519  0.61963  1.0000
  H   H45       1.0  0.38777  0.01577  0.62337  1.0000
  H   H46       1.0  0.99728  0.39192  0.80755  1.0000
  H   H47       1.0  0.61067  0.60332  0.81327  1.0000
  H   H48       1.0  0.40114  0.00917  0.81479  1.0000
  H   H49       1.0  0.04891  0.44413  0.53281  1.0000
  H   H50       1.0  0.55831  0.60623  0.54329  1.0000
  H   H51       1.0  0.39502  0.95475  0.54689  1.0000
  H   H52       1.0  0.06635  0.42169  0.67862  1.0000
  H   H53       1.0  0.58193  0.64504  0.68613  1.0000
  H   H54       1.0  0.35760  0.93945  0.69676  1.0000
  H   H55       1.0  0.48353  0.58858  0.78294  1.0000
  H   H56       1.0  0.41502  0.89712  0.78122  1.0000
  H   H57       1.0  0.10721  0.51932  0.77667  1.0000
  H   H58       1.0  0.54967  0.44335  0.86834  1.0000
  H   H59       1.0  0.55505  0.10756  0.85583  1.0000
  H   H60       1.0  0.89517  0.45191  0.86095  1.0000
  C   C1        1.0  0.29193  0.64015  0.37814  1.0000
  C   C2        1.0  0.36101  0.64785  0.37918  1.0000
  C   C3        1.0  0.35363  0.70913  0.37749  1.0000
  C   C4        1.0  0.31763  0.62286  0.37848  1.0000
  C   C5        1.0  0.37857  0.69094  0.37886  1.0000
  C   C6        1.0  0.31042  0.68333  0.37784  1.0000
  C   C7        1.0  0.45468  0.53529  0.40359  1.0000
  C   C8        1.0  0.46062  0.91647  0.39721  1.0000
  C   C9        1.0  0.08487  0.54772  0.40090  1.0000
  C   C10       1.0  0.48197  0.52038  0.34084  1.0000
  C   C11       1.0  0.47385  0.95856  0.32827  1.0000
  C   C12       1.0  0.04154  0.51968  0.34209  1.0000
  C   C13       1.0  0.46687  0.47783  0.35809  1.0000
  C   C14       1.0  0.51637  0.98728  0.33781  1.0000
  C   C15       1.0  0.01328  0.53314  0.36705  1.0000
  C   C16       1.0  0.48864  0.45996  0.30243  1.0000
  C   C17       1.0  0.53274  0.02676  0.27497  1.0000
  C   C18       1.0  0.97272  0.51113  0.31385  1.0000
  C   C19       1.0  0.70876  0.35500  0.18798  1.0000
  C   C20       1.0  0.64171  0.35185  0.19152  1.0000
  C   C21       1.0  0.64446  0.28812  0.17991  1.0000
  C   C22       1.0  0.68517  0.37457  0.19182  1.0000
  C   C23       1.0  0.62174  0.30866  0.18548  1.0000
  C   C24       1.0  0.68793  0.31168  0.18114  1.0000
  C   C25       1.0  0.54978  0.46474  0.16771  1.0000
  C   C26       1.0  0.52571  0.08228  0.13579  1.0000
  C   C27       1.0  0.91579  0.45211  0.16898  1.0000
  C   C28       1.0  0.52676  0.48422  0.22978  1.0000
  C   C29       1.0  0.50709  0.03952  0.20328  1.0000
  C   C30       1.0  0.95860  0.47425  0.23551  1.0000
  C   C31       1.0  0.54291  0.52699  0.21438  1.0000
  C   C32       1.0  0.46424  0.01149  0.19538  1.0000
  C   C33       1.0  0.98599  0.45944  0.21340  1.0000
  C   C34       1.0  0.52035  0.54487  0.26800  1.0000
  C   C35       1.0  0.44792  0.97106  0.25532  1.0000
  C   C36       1.0  0.02726  0.48225  0.26524  1.0000
  C   C37       1.0  0.99472  0.40232  0.18332  1.0000
  C   C38       1.0  0.60159  0.59312  0.19486  1.0000
  C   C39       1.0  0.39662  0.00068  0.18182  1.0000
  C   C40       1.0  0.04012  0.43214  0.15128  1.0000
  C   C41       1.0  0.57260  0.60971  0.16275  1.0000
  C   C42       1.0  0.38136  0.95539  0.15671  1.0000
  C   C43       1.0  0.29201  0.64362  0.89278  1.0000
  C   C44       1.0  0.36029  0.64943  0.89152  1.0000
  C   C45       1.0  0.35472  0.71184  0.88595  1.0000
  C   C46       1.0  0.31690  0.62538  0.89546  1.0000
  C   C47       1.0  0.37874  0.69263  0.88688  1.0000
  C   C48       1.0  0.31139  0.68689  0.88882  1.0000
  C   C49       1.0  0.45229  0.53482  0.90508  1.0000
  C   C50       1.0  0.46912  0.91867  0.89883  1.0000
  C   C51       1.0  0.08423  0.54818  0.90117  1.0000
  C   C52       1.0  0.48138  0.52176  0.84389  1.0000
  C   C53       1.0  0.48212  0.96126  0.83554  1.0000
  C   C54       1.0  0.04183  0.51908  0.83692  1.0000
  C   C55       1.0  0.46741  0.47936  0.85727  1.0000
  C   C56       1.0  0.52475  0.98974  0.84313  1.0000
  C   C57       1.0  0.01247  0.53160  0.85271  1.0000
  C   C58       1.0  0.49025  0.46284  0.79973  1.0000
  C   C59       1.0  0.54116  0.02958  0.78333  1.0000
  C   C60       1.0  0.97258  0.50829  0.79499  1.0000
  C   C61       1.0  0.71065  0.35809  0.67966  1.0000
  C   C62       1.0  0.64410  0.35599  0.67950  1.0000
  C   C63       1.0  0.64587  0.29167  0.67395  1.0000
  C   C64       1.0  0.68762  0.37828  0.68143  1.0000
  C   C65       1.0  0.62360  0.31268  0.67460  1.0000
  C   C66       1.0  0.68928  0.31479  0.67539  1.0000
  C   C67       1.0  0.55241  0.47017  0.66257  1.0000
  C   C68       1.0  0.53344  0.08523  0.64767  1.0000
  C   C69       1.0  0.91705  0.44606  0.65918  1.0000
  C   C70       1.0  0.52855  0.48822  0.72951  1.0000
  C   C71       1.0  0.51537  0.04268  0.71590  1.0000
  C   C72       1.0  0.95984  0.47069  0.72355  1.0000
  C   C73       1.0  0.54379  0.53099  0.71935  1.0000
  C   C74       1.0  0.47242  0.01505  0.71071  1.0000
  C   C75       1.0  0.98838  0.45687  0.71104  1.0000
  C   C76       1.0  0.52001  0.54747  0.77396  1.0000
  C   C77       1.0  0.45603  0.97444  0.76844  1.0000
  C   C78       1.0  0.02936  0.48147  0.76382  1.0000
  C   C79       1.0  0.00065  0.40150  0.68657  1.0000
  C   C80       1.0  0.60073  0.59857  0.69300  1.0000
  C   C81       1.0  0.40481  0.00459  0.69391  1.0000
  C   C82       1.0  0.04527  0.43343  0.65235  1.0000
  C   C83       1.0  0.56942  0.61227  0.66193  1.0000
  C   C84       1.0  0.39029  0.95957  0.66630  1.0000
  N   N1        1.0  0.46025  0.57199  0.34220  1.0000
  N   N2        1.0  0.42544  0.88433  0.33397  1.0000
  N   N3        1.0  0.11547  0.54196  0.34129  1.0000
  N   N4        1.0  0.55572  0.44016  0.26928  1.0000
  N   N5        1.0  0.55304  0.11208  0.23086  1.0000
  N   N6        1.0  0.88493  0.44538  0.26607  1.0000
  N   N7        1.0  0.45882  0.57270  0.85348  1.0000
  N   N8        1.0  0.43097  0.88763  0.85018  1.0000
  N   N9        1.0  0.11599  0.54321  0.84898  1.0000
  N   N10       1.0  0.55543  0.44195  0.75431  1.0000
  N   N11       1.0  0.56016  0.11581  0.74150  1.0000
  N   N12       1.0  0.88678  0.44449  0.74812  1.0000
  O   O1        1.0  0.42400  0.51181  0.99264  1.0000
  O   O2        1.0  0.49231  0.91277  0.98474  1.0000
  O   O3        1.0  0.08924  0.57498  0.99220  1.0000
  O   O4        1.0  0.56061  0.46981  0.03182  1.0000
  O   O5        1.0  0.51807  0.08893  0.00266  1.0000
  O   O6        1.0  0.91042  0.44283  0.03192  1.0000
  O   O7        1.0  0.97096  0.42172  0.14435  1.0000
  O   O8        1.0  0.58185  0.55065  0.15157  1.0000
  O   O9        1.0  0.43885  0.02508  0.13288  1.0000
  O   O10       1.0  0.05469  0.46767  0.24766  1.0000
  O   O11       1.0  0.53618  0.58743  0.25704  1.0000
  O   O12       1.0  0.40548  0.94280  0.25010  1.0000
  O   O13       1.0  0.42833  0.51440  0.50070  1.0000
  O   O14       1.0  0.48152  0.91213  0.49900  1.0000
  O   O15       1.0  0.09154  0.57459  0.49427  1.0000
  O   O16       1.0  0.56659  0.47959  0.53081  1.0000
  O   O17       1.0  0.52543  0.09093  0.51403  1.0000
  O   O18       1.0  0.91063  0.43004  0.53120  1.0000
  O   O19       1.0  0.97450  0.41835  0.65108  1.0000
  O   O20       1.0  0.58269  0.55573  0.65806  1.0000
  O   O21       1.0  0.44752  0.02958  0.65187  1.0000
  O   O22       1.0  0.05797  0.46814  0.75109  1.0000
  O   O23       1.0  0.53482  0.58991  0.76419  1.0000
  O   O24       1.0  0.41332  0.94683  0.76536  1.0000
  C   C85       1.0  0.44568  0.63599  0.26854  1.0000
  C   C86       1.0  0.44138  0.60134  0.34862  1.0000
  C  Sn1       1.0  0.40752  0.57853  0.44461  1.0000
  C  Sn2       1.0  0.37745  0.59071  0.46044  1.0000
  C   C87       1.0  0.38201  0.62540  0.37974  1.0000
  C   C88       1.0  0.41602  0.64801  0.28404  1.0000
  H   H61       1.0  0.47198  0.65347  0.19442  1.0000
  O  Te1       1.0  0.40371  0.54401  0.52383  1.0000
  O  Te2       1.0  0.34330  0.56846  0.55556  1.0000
  H   H62       1.0  0.41933  0.67482  0.22197  1.0000
  Mg  Mg1       1.0  0.35174  0.52369  0.63970  1.0000
  C   C89       1.0  0.36435  0.80537  0.25799  1.0000
  C   C90       1.0  0.39785  0.83576  0.33994  1.0000
  C  Sn3       1.0  0.42060  0.82493  0.43944  1.0000
  C  Sn4       1.0  0.40956  0.78286  0.45694  1.0000
  C   C91       1.0  0.37602  0.75269  0.37436  1.0000
  C   C92       1.0  0.35345  0.76387  0.27514  1.0000
  H   H63       1.0  0.34691  0.81402  0.18115  1.0000
  O  Te3       1.0  0.45396  0.85569  0.52048  1.0000
  O  Te4       1.0  0.43178  0.77118  0.55557  1.0000
  H   H64       1.0  0.32754  0.74033  0.21163  1.0000
  Mg  Mg2       1.0  0.47474  0.82437  0.64109  1.0000
  C   C93       1.0  0.19360  0.55763  0.26087  1.0000
  C   C94       1.0  0.16403  0.56086  0.34535  1.0000
  C  Sn5       1.0  0.17629  0.59319  0.44687  1.0000
  C  Sn6       1.0  0.21898  0.62280  0.46384  1.0000
  C   C95       1.0  0.24833  0.61931  0.37873  1.0000
  C   C96       1.0  0.23572  0.58682  0.27750  1.0000
  H   H65       1.0  0.18385  0.53251  0.18249  1.0000
  O  Te5       1.0  0.14633  0.59595  0.53042  1.0000
  O  Te6       1.0  0.23210  0.65543  0.56445  1.0000
  H   H66       1.0  0.25863  0.58434  0.21204  1.0000
  Mg  Mg3       1.0  0.17956  0.64598  0.65307  1.0000
  C   C97       1.0  0.57602  0.35995  0.32264  1.0000
  C   C98       1.0  0.60787  0.36769  0.22220  1.0000
  C  Sn7       1.0  0.62544  0.40322  0.12929  1.0000
  C  Sn8       1.0  0.61079  0.43148  0.13737  1.0000
  C   C99       1.0  0.57893  0.42346  0.23831  1.0000
  C   C100      1.0  0.56156  0.38780  0.33073  1.0000
  H   H67       1.0  0.56259  0.33237  0.39421  1.0000
  O  Te7       1.0  0.65723  0.41048  0.02953  1.0000
  O  Te8       1.0  0.62780  0.46724  0.04585  1.0000
  H   H68       1.0  0.53692  0.38183  0.40856  1.0000
  Mg  Mg4       1.0  0.67213  0.45841  0.92798  1.0000
  C   C101      1.0  0.57637  0.20964  0.08392  1.0000
  C   C102      1.0  0.61205  0.23738  0.16359  1.0000
  C  Sn9       1.0  0.63164  0.22279  0.26309  1.0000
  C  Sn10      1.0  0.61514  0.17961  0.28292  1.0000
  C   C103      1.0  0.57945  0.15211  0.20261  1.0000
  C   C104      1.0  0.56008  0.16704  0.10337  1.0000
  H   H69       1.0  0.56140  0.22119  0.00707  1.0000
  O  Te9       1.0  0.66725  0.25094  0.34183  1.0000
  O  Te10      1.0  0.63411  0.16419  0.38161  1.0000
  H   H70       1.0  0.53247  0.14555  0.04163  1.0000
  Mg  Mg5       1.0  0.68197  0.21486  0.46349  1.0000
  C   C105      1.0  0.79016  0.37034  0.10651  1.0000
  C   C106      1.0  0.76015  0.37489  0.18235  1.0000
  C  Sn11      1.0  0.77200  0.40700  0.28458  1.0000
  C  Sn12      1.0  0.81471  0.43503  0.31111  1.0000
  C   C107      1.0  0.84449  0.43023  0.23459  1.0000
  C   C108      1.0  0.83229  0.39798  0.13257  1.0000
  H   H71       1.0  0.78072  0.34540  0.02751  1.0000
  O  Te11      1.0  0.74161  0.41109  0.35943  1.0000
  O  Te12      1.0  0.82742  0.46740  0.41265  1.0000
  H   H72       1.0  0.85553  0.39447  0.07380  1.0000
  Mg  Mg6       1.0  0.77438  0.46016  0.48721  1.0000
  C   C109      1.0  0.37552  0.58315  0.97666  1.0000
  C   C110      1.0  0.38347  0.62117  0.91478  1.0000
  C  Sn13      1.0  0.41746  0.64394  0.81935  1.0000
  C  Sn14      1.0  0.44393  0.62828  0.78540  1.0000
  C   C111      1.0  0.43569  0.59020  0.84779  1.0000
  C   C112      1.0  0.40160  0.56767  0.94319  1.0000
  H   H73       1.0  0.34749  0.57080  0.05041  1.0000
  O  Te13      1.0  0.42496  0.68188  0.75853  1.0000
  O  Te14      1.0  0.47811  0.65040  0.69032  1.0000
  H   H74       1.0  0.39543  0.53822  0.99101  1.0000
  Mg  Mg7       1.0  0.47545  0.70058  0.63506  1.0000
  C   C113      1.0  0.36797  0.80973  0.77291  1.0000
  C   C114      1.0  0.40249  0.83921  0.85337  1.0000
  C  Sn15      1.0  0.42504  0.82707  0.94836  1.0000
  C  Sn16      1.0  0.41273  0.78462  0.96281  1.0000
  C   C115      1.0  0.37816  0.75537  0.88175  1.0000
  C   C116      1.0  0.35581  0.76785  0.78705  1.0000
  H   H75       1.0  0.35068  0.81939  0.69957  1.0000
  O  Te15      1.0  0.45780  0.86203  0.02797  1.0000
  O  Te16      1.0  0.43308  0.77674  0.05691  1.0000
  H   H76       1.0  0.32910  0.74503  0.72469  1.0000
  Mg  Mg8       1.0  0.47777  0.82906  0.14208  1.0000
  C   C117      1.0  0.21800  0.57067  0.79578  1.0000
  C   C118      1.0  0.24225  0.60925  0.86206  1.0000
  C  Sn17      1.0  0.22361  0.62705  0.94364  1.0000
  C  Sn18      1.0  0.17986  0.60576  0.95898  1.0000
  C   C119      1.0  0.15587  0.56717  0.89234  1.0000
  C   C120      1.0  0.17485  0.54964  0.81091  1.0000
  H   H77       1.0  0.23268  0.55710  0.73285  1.0000
  O  Te17      1.0  0.24666  0.67073  0.00909  1.0000
  O  Te18      1.0  0.15879  0.62794  0.03995  1.0000
  H   H78       1.0  0.15606  0.51976  0.75969  1.0000
  Mg  Mg9       1.0  0.20574  0.68125  0.10845  1.0000
  C   C121      1.0  0.62214  0.43782  0.61879  1.0000
  C   C122      1.0  0.58509  0.42551  0.69533  1.0000
  C  Sn19      1.0  0.56588  0.38832  0.77875  1.0000
  C  Sn20      1.0  0.58418  0.36307  0.78549  1.0000
  C   C123      1.0  0.62127  0.37567  0.70861  1.0000
  C   C124      1.0  0.64022  0.41293  0.62543  1.0000
  H   H79       1.0  0.63682  0.46666  0.55450  1.0000
  O  Te19      1.0  0.52887  0.37648  0.85449  1.0000
  O  Te20      1.0  0.56565  0.32576  0.86807  1.0000
  H   H80       1.0  0.66892  0.42247  0.56626  1.0000
  Mg  Mg10      1.0  0.51540  0.32293  0.95204  1.0000
  C   C125      1.0  0.56657  0.18790  0.59619  1.0000
  C   C126      1.0  0.57784  0.16261  0.67855  1.0000
  C  Sn21      1.0  0.61313  0.18007  0.77163  1.0000
  C  Sn22      1.0  0.63753  0.22368  0.78225  1.0000
  C   C127      1.0  0.62598  0.24871  0.69948  1.0000
  C   C128      1.0  0.59061  0.23090  0.60665  1.0000
  H   H81       1.0  0.53920  0.17412  0.52443  1.0000
  O  Te21      1.0  0.62395  0.15436  0.85310  1.0000
  O  Te22      1.0  0.67294  0.24195  0.87446  1.0000
  H   H82       1.0  0.58188  0.25049  0.54297  1.0000
  Mg  Mg11      1.0  0.67497  0.19389  0.96334  1.0000
  C   C129      1.0  0.79042  0.36957  0.59951  1.0000
  C   C130      1.0  0.76156  0.37594  0.67526  1.0000
  C  Sn23      1.0  0.77491  0.40880  0.77507  1.0000
  C  Sn24      1.0  0.81797  0.43573  0.79922  1.0000
  C   C131      1.0  0.84659  0.42912  0.72280  1.0000
  C   C132      1.0  0.83290  0.39613  0.62321  1.0000
  H   H83       1.0  0.77983  0.34406  0.52239  1.0000
  O  Te23      1.0  0.74566  0.41471  0.84988  1.0000
  O  Te24      1.0  0.83216  0.46883  0.89831  1.0000
  H   H84       1.0  0.85525  0.39123  0.56450  1.0000
  Mg  Mg12      1.0  0.78028  0.46412  0.97384  1.0000
