data_image0
_chemical_formula_structural       H36C78N12O12SnCSn2CSnTe4Mg2SnCSn2CSnTe4Mg2SnCSn2CSnTe4Mg2SnCSn2CSnTe4Mg2SnCSn2CSnTe4Mg2SnCSn2CSnTe4Mg2SnCSn2CSnTe4Mg2SnCSn2CSnTe4Mg2SnCSn2CSnTe4Mg2SnCSn2CSnTe4Mg2SnCSn2CSnTe4Mg2SnCSn2CSnTe4Mg2
_chemical_formula_sum              "H36 C102 N12 O12 Sn48 Te48 Mg24"
_cell_length_a       37.9444
_cell_length_b       37.8128
_cell_length_c       7.94919
_cell_angle_alpha    70.408
_cell_angle_beta     108.635
_cell_angle_gamma    121.917

_symmetry_space_group_name_H-M    'P1'
_space_group_IT_number       1

loop_
  _space_group_symop_operation_xyz
  'x, y, z'

loop_
  _atom_site_type_symbol
  _atom_site_label
  _atom_site_symmetry_multiplicity
  _atom_site_fract_x
  _atom_site_fract_y
  _atom_site_fract_z
  _atom_site_occupancy
  H   H1        1.0  0.29311  0.58216  0.14221  1.0000
  H   H2        1.0  0.41544  0.69221  0.18097  1.0000
  H   H3        1.0  0.30418  0.70113  0.13593  1.0000
  H   H4        1.0  0.41071  0.44656  0.06439  1.0000
  H   H5        1.0  0.55355  0.96442  0.17269  1.0000
  H   H6        1.0  0.03412  0.58727  0.94954  1.0000
  H   H7        1.0  0.44561  0.40683  0.07737  1.0000
  H   H8        1.0  0.59480  0.03787  0.21227  1.0000
  H   H9        1.0  0.96049  0.55648  0.97348  1.0000
  H   H10       1.0  0.69621  0.40520  0.22250  1.0000
  H   H11       1.0  0.59713  0.27624  0.24865  1.0000
  H   H12       1.0  0.72416  0.30456  0.28387  1.0000
  H   H13       1.0  0.58076  0.55001  0.08817  1.0000
  H   H14       1.0  0.43797  0.00620  0.99735  1.0000
  H   H15       1.0  0.00201  0.43939  0.16015  1.0000
  H   H16       1.0  0.60106  0.56829  0.39363  1.0000
  H   H17       1.0  0.41626  0.99703  0.23384  1.0000
  H   H18       1.0  0.00443  0.41682  0.46272  1.0000
  H   H19       1.0  0.28709  0.59811  0.63654  1.0000
  H   H20       1.0  0.40335  0.71395  0.68601  1.0000
  H   H21       1.0  0.28531  0.71052  0.63636  1.0000
  H   H22       1.0  0.40636  0.47244  0.61106  1.0000
  H   H23       1.0  0.54272  0.96778  0.72392  1.0000
  H   H24       1.0  0.02249  0.58077  0.48832  1.0000
  H   H25       1.0  0.43440  0.42763  0.60863  1.0000
  H   H26       1.0  0.58946  0.04251  0.73896  1.0000
  H   H27       1.0  0.94949  0.55366  0.50966  1.0000
  H   H28       1.0  0.68235  0.41848  0.73763  1.0000
  H   H29       1.0  0.58270  0.28967  0.75393  1.0000
  H   H30       1.0  0.70752  0.32015  0.73758  1.0000
  H   H31       1.0  0.57779  0.53013  0.58995  1.0000
  H   H32       1.0  0.42485  0.97922  0.47942  1.0000
  H   H33       1.0  0.02020  0.43817  0.66567  1.0000
  H   H34       1.0  0.60432  0.58573  0.88849  1.0000
  H   H35       1.0  0.41204  0.02321  0.77240  1.0000
  H   H36       1.0  0.98411  0.39861  0.03347  1.0000
  C   C1        1.0  0.29382  0.63999  0.13472  1.0000
  C   C2        1.0  0.35656  0.63484  0.15518  1.0000
  C   C3        1.0  0.36341  0.70282  0.15938  1.0000
  C   C4        1.0  0.31262  0.61600  0.14199  1.0000
  C   C5        1.0  0.38139  0.67800  0.16533  1.0000
  C   C6        1.0  0.31937  0.68324  0.13963  1.0000
  C   C7        1.0  0.44427  0.51317  0.22664  1.0000
  C   C8        1.0  0.47608  0.90857  0.25115  1.0000
  C   C9        1.0  0.08994  0.56066  0.17774  1.0000
  C   C10       1.0  0.46408  0.49304  0.21902  1.0000
  C   C11       1.0  0.49676  0.95043  0.25357  1.0000
  C   C12       1.0  0.04837  0.54205  0.17859  1.0000
  C   C13       1.0  0.44317  0.45636  0.13418  1.0000
  C   C14       1.0  0.53976  0.97790  0.21714  1.0000
  C   C15       1.0  0.02079  0.55939  0.05459  1.0000
  C   C16       1.0  0.46260  0.43410  0.14169  1.0000
  C   C17       1.0  0.56265  0.01901  0.23795  1.0000
  C   C18       1.0  0.97963  0.54207  0.06726  1.0000
  C   C19       1.0  0.71564  0.35943  0.24282  1.0000
  C   C20       1.0  0.64328  0.34266  0.23700  1.0000
  C   C21       1.0  0.65895  0.28569  0.26672  1.0000
  C   C22       1.0  0.68590  0.37194  0.23111  1.0000
  C   C23       1.0  0.63010  0.29974  0.24753  1.0000
  C   C24       1.0  0.70168  0.31567  0.26543  1.0000
  C   C25       1.0  0.52297  0.41949  0.26342  1.0000
  C   C26       1.0  0.57082  0.07732  0.34529  1.0000
  C   C27       1.0  0.92049  0.48965  0.23226  1.0000
  C   C28       1.0  0.50583  0.44467  0.23735  1.0000
  C   C29       1.0  0.54625  0.03905  0.29906  1.0000
  C   C30       1.0  0.95966  0.50471  0.20541  1.0000
  C   C31       1.0  0.52704  0.48347  0.30247  1.0000
  C   C32       1.0  0.50242  0.01298  0.31400  1.0000
  C   C33       1.0  0.98647  0.48625  0.31618  1.0000
  C   C34       1.0  0.50782  0.50572  0.29458  1.0000
  C   C35       1.0  0.47965  0.97199  0.29363  1.0000
  C   C36       1.0  0.02742  0.50359  0.30384  1.0000
  C   C37       1.0  0.57411  0.53833  0.44102  1.0000
  C   C38       1.0  0.43683  0.98839  0.35443  1.0000
  C   C39       1.0  0.01195  0.44381  0.51709  1.0000
  C   C40       1.0  0.28104  0.65195  0.63126  1.0000
  C   C41       1.0  0.34808  0.65404  0.65666  1.0000
  C   C42       1.0  0.34742  0.71817  0.66256  1.0000
  C   C43       1.0  0.30390  0.63179  0.63972  1.0000
  C   C44       1.0  0.36913  0.69699  0.66831  1.0000
  C   C45       1.0  0.30313  0.69523  0.63998  1.0000
  C   C46       1.0  0.44827  0.54227  0.75356  1.0000
  C   C47       1.0  0.46225  0.92147  0.78363  1.0000
  C   C48       1.0  0.07409  0.54888  0.70222  1.0000
  C   C49       1.0  0.46487  0.51916  0.74452  1.0000
  C   C50       1.0  0.48721  0.96359  0.77640  1.0000
  C   C51       1.0  0.03244  0.53064  0.70145  1.0000
  C   C52       1.0  0.43920  0.48077  0.66877  1.0000
  C   C53       1.0  0.53095  0.98573  0.75032  1.0000
  C   C54       1.0  0.00743  0.55175  0.58594  1.0000
  C   C55       1.0  0.45481  0.45572  0.66765  1.0000
  C   C56       1.0  0.55709  0.02753  0.75820  1.0000
  C   C57       1.0  0.96664  0.53657  0.59758  1.0000
  C   C58       1.0  0.70076  0.37360  0.73458  1.0000
  C   C59       1.0  0.62899  0.35593  0.74371  1.0000
  C   C60       1.0  0.64372  0.30014  0.74549  1.0000
  C   C61       1.0  0.67165  0.38560  0.73674  1.0000
  C   C62       1.0  0.61546  0.31319  0.74689  1.0000
  C   C63       1.0  0.68590  0.33067  0.73796  1.0000
  C   C64       1.0  0.51248  0.43657  0.77446  1.0000
  C   C65       1.0  0.56983  0.09307  0.82722  1.0000
  C   C66       1.0  0.90693  0.48728  0.75888  1.0000
  C   C67       1.0  0.49806  0.46389  0.75179  1.0000
  C   C68       1.0  0.54384  0.05339  0.79732  1.0000
  C   C69       1.0  0.94472  0.49838  0.72903  1.0000
  C   C70       1.0  0.52335  0.50335  0.81294  1.0000
  C   C71       1.0  0.49975  0.03214  0.80499  1.0000
  C   C72       1.0  0.96840  0.47569  0.82612  1.0000
  C   C73       1.0  0.50843  0.52932  0.80699  1.0000
  C   C74       1.0  0.47373  0.99079  0.79524  1.0000
  C   C75       1.0  0.00881  0.49064  0.81283  1.0000
  C   C76       1.0  0.57633  0.55799  0.93923  1.0000
  C   C77       1.0  0.43732  0.01511  0.84998  1.0000
  C   C78       1.0  0.99085  0.43103  0.02594  1.0000
  N   N1        1.0  0.42425  0.52442  0.26889  1.0000
  N   N2        1.0  0.46402  0.87043  0.29495  1.0000
  N   N3        1.0  0.12794  0.58308  0.21030  1.0000
  N   N4        1.0  0.53226  0.39045  0.32789  1.0000
  N   N5        1.0  0.59571  0.10578  0.43084  1.0000
  N   N6        1.0  0.89014  0.48272  0.28725  1.0000
  N   N7        1.0  0.43088  0.55591  0.79983  1.0000
  N   N8        1.0  0.44367  0.88296  0.82931  1.0000
  N   N9        1.0  0.11203  0.57095  0.72800  1.0000
  N   N10       1.0  0.52057  0.40667  0.83945  1.0000
  N   N11       1.0  0.59408  0.12346  0.90213  1.0000
  N   N12       1.0  0.87861  0.48503  0.81313  1.0000
  O   O1        1.0  0.53600  0.54236  0.36328  1.0000
  O   O2        1.0  0.43954  0.95324  0.33364  1.0000
  O   O3        1.0  0.04689  0.48176  0.44119  1.0000
  O   O4        1.0  0.56998  0.50442  0.37585  1.0000
  O   O5        1.0  0.47888  0.02439  0.36657  1.0000
  O   O6        1.0  0.97579  0.45138  0.45987  1.0000
  O   O7        1.0  0.54072  0.56636  0.86553  1.0000
  O   O8        1.0  0.43211  0.97985  0.79236  1.0000
  O   O9        1.0  0.02294  0.46096  0.91519  1.0000
  O   O10       1.0  0.56685  0.52148  0.87588  1.0000
  O   O11       1.0  0.47744  0.05115  0.81253  1.0000
  O   O12       1.0  0.95322  0.43539  0.93906  1.0000
  C  Sn1       1.0  0.34927  0.55869  0.12739  1.0000
  C   C79       1.0  0.36776  0.59567  0.19425  1.0000
  C  Sn2       1.0  0.41075  0.61484  0.26754  1.0000
  C  Sn3       1.0  0.43579  0.59669  0.27403  1.0000
  C   C80       1.0  0.41731  0.55973  0.20717  1.0000
  C  Sn4       1.0  0.37432  0.54053  0.13388  1.0000
  O  Te1       1.0  0.30624  0.54006  0.05471  1.0000
  O  Te2       1.0  0.42851  0.65179  0.33360  1.0000
  O  Te3       1.0  0.47886  0.61534  0.34680  1.0000
  O  Te4       1.0  0.35655  0.50361  0.06782  1.0000
  Mg  Mg1       1.0  0.48853  0.66541  0.41961  1.0000
  Mg  Mg2       1.0  0.33791  0.44143  0.98170  1.0000
  C  Sn5       1.0  0.44966  0.80952  0.12465  1.0000
  C   C81       1.0  0.43839  0.83217  0.18588  1.0000
  C  Sn6       1.0  0.40217  0.81107  0.26298  1.0000
  C  Sn7       1.0  0.37670  0.76639  0.27933  1.0000
  C   C82       1.0  0.38798  0.74377  0.21815  1.0000
  C  Sn8       1.0  0.42419  0.76484  0.14100  1.0000
  O  Te5       1.0  0.48600  0.83127  0.04803  1.0000
  O  Te6       1.0  0.39154  0.83440  0.32316  1.0000
  O  Te7       1.0  0.34034  0.74465  0.35602  1.0000
  O  Te8       1.0  0.43482  0.74154  0.08088  1.0000
  Mg  Mg3       1.0  0.33904  0.79041  0.41803  1.0000
  Mg  Mg4       1.0  0.52869  0.73694  0.98607  1.0000
  C  Sn9       1.0  0.23001  0.57815  0.98880  1.0000
  C   C83       1.0  0.16492  0.59203  0.11277  1.0000
  C  Sn10      1.0  0.18449  0.57274  0.26474  1.0000
  C  Sn11      1.0  0.22870  0.58844  0.29348  1.0000
  C   C84       1.0  0.25240  0.62310  0.16957  1.0000
  C  Sn12      1.0  0.23286  0.64241  0.01753  1.0000
  O  Te9       1.0  0.20979  0.59695  0.83782  1.0000
  O  Te10      1.0  0.16010  0.53810  0.38675  1.0000
  O  Te11      1.0  0.24891  0.56961  0.44461  1.0000
  O  Te12      1.0  0.29858  0.62847  0.89559  1.0000
  Mg  Mg5       1.0  0.20214  0.52327  0.57212  1.0000
  Mg  Mg6       1.0  0.25659  0.64335  0.71024  1.0000
  C  Sn13      1.0  0.56331  0.32280  0.28863  1.0000
  C   C85       1.0  0.59964  0.34838  0.21076  1.0000
  C  Sn14      1.0  0.61844  0.39271  0.18063  1.0000
  C  Sn15      1.0  0.60056  0.41187  0.22945  1.0000
  C   C86       1.0  0.56426  0.38629  0.30729  1.0000
  C  Sn16      1.0  0.54544  0.34196  0.33745  1.0000
  O  Te13      1.0  0.54505  0.27855  0.31752  1.0000
  O  Te14      1.0  0.65474  0.41762  0.10254  1.0000
  O  Te15      1.0  0.61885  0.45615  0.20048  1.0000
  O  Te16      1.0  0.50916  0.31705  0.41551  1.0000
  Mg  Mg7       1.0  0.66805  0.47651  0.09031  1.0000
  Mg  Mg8       1.0  0.49583  0.25816  0.42789  1.0000
  C  Sn17      1.0  0.59328  0.20264  0.22787  1.0000
  C   C87       1.0  0.63025  0.23255  0.31492  1.0000
  C  Sn18      1.0  0.66102  0.22144  0.42949  1.0000
  C  Sn19      1.0  0.65472  0.17956  0.45757  1.0000
  C   C88       1.0  0.61777  0.14967  0.37054  1.0000
  C  Sn20      1.0  0.58698  0.16075  0.25595  1.0000
  O  Te17      1.0  0.56295  0.21444  0.11391  1.0000
  O  Te18      1.0  0.69771  0.25190  0.51507  1.0000
  O  Te19      1.0  0.68509  0.16777  0.57165  1.0000
  O  Te20      1.0  0.55031  0.13033  0.17038  1.0000
  Mg  Mg9       1.0  0.72980  0.22051  0.65762  1.0000
  Mg  Mg10      1.0  0.51821  0.16169  0.02775  1.0000
  C  Sn21      1.0  0.82165  0.41034  0.15620  1.0000
  C   C89       1.0  0.84245  0.44988  0.20484  1.0000
  C  Sn22      1.0  0.82285  0.46013  0.28926  1.0000
  C  Sn23      1.0  0.78162  0.43022  0.32594  1.0000
  C   C90       1.0  0.76084  0.39070  0.27735  1.0000
  C  Sn24      1.0  0.78041  0.38043  0.19289  1.0000
  O  Te21      1.0  0.84184  0.40077  0.07194  1.0000
  O  Te22      1.0  0.84427  0.49987  0.33656  1.0000
  O  Te23      1.0  0.76143  0.43982  0.41027  1.0000
  O  Te24      1.0  0.75901  0.34071  0.14563  1.0000
  Mg  Mg11      1.0  0.80355  0.49808  0.44887  1.0000
  Mg  Mg12      1.0  0.79972  0.34247  0.03340  1.0000
  C  Sn25      1.0  0.35015  0.58192  0.63857  1.0000
  C   C91       1.0  0.36429  0.61836  0.70206  1.0000
  C  Sn26      1.0  0.40668  0.64093  0.77759  1.0000
  C  Sn27      1.0  0.43556  0.62679  0.78983  1.0000
  C   C92       1.0  0.42142  0.59038  0.72634  1.0000
  C  Sn28      1.0  0.37903  0.56778  0.65081  1.0000
  O  Te25      1.0  0.30763  0.55985  0.56355  1.0000
  O  Te26      1.0  0.42007  0.67726  0.84020  1.0000
  O  Te27      1.0  0.47811  0.64890  0.86493  1.0000
  O  Te28      1.0  0.36564  0.53148  0.58820  1.0000
  Mg  Mg13      1.0  0.48113  0.69654  0.93133  1.0000
  Mg  Mg14      1.0  0.30459  0.51219  0.49696  1.0000
  C  Sn29      1.0  0.37303  0.80590  0.83837  1.0000
  C   C93       1.0  0.41425  0.83641  0.81349  1.0000
  C  Sn30      1.0  0.43403  0.83217  0.70587  1.0000
  C  Sn31      1.0  0.41215  0.79669  0.62124  1.0000
  C   C94       1.0  0.37096  0.76621  0.64611  1.0000
  C  Sn32      1.0  0.35115  0.77043  0.75374  1.0000
  O  Te29      1.0  0.35387  0.81079  0.94652  1.0000
  O  Te30      1.0  0.47526  0.86307  0.68306  1.0000
  O  Te31      1.0  0.43135  0.79182  0.51303  1.0000
  O  Te32      1.0  0.30994  0.73955  0.77654  1.0000
  Mg  Mg15      1.0  0.48789  0.84235  0.52292  1.0000
  Mg  Mg16      1.0  0.29728  0.76025  0.93656  1.0000
  C  Sn33      1.0  0.18914  0.57542  0.81728  1.0000
  C   C95       1.0  0.15824  0.58825  0.72779  1.0000
  C  Sn34      1.0  0.16402  0.61973  0.56900  1.0000
  C  Sn35      1.0  0.20145  0.63876  0.49810  1.0000
  C   C96       1.0  0.23232  0.62593  0.58754  1.0000
  C  Sn36      1.0  0.22657  0.59446  0.74637  1.0000
  O  Te33      1.0  0.18270  0.54390  0.97581  1.0000
  O  Te34      1.0  0.13269  0.63204  0.48198  1.0000
  O  Te35      1.0  0.20788  0.67031  0.33943  1.0000
  O  Te36      1.0  0.25788  0.58214  0.83335  1.0000
  Mg  Mg17      1.0  0.15603  0.67628  0.26996  1.0000
  Mg  Mg18      1.0  0.19320  0.58644  0.04532  1.0000
  C  Sn37      1.0  0.54895  0.35020  0.90906  1.0000
  C   C97       1.0  0.55043  0.39011  0.84345  1.0000
  C  Sn38      1.0  0.57464  0.42012  0.71124  1.0000
  C  Sn39      1.0  0.59784  0.41004  0.64308  1.0000
  C   C98       1.0  0.59634  0.37016  0.70865  1.0000
  C  Sn40      1.0  0.57214  0.34012  0.84089  1.0000
  O  Te37      1.0  0.48317  0.36923  0.04124  1.0000
  O  Te38      1.0  0.57564  0.45981  0.64780  1.0000
  O  Te39      1.0  0.62226  0.43960  0.51080  1.0000
  O  Te40      1.0  0.57113  0.30046  0.90430  1.0000
  Mg  Mg19      1.0  0.61350  0.48934  0.46715  1.0000
  Mg  Mg20      1.0  0.49190  0.31944  0.08487  1.0000
  C  Sn41      1.0  0.58444  0.19363  0.66060  1.0000
  C   C99       1.0  0.60733  0.17267  0.77563  1.0000
  C  Sn42      1.0  0.64211  0.19241  0.90419  1.0000
  C  Sn43      1.0  0.65425  0.23396  0.91816  1.0000
  C   C100      1.0  0.63136  0.25489  0.80320  1.0000
  C  Sn44      1.0  0.59658  0.23517  0.67457  1.0000
  O  Te41      1.0  0.54977  0.17328  0.53307  1.0000
  O  Te42      1.0  0.62315  0.21938  0.01765  1.0000
  O  Te43      1.0  0.64758  0.30284  0.04582  1.0000
  O  Te44      1.0  0.57417  0.25673  0.56118  1.0000
  Mg  Mg21      1.0  0.66805  0.26041  0.16984  1.0000
  Mg  Mg22      1.0  0.52926  0.21572  0.40901  1.0000
  C  Sn45      1.0  0.78416  0.39129  0.75362  1.0000
  C   C101      1.0  0.75333  0.39769  0.77927  1.0000
  C  Sn46      1.0  0.76271  0.43797  0.79036  1.0000
  C  Sn47      1.0  0.80375  0.47259  0.77539  1.0000
  C   C102      1.0  0.83455  0.46619  0.74973  1.0000
  C  Sn48      1.0  0.82520  0.42592  0.73866  1.0000
  O  Te45      1.0  0.77408  0.35075  0.74293  1.0000
  O  Te46      1.0  0.73137  0.44358  0.81609  1.0000
  O  Te47      1.0  0.81381  0.51316  0.78612  1.0000
  O  Te48      1.0  0.85651  0.42030  0.71291  1.0000
  Mg  Mg23      1.0  0.76042  0.50482  0.82189  1.0000
  Mg  Mg24      1.0  0.82749  0.35908  0.70700  1.0000
