data_image0
_chemical_formula_structural       H36C78N12O12C2Sn2C2HTe2HMgC2Sn2C2HTe2HMgC2Sn2C2HTe2HMgC2Sn2C2HTe2HMgC2Sn2C2HTe2HMgC2Sn2C2HTe2HMgC2Sn2C2HTe2HMgC2Sn2C2HTe2HMgC2Sn2C2HTe2HMgC2Sn2C2HTe2HMgC2Sn2C2HTe2HMgC2Sn2C2HTe2HMg
_chemical_formula_sum              "H60 C126 N12 O12 Sn24 Te24 Mg12"
_cell_length_a       37.9444
_cell_length_b       37.8128
_cell_length_c       7.94919
_cell_angle_alpha    70.408
_cell_angle_beta     108.635
_cell_angle_gamma    121.917

_symmetry_space_group_name_H-M    'P1'
_space_group_IT_number       1

loop_
  _space_group_symop_operation_xyz
  'x, y, z'

loop_
  _atom_site_type_symbol
  _atom_site_label
  _atom_site_symmetry_multiplicity
  _atom_site_fract_x
  _atom_site_fract_y
  _atom_site_fract_z
  _atom_site_occupancy
  H   H1        1.0  0.29311  0.58216  0.14221  1.0000
  H   H2        1.0  0.41544  0.69221  0.18097  1.0000
  H   H3        1.0  0.30418  0.70113  0.13593  1.0000
  H   H4        1.0  0.41071  0.44656  0.06439  1.0000
  H   H5        1.0  0.55355  0.96442  0.17269  1.0000
  H   H6        1.0  0.03412  0.58727  0.94954  1.0000
  H   H7        1.0  0.44561  0.40683  0.07737  1.0000
  H   H8        1.0  0.59480  0.03787  0.21227  1.0000
  H   H9        1.0  0.96049  0.55648  0.97348  1.0000
  H   H10       1.0  0.69621  0.40520  0.22250  1.0000
  H   H11       1.0  0.59713  0.27624  0.24865  1.0000
  H   H12       1.0  0.72416  0.30456  0.28387  1.0000
  H   H13       1.0  0.58076  0.55001  0.08817  1.0000
  H   H14       1.0  0.43797  0.00620  0.99735  1.0000
  H   H15       1.0  0.00201  0.43939  0.16015  1.0000
  H   H16       1.0  0.60106  0.56829  0.39363  1.0000
  H   H17       1.0  0.41626  0.99703  0.23384  1.0000
  H   H18       1.0  0.00443  0.41682  0.46272  1.0000
  H   H19       1.0  0.28709  0.59811  0.63654  1.0000
  H   H20       1.0  0.40335  0.71395  0.68601  1.0000
  H   H21       1.0  0.28531  0.71052  0.63636  1.0000
  H   H22       1.0  0.40636  0.47244  0.61106  1.0000
  H   H23       1.0  0.54272  0.96778  0.72392  1.0000
  H   H24       1.0  0.02249  0.58077  0.48832  1.0000
  H   H25       1.0  0.43440  0.42763  0.60863  1.0000
  H   H26       1.0  0.58946  0.04251  0.73896  1.0000
  H   H27       1.0  0.94949  0.55366  0.50966  1.0000
  H   H28       1.0  0.68235  0.41848  0.73763  1.0000
  H   H29       1.0  0.58270  0.28967  0.75393  1.0000
  H   H30       1.0  0.70752  0.32015  0.73758  1.0000
  H   H31       1.0  0.57779  0.53013  0.58995  1.0000
  H   H32       1.0  0.42485  0.97922  0.47942  1.0000
  H   H33       1.0  0.02020  0.43817  0.66567  1.0000
  H   H34       1.0  0.60432  0.58573  0.88849  1.0000
  H   H35       1.0  0.41204  0.02321  0.77240  1.0000
  H   H36       1.0  0.98411  0.39861  0.03347  1.0000
  C   C1        1.0  0.29382  0.63999  0.13472  1.0000
  C   C2        1.0  0.35656  0.63484  0.15518  1.0000
  C   C3        1.0  0.36341  0.70282  0.15938  1.0000
  C   C4        1.0  0.31262  0.61600  0.14199  1.0000
  C   C5        1.0  0.38139  0.67800  0.16533  1.0000
  C   C6        1.0  0.31937  0.68324  0.13963  1.0000
  C   C7        1.0  0.44427  0.51317  0.22664  1.0000
  C   C8        1.0  0.47608  0.90857  0.25115  1.0000
  C   C9        1.0  0.08994  0.56066  0.17774  1.0000
  C   C10       1.0  0.46408  0.49304  0.21902  1.0000
  C   C11       1.0  0.49676  0.95043  0.25357  1.0000
  C   C12       1.0  0.04837  0.54205  0.17859  1.0000
  C   C13       1.0  0.44317  0.45636  0.13418  1.0000
  C   C14       1.0  0.53976  0.97790  0.21714  1.0000
  C   C15       1.0  0.02079  0.55939  0.05459  1.0000
  C   C16       1.0  0.46260  0.43410  0.14169  1.0000
  C   C17       1.0  0.56265  0.01901  0.23795  1.0000
  C   C18       1.0  0.97963  0.54207  0.06726  1.0000
  C   C19       1.0  0.71564  0.35943  0.24282  1.0000
  C   C20       1.0  0.64328  0.34266  0.23700  1.0000
  C   C21       1.0  0.65895  0.28569  0.26672  1.0000
  C   C22       1.0  0.68590  0.37194  0.23111  1.0000
  C   C23       1.0  0.63010  0.29974  0.24753  1.0000
  C   C24       1.0  0.70168  0.31567  0.26543  1.0000
  C   C25       1.0  0.52297  0.41949  0.26342  1.0000
  C   C26       1.0  0.57082  0.07732  0.34529  1.0000
  C   C27       1.0  0.92049  0.48965  0.23226  1.0000
  C   C28       1.0  0.50583  0.44467  0.23735  1.0000
  C   C29       1.0  0.54625  0.03905  0.29906  1.0000
  C   C30       1.0  0.95966  0.50471  0.20541  1.0000
  C   C31       1.0  0.52704  0.48347  0.30247  1.0000
  C   C32       1.0  0.50242  0.01298  0.31400  1.0000
  C   C33       1.0  0.98647  0.48625  0.31618  1.0000
  C   C34       1.0  0.50782  0.50572  0.29458  1.0000
  C   C35       1.0  0.47965  0.97199  0.29363  1.0000
  C   C36       1.0  0.02742  0.50359  0.30384  1.0000
  C   C37       1.0  0.57411  0.53833  0.44102  1.0000
  C   C38       1.0  0.43683  0.98839  0.35443  1.0000
  C   C39       1.0  0.01195  0.44381  0.51709  1.0000
  C   C40       1.0  0.28104  0.65195  0.63126  1.0000
  C   C41       1.0  0.34808  0.65404  0.65666  1.0000
  C   C42       1.0  0.34742  0.71817  0.66256  1.0000
  C   C43       1.0  0.30390  0.63179  0.63972  1.0000
  C   C44       1.0  0.36913  0.69699  0.66831  1.0000
  C   C45       1.0  0.30313  0.69523  0.63998  1.0000
  C   C46       1.0  0.44827  0.54227  0.75356  1.0000
  C   C47       1.0  0.46225  0.92147  0.78363  1.0000
  C   C48       1.0  0.07409  0.54888  0.70222  1.0000
  C   C49       1.0  0.46487  0.51916  0.74452  1.0000
  C   C50       1.0  0.48721  0.96359  0.77640  1.0000
  C   C51       1.0  0.03244  0.53064  0.70145  1.0000
  C   C52       1.0  0.43920  0.48077  0.66877  1.0000
  C   C53       1.0  0.53095  0.98573  0.75032  1.0000
  C   C54       1.0  0.00743  0.55175  0.58594  1.0000
  C   C55       1.0  0.45481  0.45572  0.66765  1.0000
  C   C56       1.0  0.55709  0.02753  0.75820  1.0000
  C   C57       1.0  0.96664  0.53657  0.59758  1.0000
  C   C58       1.0  0.70076  0.37360  0.73458  1.0000
  C   C59       1.0  0.62899  0.35593  0.74371  1.0000
  C   C60       1.0  0.64372  0.30014  0.74549  1.0000
  C   C61       1.0  0.67165  0.38560  0.73674  1.0000
  C   C62       1.0  0.61546  0.31319  0.74689  1.0000
  C   C63       1.0  0.68590  0.33067  0.73796  1.0000
  C   C64       1.0  0.51248  0.43657  0.77446  1.0000
  C   C65       1.0  0.56983  0.09307  0.82722  1.0000
  C   C66       1.0  0.90693  0.48728  0.75888  1.0000
  C   C67       1.0  0.49806  0.46389  0.75179  1.0000
  C   C68       1.0  0.54384  0.05339  0.79732  1.0000
  C   C69       1.0  0.94472  0.49838  0.72903  1.0000
  C   C70       1.0  0.52335  0.50335  0.81294  1.0000
  C   C71       1.0  0.49975  0.03214  0.80499  1.0000
  C   C72       1.0  0.96840  0.47569  0.82612  1.0000
  C   C73       1.0  0.50843  0.52932  0.80699  1.0000
  C   C74       1.0  0.47373  0.99079  0.79524  1.0000
  C   C75       1.0  0.00881  0.49064  0.81283  1.0000
  C   C76       1.0  0.57633  0.55799  0.93923  1.0000
  C   C77       1.0  0.43732  0.01511  0.84998  1.0000
  C   C78       1.0  0.99085  0.43103  0.02594  1.0000
  N   N1        1.0  0.42425  0.52442  0.26889  1.0000
  N   N2        1.0  0.46402  0.87043  0.29495  1.0000
  N   N3        1.0  0.12794  0.58308  0.21030  1.0000
  N   N4        1.0  0.53226  0.39045  0.32789  1.0000
  N   N5        1.0  0.59571  0.10578  0.43084  1.0000
  N   N6        1.0  0.89014  0.48272  0.28725  1.0000
  N   N7        1.0  0.43088  0.55591  0.79983  1.0000
  N   N8        1.0  0.44367  0.88296  0.82931  1.0000
  N   N9        1.0  0.11203  0.57095  0.72800  1.0000
  N   N10       1.0  0.52057  0.40667  0.83945  1.0000
  N   N11       1.0  0.59408  0.12346  0.90213  1.0000
  N   N12       1.0  0.87861  0.48503  0.81313  1.0000
  O   O1        1.0  0.53600  0.54236  0.36328  1.0000
  O   O2        1.0  0.43954  0.95324  0.33364  1.0000
  O   O3        1.0  0.04689  0.48176  0.44119  1.0000
  O   O4        1.0  0.56998  0.50442  0.37585  1.0000
  O   O5        1.0  0.47888  0.02439  0.36657  1.0000
  O   O6        1.0  0.97579  0.45138  0.45987  1.0000
  O   O7        1.0  0.54072  0.56636  0.86553  1.0000
  O   O8        1.0  0.43211  0.97985  0.79236  1.0000
  O   O9        1.0  0.02294  0.46096  0.91519  1.0000
  O   O10       1.0  0.56685  0.52148  0.87588  1.0000
  O   O11       1.0  0.47744  0.05115  0.81253  1.0000
  O   O12       1.0  0.95322  0.43539  0.93906  1.0000
  C   C79       1.0  0.36112  0.54845  0.09197  1.0000
  C   C80       1.0  0.40039  0.55175  0.18668  1.0000
  C  Sn1       1.0  0.42815  0.58431  0.28262  1.0000
  C  Sn2       1.0  0.41628  0.61407  0.28353  1.0000
  C   C81       1.0  0.37690  0.61048  0.18846  1.0000
  C   C82       1.0  0.34938  0.57778  0.09286  1.0000
  H   H37       1.0  0.33981  0.52314  0.01808  1.0000
  O  Te1       1.0  0.46728  0.58715  0.37646  1.0000
  O  Te2       1.0  0.44341  0.64691  0.37835  1.0000
  H   H38       1.0  0.31896  0.57522  0.01964  1.0000
  Mg  Mg1       1.0  0.49334  0.63750  0.48555  1.0000
  C   C83       1.0  0.45570  0.80401  0.17791  1.0000
  C   C84       1.0  0.44397  0.82886  0.22090  1.0000
  C  Sn3       1.0  0.40320  0.81159  0.25243  1.0000
  C  Sn4       1.0  0.37370  0.76862  0.24065  1.0000
  C   C85       1.0  0.38576  0.74402  0.19768  1.0000
  C   C86       1.0  0.42663  0.76163  0.16633  1.0000
  H   H39       1.0  0.48733  0.81762  0.15375  1.0000
  O  Te3       1.0  0.39200  0.83687  0.29516  1.0000
  O  Te4       1.0  0.33276  0.75055  0.27158  1.0000
  H   H40       1.0  0.43571  0.74237  0.13317  1.0000
  Mg  Mg2       1.0  0.33247  0.79785  0.32556  1.0000
  C   C87       1.0  0.19633  0.56737  0.29208  1.0000
  C   C88       1.0  0.17042  0.58656  0.20568  1.0000
  C  Sn5       1.0  0.18339  0.62326  0.06940  1.0000
  C  Sn6       1.0  0.22305  0.64100  0.01892  1.0000
  C   C89       1.0  0.24872  0.62154  0.10609  1.0000
  C   C90       1.0  0.23544  0.58484  0.24233  1.0000
  H   H41       1.0  0.18604  0.53896  0.39742  1.0000
  O  Te5       1.0  0.19849  0.59349  0.98452  1.0000
  O  Te6       1.0  0.27815  0.62910  0.88310  1.0000
  H   H42       1.0  0.25549  0.56997  0.30911  1.0000
  Mg  Mg3       1.0  0.23114  0.64308  0.80729  1.0000
  C   C91       1.0  0.60340  0.41357  0.18698  1.0000
  C   C92       1.0  0.56576  0.38823  0.25533  1.0000
  C  Sn7       1.0  0.55240  0.34488  0.32843  1.0000
  C  Sn8       1.0  0.57726  0.32667  0.33306  1.0000
  C   C93       1.0  0.61488  0.35230  0.26446  1.0000
  C   C94       1.0  0.62795  0.39564  0.19155  1.0000
  H   H43       1.0  0.61353  0.44711  0.13066  1.0000
  O  Te7       1.0  0.51471  0.32002  0.39608  1.0000
  O  Te8       1.0  0.56466  0.28344  0.40543  1.0000
  H   H44       1.0  0.65711  0.41526  0.13875  1.0000
  Mg  Mg4       1.0  0.51084  0.26268  0.48099  1.0000
  C   C95       1.0  0.58812  0.17894  0.20677  1.0000
  C   C96       1.0  0.60583  0.15408  0.33377  1.0000
  C  Sn9       1.0  0.64322  0.17275  0.45406  1.0000
  C  Sn10      1.0  0.66316  0.21714  0.44679  1.0000
  C   C97       1.0  0.64516  0.24173  0.31933  1.0000
  C   C98       1.0  0.60775  0.22272  0.19956  1.0000
  H   H45       1.0  0.55916  0.16424  0.11417  1.0000
  O  Te9       1.0  0.66050  0.14745  0.58004  1.0000
  O  Te10      1.0  0.70054  0.23662  0.56546  1.0000
  H   H46       1.0  0.59403  0.24198  0.10133  1.0000
  Mg  Mg5       1.0  0.71187  0.18869  0.71301  1.0000
  C   C99       1.0  0.78516  0.44183  0.29237  1.0000
  C   C100      1.0  0.76342  0.40275  0.23893  1.0000
  C  Sn11      1.0  0.78529  0.38724  0.19809  1.0000
  C  Sn12      1.0  0.82975  0.41138  0.21118  1.0000
  C   C101      1.0  0.85121  0.45042  0.26489  1.0000
  C   C102      1.0  0.82901  0.46565  0.30538  1.0000
  H   H47       1.0  0.76799  0.45360  0.32380  1.0000
  O  Te11      1.0  0.76308  0.34814  0.14484  1.0000
  O  Te12      1.0  0.85239  0.39662  0.17122  1.0000
  H   H48       1.0  0.84585  0.49589  0.34687  1.0000
  Mg  Mg6       1.0  0.80798  0.34151  0.10454  1.0000
  C   C103      1.0  0.42127  0.64102  0.80999  1.0000
  C   C104      1.0  0.38394  0.63765  0.69087  1.0000
  C  Sn13      1.0  0.35972  0.60451  0.59634  1.0000
  C  Sn14      1.0  0.37322  0.57422  0.62187  1.0000
  C   C105      1.0  0.41061  0.57785  0.74145  1.0000
  C   C106      1.0  0.43460  0.61115  0.83530  1.0000
  H   H49       1.0  0.43983  0.66676  0.88269  1.0000
  O  Te13      1.0  0.32251  0.60163  0.47780  1.0000
  O  Te14      1.0  0.34962  0.54077  0.52917  1.0000
  H   H50       1.0  0.46349  0.61373  0.92761  1.0000
  Mg  Mg7       1.0  0.30120  0.55037  0.38232  1.0000
  C   C107      1.0  0.36571  0.81004  0.78571  1.0000
  C   C108      1.0  0.40818  0.83937  0.77978  1.0000
  C  Sn15      1.0  0.43265  0.83079  0.71613  1.0000
  C  Sn16      1.0  0.41416  0.79211  0.65739  1.0000
  C   C109      1.0  0.37164  0.76299  0.66374  1.0000
  C   C110      1.0  0.34745  0.77189  0.72773  1.0000
  H   H51       1.0  0.34698  0.81693  0.83512  1.0000
  O  Te15      1.0  0.47504  0.86043  0.71118  1.0000
  O  Te16      1.0  0.43789  0.78273  0.59309  1.0000
  H   H52       1.0  0.31456  0.74919  0.73220  1.0000
  Mg  Mg8       1.0  0.49438  0.83320  0.61247  1.0000
  C   C111      1.0  0.18629  0.56658  0.78251  1.0000
  C   C112      1.0  0.15616  0.58083  0.70884  1.0000
  C  Sn17      1.0  0.16522  0.61911  0.58146  1.0000
  C  Sn18      1.0  0.20522  0.64350  0.52705  1.0000
  C   C113      1.0  0.23514  0.62895  0.60146  1.0000
  C   C114      1.0  0.22575  0.59060  0.72887  1.0000
  H   H53       1.0  0.17901  0.53690  0.88102  1.0000
  O  Te17      1.0  0.13476  0.63289  0.50926  1.0000
  O  Te18      1.0  0.21511  0.68187  0.39993  1.0000
  H   H54       1.0  0.24907  0.57956  0.78580  1.0000
  Mg  Mg9       1.0  0.16314  0.68729  0.34033  1.0000
  C   C115      1.0  0.55538  0.33740  0.86073  1.0000
  C   C116      1.0  0.58883  0.36030  0.76504  1.0000
  C  Sn19      1.0  0.60172  0.40324  0.68372  1.0000
  C  Sn20      1.0  0.58068  0.42355  0.69875  1.0000
  C   C117      1.0  0.54727  0.40038  0.79489  1.0000
  C   C118      1.0  0.53462  0.35742  0.87568  1.0000
  H   H55       1.0  0.54560  0.30417  0.92333  1.0000
  O  Te19      1.0  0.63520  0.42563  0.58855  1.0000
  O  Te20      1.0  0.59293  0.46644  0.61885  1.0000
  H   H56       1.0  0.50873  0.33971  0.94987  1.0000
  Mg  Mg10      1.0  0.64027  0.48347  0.50328  1.0000
  C   C119      1.0  0.65545  0.20685  0.92159  1.0000
  C   C120      1.0  0.61654  0.17322  0.86825  1.0000
  C  Sn21      1.0  0.58428  0.18132  0.74887  1.0000
  C  Sn22      1.0  0.59120  0.22391  0.68183  1.0000
  C   C121      1.0  0.63025  0.25733  0.73591  1.0000
  C   C122      1.0  0.66231  0.24887  0.85547  1.0000
  H   H57       1.0  0.63890  0.24885  0.01402  1.0000
  O  Te21      1.0  0.54559  0.14735  0.69703  1.0000
  O  Te22      1.0  0.55951  0.23291  0.56231  1.0000
  H   H58       1.0  0.69245  0.27491  0.89665  1.0000
  Mg  Mg11      1.0  0.51219  0.17582  0.53144  1.0000
  C   C123      1.0  0.79755  0.46847  0.80845  1.0000
  C   C124      1.0  0.82911  0.46208  0.79023  1.0000
  C  Sn23      1.0  0.81847  0.42594  0.73317  1.0000
  C  Sn24      1.0  0.77542  0.39569  0.69368  1.0000
  C   C125      1.0  0.74408  0.40238  0.71221  1.0000
  C   C126      1.0  0.75507  0.43865  0.76946  1.0000
  H   H59       1.0  0.80605  0.49654  0.85265  1.0000
  O  Te23      1.0  0.85040  0.42005  0.71574  1.0000
  O  Te24      1.0  0.76390  0.35929  0.63634  1.0000
  H   H60       1.0  0.73063  0.44360  0.78345  1.0000
  Mg  Mg12      1.0  0.81885  0.36542  0.63321  1.0000
