data_image0
_chemical_formula_structural       H60C84N12O12SnCSn2CSnTe4Mg2SnCSn2CSnTe4Mg2SnCSn2CSnTe4Mg2SnCSn2CSnTe4Mg2SnCSn2CSnTe4Mg2SnCSn2CSnTe4Mg2SnCSn2CSnTe4Mg2SnCSn2CSnTe4Mg2SnCSn2CSnTe4Mg2SnCSn2CSnTe4Mg2SnCSn2CSnTe4Mg2SnCSn2CSnTe4Mg2
_chemical_formula_sum              "H60 C108 N12 O12 Sn48 Te48 Mg24"
_cell_length_a       36.9782
_cell_length_b       37.3915
_cell_length_c       8.04343
_cell_angle_alpha    86.3516
_cell_angle_beta     94.8172
_cell_angle_gamma    120.395

_symmetry_space_group_name_H-M    'P1'
_space_group_IT_number       1

loop_
  _space_group_symop_operation_xyz
  'x, y, z'

loop_
  _atom_site_type_symbol
  _atom_site_label
  _atom_site_symmetry_multiplicity
  _atom_site_fract_x
  _atom_site_fract_y
  _atom_site_fract_z
  _atom_site_occupancy
  H   H1        1.0  0.30532  0.59026  0.15518  1.0000
  H   H2        1.0  0.41194  0.71390  0.16151  1.0000
  H   H3        1.0  0.28724  0.69501  0.15731  1.0000
  H   H4        1.0  0.42503  0.52215  0.20574  1.0000
  H   H5        1.0  0.47814  0.90520  0.14766  1.0000
  H   H6        1.0  0.09721  0.57716  0.17074  1.0000
  H   H7        1.0  0.43199  0.46603  0.19037  1.0000
  H   H8        1.0  0.53129  0.97016  0.12980  1.0000
  H   H9        1.0  0.03153  0.56816  0.16269  1.0000
  H   H10       1.0  0.47225  0.42854  0.23829  1.0000
  H   H11       1.0  0.56672  0.04628  0.17709  1.0000
  H   H12       1.0  0.95565  0.52779  0.22521  1.0000
  H   H13       1.0  0.69868  0.40732  0.34684  1.0000
  H   H14       1.0  0.58836  0.28640  0.32682  1.0000
  H   H15       1.0  0.71050  0.29903  0.32925  1.0000
  H   H16       1.0  0.58871  0.48232  0.34767  1.0000
  H   H17       1.0  0.51290  0.09911  0.33322  1.0000
  H   H18       1.0  0.90087  0.41455  0.35961  1.0000
  H   H19       1.0  0.98044  0.38649  0.19363  1.0000
  H   H20       1.0  0.61992  0.59514  0.20640  1.0000
  H   H21       1.0  0.39606  0.01204  0.21351  1.0000
  H   H22       1.0  0.97031  0.36197  0.39712  1.0000
  H   H23       1.0  0.64461  0.60341  0.41236  1.0000
  H   H24       1.0  0.39190  0.02440  0.41929  1.0000
  H   H25       1.0  0.04931  0.40402  0.35116  1.0000
  H   H26       1.0  0.60435  0.64265  0.35194  1.0000
  H   H27       1.0  0.35522  0.94556  0.37462  1.0000
  H   H28       1.0  0.04144  0.42877  0.01734  1.0000
  H   H29       1.0  0.57324  0.60487  0.02484  1.0000
  H   H30       1.0  0.39674  0.96729  0.03467  1.0000
  H   H31       1.0  0.30227  0.59327  0.64715  1.0000
  H   H32       1.0  0.41062  0.71556  0.65119  1.0000
  H   H33       1.0  0.28687  0.69958  0.64388  1.0000
  H   H34       1.0  0.42087  0.52031  0.66092  1.0000
  H   H35       1.0  0.48088  0.90603  0.69631  1.0000
  H   H36       1.0  0.09392  0.57632  0.65123  1.0000
  H   H37       1.0  0.43111  0.46582  0.65059  1.0000
  H   H38       1.0  0.53432  0.97258  0.65925  1.0000
  H   H39       1.0  0.02737  0.56431  0.63435  1.0000
  H   H40       1.0  0.47336  0.43074  0.71170  1.0000
  H   H41       1.0  0.56823  0.04908  0.69610  1.0000
  H   H42       1.0  0.95242  0.52327  0.71008  1.0000
  H   H43       1.0  0.69995  0.41047  0.84451  1.0000
  H   H44       1.0  0.58809  0.29073  0.81327  1.0000
  H   H45       1.0  0.70921  0.30062  0.83655  1.0000
  H   H46       1.0  0.58785  0.48674  0.85571  1.0000
  H   H47       1.0  0.51146  0.10195  0.82251  1.0000
  H   H48       1.0  0.90150  0.41319  0.87615  1.0000
  H   H49       1.0  0.98141  0.38582  0.71212  1.0000
  H   H50       1.0  0.61879  0.60157  0.72660  1.0000
  H   H51       1.0  0.39372  0.01067  0.69952  1.0000
  H   H52       1.0  0.97490  0.36338  0.91889  1.0000
  H   H53       1.0  0.63799  0.60704  0.93963  1.0000
  H   H54       1.0  0.38953  0.02573  0.90042  1.0000
  H   H55       1.0  0.05271  0.40599  0.85421  1.0000
  H   H56       1.0  0.59556  0.64410  0.86499  1.0000
  H   H57       1.0  0.35524  0.94668  0.87545  1.0000
  H   H58       1.0  0.03612  0.42545  0.51334  1.0000
  H   H59       1.0  0.58463  0.60608  0.52201  1.0000
  H   H60       1.0  0.39637  0.96251  0.53520  1.0000
  C   C1        1.0  0.29084  0.63936  0.15395  1.0000
  C   C2        1.0  0.36198  0.65010  0.15740  1.0000
  C   C3        1.0  0.35162  0.70979  0.15729  1.0000
  C   C4        1.0  0.31823  0.62365  0.15462  1.0000
  C   C5        1.0  0.37811  0.69310  0.15780  1.0000
  C   C6        1.0  0.30808  0.68248  0.15528  1.0000
  C   C7        1.0  0.45890  0.54507  0.21848  1.0000
  C   C8        1.0  0.45483  0.91224  0.18976  1.0000
  C   C9        1.0  0.08756  0.54419  0.19306  1.0000
  C   C10       1.0  0.48520  0.52629  0.24299  1.0000
  C   C11       1.0  0.47206  0.95618  0.21774  1.0000
  C   C12       1.0  0.04312  0.51774  0.22168  1.0000
  C   C13       1.0  0.46541  0.48285  0.22662  1.0000
  C   C14       1.0  0.51446  0.98334  0.18168  1.0000
  C   C15       1.0  0.01740  0.53591  0.20531  1.0000
  C   C16       1.0  0.48721  0.46179  0.25457  1.0000
  C   C17       1.0  0.53441  0.02543  0.20848  1.0000
  C   C18       1.0  0.97552  0.51399  0.24110  1.0000
  C   C19       1.0  0.71023  0.35638  0.34031  1.0000
  C   C20       1.0  0.64050  0.34906  0.33659  1.0000
  C   C21       1.0  0.64720  0.28737  0.32798  1.0000
  C   C22       1.0  0.68443  0.37383  0.34221  1.0000
  C   C23       1.0  0.62238  0.30588  0.33080  1.0000
  C   C24       1.0  0.69103  0.31306  0.33297  1.0000
  C   C25       1.0  0.55460  0.46237  0.32729  1.0000
  C   C26       1.0  0.53307  0.08732  0.30015  1.0000
  C   C27       1.0  0.91271  0.44753  0.33035  1.0000
  C   C28       1.0  0.53028  0.48328  0.30390  1.0000
  C   C29       1.0  0.51282  0.04284  0.27428  1.0000
  C   C30       1.0  0.95702  0.47235  0.29732  1.0000
  C   C31       1.0  0.55049  0.52655  0.32348  1.0000
  C   C32       1.0  0.47039  0.01638  0.31039  1.0000
  C   C33       1.0  0.98205  0.45356  0.31321  1.0000
  C   C34       1.0  0.52867  0.54822  0.29010  1.0000
  C   C35       1.0  0.44991  0.97353  0.28203  1.0000
  C   C36       1.0  0.02447  0.47556  0.27439  1.0000
  C   C37       1.0  0.98496  0.39184  0.32861  1.0000
  C   C38       1.0  0.61430  0.59035  0.34024  1.0000
  C   C39       1.0  0.40467  0.00990  0.34651  1.0000
  C   C40       1.0  0.03117  0.41850  0.37961  1.0000
  C   C41       1.0  0.58912  0.60956  0.38734  1.0000
  C   C42       1.0  0.38920  0.96521  0.40141  1.0000
  C   C43       1.0  0.28925  0.64331  0.64337  1.0000
  C   C44       1.0  0.35960  0.65234  0.64715  1.0000
  C   C45       1.0  0.35102  0.71312  0.64876  1.0000
  C   C46       1.0  0.31585  0.62674  0.64495  1.0000
  C   C47       1.0  0.37670  0.69548  0.64817  1.0000
  C   C48       1.0  0.30727  0.68652  0.64379  1.0000
  C   C49       1.0  0.45412  0.54384  0.68809  1.0000
  C   C50       1.0  0.45673  0.91458  0.70839  1.0000
  C   C51       1.0  0.08560  0.54376  0.67606  1.0000
  C   C52       1.0  0.48173  0.52657  0.71685  1.0000
  C   C53       1.0  0.47371  0.95871  0.73090  1.0000
  C   C54       1.0  0.04158  0.51628  0.70803  1.0000
  C   C55       1.0  0.46389  0.48347  0.69596  1.0000
  C   C56       1.0  0.51651  0.98587  0.70127  1.0000
  C   C57       1.0  0.01468  0.53303  0.68728  1.0000
  C   C58       1.0  0.48685  0.46375  0.73048  1.0000
  C   C59       1.0  0.53549  0.02816  0.72136  1.0000
  C   C60       1.0  0.97337  0.51077  0.72987  1.0000
  C   C61       1.0  0.71020  0.35866  0.84190  1.0000
  C   C62       1.0  0.64104  0.35290  0.83032  1.0000
  C   C63       1.0  0.64634  0.29034  0.82481  1.0000
  C   C64       1.0  0.68505  0.37691  0.84017  1.0000
  C   C65       1.0  0.62216  0.30965  0.82247  1.0000
  C   C66       1.0  0.69024  0.31530  0.83551  1.0000
  C   C67       1.0  0.55444  0.46649  0.82016  1.0000
  C   C68       1.0  0.53202  0.09021  0.79409  1.0000
  C   C69       1.0  0.91292  0.44570  0.83846  1.0000
  C   C70       1.0  0.52910  0.48624  0.79130  1.0000
  C   C71       1.0  0.51251  0.04561  0.77385  1.0000
  C   C72       1.0  0.95686  0.47041  0.79961  1.0000
  C   C73       1.0  0.54730  0.52911  0.81654  1.0000
  C   C74       1.0  0.46983  0.01900  0.80572  1.0000
  C   C75       1.0  0.98312  0.45302  0.82066  1.0000
  C   C76       1.0  0.52448  0.54953  0.77541  1.0000
  C   C77       1.0  0.45048  0.97595  0.78573  1.0000
  C   C78       1.0  0.02476  0.47509  0.77203  1.0000
  C   C79       1.0  0.98799  0.39261  0.84597  1.0000
  C   C80       1.0  0.60942  0.59422  0.85609  1.0000
  C   C81       1.0  0.40297  0.01096  0.83319  1.0000
  C   C82       1.0  0.03463  0.42031  0.88523  1.0000
  C   C83       1.0  0.58113  0.61074  0.89349  1.0000
  C   C84       1.0  0.38912  0.96746  0.89998  1.0000
  N   N1        1.0  0.47258  0.58444  0.21793  1.0000
  N   N2        1.0  0.41661  0.88366  0.21467  1.0000
  N   N3        1.0  0.11427  0.53142  0.20026  1.0000
  N   N4        1.0  0.53716  0.42245  0.32212  1.0000
  N   N5        1.0  0.57298  0.11164  0.28641  1.0000
  N   N6        1.0  0.88808  0.46286  0.32351  1.0000
  N   N7        1.0  0.46645  0.58269  0.70060  1.0000
  N   N8        1.0  0.41718  0.88720  0.70469  1.0000
  N   N9        1.0  0.11340  0.53240  0.68554  1.0000
  N   N10       1.0  0.53832  0.42705  0.80247  1.0000
  N   N11       1.0  0.57195  0.11471  0.78216  1.0000
  N   N12       1.0  0.88834  0.46113  0.82571  1.0000
  O   O1        1.0  0.96305  0.41257  0.36829  1.0000
  O   O2        1.0  0.59245  0.54661  0.37887  1.0000
  O   O3        1.0  0.44960  0.03406  0.37462  1.0000
  O   O4        1.0  0.04848  0.45693  0.28422  1.0000
  O   O5        1.0  0.54854  0.59062  0.29955  1.0000
  O   O6        1.0  0.40817  0.94781  0.30906  1.0000
  O   O7        1.0  0.96644  0.41335  0.89059  1.0000
  O   O8        1.0  0.58826  0.55005  0.88410  1.0000
  O   O9        1.0  0.44781  0.03665  0.85856  1.0000
  O   O10       1.0  0.04988  0.45770  0.78369  1.0000
  O   O11       1.0  0.54286  0.59165  0.78962  1.0000
  O   O12       1.0  0.40904  0.94963  0.81651  1.0000
  C  Sn1       1.0  0.44295  0.65870  0.22590  1.0000
  C   C85       1.0  0.40337  0.64275  0.14228  1.0000
  C  Sn2       1.0  0.38155  0.60182  0.08921  1.0000
  C  Sn3       1.0  0.39966  0.57629  0.12045  1.0000
  C   C86       1.0  0.43922  0.59223  0.20405  1.0000
  C  Sn4       1.0  0.46107  0.63317  0.25714  1.0000
  O  Te1       1.0  0.46420  0.69971  0.27783  1.0000
  O  Te2       1.0  0.34202  0.58657  0.00580  1.0000
  O  Te3       1.0  0.37838  0.53525  0.06843  1.0000
  O  Te4       1.0  0.50057  0.64841  0.34052  1.0000
  Mg  Mg1       1.0  0.34053  0.52256  0.95966  1.0000
  Mg  Mg2       1.0  0.51722  0.70630  0.38680  1.0000
  C  Sn5       1.0  0.41879  0.79330  0.12447  1.0000
  C   C87       1.0  0.38240  0.76113  0.19184  1.0000
  C  Sn6       1.0  0.35263  0.76904  0.24995  1.0000
  C  Sn7       1.0  0.35936  0.80996  0.24043  1.0000
  C   C88       1.0  0.39573  0.84210  0.17307  1.0000
  C  Sn8       1.0  0.42552  0.83422  0.11496  1.0000
  O  Te5       1.0  0.44812  0.78468  0.06713  1.0000
  O  Te6       1.0  0.31650  0.73638  0.31684  1.0000
  O  Te7       1.0  0.32998  0.81857  0.29785  1.0000
  O  Te8       1.0  0.46163  0.86686  0.04808  1.0000
  Mg  Mg3       1.0  0.28573  0.76371  0.37844  1.0000
  Mg  Mg4       1.0  0.50754  0.83345  0.98636  1.0000
  C  Sn9       1.0  0.19497  0.55738  0.30436  1.0000
  C   C89       1.0  0.16293  0.56260  0.22358  1.0000
  C  Sn10      1.0  0.17161  0.59138  0.09155  1.0000
  C  Sn11      1.0  0.21318  0.61543  0.03908  1.0000
  C   C90       1.0  0.24519  0.61020  0.11982  1.0000
  C  Sn12      1.0  0.23654  0.58143  0.25189  1.0000
  O  Te9       1.0  0.18558  0.52842  0.43606  1.0000
  O  Te10      1.0  0.13905  0.59606  0.01277  1.0000
  O  Te11      1.0  0.23769  0.63829  0.90728  1.0000
  O  Te12      1.0  0.26907  0.57674  0.33064  1.0000
  Mg  Mg5       1.0  0.18268  0.63338  0.83938  1.0000
  Mg  Mg6       1.0  0.24061  0.53330  0.50397  1.0000
  C  Sn13      1.0  0.60149  0.41611  0.19487  1.0000
  C   C91       1.0  0.56461  0.40275  0.27591  1.0000
  C  Sn14      1.0  0.55336  0.37287  0.40481  1.0000
  C  Sn15      1.0  0.57953  0.35600  0.45382  1.0000
  C   C92       1.0  0.61639  0.36937  0.37283  1.0000
  C  Sn16      1.0  0.62766  0.39925  0.24388  1.0000
  O  Te13      1.0  0.61213  0.44602  0.06634  1.0000
  O  Te14      1.0  0.51632  0.35999  0.48392  1.0000
  O  Te15      1.0  0.56886  0.32607  0.58246  1.0000
  O  Te16      1.0  0.66468  0.41213  0.16481  1.0000
  Mg  Mg7       1.0  0.51531  0.31853  0.65221  1.0000
  Mg  Mg8       1.0  0.68088  0.44749  0.99657  1.0000
  C  Sn17      1.0  0.57921  0.18610  0.16818  1.0000
  C   C93       1.0  0.59244  0.16017  0.24951  1.0000
  C  Sn18      1.0  0.62241  0.17455  0.38365  1.0000
  C  Sn19      1.0  0.63950  0.21571  0.43770  1.0000
  C   C94       1.0  0.62627  0.24162  0.35641  1.0000
  C  Sn20      1.0  0.59630  0.22726  0.22223  1.0000
  O  Te17      1.0  0.54922  0.17107  0.03436  1.0000
  O  Te18      1.0  0.63515  0.14805  0.46296  1.0000
  O  Te19      1.0  0.66952  0.23073  0.57163  1.0000
  O  Te20      1.0  0.58356  0.25373  0.14296  1.0000
  Mg  Mg9       1.0  0.67681  0.18283  0.63945  1.0000
  Mg  Mg10      1.0  0.55703  0.21287  0.96652  1.0000
  C  Sn21      1.0  0.81341  0.43869  0.46365  1.0000
  C   C95       1.0  0.84138  0.43265  0.37941  1.0000
  C  Sn22      1.0  0.82641  0.40241  0.25825  1.0000
  C  Sn23      1.0  0.78257  0.37769  0.22041  1.0000
  C   C96       1.0  0.75462  0.38374  0.30459  1.0000
  C  Sn24      1.0  0.76957  0.41397  0.42581  1.0000
  O  Te21      1.0  0.82907  0.46910  0.58431  1.0000
  O  Te22      1.0  0.85498  0.39694  0.17574  1.0000
  O  Te23      1.0  0.76692  0.34726  0.09964  1.0000
  O  Te24      1.0  0.74102  0.41945  0.50827  1.0000
  Mg  Mg11      1.0  0.81833  0.35154  0.02124  1.0000
  Mg  Mg12      1.0  0.77764  0.46485  0.66272  1.0000
  C  Sn25      1.0  0.39813  0.58715  0.53478  1.0000
  C   C97       1.0  0.43628  0.60025  0.62712  1.0000
  C  Sn26      1.0  0.44890  0.62900  0.75307  1.0000
  C  Sn27      1.0  0.42283  0.64497  0.78752  1.0000
  C   C98       1.0  0.38470  0.63187  0.69523  1.0000
  C  Sn28      1.0  0.37206  0.60313  0.56923  1.0000
  O  Te25      1.0  0.38614  0.55838  0.40945  1.0000
  O  Te26      1.0  0.48718  0.64163  0.84367  1.0000
  O  Te27      1.0  0.43485  0.67377  0.91297  1.0000
  O  Te28      1.0  0.33379  0.59048  0.47869  1.0000
  Mg  Mg13      1.0  0.47466  0.68753  0.00207  1.0000
  Mg  Mg14      1.0  0.33114  0.55070  0.32032  1.0000
  C  Sn29      1.0  0.41790  0.82118  0.55564  1.0000
  C   C99       1.0  0.40190  0.84205  0.63431  1.0000
  C  Sn30      1.0  0.37018  0.82085  0.74565  1.0000
  C  Sn31      1.0  0.35414  0.77790  0.77915  1.0000
  C   C100      1.0  0.37015  0.75705  0.70053  1.0000
  C  Sn32      1.0  0.40186  0.77823  0.58914  1.0000
  O  Te29      1.0  0.44961  0.84299  0.44479  1.0000
  O  Te30      1.0  0.35466  0.84238  0.82273  1.0000
  O  Te31      1.0  0.32240  0.75609  0.89010  1.0000
  O  Te32      1.0  0.41738  0.75672  0.51211  1.0000
  Mg  Mg15      1.0  0.31149  0.79907  0.96414  1.0000
  Mg  Mg16      1.0  0.46057  0.80001  0.37075  1.0000
  C  Sn33      1.0  0.20505  0.62765  0.60099  1.0000
  C   C101      1.0  0.23754  0.62196  0.67338  1.0000
  C  Sn34      1.0  0.22924  0.58284  0.73398  1.0000
  C  Sn35      1.0  0.18760  0.54870  0.72190  1.0000
  C   C102      1.0  0.15514  0.55439  0.64952  1.0000
  C  Sn36      1.0  0.16341  0.59351  0.58890  1.0000
  O  Te33      1.0  0.21407  0.66703  0.54123  1.0000
  O  Te34      1.0  0.26223  0.57792  0.80589  1.0000
  O  Te35      1.0  0.17860  0.50930  0.78174  1.0000
  O  Te36      1.0  0.13045  0.59844  0.51701  1.0000
  Mg  Mg17      1.0  0.23414  0.51821  0.86918  1.0000
  Mg  Mg18      1.0  0.15851  0.65812  0.45361  1.0000
  C  Sn37      1.0  0.56280  0.34863  0.85514  1.0000
  C   C103      1.0  0.60293  0.36470  0.79785  1.0000
  C  Sn38      1.0  0.62675  0.40670  0.75338  1.0000
  C  Sn39      1.0  0.61012  0.43319  0.76652  1.0000
  C   C104      1.0  0.57002  0.41713  0.82380  1.0000
  C  Sn40      1.0  0.54617  0.37513  0.86828  1.0000
  O  Te37      1.0  0.53954  0.30655  0.89892  1.0000
  O  Te38      1.0  0.66679  0.42204  0.69639  1.0000
  O  Te39      1.0  0.63341  0.47530  0.72267  1.0000
  O  Te40      1.0  0.50616  0.35979  0.92527  1.0000
  Mg  Mg19      1.0  0.68636  0.48158  0.65187  1.0000
  Mg  Mg20      1.0  0.48657  0.30026  0.96989  1.0000
  C  Sn41      1.0  0.62673  0.18800  0.93208  1.0000
  C   C105      1.0  0.59052  0.16098  0.83728  1.0000
  C  Sn42      1.0  0.57303  0.17648  0.71295  1.0000
  C  Sn43      1.0  0.59214  0.21989  0.68266  1.0000
  C   C106      1.0  0.62834  0.24689  0.77740  1.0000
  C  Sn44      1.0  0.64585  0.23141  0.90179  1.0000
  O  Te41      1.0  0.62854  0.17793  0.05572  1.0000
  O  Te42      1.0  0.53680  0.14885  0.61984  1.0000
  O  Te43      1.0  0.57516  0.23606  0.55889  1.0000
  O  Te44      1.0  0.68206  0.25901  0.99484  1.0000
  Mg  Mg21      1.0  0.52554  0.18592  0.46513  1.0000
  Mg  Mg22      1.0  0.67822  0.22810  0.14951  1.0000
  C  Sn45      1.0  0.81420  0.43989  0.96351  1.0000
  C   C107      1.0  0.84158  0.43232  0.88258  1.0000
  C  Sn46      1.0  0.82595  0.40121  0.76485  1.0000
  C  Sn47      1.0  0.78204  0.37719  0.72714  1.0000
  C   C108      1.0  0.75469  0.38478  0.80801  1.0000
  C  Sn48      1.0  0.77029  0.41587  0.92579  1.0000
  O  Te45      1.0  0.81539  0.47726  0.08076  1.0000
  O  Te46      1.0  0.85394  0.39421  0.68562  1.0000
  O  Te47      1.0  0.76573  0.34592  0.60978  1.0000
  O  Te48      1.0  0.72719  0.42900  0.00497  1.0000
  Mg  Mg23      1.0  0.81650  0.34815  0.53507  1.0000
  Mg  Mg24      1.0  0.76459  0.47506  0.15547  1.0000
