data_image0
_chemical_formula_structural       H48C78N12O24C2Sn2C2HTe2HMgC2Sn2C2HTe2HMgC2Sn2C2HTe2HMgC2Sn2C2HTe2HMgC2Sn2C2HTe2HMgC2Sn2C2HTe2HMgC2Sn2C2HTe2HMgC2Sn2C2HTe2HMgC2Sn2C2HTe2HMgC2Sn2C2HTe2HMgC2Sn2C2HTe2HMgC2Sn2C2HTe2HMg
_chemical_formula_sum              "H72 C126 N12 O24 Sn24 Te24 Mg12"
_cell_length_a       37.6884
_cell_length_b       37.7865
_cell_length_c       7.9479
_cell_angle_alpha    89.5656
_cell_angle_beta     89.5752
_cell_angle_gamma    120.317

_symmetry_space_group_name_H-M    'P1'
_space_group_IT_number       1

loop_
  _space_group_symop_operation_xyz
  'x, y, z'

loop_
  _atom_site_type_symbol
  _atom_site_label
  _atom_site_symmetry_multiplicity
  _atom_site_fract_x
  _atom_site_fract_y
  _atom_site_fract_z
  _atom_site_occupancy
  H   H1        1.0  0.29756  0.58945  0.24810  1.0000
  H   H2        1.0  0.41078  0.70492  0.26102  1.0000
  H   H3        1.0  0.29532  0.70192  0.25316  1.0000
  H   H4        1.0  0.43222  0.45241  0.13639  1.0000
  H   H5        1.0  0.54412  0.97749  0.10572  1.0000
  H   H6        1.0  0.02285  0.56741  0.11837  1.0000
  H   H7        1.0  0.48391  0.43017  0.15418  1.0000
  H   H8        1.0  0.56502  0.05133  0.10825  1.0000
  H   H9        1.0  0.94847  0.51583  0.13994  1.0000
  H   H10       1.0  0.70176  0.40710  0.27658  1.0000
  H   H11       1.0  0.58906  0.29136  0.26577  1.0000
  H   H12       1.0  0.70497  0.29528  0.25021  1.0000
  H   H13       1.0  0.56765  0.58702  0.05166  1.0000
  H   H14       1.0  0.40833  0.97982  0.06102  1.0000
  H   H15       1.0  0.02062  0.43544  0.08364  1.0000
  H   H16       1.0  0.59125  0.61844  0.37493  1.0000
  H   H17       1.0  0.37818  0.96697  0.38170  1.0000
  H   H18       1.0  0.02875  0.41148  0.39190  1.0000
  H   H19       1.0  0.47451  0.57650  0.33342  1.0000
  H   H20       1.0  0.42205  0.89424  0.33443  1.0000
  H   H21       1.0  0.10441  0.52716  0.33982  1.0000
  H   H22       1.0  0.52550  0.42135  0.35167  1.0000
  H   H23       1.0  0.57474  0.10100  0.30098  1.0000
  H   H24       1.0  0.89559  0.47449  0.34210  1.0000
  H   H25       1.0  0.29970  0.59257  0.75581  1.0000
  H   H26       1.0  0.41124  0.70944  0.76994  1.0000
  H   H27       1.0  0.29433  0.70339  0.76256  1.0000
  H   H28       1.0  0.43139  0.45560  0.64901  1.0000
  H   H29       1.0  0.54193  0.98015  0.60408  1.0000
  H   H30       1.0  0.02364  0.56480  0.62002  1.0000
  H   H31       1.0  0.48279  0.43272  0.65408  1.0000
  H   H32       1.0  0.56352  0.05418  0.60906  1.0000
  H   H33       1.0  0.94907  0.51287  0.63821  1.0000
  H   H34       1.0  0.70428  0.41097  0.77119  1.0000
  H   H35       1.0  0.59070  0.29622  0.74735  1.0000
  H   H36       1.0  0.70544  0.29790  0.75323  1.0000
  H   H37       1.0  0.56393  0.58544  0.55537  1.0000
  H   H38       1.0  0.41491  0.97761  0.54972  1.0000
  H   H39       1.0  0.02306  0.43648  0.57687  1.0000
  H   H40       1.0  0.59330  0.62133  0.87222  1.0000
  H   H41       1.0  0.37850  0.97111  0.87066  1.0000
  H   H42       1.0  0.02978  0.40933  0.91127  1.0000
  H   H43       1.0  0.47638  0.58054  0.84366  1.0000
  H   H44       1.0  0.42091  0.89748  0.84487  1.0000
  H   H45       1.0  0.10523  0.52407  0.83671  1.0000
  H   H46       1.0  0.52969  0.42708  0.85723  1.0000
  H   H47       1.0  0.57526  0.10455  0.81150  1.0000
  H   H48       1.0  0.89792  0.47243  0.84922  1.0000
  C   C1        1.0  0.29126  0.64302  0.24964  1.0000
  C   C2        1.0  0.35696  0.64454  0.25381  1.0000
  C   C3        1.0  0.35569  0.70870  0.25765  1.0000
  C   C4        1.0  0.31384  0.62277  0.25023  1.0000
  C   C5        1.0  0.37738  0.68752  0.25770  1.0000
  C   C6        1.0  0.31262  0.68599  0.25319  1.0000
  C   C7        1.0  0.43880  0.52315  0.20789  1.0000
  C   C8        1.0  0.47503  0.91280  0.19909  1.0000
  C   C9        1.0  0.08724  0.56158  0.20036  1.0000
  C   C10       1.0  0.47139  0.51213  0.23474  1.0000
  C   C11       1.0  0.48511  0.95630  0.21847  1.0000
  C   C12       1.0  0.04316  0.52966  0.23445  1.0000
  C   C13       1.0  0.46269  0.47264  0.18594  1.0000
  C   C14       1.0  0.52383  0.98746  0.15722  1.0000
  C   C15       1.0  0.01237  0.53762  0.17727  1.0000
  C   C16       1.0  0.49179  0.46053  0.19701  1.0000
  C   C17       1.0  0.53521  0.02856  0.15986  1.0000
  C   C18       1.0  0.97081  0.50854  0.19039  1.0000
  C   C19       1.0  0.70874  0.35402  0.26390  1.0000
  C   C20       1.0  0.64265  0.35179  0.26981  1.0000
  C   C21       1.0  0.64448  0.28809  0.25605  1.0000
  C   C22       1.0  0.68577  0.37384  0.27035  1.0000
  C   C23       1.0  0.62248  0.30891  0.26402  1.0000
  C   C24       1.0  0.68757  0.31107  0.25570  1.0000
  C   C25       1.0  0.56560  0.47696  0.24471  1.0000
  C   C26       1.0  0.51835  0.08530  0.20808  1.0000
  C   C27       1.0  0.91282  0.43485  0.25050  1.0000
  C   C28       1.0  0.53211  0.48711  0.25494  1.0000
  C   C29       1.0  0.50839  0.04175  0.21995  1.0000
  C   C30       1.0  0.95663  0.46881  0.25888  1.0000
  C   C31       1.0  0.54030  0.52573  0.30444  1.0000
  C   C32       1.0  0.47036  0.01099  0.27968  1.0000
  C   C33       1.0  0.98701  0.46143  0.31755  1.0000
  C   C34       1.0  0.51071  0.53750  0.29603  1.0000
  C   C35       1.0  0.45953  0.96980  0.28158  1.0000
  C   C36       1.0  0.02866  0.49111  0.30758  1.0000
  C   C37       1.0  0.56745  0.58783  0.41778  1.0000
  C   C38       1.0  0.40986  0.97591  0.41323  1.0000
  C   C39       1.0  0.02187  0.43461  0.43910  1.0000
  C   C40       1.0  0.29176  0.64506  0.75775  1.0000
  C   C41       1.0  0.35840  0.64849  0.76224  1.0000
  C   C42       1.0  0.35526  0.71168  0.76599  1.0000
  C   C43       1.0  0.31531  0.62586  0.75815  1.0000
  C   C44       1.0  0.37787  0.69141  0.76611  1.0000
  C   C45       1.0  0.31220  0.68806  0.76205  1.0000
  C   C46       1.0  0.43946  0.52678  0.72173  1.0000
  C   C47       1.0  0.47351  0.91582  0.70647  1.0000
  C   C48       1.0  0.08759  0.55943  0.70649  1.0000
  C   C49       1.0  0.47192  0.51539  0.74332  1.0000
  C   C50       1.0  0.48416  0.95949  0.72801  1.0000
  C   C51       1.0  0.04366  0.52711  0.73846  1.0000
  C   C52       1.0  0.46243  0.47573  0.69336  1.0000
  C   C53       1.0  0.52241  0.99040  0.66127  1.0000
  C   C54       1.0  0.01299  0.53496  0.67883  1.0000
  C   C55       1.0  0.49137  0.46331  0.69641  1.0000
  C   C56       1.0  0.53417  0.03160  0.66500  1.0000
  C   C57       1.0  0.97147  0.50578  0.68970  1.0000
  C   C58       1.0  0.71033  0.35723  0.76213  1.0000
  C   C59       1.0  0.64484  0.35613  0.75905  1.0000
  C   C60       1.0  0.64555  0.29180  0.75006  1.0000
  C   C61       1.0  0.68795  0.37770  0.76429  1.0000
  C   C62       1.0  0.62410  0.31322  0.75144  1.0000
  C   C63       1.0  0.68859  0.31427  0.75471  1.0000
  C   C64       1.0  0.56571  0.47970  0.72293  1.0000
  C   C65       1.0  0.51850  0.08887  0.72239  1.0000
  C   C66       1.0  0.91343  0.43247  0.74813  1.0000
  C   C67       1.0  0.53245  0.48996  0.74554  1.0000
  C   C68       1.0  0.50824  0.04519  0.73209  1.0000
  C   C69       1.0  0.95734  0.46600  0.75689  1.0000
  C   C70       1.0  0.54140  0.52864  0.79713  1.0000
  C   C71       1.0  0.47054  0.01468  0.79602  1.0000
  C   C72       1.0  0.98759  0.45854  0.81612  1.0000
  C   C73       1.0  0.51186  0.54055  0.79901  1.0000
  C   C74       1.0  0.45945  0.97340  0.79754  1.0000
  C   C75       1.0  0.02919  0.48854  0.81139  1.0000
  C   C76       1.0  0.56997  0.59040  0.91396  1.0000
  C   C77       1.0  0.40859  0.97954  0.92298  1.0000
  C   C78       1.0  0.02165  0.43235  0.94671  1.0000
  N   N1        1.0  0.44762  0.56061  0.27031  1.0000
  N   N2        1.0  0.43795  0.88361  0.26858  1.0000
  N   N3        1.0  0.11575  0.55295  0.26698  1.0000
  N   N4        1.0  0.55324  0.43695  0.29199  1.0000
  N   N5        1.0  0.55863  0.11315  0.24917  1.0000
  N   N6        1.0  0.88433  0.44664  0.28784  1.0000
  N   N7        1.0  0.44931  0.56481  0.78160  1.0000
  N   N8        1.0  0.43666  0.88675  0.77857  1.0000
  N   N9        1.0  0.11632  0.55052  0.76828  1.0000
  N   N10       1.0  0.55550  0.44130  0.78407  1.0000
  N   N11       1.0  0.55930  0.11662  0.75748  1.0000
  N   N12       1.0  0.88573  0.44485  0.79192  1.0000
  O   O1        1.0  0.52836  0.57830  0.34360  1.0000
  O   O2        1.0  0.41945  0.94616  0.34263  1.0000
  O   O3        1.0  0.05176  0.47453  0.36761  1.0000
  O   O4        1.0  0.57712  0.55799  0.35731  1.0000
  O   O5        1.0  0.43760  0.01472  0.33508  1.0000
  O   O6        1.0  0.98205  0.42527  0.38245  1.0000
  O   O7        1.0  0.40712  0.49992  0.13131  1.0000
  O   O8        1.0  0.49857  0.90499  0.12020  1.0000
  O   O9        1.0  0.09601  0.59224  0.11337  1.0000
  O   O10       1.0  0.60012  0.50202  0.19088  1.0000
  O   O11       1.0  0.49292  0.09459  0.16257  1.0000
  O   O12       1.0  0.90381  0.40011  0.20729  1.0000
  O   O13       1.0  0.53006  0.58117  0.84995  1.0000
  O   O14       1.0  0.42017  0.95006  0.86624  1.0000
  O   O15       1.0  0.05209  0.47193  0.87437  1.0000
  O   O16       1.0  0.57908  0.56112  0.84217  1.0000
  O   O17       1.0  0.43893  0.01916  0.85863  1.0000
  O   O18       1.0  0.98277  0.42195  0.87559  1.0000
  O   O19       1.0  0.40713  0.50346  0.64930  1.0000
  O   O20       1.0  0.49639  0.90771  0.62408  1.0000
  O   O21       1.0  0.09615  0.59062  0.62377  1.0000
  O   O22       1.0  0.59809  0.50349  0.64914  1.0000
  O   O23       1.0  0.49293  0.09839  0.68198  1.0000
  O   O24       1.0  0.90378  0.39796  0.69935  1.0000
  C   C79       1.0  0.43935  0.62744  0.34950  1.0000
  C   C80       1.0  0.42832  0.58882  0.28667  1.0000
  C  Sn1       1.0  0.39212  0.56672  0.19595  1.0000
  C  Sn2       1.0  0.36656  0.58368  0.16777  1.0000
  C   C81       1.0  0.37788  0.62235  0.23106  1.0000
  C   C82       1.0  0.41417  0.64419  0.32172  1.0000
  H   H49       1.0  0.46744  0.64435  0.41957  1.0000
  O  Te1       1.0  0.38156  0.52818  0.13411  1.0000
  O  Te2       1.0  0.33022  0.56226  0.07747  1.0000
  H   H50       1.0  0.42271  0.67410  0.37026  1.0000
  Mg  Mg1       1.0  0.32898  0.51083  0.01858  1.0000
  C   C83       1.0  0.37141  0.80748  0.35424  1.0000
  C   C84       1.0  0.41041  0.83582  0.29081  1.0000
  C  Sn3       1.0  0.43344  0.82246  0.20137  1.0000
  C  Sn4       1.0  0.41704  0.77993  0.17511  1.0000
  C   C85       1.0  0.37799  0.75182  0.23898  1.0000
  C   C86       1.0  0.35521  0.76552  0.32834  1.0000
  H   H51       1.0  0.35378  0.81808  0.42331  1.0000
  O  Te3       1.0  0.47236  0.85119  0.13891  1.0000
  O  Te4       1.0  0.43939  0.76574  0.08611  1.0000
  H   H52       1.0  0.32500  0.74357  0.37735  1.0000
  Mg  Mg2       1.0  0.49101  0.81680  0.02570  1.0000
  C   C87       1.0  0.21399  0.57347  0.35359  1.0000
  C   C88       1.0  0.24101  0.60893  0.26253  1.0000
  C  Sn5       1.0  0.22591  0.62949  0.16662  1.0000
  C  Sn6       1.0  0.18295  0.61420  0.16208  1.0000
  C   C89       1.0  0.15618  0.57872  0.25372  1.0000
  C   C90       1.0  0.17161  0.55838  0.34923  1.0000
  H   H53       1.0  0.22592  0.55774  0.42757  1.0000
  O  Te5       1.0  0.25334  0.66487  0.07634  1.0000
  O  Te6       1.0  0.16704  0.63416  0.06730  1.0000
  H   H54       1.0  0.15069  0.53094  0.41981  1.0000
  Mg  Mg3       1.0  0.21361  0.67804  0.96568  1.0000
  C   C91       1.0  0.63453  0.42144  0.18437  1.0000
  C   C92       1.0  0.62471  0.38402  0.26003  1.0000
  C  Sn7       1.0  0.58766  0.36119  0.34887  1.0000
  C  Sn8       1.0  0.56001  0.37618  0.36197  1.0000
  C   C93       1.0  0.57011  0.41363  0.28572  1.0000
  C   C94       1.0  0.60726  0.43623  0.19716  1.0000
  H   H55       1.0  0.66327  0.43892  0.11577  1.0000
  O  Te7       1.0  0.57833  0.32388  0.42375  1.0000
  O  Te8       1.0  0.52277  0.35398  0.44996  1.0000
  H   H56       1.0  0.61485  0.46519  0.13850  1.0000
  Mg  Mg4       1.0  0.52385  0.30481  0.53029  1.0000
  C   C95       1.0  0.63812  0.21057  0.33717  1.0000
  C   C96       1.0  0.62837  0.23801  0.26131  1.0000
  C  Sn9       1.0  0.59112  0.22348  0.17796  1.0000
  C  Sn10      1.0  0.56318  0.18065  0.17067  1.0000
  C   C97       1.0  0.57321  0.15344  0.24706  1.0000
  C   C98       1.0  0.61057  0.16832  0.33009  1.0000
  H   H57       1.0  0.66702  0.22208  0.40150  1.0000
  O  Te9       1.0  0.58187  0.25132  0.10280  1.0000
  O  Te10      1.0  0.52573  0.16529  0.08824  1.0000
  H   H58       1.0  0.61810  0.14706  0.38891  1.0000
  Mg  Mg5       1.0  0.52703  0.21546  0.00512  1.0000
  C   C99       1.0  0.81127  0.37579  0.18093  1.0000
  C   C100      1.0  0.83725  0.41384  0.25294  1.0000
  C  Sn11      1.0  0.82081  0.43405  0.34237  1.0000
  C  Sn12      1.0  0.77755  0.41576  0.35985  1.0000
  C   C101      1.0  0.75182  0.37767  0.28743  1.0000
  C   C102      1.0  0.76859  0.35771  0.19817  1.0000
  H   H59       1.0  0.82424  0.36033  0.11194  1.0000
  O  Te11      1.0  0.84721  0.47206  0.41346  1.0000
  O  Te12      1.0  0.76030  0.43529  0.44862  1.0000
  H   H60       1.0  0.74847  0.32824  0.14252  1.0000
  Mg  Mg6       1.0  0.80900  0.48667  0.52268  1.0000
  C   C103      1.0  0.37834  0.56737  0.67938  1.0000
  C   C104      1.0  0.41702  0.57953  0.74571  1.0000
  C  Sn13      1.0  0.43858  0.61659  0.83074  1.0000
  C  Sn14      1.0  0.42101  0.64188  0.84956  1.0000
  C   C105      1.0  0.38229  0.62942  0.78285  1.0000
  C   C106      1.0  0.36098  0.59228  0.69794  1.0000
  H   H61       1.0  0.36184  0.53862  0.61376  1.0000
  O  Te13      1.0  0.47720  0.62828  0.89619  1.0000
  O  Te14      1.0  0.44189  0.67906  0.93404  1.0000
  H   H62       1.0  0.33102  0.58286  0.64669  1.0000
  Mg  Mg7       1.0  0.49685  0.68490  0.00104  1.0000
  C   C107      1.0  0.42356  0.79097  0.67282  1.0000
  C   C108      1.0  0.38722  0.76237  0.75511  1.0000
  C  Sn15      1.0  0.36443  0.77542  0.84817  1.0000
  C  Sn16      1.0  0.37835  0.81792  0.85878  1.0000
  C   C109      1.0  0.41472  0.84629  0.77590  1.0000
  C   C110      1.0  0.43730  0.83289  0.68317  1.0000
  H   H63       1.0  0.44101  0.78061  0.60100  1.0000
  O  Te15      1.0  0.32820  0.74644  0.92965  1.0000
  O  Te16      1.0  0.35616  0.83181  0.95087  1.0000
  H   H64       1.0  0.46541  0.85504  0.61938  1.0000
  Mg  Mg8       1.0  0.31187  0.78367  0.03984  1.0000
  C   C111      1.0  0.19217  0.55938  0.84335  1.0000
  C   C112      1.0  0.16414  0.57006  0.78185  1.0000
  C  Sn17      1.0  0.17807  0.60703  0.69418  1.0000
  C  Sn18      1.0  0.22087  0.63373  0.66774  1.0000
  C   C113      1.0  0.24867  0.62275  0.72966  1.0000
  C   C114      1.0  0.23439  0.58569  0.81727  1.0000
  H   H65       1.0  0.18113  0.53069  0.91105  1.0000
  O  Te17      1.0  0.14965  0.61724  0.63364  1.0000
  O  Te18      1.0  0.23564  0.67086  0.58048  1.0000
  H   H66       1.0  0.25610  0.57742  0.86477  1.0000
  Mg  Mg9       1.0  0.18481  0.67120  0.52235  1.0000
  C   C115      1.0  0.56237  0.37302  0.86104  1.0000
  C   C116      1.0  0.57400  0.41216  0.79915  1.0000
  C  Sn19      1.0  0.61065  0.43468  0.70749  1.0000
  C  Sn20      1.0  0.63607  0.41762  0.67740  1.0000
  C   C117      1.0  0.62415  0.37842  0.73975  1.0000
  C   C118      1.0  0.58742  0.35616  0.83136  1.0000
  H   H67       1.0  0.53394  0.35578  0.93185  1.0000
  O  Te19      1.0  0.62181  0.47375  0.64661  1.0000
  O  Te20      1.0  0.67285  0.43945  0.58612  1.0000
  H   H68       1.0  0.57841  0.32584  0.87918  1.0000
  Mg  Mg10      1.0  0.67483  0.49153  0.52915  1.0000
  C   C119      1.0  0.62699  0.19151  0.84340  1.0000
  C   C120      1.0  0.58850  0.16423  0.77729  1.0000
  C  Sn21      1.0  0.56725  0.17892  0.68385  1.0000
  C  Sn22      1.0  0.58495  0.22174  0.65626  1.0000
  C   C121      1.0  0.62349  0.24878  0.72284  1.0000
  C   C122      1.0  0.64448  0.23375  0.81620  1.0000
  H   H69       1.0  0.64324  0.17989  0.91556  1.0000
  O  Te21      1.0  0.52882  0.15124  0.61875  1.0000
  O  Te22      1.0  0.56440  0.23725  0.56329  1.0000
  H   H70       1.0  0.67429  0.25488  0.86728  1.0000
  Mg  Mg11      1.0  0.51278  0.18727  0.50042  1.0000
  C   C123      1.0  0.81156  0.37493  0.68936  1.0000
  C   C124      1.0  0.83846  0.41318  0.75773  1.0000
  C  Sn23      1.0  0.82309  0.43511  0.84145  1.0000
  C  Sn24      1.0  0.77997  0.41835  0.85683  1.0000
  C   C125      1.0  0.75332  0.38004  0.78810  1.0000
  C   C126      1.0  0.76903  0.35837  0.70454  1.0000
  H   H71       1.0  0.82372  0.35815  0.62479  1.0000
  O  Te23      1.0  0.85039  0.47329  0.90896  1.0000
  O  Te24      1.0  0.76378  0.43960  0.93992  1.0000
  H   H72       1.0  0.74820  0.32874  0.65171  1.0000
  Mg  Mg12      1.0  0.81664  0.49373  0.01076  1.0000
